data_PCOD8014984
_publ_section_title
;
Structure prediction by ZEFSAII (Michael W. Deem and Ramdas Pophale) SiO2 
 PCOD8014984
Probable space group: P -1
;
_chemical_formula_sum "Si O2"
_cell_formula_units_Z 14
_cell_length_a 9.705456
_cell_length_b 11.476532
_cell_length_c 11.339678
_cell_angle_alpha 92.487616
_cell_angle_beta 111.226673
_cell_angle_gamma 140.293428
_cell_volume 632.780959
_symmetry_space_group_name_H-M "P -1"
_symmetry_group_IT_number 2
_symmetry_cell_setting 'triclinic'
loop_
_space_group_symop_operation_xyz
x,y,z
-x,-y,-z
loop_
_atom_site_type_symbol
_atom_site_label
_atom_site_fract_x
_atom_site_fract_y
_atom_site_fract_z
Si Si1 0.359702 0.033360 0.471480
Si Si2 0.768434 0.510298 0.629165
Si Si3 0.807337 0.592135 0.383891
Si Si4 0.678201 0.576223 0.837985
Si Si5 0.183814 0.537723 0.982748
Si Si6 0.704878 0.287818 0.210477
Si Si7 0.834225 0.100867 0.840688
O O1 0.570732 0.270952 0.594586
O O2 0.500000 0.000000 0.500000
O O3 0.255319 0.020645 0.313609
O O4 0.103663 0.850807 0.473667
O O5 0.704050 0.525526 0.483722
O O6 0.753771 0.602081 0.726369
O O7 0.077715 0.670640 0.722591
O O8 0.582721 0.513611 0.234354
O O9 0.819061 0.468279 0.334794
O O10 0.615946 0.408384 0.871456
O O11 0.931872 0.805519 0.000130
O O12 0.359064 0.716201 0.943650
O O13 0.954526 0.303331 0.839018
O O14 0.000000 0.500000 0.000000
O O15 0.427929 0.050552 0.165638
#
# Coordination Sequence:
#
# PCOD8014984 Si02
#       7
#     2   2   2   2   2   2   2
#     4  12  23  41  70  99 126 167 227 271 315 384
#     4  12  24  44  65  97 134 170 218 271 320 386
#     4  12  24  43  68  95 132 175 216 268 326 384
#     4  10  26  45  62  97 140 167 213 272 329 383
#     4  10  21  42  64  93 133 164 212 271 316 381
#     4  12  21  41  73  96 123 173 222 265 322 382
#     4  10  23  41  65 102 125 166 222 264 322 384
#
# _framework density 22.124559000000001
#
# number of rings (size 3 to 8) (size 9 to 14) (size 15 to 20)
#    0.857    0.000    5.714    1.714    0.000    5.714 
#    5.143    0.000    0.000    0.000    0.000    0.000 
#    0.000    0.000    0.000    0.000    0.000    0.000 
#
# Total GULP energy -173494.522112 kJ/mol
# GULP energy per Si atom -12392.465865 kJ/mol
# Density = 2.207420 g / cm^3
# Si number density = 22.124559 Si / 1000 Ang^3
#
#
#
# Elastic Constant Matrix: (Units=GPa)
#
#
# Indices 1 2 3 4 5 6 
#
# 1 49.5967 9.9098 10.6247 0.5276 12.6388 7.6006
# 2 9.9098 82.6576 20.1043 3.4105 12.9860 15.1808
# 3 10.6247 20.1043 86.9554 -11.7676 7.7137 5.1754
# 4 0.5276 3.4105 -11.7676 38.3689 11.1079 1.3170
# 5 12.6388 12.9860 7.7137 11.1079 40.4840 -2.6434
# 6 7.6006 15.1808 5.1754 1.3170 -2.6434 20.1522
#
#
#
# Elastic Compliance Matrix: (Units=1/GPa)
#
#
# Indices 1 2 3 4 5 6 
#
# 1 0.024152 0.000673 -0.001426 0.002062 -0.008738 -0.010531
# 2 0.000673 0.015745 -0.002530 -0.000166 -0.005528 -0.012179
# 3 -0.001426 -0.002530 0.013313 0.005201 -0.002817 -0.001685
# 4 0.002062 -0.000166 0.005201 0.030837 -0.010393 -0.005367
# 5 -0.008738 -0.005528 -0.002817 -0.010393 0.033456 0.013251
# 6 -0.010531 -0.012179 -0.001685 -0.005367 0.013251 0.065291
#
#
# Mechanical properties :
#
#
# Convention : Reuss Voigt Hill
#
# Bulk Modulus (GPa) = 21.43838 33.38747 27.41292
# Shear Modulus (GPa) = 24.40126 31.70573 28.05349
#
# Velocity S-wave (km/s) = 3.32460 3.78968 3.56473
# Velocity P-wave (km/s) = 4.94451 5.85426 5.41851
#
# Compressibility (1/GPa) = 0.04664532
#
# Stress axis : x y z
#
# Youngs Moduli (GPa) = 41.40422 63.51263 75.11296
#
# Poissons Ratio (x) = -0.04274 0.10709
# Poissons Ratio (y) = -0.02786 0.19001
# Poissons Ratio (z) = 0.05903 0.16067
#
# Static dielectric constant tensor:
#      x y z
#    x 3.771300 -0.109170 -0.343170 
#    y -0.109170 4.211090 0.237510 
#    z -0.343170 0.237510 4.794420 
# 
# 
# High freq. dielectric constant tensor:
#      x y z
#    x 1.847780 0.011660 0.001760 
#    y 0.011660 1.867790 -0.012810 
#    z 0.001760 -0.012810 1.879280 
# 
# From -- ./inp_files/390252.got.cif
#   From: 2010.06.25/outbox.cif.g09.slc.cpg/sg2_196_cif.got.tgz:390252.got - 2010.06.27 13:26:56.
