data_PCOD8014781
_publ_section_title
;
Structure prediction by ZEFSAII (Michael W. Deem and Ramdas Pophale) SiO2 
 PCOD8014781
Probable space group: P -1
;
_chemical_formula_sum "Si O2"
_cell_formula_units_Z 16
_cell_length_a 15.008542
_cell_length_b 12.062813
_cell_length_c 18.098514
_cell_angle_alpha 150.907149
_cell_angle_beta 31.435071
_cell_angle_gamma 129.896037
_cell_volume 757.533789
_symmetry_space_group_name_H-M "P -1"
_symmetry_group_IT_number 2
_symmetry_cell_setting 'triclinic'
loop_
_space_group_symop_operation_xyz
x,y,z
-x,-y,-z
loop_
_atom_site_type_symbol
_atom_site_label
_atom_site_fract_x
_atom_site_fract_y
_atom_site_fract_z
Si Si1 0.157856 0.331084 0.565719
Si Si2 0.968467 0.678376 0.196501
Si Si3 0.251076 0.801805 0.405334
Si Si4 0.771252 0.206943 0.825702
Si Si5 0.065899 0.211661 0.279228
Si Si6 0.524792 0.970346 0.051729
Si Si7 0.940558 0.794817 0.891496
Si Si8 0.334069 0.397850 0.988460
O O1 0.086943 0.444856 0.763967
O O2 0.080035 0.520196 0.661946
O O3 0.103927 0.088871 0.453474
O O4 0.384208 0.228254 0.340694
O O5 0.156083 0.725292 0.108502
O O6 0.797002 0.949465 0.464383
O O7 0.000000 0.500000 0.000000
O O8 0.081862 0.869996 0.622673
O O9 0.288826 0.552051 0.186848
O O10 0.449566 0.739926 0.268446
O O11 0.789079 0.406021 0.871632
O O12 0.551578 0.246497 0.003563
O O13 0.065918 0.151258 0.158855
O O14 0.000000 0.500000 0.500000
O O15 0.269185 0.083995 0.098430
O O16 0.500000 0.000000 0.000000
O O17 0.736427 0.823847 0.080657
O O18 0.000000 0.000000 0.000000
#
# Coordination Sequence:
#
# PCOD8014781 Si02
#       8
#     2   2   2   2   2   2   2   2
#     4  10  23  44  70  95 136 186 238 286 347 416
#     4  12  24  40  68 101 141 178 229 294 357 410
#     4  11  24  41  73 107 131 173 241 294 342 412
#     4  10  21  41  72  99 129 179 239 290 338 411
#     4  12  24  41  69 102 139 177 223 288 347 423
#     4  10  22  39  71 105 135 172 238 287 349 409
#     4  12  27  45  66  99 148 188 226 281 359 424
#     4  11  22  44  74 102 133 182 237 289 346 413
#
# _framework density 21.121171
#
# number of rings (size 3 to 8) (size 9 to 14) (size 15 to 20)
#    0.750    0.250    3.750    3.375    5.250    0.000 
#    0.000    6.875    0.000    0.000    0.000    0.000 
#    0.000    0.000    0.000    0.000    0.000    0.000 
#
# Total GULP energy -198233.523810 kJ/mol
# GULP energy per Si atom -12389.595238 kJ/mol
# Density = 2.107310 g / cm^3
# Si number density = 21.121171 Si / 1000 Ang^3
#
#
#
# Elastic Constant Matrix: (Units=GPa)
#
#
# Indices 1 2 3 4 5 6 
#
# 1 160.5831 63.8677 71.1702 -13.4539 -4.5899 1.5926
# 2 63.8677 109.4147 45.1643 -7.9089 -3.4636 -0.3283
# 3 71.1702 45.1643 94.1962 -24.0121 -20.0151 10.1259
# 4 -13.4539 -7.9089 -24.0121 31.8881 -0.2260 2.5490
# 5 -4.5899 -3.4636 -20.0151 -0.2260 40.7707 1.2701
# 6 1.5926 -0.3283 10.1259 2.5490 1.2701 38.2002
#
#
#
# Elastic Compliance Matrix: (Units=1/GPa)
#
#
# Indices 1 2 3 4 5 6 
#
# 1 0.010789 -0.003218 -0.008133 -0.002548 -0.003126 0.001952
# 2 -0.003218 0.012776 -0.004702 -0.001875 -0.001648 0.001670
# 3 -0.008133 -0.004702 0.026589 0.016168 0.012084 -0.008230
# 4 -0.002548 -0.001875 0.016168 0.042635 0.007955 -0.007305
# 5 -0.003126 -0.001648 0.012084 0.007955 0.030156 -0.004620
# 6 0.001952 0.001670 -0.008230 -0.007305 -0.004620 0.028933
#
#
# Mechanical properties :
#
#
# Convention : Reuss Voigt Hill
#
# Bulk Modulus (GPa) = 55.40368 80.51095 67.95731
# Shear Modulus (GPa) = 26.31571 34.43790 30.37681
#
# Velocity S-wave (km/s) = 3.53362 4.04232 3.79650
# Velocity P-wave (km/s) = 6.55262 7.74522 7.17375
#
# Compressibility (1/GPa) = 0.01804934
#
# Stress axis : x y z
#
# Youngs Moduli (GPa) = 92.68288 78.26990 37.60957
#
# Poissons Ratio (x) = 0.25190 0.30586
# Poissons Ratio (y) = 0.29829 0.17683
# Poissons Ratio (z) = 0.75375 0.36800
#
# Static dielectric constant tensor:
#      x y z
#    x 3.684300 0.019260 -0.258930 
#    y 0.019260 4.548000 -0.360920 
#    z -0.258930 -0.360920 3.654220 
# 
# 
# High freq. dielectric constant tensor:
#      x y z
#    x 1.829280 -0.012950 -0.024180 
#    y -0.012950 1.833190 -0.017080 
#    z -0.024180 -0.017080 1.809100 
# 
# From -- ./inp_files/573497.got.cif
#   From: 2010.06.25/outbox.cif.g09.slc.cpg/sg2_287_cif.got.tgz:573497.got - 2010.06.27 13:26:56.
