data_PCOD8014067
_publ_section_title
;
Structure prediction by ZEFSAII (Michael W. Deem and Ramdas Pophale) SiO2 
 PCOD8014067
Probable space group: P -1
;
_chemical_formula_sum "Si O2"
_cell_formula_units_Z 14
_cell_length_a 22.072902
_cell_length_b 22.302074
_cell_length_c 12.638521
_cell_angle_alpha 159.877977
_cell_angle_beta 152.349845
_cell_angle_gamma 16.595493
_cell_volume 605.028855
_symmetry_space_group_name_H-M "P -1"
_symmetry_group_IT_number 2
_symmetry_cell_setting 'triclinic'
loop_
_space_group_symop_operation_xyz
x,y,z
-x,-y,-z
loop_
_atom_site_type_symbol
_atom_site_label
_atom_site_fract_x
_atom_site_fract_y
_atom_site_fract_z
Si Si1 0.321176 0.626195 0.545982
Si Si2 0.142738 0.223082 0.690975
Si Si3 0.094785 0.925479 0.243262
Si Si4 0.254482 0.658796 0.264141
Si Si5 0.720396 0.745294 0.358234
Si Si6 0.512237 0.925932 0.116335
Si Si7 0.074071 0.582091 0.548011
O O1 0.183384 0.784437 0.483297
O O2 0.483425 0.617630 0.783949
O O3 0.471266 0.297273 0.250439
O O4 0.163222 0.801331 0.691898
O O5 0.375702 0.069527 0.790843
O O6 0.029364 0.301065 0.533802
O O7 0.181833 0.996724 0.431625
O O8 0.000000 0.500000 0.000000
O O9 0.183772 0.855297 0.383738
O O10 0.165317 0.674491 0.876156
O O11 0.176267 0.546888 0.928806
O O12 0.667954 0.790732 0.230366
O O13 0.904460 0.699660 0.572184
O O14 0.500000 0.000000 0.500000
O O15 0.268161 0.238449 0.276896
#
# Coordination Sequence:
#
# PCOD8014067 Si02
#       7
#     2   2   2   2   2   2   2
#     4  10  22  41  64  97 134 173 218 269 324 394
#     4  11  25  46  69  94 131 175 227 276 321 391
#     4  12  24  42  67  97 131 175 219 273 329 385
#     4  10  23  37  64  98 131 172 220 268 320 393
#     4  10  21  41  64  95 138 171 211 265 329 397
#     4  10  23  42  66  96 129 173 220 269 326 390
#     4  11  26  42  69 100 133 173 220 273 332 384
#
# _framework density 23.139392000000001
#
# number of rings (size 3 to 8) (size 9 to 14) (size 15 to 20)
#    0.000    1.429    1.429    2.571    2.000    9.143 
#    0.000    0.000    0.000    0.000    0.000    0.000 
#    0.000    0.000    0.000    0.000    0.000    0.000 
#
# Total GULP energy -173510.143738 kJ/mol
# GULP energy per Si atom -12393.581696 kJ/mol
# Density = 2.308673 g / cm^3
# Si number density = 23.139392 Si / 1000 Ang^3
#
#
#
# Elastic Constant Matrix: (Units=GPa)
#
#
# Indices 1 2 3 4 5 6 
#
# 1 112.1037 23.3783 32.5582 0.3796 17.7804 -6.2527
# 2 23.3783 52.1929 15.5418 2.1222 2.9364 5.4919
# 3 32.5582 15.5418 93.4552 0.4658 10.8024 7.9793
# 4 0.3796 2.1222 0.4658 33.9812 -6.3935 2.1336
# 5 17.7804 2.9364 10.8024 -6.3935 40.0199 8.1032
# 6 -6.2527 5.4919 7.9793 2.1336 8.1032 39.3249
#
#
#
# Elastic Compliance Matrix: (Units=1/GPa)
#
#
# Indices 1 2 3 4 5 6 
#
# 1 0.011815 -0.004475 -0.003140 -0.001035 -0.005099 0.004247
# 2 -0.004475 0.022084 -0.001972 -0.000787 0.001517 -0.003665
# 3 -0.003140 -0.001972 0.012490 -0.000111 -0.001348 -0.002474
# 4 -0.001035 -0.000787 -0.000111 0.030818 0.006070 -0.002955
# 5 -0.005099 0.001517 -0.001348 0.006070 0.029943 -0.007248
# 6 0.004247 -0.003665 -0.002474 -0.002955 -0.007248 0.028772
#
#
# Mechanical properties :
#
#
# Convention : Reuss Voigt Hill
#
# Bulk Modulus (GPa) = 36.74540 44.52316 40.63428
# Shear Modulus (GPa) = 30.45699 35.08344 32.77021
#
# Velocity S-wave (km/s) = 3.63194 3.89804 3.76734
# Velocity P-wave (km/s) = 5.78813 6.28829 6.04339
#
# Compressibility (1/GPa) = 0.02721429
#
# Stress axis : x y z
#
# Youngs Moduli (GPa) = 84.64156 45.28236 80.06517
#
# Poissons Ratio (x) = 0.20264 0.25140
# Poissons Ratio (y) = 0.37877 0.15789
# Poissons Ratio (z) = 0.26577 0.08930
#
# Static dielectric constant tensor:
#      x y z
#    x 4.507700 -0.131980 0.202030 
#    y -0.131980 3.938590 -0.114030 
#    z 0.202030 -0.114030 4.069870 
# 
# 
# High freq. dielectric constant tensor:
#      x y z
#    x 1.926590 -0.008710 0.009450 
#    y -0.008710 1.908550 -0.004790 
#    z 0.009450 -0.004790 1.910510 
# 
# From -- ./inp_files/60681.got.cif
#   From: 2010.06.25/outbox.cif.g09.slc.cpg/sg2_31_cif.got.tgz:60681.got - 2010.06.27 13:26:56.
