data_PCOD8014737
_publ_section_title
;
Structure prediction by ZEFSAII (Michael W. Deem and Ramdas Pophale) SiO2 
 PCOD8014737
Probable space group: P -1
;
_chemical_formula_sum "Si O2"
_cell_formula_units_Z 14
_cell_length_a 11.332476
_cell_length_b 7.915181
_cell_length_c 11.391327
_cell_angle_alpha 67.902222
_cell_angle_beta 64.755952
_cell_angle_gamma 36.127871
_cell_volume 543.936400
_symmetry_space_group_name_H-M "P -1"
_symmetry_group_IT_number 2
_symmetry_cell_setting 'triclinic'
loop_
_space_group_symop_operation_xyz
x,y,z
-x,-y,-z
loop_
_atom_site_type_symbol
_atom_site_label
_atom_site_fract_x
_atom_site_fract_y
_atom_site_fract_z
Si Si1 0.798704 0.609582 0.674813
Si Si2 0.992939 0.026887 0.750931
Si Si3 0.416450 0.007243 0.906901
Si Si4 0.383263 0.793652 0.179104
Si Si5 0.654020 0.588493 0.307968
Si Si6 0.755917 0.758773 0.401543
Si Si7 0.711401 0.141320 0.165454
O O1 0.635917 0.770601 0.806527
O O2 0.699897 0.813013 0.549035
O O3 0.998382 0.508433 0.658009
O O4 0.877619 0.326476 0.668963
O O5 0.198664 0.746839 0.666249
O O6 0.069991 0.997610 0.858261
O O7 0.847825 0.008929 0.805168
O O8 0.285751 0.968756 0.930200
O O9 0.282633 0.329076 0.841652
O O10 0.432212 0.941442 0.058552
O O11 0.427160 0.769035 0.307923
O O12 0.534310 0.481717 0.142060
O O13 0.655200 0.685956 0.406619
O O14 0.657029 0.048979 0.313409
#
# Coordination Sequence:
#
# PCOD8014737 Si02
#       7
#     2   2   2   2   2   2   2
#     4  10  21  41  71  88 119 166 205 262 299 357
#     4  10  22  40  61  91 131 160 200 247 316 360
#     4  11  22  40  64  93 123 160 212 250 303 360
#     4  11  22  41  61  92 131 162 198 251 309 372
#     4  10  24  41  59  94 125 163 204 248 309 369
#     4   9  21  43  65  92 122 155 219 251 303 361
#     4   9  20  39  61  95 115 160 209 251 296 358
#
# _framework density 25.738305
#
# number of rings (size 3 to 8) (size 9 to 14) (size 15 to 20)
#    0.000    2.000    1.429    0.857    2.000    4.000 
#   12.857    0.714    0.000    0.000    0.000    0.000 
#    0.000    0.000    0.000    0.000    0.000    0.000 
#
# Total GULP energy -173438.961225 kJ/mol
# GULP energy per Si atom -12388.497230 kJ/mol
# Density = 2.567972 g / cm^3
# Si number density = 25.738305 Si / 1000 Ang^3
#
#
#
# Elastic Constant Matrix: (Units=GPa)
#
#
# Indices 1 2 3 4 5 6 
#
# 1 143.0180 20.0911 17.8996 25.3697 1.2710 -12.9301
# 2 20.0911 95.8735 21.5703 -15.9117 -4.1058 2.9446
# 3 17.8996 21.5703 77.5137 1.2355 8.7173 -16.6572
# 4 25.3697 -15.9117 1.2355 23.9533 0.8062 -9.6467
# 5 1.2710 -4.1058 8.7173 0.8062 27.0842 -5.3659
# 6 -12.9301 2.9446 -16.6572 -9.6467 -5.3659 37.0524
#
#
#
# Elastic Compliance Matrix: (Units=1/GPa)
#
#
# Indices 1 2 3 4 5 6 
#
# 1 0.010057 -0.004132 -0.000940 -0.013386 -0.000423 -0.000131
# 2 -0.004132 0.014616 -0.003725 0.014112 0.003160 -0.000146
# 3 -0.000940 -0.003725 0.016079 0.000538 -0.004384 0.006702
# 4 -0.013386 0.014112 0.000538 0.070506 0.003122 0.013258
# 5 -0.000423 0.003160 -0.004384 0.003122 0.039566 0.004173
# 6 -0.000131 -0.000146 0.006702 0.013258 0.004173 0.034024
#
#
# Mechanical properties :
#
#
# Convention : Reuss Voigt Hill
#
# Bulk Modulus (GPa) = 43.17938 48.39192 45.78565
# Shear Modulus (GPa) = 23.79137 34.74092 29.26615
#
# Velocity S-wave (km/s) = 3.04362 3.67791 3.37570
# Velocity P-wave (km/s) = 5.40039 6.07276 5.74642
#
# Compressibility (1/GPa) = 0.02315920
#
# Stress axis : x y z
#
# Youngs Moduli (GPa) = 99.43739 68.41697 62.19232
#
# Poissons Ratio (x) = 0.28268 0.05844
# Poissons Ratio (y) = 0.41085 0.23166
# Poissons Ratio (z) = 0.09344 0.25485
#
# Static dielectric constant tensor:
#      x y z
#    x 5.525680 0.001350 0.096380 
#    y 0.001350 4.486660 -0.435540 
#    z 0.096380 -0.435540 4.125750 
# 
# 
# High freq. dielectric constant tensor:
#      x y z
#    x 2.076810 0.001950 0.011590 
#    y 0.001950 2.019800 -0.036530 
#    z 0.011590 -0.036530 1.986720 
# 
# From -- ./inp_files/416477.got.cif
#   From: 2010.06.25/outbox.cif.g09.slc.cpg/sg2_209_cif.got.tgz:416477.got - 2010.06.27 13:26:56.
