data_PCOD8014799
_publ_section_title
;
Structure prediction by ZEFSAII (Michael W. Deem and Ramdas Pophale) SiO2 
 PCOD8014799
Probable space group: P -1
;
_chemical_formula_sum "Si O2"
_cell_formula_units_Z 16
_cell_length_a 11.492471
_cell_length_b 17.529794
_cell_length_c 9.762321
_cell_angle_alpha 38.653162
_cell_angle_beta 95.626235
_cell_angle_gamma 125.560847
_cell_volume 712.787654
_symmetry_space_group_name_H-M "P -1"
_symmetry_group_IT_number 2
_symmetry_cell_setting 'triclinic'
loop_
_space_group_symop_operation_xyz
x,y,z
-x,-y,-z
loop_
_atom_site_type_symbol
_atom_site_label
_atom_site_fract_x
_atom_site_fract_y
_atom_site_fract_z
Si Si1 0.686680 0.369732 0.806248
Si Si2 0.041936 0.363387 0.803444
Si Si3 0.046964 0.082541 0.239697
Si Si4 0.004346 0.483552 0.185835
Si Si5 0.383757 0.312319 0.352683
Si Si6 0.483256 0.433452 0.738708
Si Si7 0.649555 0.033759 0.814939
Si Si8 0.391168 0.047363 0.771351
O O1 0.819500 0.476261 0.533005
O O2 0.653768 0.475285 0.718456
O O3 0.774704 0.358312 0.951848
O O4 0.458495 0.136067 0.075678
O O5 0.084677 0.480666 0.780789
O O6 0.085472 0.260192 0.988578
O O7 0.812046 0.186811 0.979523
O O8 0.253979 0.191672 0.069242
O O9 0.000000 0.000000 0.500000
O O10 0.858495 0.880358 0.409046
O O11 0.885591 0.254836 0.512599
O O12 0.000000 0.500000 0.000000
O O13 0.461918 0.410359 0.373370
O O14 0.437046 0.215085 0.465829
O O15 0.500000 0.500000 0.000000
O O16 0.500000 0.500000 0.500000
O O17 0.568002 0.102667 0.692535
O O18 0.621612 0.940334 0.085269
#
# Coordination Sequence:
#
# PCOD8014799 Si02
#       8
#     2   2   2   2   2   2   2   2
#     4  12  25  46  71 105 145 185 240 294 351 434
#     4  11  22  47  74  97 143 184 241 293 353 431
#     4  11  25  45  74 107 138 195 243 293 361 431
#     4  12  28  46  68 105 144 185 232 301 365 423
#     4  11  25  45  72 104 144 190 237 295 361 424
#     4  12  26  45  70 106 148 188 240 298 355 424
#     4  11  23  40  72 104 133 180 236 288 356 420
#     4  10  21  41  74 104 130 181 244 289 343 429
#
# _framework density 22.447078999999999
#
# number of rings (size 3 to 8) (size 9 to 14) (size 15 to 20)
#    0.000    0.750    5.000    2.625    1.750    5.000 
#    0.000    0.000    0.000    0.000    0.000    0.000 
#    0.000    0.000    0.000    0.000    0.000    0.000 
#
# Total GULP energy -198324.016412 kJ/mol
# GULP energy per Si atom -12395.251026 kJ/mol
# Density = 2.239599 g / cm^3
# Si number density = 22.447079 Si / 1000 Ang^3
#
#
#
# Elastic Constant Matrix: (Units=GPa)
#
#
# Indices 1 2 3 4 5 6 
#
# 1 72.5737 25.1681 34.1629 11.8154 1.8081 4.0135
# 2 25.1681 131.9232 40.3061 -0.6513 -1.0621 2.5272
# 3 34.1629 40.3061 95.5630 0.5178 5.6248 -3.9495
# 4 11.8154 -0.6513 0.5178 46.9533 3.1066 1.9375
# 5 1.8081 -1.0621 5.6248 3.1066 35.2538 1.2964
# 6 4.0135 2.5272 -3.9495 1.9375 1.2964 29.7874
#
#
#
# Elastic Compliance Matrix: (Units=1/GPa)
#
#
# Indices 1 2 3 4 5 6 
#
# 1 0.017950 -0.001598 -0.005862 -0.004389 0.000456 -0.002795
# 2 -0.001598 0.008919 -0.003288 0.000548 0.000866 -0.001051
# 3 -0.005862 -0.003288 0.014197 0.001302 -0.002287 0.002966
# 4 -0.004389 0.000548 0.001302 0.022551 -0.001929 -0.000665
# 5 0.000456 0.000866 -0.002287 -0.001929 0.028961 -0.001573
# 6 -0.002795 -0.001051 0.002966 -0.000665 -0.001573 0.034542
#
#
# Mechanical properties :
#
#
# Convention : Reuss Voigt Hill
#
# Bulk Modulus (GPa) = 51.09588 55.48155 53.28872
# Shear Modulus (GPa) = 32.22904 35.76039 33.99472
#
# Velocity S-wave (km/s) = 3.79328 3.99569 3.89580
# Velocity P-wave (km/s) = 6.48055 6.78658 6.63533
#
# Compressibility (1/GPa) = 0.01957105
#
# Stress axis : x y z
#
# Youngs Moduli (GPa) = 55.70908 112.11472 70.43877
#
# Poissons Ratio (x) = 0.17917 0.41288
# Poissons Ratio (y) = 0.08903 0.23160
# Poissons Ratio (z) = 0.32654 0.36864
#
# Static dielectric constant tensor:
#      x y z
#    x 4.197690 0.368070 -0.357090 
#    y 0.368070 4.110270 -0.205410 
#    z -0.357090 -0.205410 4.164650 
# 
# 
# High freq. dielectric constant tensor:
#      x y z
#    x 1.879110 0.017590 0.009030 
#    y 0.017590 1.898060 -0.015820 
#    z 0.009030 -0.015820 1.881540 
# 
# From -- ./inp_files/278813.got.cif
#   From: 2010.06.25/outbox.cif.g09.slc.cpg/sg2_140_cif.got.tgz:278813.got - 2010.06.27 13:26:56.
