data_PCOD8014095
_publ_section_title
;
Structure prediction by ZEFSAII (Michael W. Deem and Ramdas Pophale) SiO2 
 PCOD8014095
Probable space group: P -1
;
_chemical_formula_sum "Si O2"
_cell_formula_units_Z 16
_cell_length_a 11.229413
_cell_length_b 11.212997
_cell_length_c 8.918293
_cell_angle_alpha 99.413311
_cell_angle_beta 140.834570
_cell_angle_gamma 80.033904
_cell_volume 697.731249
_symmetry_space_group_name_H-M "P -1"
_symmetry_group_IT_number 2
_symmetry_cell_setting 'triclinic'
loop_
_space_group_symop_operation_xyz
x,y,z
-x,-y,-z
loop_
_atom_site_type_symbol
_atom_site_label
_atom_site_fract_x
_atom_site_fract_y
_atom_site_fract_z
Si Si1 0.153811 0.352461 0.525615
Si Si2 0.103779 0.749001 0.226635
Si Si3 0.388642 0.890316 0.687923
Si Si4 0.188530 0.489641 0.282747
Si Si5 0.494243 0.154299 0.867321
Si Si6 0.661108 0.518508 0.039665
Si Si7 0.810180 0.265740 0.034361
Si Si8 0.676306 0.697188 0.838515
O O1 0.149088 0.435838 0.392695
O O2 0.345553 0.267577 0.717823
O O3 0.148606 0.446171 0.680230
O O4 0.977751 0.269284 0.323073
O O5 0.182197 0.858290 0.421398
O O6 0.243579 0.628479 0.378274
O O7 0.107463 0.772439 0.056008
O O8 0.891223 0.734771 0.071580
O O9 0.542693 0.819915 0.713519
O O10 0.397700 0.032954 0.704521
O O11 0.428993 0.850682 0.889624
O O12 0.344399 0.395557 0.338963
O O13 0.000000 0.500000 0.000000
O O14 0.672126 0.166547 0.933795
O O15 0.702637 0.399910 0.953878
O O16 0.500000 0.500000 0.000000
O O17 0.600953 0.630240 0.896741
#
# Coordination Sequence:
#
# PCOD8014095 Si02
#       8
#     2   2   2   2   2   2   2   2
#     4  12  24  43  71 102 141 175 220 278 337 404
#     4  11  25  43  71 100 134 183 222 273 344 404
#     4  11  27  48  69  92 135 182 233 284 331 394
#     4  10  21  41  65 102 140 166 211 266 336 412
#     4  11  28  48  65 100 132 178 238 281 333 392
#     4  12  24  41  68 108 139 173 219 270 344 405
#     4  12  24  44  69 102 140 175 220 281 340 402
#     4  11  22  45  67 100 137 177 223 269 342 407
#
# _framework density 22.931463999999998
#
# number of rings (size 3 to 8) (size 9 to 14) (size 15 to 20)
#    0.000    0.750    6.250    1.125    7.000    2.000 
#    0.000    3.750    0.000    0.000    0.000    0.000 
#    0.000    0.000    0.000    0.000    0.000    0.000 
#
# Total GULP energy -198346.200528 kJ/mol
# GULP energy per Si atom -12396.637533 kJ/mol
# Density = 2.287927 g / cm^3
# Si number density = 22.931464 Si / 1000 Ang^3
#
#
#
# Elastic Constant Matrix: (Units=GPa)
#
#
# Indices 1 2 3 4 5 6 
#
# 1 77.3804 12.5788 -4.4553 6.7102 5.6161 17.4073
# 2 12.5788 75.9755 20.8090 20.1780 -6.9651 16.2302
# 3 -4.4553 20.8090 77.6668 17.9813 -1.5131 16.9482
# 4 6.7102 20.1780 17.9813 37.0780 2.1278 1.9923
# 5 5.6161 -6.9651 -1.5131 2.1278 31.2934 3.9599
# 6 17.4073 16.2302 16.9482 1.9923 3.9599 32.0008
#
#
#
# Elastic Compliance Matrix: (Units=1/GPa)
#
#
# Indices 1 2 3 4 5 6 
#
# 1 0.016003 -0.000699 0.004214 -0.003940 -0.001268 -0.010181
# 2 -0.000699 0.018375 -0.000788 -0.009364 0.005911 -0.008670
# 3 0.004214 -0.000788 0.017717 -0.008444 0.001889 -0.010984
# 4 -0.003940 -0.009364 -0.008444 0.036666 -0.005514 0.009764
# 5 -0.001268 0.005911 0.001889 -0.005514 0.034887 -0.007282
# 6 -0.010181 -0.008670 -0.010984 0.009764 -0.007282 0.047295
#
#
# Mechanical properties :
#
#
# Convention : Reuss Voigt Hill
#
# Bulk Modulus (GPa) = 17.37616 32.09862 24.73739
# Shear Modulus (GPa) = 27.07511 33.54712 30.31112
#
# Velocity S-wave (km/s) = 3.43986 3.82898 3.63962
# Velocity P-wave (km/s) = 4.83432 5.79449 5.33605
#
# Compressibility (1/GPa) = 0.05755013
#
# Stress axis : x y z
#
# Youngs Moduli (GPa) = 62.48719 54.42240 56.44267
#
# Poissons Ratio (x) = 0.03803 -0.23787
# Poissons Ratio (y) = 0.04367 0.04448
# Poissons Ratio (z) = -0.26334 0.04288
#
# Static dielectric constant tensor:
#      x y z
#    x 4.118970 -0.043680 0.001910 
#    y -0.043680 4.253270 0.192900 
#    z 0.001910 0.192900 4.639320 
# 
# 
# High freq. dielectric constant tensor:
#      x y z
#    x 1.906270 0.002120 -0.001450 
#    y 0.002120 1.893890 0.014780 
#    z -0.001450 0.014780 1.912480 
# 
# From -- ./inp_files/259239.got.cif
#   From: 2010.06.25/outbox.cif.g09.slc.cpg/sg2_130_cif.got.tgz:259239.got - 2010.06.27 13:26:56.
