data_PCOD8014756
_publ_section_title
;
Structure prediction by ZEFSAII (Michael W. Deem and Ramdas Pophale) SiO2 
 PCOD8014756
Probable space group: P -1
;
_chemical_formula_sum "Si O2"
_cell_formula_units_Z 16
_cell_length_a 5.268770
_cell_length_b 24.542685
_cell_length_c 13.719738
_cell_angle_alpha 22.040463
_cell_angle_beta 85.515263
_cell_angle_gamma 86.861203
_cell_volume 662.965903
_symmetry_space_group_name_H-M "P -1"
_symmetry_group_IT_number 2
_symmetry_cell_setting 'triclinic'
loop_
_space_group_symop_operation_xyz
x,y,z
-x,-y,-z
loop_
_atom_site_type_symbol
_atom_site_label
_atom_site_fract_x
_atom_site_fract_y
_atom_site_fract_z
Si Si1 0.359739 0.517508 0.374410
Si Si2 0.239200 0.699544 0.500004
Si Si3 0.225052 0.003849 0.379680
Si Si4 0.056308 0.759471 0.916954
Si Si5 0.713553 0.901398 0.451194
Si Si6 0.044450 0.947676 0.194889
Si Si7 0.282933 0.390308 0.969324
Si Si8 0.765368 0.751737 0.289843
O O1 0.500000 0.500000 0.500000
O O2 0.224194 0.360510 0.614288
O O3 0.167291 0.648276 0.176521
O O4 0.533467 0.563434 0.201510
O O5 0.211229 0.803091 0.424409
O O6 0.491749 0.750510 0.350844
O O7 0.988391 0.712709 0.420746
O O8 0.248380 0.529226 0.810380
O O9 0.251475 0.892838 0.655522
O O10 0.484372 0.007150 0.303990
O O11 0.972532 0.950947 0.416361
O O12 0.190491 0.167536 0.148860
O O13 0.982962 0.664043 0.981745
O O14 0.613455 0.738619 0.754094
O O15 0.777980 0.906196 0.326109
O O16 0.185652 0.082299 0.025843
O O17 0.000000 0.000000 0.000000
#
# Coordination Sequence:
#
# PCOD8014756 Si02
#       8
#     2   2   2   2   2   2   2   2
#     4  11  23  41  69 102 146 189 229 283 347 422
#     4  10  21  41  71  98 132 180 225 296 344 412
#     4  10  24  41  70 101 137 186 231 284 346 409
#     4  10  21  42  69  97 145 182 235 280 342 419
#     4  11  24  43  69 102 136 182 230 296 344 410
#     4  10  24  46  72  98 137 181 238 288 355 414
#     4  10  22  41  67  99 143 175 235 283 352 409
#     4  10  22  43  66  97 138 184 229 279 347 412
#
# _framework density 24.133973999999998
#
# number of rings (size 3 to 8) (size 9 to 14) (size 15 to 20)
#    0.000    1.750    2.500    0.375    1.750    7.500 
#    9.000    0.000    0.000    9.000    0.000    0.000 
#    0.000    0.000    0.000    0.000    0.000    0.000 
#
# Total GULP energy -198304.312772 kJ/mol
# GULP energy per Si atom -12394.019548 kJ/mol
# Density = 2.407904 g / cm^3
# Si number density = 24.133974 Si / 1000 Ang^3
#
#
#
# Elastic Constant Matrix: (Units=GPa)
#
#
# Indices 1 2 3 4 5 6 
#
# 1 137.5446 34.1751 43.6137 -2.5448 5.7381 -27.6459
# 2 34.1751 117.3094 95.4806 -20.1444 8.6401 -30.5382
# 3 43.6137 95.4806 151.3782 -35.5185 4.9577 -12.2830
# 4 -2.5448 -20.1444 -35.5185 51.9203 -5.7868 -0.7614
# 5 5.7381 8.6401 4.9577 -5.7868 33.0129 -3.6447
# 6 -27.6459 -30.5382 -12.2830 -0.7614 -3.6447 44.0950
#
#
#
# Elastic Compliance Matrix: (Units=1/GPa)
#
#
# Indices 1 2 3 4 5 6 
#
# 1 0.009132 0.001332 -0.003291 -0.001322 -0.001053 0.005621
# 2 0.001332 0.022630 -0.013712 -0.000669 -0.002839 0.012442
# 3 -0.003291 -0.013712 0.017096 0.006339 0.001984 -0.006524
# 4 -0.001322 -0.000669 0.006339 0.023707 0.003740 0.001193
# 5 -0.001053 -0.002839 0.001984 0.003740 0.031642 0.000607
# 6 0.005621 0.012442 -0.006524 0.001193 0.000607 0.033073
#
#
# Mechanical properties :
#
#
# Convention : Reuss Voigt Hill
#
# Bulk Modulus (GPa) = 57.08807 83.64121 70.36464
# Shear Modulus (GPa) = 28.65994 41.33646 34.99820
#
# Velocity S-wave (km/s) = 3.44980 4.14308 3.81223
# Velocity P-wave (km/s) = 6.29080 7.59072 6.97113
#
# Compressibility (1/GPa) = 0.01751679
#
# Stress axis : x y z
#
# Youngs Moduli (GPa) = 109.50221 44.18944 58.49421
#
# Poissons Ratio (x) = -0.05885 0.19248
# Poissons Ratio (y) = -0.14584 0.80206
# Poissons Ratio (z) = 0.36033 0.60591
#
# Static dielectric constant tensor:
#      x y z
#    x 4.110400 -0.104580 -0.072560 
#    y -0.104580 4.729840 -0.778950 
#    z -0.072560 -0.778950 5.115360 
# 
# 
# High freq. dielectric constant tensor:
#      x y z
#    x 1.949210 -0.010330 -0.002160 
#    y -0.010330 1.944200 -0.025130 
#    z -0.002160 -0.025130 1.970170 
# 
# From -- ./inp_files/486134.got.cif
#   From: 2010.06.25/outbox.cif.g09.slc.cpg/sg2_244_cif.got.tgz:486134.got - 2010.06.27 13:26:56.
