data_PCOD8014084
_publ_section_title
;
Structure prediction by ZEFSAII (Michael W. Deem and Ramdas Pophale) SiO2 
 PCOD8014084
Probable space group: P -1
;
_chemical_formula_sum "Si O2"
_cell_formula_units_Z 14
_cell_length_a 11.373530
_cell_length_b 18.922271
_cell_length_c 8.833886
_cell_angle_alpha 37.686578
_cell_angle_beta 64.097443
_cell_angle_gamma 38.665631
_cell_volume 639.377653
_symmetry_space_group_name_H-M "P -1"
_symmetry_group_IT_number 2
_symmetry_cell_setting 'triclinic'
loop_
_space_group_symop_operation_xyz
x,y,z
-x,-y,-z
loop_
_atom_site_type_symbol
_atom_site_label
_atom_site_fract_x
_atom_site_fract_y
_atom_site_fract_z
Si Si1 0.949343 0.550861 0.688400
Si Si2 0.503379 0.480294 0.353030
Si Si3 0.635626 0.178488 0.224830
Si Si4 0.842800 0.442195 0.693373
Si Si5 0.105781 0.037189 0.296439
Si Si6 0.685967 0.776612 0.745252
Si Si7 0.055330 0.917317 0.271378
O O1 0.815207 0.556895 0.646838
O O2 0.800106 0.714229 0.623688
O O3 0.037741 0.590659 0.465008
O O4 0.142256 0.344880 0.009965
O O5 0.500000 0.500000 0.500000
O O6 0.386360 0.444449 0.427163
O O7 0.748571 0.309103 0.452420
O O8 0.383367 0.669801 0.018508
O O9 0.427171 0.269677 0.112030
O O10 0.667526 0.106241 0.500077
O O11 0.850809 0.994069 0.324363
O O12 0.976396 0.245764 0.026757
O O13 0.129923 0.983072 0.201348
O O14 0.000000 0.000000 0.500000
O O15 0.500000 0.000000 0.500000
O O16 0.000000 0.000000 0.000000
#
# Coordination Sequence:
#
# PCOD8014084 Si02
#       7
#     2   2   2   2   2   2   2
#     4  10  26  46  70 101 133 192 230 286 332 413
#     4  12  23  40  69 102 136 177 216 284 350 407
#     4  11  24  43  66 101 134 175 225 278 350 403
#     4  11  22  47  71  99 146 175 237 283 342 408
#     4  10  21  41  64  98 137 170 217 280 337 402
#     4  11  25  47  70  97 138 182 239 279 347 406
#     4  11  23  39  63  99 133 172 218 276 345 405
#
# _framework density 21.896291999999999
#
# number of rings (size 3 to 8) (size 9 to 14) (size 15 to 20)
#    0.000    1.143    4.286    1.714    2.000    7.429 
#    0.000    2.143    0.000    0.000    0.000    0.000 
#    0.000    0.000    0.000    0.000    0.000    0.000 
#
# Total GULP energy -173547.492946 kJ/mol
# GULP energy per Si atom -12396.249496 kJ/mol
# Density = 2.184645 g / cm^3
# Si number density = 21.896292 Si / 1000 Ang^3
#
#
#
# Elastic Constant Matrix: (Units=GPa)
#
#
# Indices 1 2 3 4 5 6 
#
# 1 117.7915 41.1606 24.3300 8.8233 15.8589 3.9043
# 2 41.1606 115.6533 52.1778 -6.5286 10.5726 4.1001
# 3 24.3300 52.1778 119.0339 -0.0883 7.4009 2.1076
# 4 8.8233 -6.5286 -0.0883 39.2739 2.3923 8.3488
# 5 15.8589 10.5726 7.4009 2.3923 38.7526 4.4172
# 6 3.9043 4.1001 2.1076 8.3488 4.4172 35.1020
#
#
#
# Elastic Compliance Matrix: (Units=1/GPa)
#
#
# Indices 1 2 3 4 5 6 
#
# 1 0.010377 -0.003370 -0.000458 -0.002771 -0.003105 0.000317
# 2 -0.003370 0.012242 -0.004581 0.003145 -0.001122 -0.001387
# 3 -0.000458 -0.004581 0.010533 -0.000638 -0.000555 0.000175
# 4 -0.002771 0.003145 -0.000638 0.028048 -0.000579 -0.006619
# 5 -0.003105 -0.001122 -0.000555 -0.000579 0.027849 -0.002857
# 6 0.000317 -0.001387 0.000175 -0.006619 -0.002857 0.030539
#
#
# Mechanical properties :
#
#
# Convention : Reuss Voigt Hill
#
# Bulk Modulus (GPa) = 61.22212 65.31283 63.26748
# Shear Modulus (GPa) = 35.24830 38.27971 36.76400
#
# Velocity S-wave (km/s) = 4.01656 4.18572 4.10201
# Velocity P-wave (km/s) = 7.03783 7.29749 7.16884
#
# Compressibility (1/GPa) = 0.01633397
#
# Stress axis : x y z
#
# Youngs Moduli (GPa) = 96.36743 81.68734 94.93548
#
# Poissons Ratio (x) = 0.27530 0.04351
# Poissons Ratio (y) = 0.32477 0.43486
# Poissons Ratio (z) = 0.04417 0.37418
#
# Static dielectric constant tensor:
#      x y z
#    x 4.680640 0.304250 0.425340 
#    y 0.304250 3.987860 0.118660 
#    z 0.425340 0.118660 3.998260 
# 
# 
# High freq. dielectric constant tensor:
#      x y z
#    x 1.870390 0.012500 0.019630 
#    y 0.012500 1.855650 0.003220 
#    z 0.019630 0.003220 1.863430 
# 
# From -- ./inp_files/278780.got.cif
#   From: 2010.06.25/outbox.cif.g09.slc.cpg/sg2_140_cif.got.tgz:278780.got - 2010.06.27 13:26:56.
