data_PCOD8014683
_publ_section_title
;
Structure prediction by ZEFSAII (Michael W. Deem and Ramdas Pophale) SiO2 
 PCOD8014683
Probable space group: P -1
;
_chemical_formula_sum "Si O2"
_cell_formula_units_Z 14
_cell_length_a 20.167788
_cell_length_b 9.871103
_cell_length_c 7.894156
_cell_angle_alpha 104.794030
_cell_angle_beta 45.381166
_cell_angle_gamma 137.677191
_cell_volume 628.631131
_symmetry_space_group_name_H-M "P -1"
_symmetry_group_IT_number 2
_symmetry_cell_setting 'triclinic'
loop_
_space_group_symop_operation_xyz
x,y,z
-x,-y,-z
loop_
_atom_site_type_symbol
_atom_site_label
_atom_site_fract_x
_atom_site_fract_y
_atom_site_fract_z
Si Si1 0.131244 0.822551 0.935424
Si Si2 0.800268 0.543339 0.456927
Si Si3 0.247525 0.801497 0.422850
Si Si4 0.241745 0.932313 0.128485
Si Si5 0.440123 0.774094 0.494993
Si Si6 0.469565 0.262336 0.357939
Si Si7 0.648781 0.639818 0.891770
O O1 0.118732 0.687731 0.766440
O O2 0.301763 0.112320 0.693235
O O3 0.991490 0.766250 0.159891
O O4 0.139092 0.762795 0.091801
O O5 0.740009 0.351640 0.638648
O O6 0.727463 0.425804 0.364827
O O7 0.751918 0.635850 0.639032
O O8 0.183845 0.772120 0.343670
O O9 0.419573 0.084562 0.247443
O O10 0.223758 0.077282 0.237896
O O11 0.431088 0.140603 0.831253
O O12 0.418201 0.666702 0.676764
O O13 0.500000 0.000000 0.500000
O O14 0.571179 0.511223 0.172929
O O15 0.500000 0.500000 0.000000
#
# Coordination Sequence:
#
# PCOD8014683 Si02
#       7
#     2   2   2   2   2   2   2
#     4   9  23  44  63  97 132 172 211 270 322 381
#     4  12  23  40  68  97 132 164 223 266 317 391
#     4  10  21  41  70  93 127 171 211 268 326 375
#     4  11  23  44  67  88 141 167 213 268 325 382
#     4  11  21  37  66  97 125 166 216 269 317 375
#     4   9  21  40  62  91 128 165 213 256 333 367
#     4  12  23  41  65  96 126 176 215 268 322 381
#
# _framework density 22.270613999999998
#
# number of rings (size 3 to 8) (size 9 to 14) (size 15 to 20)
#    0.857    0.571    4.286    0.429    2.000    4.571 
#    5.143    2.857    0.000    0.000    0.000    0.000 
#    0.000    0.000    0.000    0.000    0.000    0.000 
#
# Total GULP energy -173534.105220 kJ/mol
# GULP energy per Si atom -12395.293230 kJ/mol
# Density = 2.221992 g / cm^3
# Si number density = 22.270614 Si / 1000 Ang^3
#
#
#
# Elastic Constant Matrix: (Units=GPa)
#
#
# Indices 1 2 3 4 5 6 
#
# 1 202.2931 41.5286 63.6734 3.5312 16.7092 -2.6273
# 2 41.5286 63.9780 12.7439 24.8999 1.0697 -15.0537
# 3 63.6734 12.7439 67.8296 16.7591 -5.3078 -1.7794
# 4 3.5312 24.8999 16.7591 28.7853 -1.6476 -3.9281
# 5 16.7092 1.0697 -5.3078 -1.6476 42.1307 0.1598
# 6 -2.6273 -15.0537 -1.7794 -3.9281 0.1598 39.8189
#
#
#
# Elastic Compliance Matrix: (Units=1/GPa)
#
#
# Indices 1 2 3 4 5 6 
#
# 1 0.011449 -0.011308 -0.012862 0.015212 -0.005269 -0.002572
# 2 -0.011308 0.036939 0.013305 -0.036709 0.003749 0.010177
# 3 -0.012862 0.013305 0.031819 -0.027628 0.007681 0.002847
# 4 0.015212 -0.036709 -0.027628 0.079550 -0.005448 -0.006239
# 5 -0.005269 0.003749 0.007681 -0.005448 0.026482 0.000769
# 6 -0.002572 0.010177 0.002847 -0.006239 0.000769 0.028300
#
#
# Mechanical properties :
#
#
# Convention : Reuss Voigt Hill
#
# Bulk Modulus (GPa) = 17.10049 63.33251 40.21650
# Shear Modulus (GPa) = 19.54954 36.55730 28.05342
#
# Velocity S-wave (km/s) = 2.96601 4.05594 3.55302
# Velocity P-wave (km/s) = 4.40736 7.10167 5.91010
#
# Compressibility (1/GPa) = 0.05847785
#
# Stress axis : x y z
#
# Youngs Moduli (GPa) = 87.34165 27.07182 31.42795
#
# Poissons Ratio (x) = 0.30612 0.40422
# Poissons Ratio (y) = 0.98763 -0.41814
# Poissons Ratio (z) = 1.12337 -0.36019
#
# Static dielectric constant tensor:
#      x y z
#    x 4.842090 -0.219300 -0.400860 
#    y -0.219300 3.883250 0.278540 
#    z -0.400860 0.278540 4.006220 
# 
# 
# High freq. dielectric constant tensor:
#      x y z
#    x 1.889450 0.003360 0.006490 
#    y 0.003360 1.858560 0.010390 
#    z 0.006490 0.010390 1.859970 
# 
# From -- ./inp_files/295214.got.cif
#   From: 2010.06.25/outbox.cif.g09.slc.cpg/sg2_148_cif.got.tgz:295214.got - 2010.06.27 13:26:56.
