data_PCOD8014667
_publ_section_title
;
Structure prediction by ZEFSAII (Michael W. Deem and Ramdas Pophale) SiO2 
 PCOD8014667
Probable space group: P -1
;
_chemical_formula_sum "Si O2"
_cell_formula_units_Z 14
_cell_length_a 10.412678
_cell_length_b 9.193676
_cell_length_c 14.462886
_cell_angle_alpha 101.620940
_cell_angle_beta 116.226629
_cell_angle_gamma 132.833406
_cell_volume 588.818958
_symmetry_space_group_name_H-M "P -1"
_symmetry_group_IT_number 2
_symmetry_cell_setting 'triclinic'
loop_
_space_group_symop_operation_xyz
x,y,z
-x,-y,-z
loop_
_atom_site_type_symbol
_atom_site_label
_atom_site_fract_x
_atom_site_fract_y
_atom_site_fract_z
Si Si1 0.545171 0.026178 0.126066
Si Si2 0.990340 0.874067 0.295519
Si Si3 0.564908 0.230949 0.554037
Si Si4 0.885228 0.156788 0.860948
Si Si5 0.309145 0.542759 0.693796
Si Si6 0.988474 0.766490 0.625556
Si Si7 0.873781 0.466006 0.860925
O O1 0.744962 0.342253 0.267828
O O2 0.703737 0.021677 0.212583
O O3 0.500000 0.000000 0.000000
O O4 0.217232 0.735206 0.023982
O O5 0.961111 0.777928 0.171342
O O6 0.717217 0.590952 0.242347
O O7 0.271880 0.057670 0.459915
O O8 0.028412 0.083024 0.322178
O O9 0.708788 0.419826 0.529871
O O10 0.798211 0.475486 0.741911
O O11 0.500000 0.000000 0.500000
O O12 0.718891 0.162168 0.777873
O O13 0.635229 0.824263 0.786414
O O14 0.158850 0.439794 0.055878
O O15 0.047752 0.270360 0.501890
#
# Coordination Sequence:
#
# PCOD8014667 Si02
#       7
#     2   2   2   2   2   2   2
#     4  11  22  42  72 100 136 180 236 286 333 415
#     4  12  25  44  71 103 142 181 228 285 347 409
#     4  12  22  42  74  98 133 182 234 280 335 412
#     4  10  22  43  71  99 141 176 229 290 339 402
#     4  11  24  44  71 101 136 187 235 274 340 414
#     4  12  25  44  68 105 144 179 226 290 349 401
#     4  10  21  41  70 103 129 180 236 284 338 397
#
# _framework density 23.776409999999998
#
# number of rings (size 3 to 8) (size 9 to 14) (size 15 to 20)
#    0.000    0.857    4.286    3.000    0.000    3.429 
#    0.000    5.000    0.000    0.000    0.000    0.000 
#    0.000    0.000    0.000    0.000    0.000    0.000 
#
# Total GULP energy -173488.991293 kJ/mol
# GULP energy per Si atom -12392.070807 kJ/mol
# Density = 2.372229 g / cm^3
# Si number density = 23.776410 Si / 1000 Ang^3
#
#
#
# Elastic Constant Matrix: (Units=GPa)
#
#
# Indices 1 2 3 4 5 6 
#
# 1 96.3529 51.2754 57.7801 -6.9243 -30.9726 -12.1816
# 2 51.2754 138.7517 29.0853 5.7579 -18.6063 11.2568
# 3 57.7801 29.0853 114.0012 -13.5665 -36.4552 -7.2721
# 4 -6.9243 5.7579 -13.5665 33.4936 13.6180 -4.1764
# 5 -30.9726 -18.6063 -36.4552 13.6180 42.8535 -5.5678
# 6 -12.1816 11.2568 -7.2721 -4.1764 -5.5678 46.7814
#
#
#
# Elastic Compliance Matrix: (Units=1/GPa)
#
#
# Indices 1 2 3 4 5 6 
#
# 1 0.020450 -0.005832 -0.005816 0.000455 0.008043 0.006822
# 2 -0.005832 0.009967 -0.000078 -0.003755 0.000696 -0.004182
# 3 -0.005816 -0.000078 0.014576 0.001757 0.007846 0.001861
# 4 0.000455 -0.003755 0.001757 0.036129 -0.010868 0.003227
# 5 0.008043 0.000696 0.007846 -0.010868 0.040487 0.006995
# 6 0.006822 -0.004182 0.001861 0.003227 0.006995 0.025569
#
#
# Mechanical properties :
#
#
# Convention : Reuss Voigt Hill
#
# Bulk Modulus (GPa) = 46.42152 69.48749 57.95451
# Shear Modulus (GPa) = 28.11973 38.69004 33.40488
#
# Velocity S-wave (km/s) = 3.44273 4.03829 3.75234
# Velocity P-wave (km/s) = 5.94725 7.14371 6.57276
#
# Compressibility (1/GPa) = 0.02154173
#
# Stress axis : x y z
#
# Youngs Moduli (GPa) = 48.89926 100.32974 68.60497
#
# Poissons Ratio (x) = 0.58514 0.39899
# Poissons Ratio (y) = 0.28519 0.00535
# Poissons Ratio (z) = 0.28439 0.00783
#
# Static dielectric constant tensor:
#      x y z
#    x 4.203410 0.294010 -0.283330 
#    y 0.294010 4.459380 -0.081830 
#    z -0.283330 -0.081830 4.427270 
# 
# 
# High freq. dielectric constant tensor:
#      x y z
#    x 1.917220 0.019420 -0.027830 
#    y 0.019420 1.954020 -0.006620 
#    z -0.027830 -0.006620 1.949860 
# 
# From -- ./inp_files/514455.got.cif
#   From: 2010.06.25/outbox.cif.g09.slc.cpg/sg2_258_cif.got.tgz:514455.got - 2010.06.27 13:26:56.
