data_PCOD8014361
_publ_section_title
;
Structure prediction by ZEFSAII (Michael W. Deem and Ramdas Pophale) SiO2 
 PCOD8014361
Probable space group: P -1
;
_chemical_formula_sum "Si O2"
_cell_formula_units_Z 16
_cell_length_a 17.165642
_cell_length_b 8.228866
_cell_length_c 11.891371
_cell_angle_alpha 52.319134
_cell_angle_beta 148.329777
_cell_angle_gamma 123.320124
_cell_volume 696.242733
_symmetry_space_group_name_H-M "P -1"
_symmetry_group_IT_number 2
_symmetry_cell_setting 'triclinic'
loop_
_space_group_symop_operation_xyz
x,y,z
-x,-y,-z
loop_
_atom_site_type_symbol
_atom_site_label
_atom_site_fract_x
_atom_site_fract_y
_atom_site_fract_z
Si Si1 0.747894 0.164693 0.792844
Si Si2 0.831077 0.044791 0.371538
Si Si3 0.071656 0.755579 0.806651
Si Si4 0.096332 0.645884 0.304194
Si Si5 0.716266 0.367902 0.249277
Si Si6 0.206297 0.292650 0.974519
Si Si7 0.490591 0.445496 0.381895
Si Si8 0.440390 0.220600 0.856086
O O1 0.843324 0.194772 0.783521
O O2 0.586304 0.253457 0.547510
O O3 0.735146 0.922340 0.903567
O O4 0.827955 0.281981 0.946761
O O5 0.831681 0.217078 0.200642
O O6 0.774894 0.154126 0.367016
O O7 0.730931 0.838008 0.297343
O O8 0.992603 0.970332 0.631213
O O9 0.952921 0.563789 0.731043
O O10 0.236688 0.608228 0.573534
O O11 0.959932 0.733327 0.168085
O O12 0.792358 0.562392 0.194271
O O13 0.535846 0.344139 0.019695
O O14 0.318135 0.388092 0.166537
O O15 0.500000 0.500000 0.500000
O O16 0.552927 0.645160 0.305409
O O17 0.500000 0.000000 0.000000
#
# Coordination Sequence:
#
# PCOD8014361 Si02
#       8
#     2   2   2   2   2   2   2   2
#     4  12  27  44  64 101 138 177 226 271 340 405
#     4  10  21  41  67 100 129 170 231 272 332 390
#     4  11  24  39  67  97 133 176 219 282 331 394
#     4  12  24  43  70  99 137 174 225 283 336 394
#     4  10  22  42  69  96 132 174 224 277 334 394
#     4  11  24  44  66  98 137 181 223 270 338 401
#     4  11  25  46  69  97 139 181 220 277 338 403
#     4   9  21  41  67  98 124 168 224 270 324 393
#
# _framework density 22.98049
#
# number of rings (size 3 to 8) (size 9 to 14) (size 15 to 20)
#    0.000    1.250    1.250    3.750    7.000    3.000 
#    2.250    1.875    0.000    0.000    0.000    0.000 
#    0.000    0.000    0.000    0.000    0.000    0.000 
#
# Total GULP energy -198424.059538 kJ/mol
# GULP energy per Si atom -12401.503721 kJ/mol
# Density = 2.292819 g / cm^3
# Si number density = 22.980490 Si / 1000 Ang^3
#
#
#
# Elastic Constant Matrix: (Units=GPa)
#
#
# Indices 1 2 3 4 5 6 
#
# 1 30.9189 10.6624 14.5392 1.1413 -13.2956 10.2018
# 2 10.6624 86.6012 22.2813 -4.5237 -7.0299 -0.5252
# 3 14.5392 22.2813 107.9404 2.7975 -20.1909 6.2895
# 4 1.1413 -4.5237 2.7975 40.4963 -8.1501 5.3573
# 5 -13.2956 -7.0299 -20.1909 -8.1501 42.2817 3.6970
# 6 10.2018 -0.5252 6.2895 5.3573 3.6970 30.8173
#
#
#
# Elastic Compliance Matrix: (Units=1/GPa)
#
#
# Indices 1 2 3 4 5 6 
#
# 1 0.046941 -0.003998 -0.001639 0.003842 0.015612 -0.017814
# 2 -0.003998 0.012693 -0.002239 0.001434 -0.000093 0.001759
# 3 -0.001639 -0.002239 0.010934 0.000272 0.004590 -0.002325
# 4 0.003842 0.001434 0.000272 0.027132 0.007410 -0.006909
# 5 0.015612 -0.000093 0.004590 0.007410 0.033159 -0.011372
# 6 -0.017814 0.001759 -0.002325 -0.006909 -0.011372 0.041416
#
#
# Mechanical properties :
#
#
# Convention : Reuss Voigt Hill
#
# Bulk Modulus (GPa) = 18.24227 35.60292 26.92260
# Shear Modulus (GPa) = 24.23662 34.58425 29.41043
#
# Velocity S-wave (km/s) = 3.25108 3.88356 3.58131
# Velocity P-wave (km/s) = 4.69554 5.96957 5.37046
#
# Compressibility (1/GPa) = 0.05481772
#
# Stress axis : x y z
#
# Youngs Moduli (GPa) = 21.30330 78.78104 91.45623
#
# Poissons Ratio (x) = 0.31495 0.14989
# Poissons Ratio (y) = 0.08517 0.20475
# Poissons Ratio (z) = 0.03491 0.17637
#
# Static dielectric constant tensor:
#      x y z
#    x 4.121270 0.397740 0.495210 
#    y 0.397740 4.428530 0.470520 
#    z 0.495210 0.470520 4.852630 
# 
# 
# High freq. dielectric constant tensor:
#      x y z
#    x 1.890100 -0.000050 0.006050 
#    y -0.000050 1.914790 -0.001760 
#    z 0.006050 -0.001760 1.922660 
# 
# From -- ./inp_files/243733.got.cif
#   From: 2010.06.25/outbox.cif.g09.slc.cpg/sg2_122_cif.got.tgz:243733.got - 2010.06.27 13:26:56.
