data_PCOD8014009
_publ_section_title
;
Structure prediction by ZEFSAII (Michael W. Deem and Ramdas Pophale) SiO2 
 PCOD8014009
Probable space group: P -1
;
_chemical_formula_sum "Si O2"
_cell_formula_units_Z 16
_cell_length_a 16.589856
_cell_length_b 18.096190
_cell_length_c 12.115470
_cell_angle_alpha 128.869289
_cell_angle_beta 37.774509
_cell_angle_gamma 157.647453
_cell_volume 759.117859
_symmetry_space_group_name_H-M "P -1"
_symmetry_group_IT_number 2
_symmetry_cell_setting 'triclinic'
loop_
_space_group_symop_operation_xyz
x,y,z
-x,-y,-z
loop_
_atom_site_type_symbol
_atom_site_label
_atom_site_fract_x
_atom_site_fract_y
_atom_site_fract_z
Si Si1 0.335838 0.675944 0.435861
Si Si2 0.925706 0.128276 0.136055
Si Si3 0.890039 0.229757 0.468032
Si Si4 0.651019 0.737586 0.315055
Si Si5 0.033922 0.271349 0.594525
Si Si6 0.796385 0.218023 0.220198
Si Si7 0.079564 0.445915 0.896989
Si Si8 0.782894 0.905218 0.557269
O O1 0.492979 0.725116 0.416207
O O2 0.148377 0.644459 0.653716
O O3 0.100733 0.455407 0.422253
O O4 0.584809 0.868316 0.257686
O O5 0.999499 0.210902 0.258442
O O6 0.979666 0.252047 0.111758
O O7 0.136641 0.177493 0.921948
O O8 0.891982 0.206732 0.571752
O O9 0.550219 0.035188 0.623832
O O10 0.395790 0.496569 0.402944
O O11 0.837076 0.894864 0.367517
O O12 0.963298 0.306745 0.792181
O O13 0.872573 0.072368 0.621000
O O14 0.895942 0.290145 0.054320
O O15 0.434830 0.666383 0.743081
O O16 0.000000 0.500000 0.000000
O O17 0.000000 0.000000 0.500000
#
# Coordination Sequence:
#
# PCOD8014009 Si02
#       8
#     2   2   2   2   2   2   2   2
#     4  10  21  42  64  89 125 169 208 257 311 383
#     4  11  24  38  62  94 129 163 204 268 313 371
#     4  10  21  41  64  91 122 167 212 251 317 374
#     4  10  23  42  64  90 129 165 210 259 318 375
#     4  10  23  41  67  90 126 166 210 264 308 378
#     4  11  24  39  63  92 130 162 205 268 318 363
#     4  11  24  44  67  95 128 167 217 263 314 381
#     4  11  25  41  64  93 130 169 209 261 326 377
#
# _framework density 21.077096000000001
#
# number of rings (size 3 to 8) (size 9 to 14) (size 15 to 20)
#    0.000    1.500    0.000    6.375    3.500    9.000 
#    0.000    0.000    0.000    0.000    0.000    0.000 
#    0.000    0.000    0.000    0.000    0.000    0.000 
#
# Total GULP energy -198407.259634 kJ/mol
# GULP energy per Si atom -12400.453727 kJ/mol
# Density = 2.102912 g / cm^3
# Si number density = 21.077096 Si / 1000 Ang^3
#
#
#
# Elastic Constant Matrix: (Units=GPa)
#
#
# Indices 1 2 3 4 5 6 
#
# 1 67.3686 19.9862 11.3550 4.3541 -1.4644 -5.4092
# 2 19.9862 128.6456 35.0684 14.7699 -0.0674 -11.2829
# 3 11.3550 35.0684 111.9328 13.9222 8.4689 -3.7098
# 4 4.3541 14.7699 13.9222 25.3291 -1.7451 0.9713
# 5 -1.4644 -0.0674 8.4689 -1.7451 31.4056 -2.0876
# 6 -5.4092 -11.2829 -3.7098 0.9713 -2.0876 35.3952
#
#
#
# Elastic Compliance Matrix: (Units=1/GPa)
#
#
# Indices 1 2 3 4 5 6 
#
# 1 0.015803 -0.001930 -0.000879 -0.001106 0.001028 0.001799
# 2 -0.001930 0.009356 -0.002189 -0.003987 0.000471 0.002595
# 3 -0.000879 -0.002189 0.010522 -0.004579 -0.003123 0.000212
# 4 -0.001106 -0.003987 -0.004579 0.044865 0.003472 -0.002946
# 5 0.001028 0.000471 -0.003123 0.003472 0.033047 0.001834
# 6 0.001799 0.002595 0.000212 -0.002946 0.001834 0.029566
#
#
# Mechanical properties :
#
#
# Convention : Reuss Voigt Hill
#
# Bulk Modulus (GPa) = 38.93508 48.97402 43.95455
# Shear Modulus (GPa) = 30.91849 34.52846 32.72348
#
# Velocity S-wave (km/s) = 3.83420 4.05186 3.94453
# Velocity P-wave (km/s) = 6.17367 6.72132 6.45331
#
# Compressibility (1/GPa) = 0.02568378
#
# Stress axis : x y z
#
# Youngs Moduli (GPa) = 63.28021 106.88872 95.04085
#
# Poissons Ratio (x) = 0.20632 0.08354
# Poissons Ratio (y) = 0.12214 0.20804
# Poissons Ratio (z) = 0.05562 0.23397
#
# Static dielectric constant tensor:
#      x y z
#    x 5.363790 -0.566990 -0.081080 
#    y -0.566990 4.212140 0.061670 
#    z -0.081080 0.061670 3.869380 
# 
# 
# High freq. dielectric constant tensor:
#      x y z
#    x 1.825750 -0.009730 0.009760 
#    y -0.009730 1.839700 0.005120 
#    z 0.009760 0.005120 1.823770 
# 
# From -- ./inp_files/466785.got.cif
#   From: 2010.06.25/outbox.cif.g09.slc.cpg/sg2_234_cif.got.tgz:466785.got - 2010.06.27 13:26:56.
