data_PCOD8014106
_publ_section_title
;
Structure prediction by ZEFSAII (Michael W. Deem and Ramdas Pophale) SiO2 
 PCOD8014106
Probable space group: P -1
;
_chemical_formula_sum "Si O2"
_cell_formula_units_Z 16
_cell_length_a 16.691589
_cell_length_b 11.497748
_cell_length_c 8.421374
_cell_angle_alpha 70.367295
_cell_angle_beta 101.602250
_cell_angle_gamma 152.775316
_cell_volume 678.275301
_symmetry_space_group_name_H-M "P -1"
_symmetry_group_IT_number 2
_symmetry_cell_setting 'triclinic'
loop_
_space_group_symop_operation_xyz
x,y,z
-x,-y,-z
loop_
_atom_site_type_symbol
_atom_site_label
_atom_site_fract_x
_atom_site_fract_y
_atom_site_fract_z
Si Si1 0.750434 0.933331 0.477953
Si Si2 0.149979 0.442796 0.525686
Si Si3 0.752674 0.241688 0.073826
Si Si4 0.817238 0.279269 0.433322
Si Si5 0.229896 0.998947 0.910242
Si Si6 0.953723 0.074597 0.903615
Si Si7 0.331540 0.635294 0.202434
Si Si8 0.376681 0.434873 0.183813
O O1 0.691549 0.987996 0.505228
O O2 0.960004 0.207105 0.474123
O O3 0.730293 0.904602 0.295814
O O4 0.626907 0.656085 0.618690
O O5 0.264130 0.719784 0.491617
O O6 0.270108 0.530471 0.407948
O O7 0.111745 0.322351 0.731395
O O8 0.851669 0.377270 0.222379
O O9 0.825114 0.220479 0.010881
O O10 0.540952 0.943853 0.153508
O O11 0.782050 0.406488 0.907708
O O12 0.000000 0.500000 0.500000
O O13 0.424300 0.282629 0.941018
O O14 0.066415 0.856303 0.989156
O O15 0.753344 0.810456 0.875189
O O16 0.000000 0.000000 0.000000
O O17 0.292494 0.456525 0.175759
#
# Coordination Sequence:
#
# PCOD8014106 Si02
#       8
#     2   2   2   2   2   2   2   2
#     4   9  20  37  62  92 120 156 212 257 302 379
#     4  10  23  38  59  88 126 163 201 255 313 373
#     4   9  21  41  65  92 125 163 218 257 300 381
#     4   9  19  39  61  90 124 160 207 258 314 362
#     4  10  21  41  65  88 120 167 208 256 314 364
#     4  11  26  40  59  93 129 160 206 259 315 378
#     4  10  22  39  63  94 125 169 207 256 317 366
#     4  10  22  40  63  88 125 163 208 256 310 374
#
# _framework density 23.589243
#
# number of rings (size 3 to 8) (size 9 to 14) (size 15 to 20)
#    0.000    2.250    0.000    0.750    5.250    5.500 
#    0.000    5.625    0.000    0.000    0.000    0.000 
#    0.000    0.000    0.000    0.000    0.000    0.000 
#
# Total GULP energy -198224.563221 kJ/mol
# GULP energy per Si atom -12389.035201 kJ/mol
# Density = 2.353555 g / cm^3
# Si number density = 23.589243 Si / 1000 Ang^3
#
#
#
# Elastic Constant Matrix: (Units=GPa)
#
#
# Indices 1 2 3 4 5 6 
#
# 1 140.5774 6.7076 57.8626 -7.5368 2.4980 -23.0288
# 2 6.7076 49.3786 26.4457 -1.3308 -2.1907 -14.2239
# 3 57.8626 26.4457 92.5311 -2.5161 8.1232 -5.6485
# 4 -7.5368 -1.3308 -2.5161 30.6206 -0.7681 8.6971
# 5 2.4980 -2.1907 8.1232 -0.7681 44.1013 -0.1296
# 6 -23.0288 -14.2239 -5.6485 8.6971 -0.1296 20.3334
#
#
#
# Elastic Compliance Matrix: (Units=1/GPa)
#
#
# Indices 1 2 3 4 5 6 
#
# 1 0.014454 0.010084 -0.010825 -0.003020 0.001687 0.021720
# 2 0.010084 0.037693 -0.015401 -0.007475 0.004116 0.036734
# 3 -0.010825 -0.015401 0.021292 0.003624 -0.004066 -0.018695
# 4 -0.003020 -0.007475 0.003624 0.038761 -0.000264 -0.024224
# 5 0.001687 0.004116 -0.004066 -0.000264 0.023540 0.003924
# 6 0.021720 0.036734 -0.018695 -0.024224 0.003924 0.104669
#
#
# Mechanical properties :
#
#
# Convention : Reuss Voigt Hill
#
# Bulk Modulus (GPa) = 24.29802 51.61322 37.95562
# Shear Modulus (GPa) = 17.45743 31.77580 24.61662
#
# Velocity S-wave (km/s) = 2.72335 3.67419 3.23391
# Velocity P-wave (km/s) = 4.49574 6.31879 5.48356
#
# Compressibility (1/GPa) = 0.04115561
#
# Stress axis : x y z
#
# Youngs Moduli (GPa) = 69.18379 26.53042 46.96513
#
# Poissons Ratio (x) = -0.26754 0.50841
# Poissons Ratio (y) = -0.69767 0.72330
# Poissons Ratio (z) = 0.74893 0.40859
#
# Static dielectric constant tensor:
#      x y z
#    x 4.423580 -0.279590 0.240450 
#    y -0.279590 4.418230 0.270150 
#    z 0.240450 0.270150 4.277360 
# 
# 
# High freq. dielectric constant tensor:
#      x y z
#    x 1.930360 -0.017540 0.009870 
#    y -0.017540 1.942360 0.010840 
#    z 0.009870 0.010840 1.923620 
# 
# From -- ./inp_files/333135.got.cif
#   From: 2010.06.25/outbox.cif.g09.slc.cpg/sg2_167_cif.got.tgz:333135.got - 2010.06.27 13:26:56.
