data_PCOD8014111
_publ_section_title
;
Structure prediction by ZEFSAII (Michael W. Deem and Ramdas Pophale) SiO2 
 PCOD8014111
Probable space group: P -1
;
_chemical_formula_sum "Si O2"
_cell_formula_units_Z 16
_cell_length_a 14.909799
_cell_length_b 8.907833
_cell_length_c 14.826356
_cell_angle_alpha 139.333432
_cell_angle_beta 141.063105
_cell_angle_gamma 48.165203
_cell_volume 792.073649
_symmetry_space_group_name_H-M "P -1"
_symmetry_group_IT_number 2
_symmetry_cell_setting 'triclinic'
loop_
_space_group_symop_operation_xyz
x,y,z
-x,-y,-z
loop_
_atom_site_type_symbol
_atom_site_label
_atom_site_fract_x
_atom_site_fract_y
_atom_site_fract_z
Si Si1 0.520867 0.867965 0.089666
Si Si2 0.146892 0.392966 0.171583
Si Si3 0.310337 0.896712 0.103046
Si Si4 0.192257 0.477567 0.858047
Si Si5 0.826385 0.400348 0.899636
Si Si6 0.609396 0.291853 0.265741
Si Si7 0.427548 0.782880 0.328913
Si Si8 0.923017 0.269438 0.564423
O O1 0.403515 0.872579 0.076330
O O2 0.667945 0.690654 0.151132
O O3 0.565726 0.121463 0.230464
O O4 0.437822 0.794723 0.905537
O O5 0.217658 0.449912 0.157794
O O6 0.122770 0.621596 0.321855
O O7 0.246608 0.171134 0.197029
O O8 0.998088 0.302502 0.989724
O O9 0.414362 0.771681 0.206151
O O10 0.183122 0.740946 0.931481
O O11 0.040278 0.410089 0.678094
O O12 0.213078 0.446920 0.969861
O O13 0.731461 0.193041 0.736333
O O14 0.527178 0.552346 0.342080
O O15 0.781397 0.292849 0.401785
O O16 0.500000 0.000000 0.500000
O O17 0.000000 0.000000 0.500000
#
# Coordination Sequence:
#
# PCOD8014111 Si02
#       8
#     2   2   2   2   2   2   2   2
#     4  11  22  40  67  87 123 163 213 249 296 365
#     4  10  22  38  66  91 119 160 206 256 300 364
#     4  11  23  38  64  94 121 160 210 251 304 365
#     4  10  21  41  65  88 124 165 199 257 302 359
#     4   9  20  40  62  89 120 159 212 241 303 359
#     4  11  23  38  65  89 118 168 202 251 307 353
#     4  11  23  39  58  89 130 161 196 253 309 362
#     4  11  23  41  62  90 125 157 206 253 308 360
#
# _framework density 20.200140999999999
#
# number of rings (size 3 to 8) (size 9 to 14) (size 15 to 20)
#    0.000    1.500    3.750    1.875    1.750    7.500 
#    0.000    3.125    0.000    0.000    0.000    0.000 
#    0.000    0.000    0.000    0.000    0.000    0.000 
#
# Total GULP energy -198289.586181 kJ/mol
# GULP energy per Si atom -12393.099136 kJ/mol
# Density = 2.015416 g / cm^3
# Si number density = 20.200141 Si / 1000 Ang^3
#
#
#
# Elastic Constant Matrix: (Units=GPa)
#
#
# Indices 1 2 3 4 5 6 
#
# 1 108.2671 36.5151 49.5491 12.8213 17.3557 4.3963
# 2 36.5151 92.5254 34.1591 14.5797 1.2549 4.2517
# 3 49.5491 34.1591 114.6086 9.4159 41.2617 0.3049
# 4 12.8213 14.5797 9.4159 37.2879 -3.1680 5.0883
# 5 17.3557 1.2549 41.2617 -3.1680 30.6888 4.8453
# 6 4.3963 4.2517 0.3049 5.0883 4.8453 24.7202
#
#
#
# Elastic Compliance Matrix: (Units=1/GPa)
#
#
# Indices 1 2 3 4 5 6 
#
# 1 0.012599 -0.003326 -0.003279 -0.002352 -0.002727 -0.000609
# 2 -0.003326 0.014868 -0.006713 -0.001565 0.010715 -0.003661
# 3 -0.003279 -0.006713 0.024525 -0.006503 -0.032976 0.009237
# 4 -0.002352 -0.001565 -0.006503 0.032346 0.014867 -0.008804
# 5 -0.002727 0.010715 -0.032976 0.014867 0.082755 -0.020232
# 6 -0.000609 -0.003661 0.009237 -0.008804 -0.020232 0.046855
#
#
# Mechanical properties :
#
#
# Convention : Reuss Voigt Hill
#
# Bulk Modulus (GPa) = 39.43679 61.76088 50.59883
# Shear Modulus (GPa) = 20.07736 31.55123 25.81429
#
# Velocity S-wave (km/s) = 3.15607 3.95642 3.57869
# Velocity P-wave (km/s) = 5.73118 7.17717 6.49455
#
# Compressibility (1/GPa) = 0.02535704
#
# Stress axis : x y z
#
# Youngs Moduli (GPa) = 79.36899 67.25717 40.77395
#
# Poissons Ratio (x) = 0.22371 0.13370
# Poissons Ratio (y) = 0.26399 0.27371
# Poissons Ratio (z) = 0.26025 0.45149
#
# Static dielectric constant tensor:
#      x y z
#    x 3.774110 0.038930 0.317180 
#    y 0.038930 3.766060 0.095130 
#    z 0.317180 0.095130 3.480460 
# 
# 
# High freq. dielectric constant tensor:
#      x y z
#    x 1.788730 -0.000450 0.023920 
#    y -0.000450 1.783670 0.003860 
#    z 0.023920 0.003860 1.786080 
# 
# From -- ./inp_files/272387.got.cif
#   From: 2010.06.25/outbox.cif.g09.slc.cpg/sg2_137_cif.got.tgz:272387.got - 2010.06.27 13:26:56.
