data_PCOD8014593
_publ_section_title
;
Structure prediction by ZEFSAII (Michael W. Deem and Ramdas Pophale) SiO2 
 PCOD8014593
Probable space group: P -1
;
_chemical_formula_sum "Si O2"
_cell_formula_units_Z 14
_cell_length_a 11.201779
_cell_length_b 11.277983
_cell_length_c 8.124016
_cell_angle_alpha 43.767326
_cell_angle_beta 56.409511
_cell_angle_gamma 61.177745
_cell_volume 585.294556
_symmetry_space_group_name_H-M "P -1"
_symmetry_group_IT_number 2
_symmetry_cell_setting 'triclinic'
loop_
_space_group_symop_operation_xyz
x,y,z
-x,-y,-z
loop_
_atom_site_type_symbol
_atom_site_label
_atom_site_fract_x
_atom_site_fract_y
_atom_site_fract_z
Si Si1 0.572891 0.461103 0.252815
Si Si2 0.736856 0.967290 0.143353
Si Si3 0.650054 0.325261 0.987250
Si Si4 0.462352 0.882092 0.295136
Si Si5 0.153189 0.412568 0.528747
Si Si6 0.161848 0.030798 0.301738
Si Si7 0.842355 0.578894 0.096985
O O1 0.472011 0.639876 0.100968
O O2 0.500437 0.328001 0.563611
O O3 0.727117 0.486029 0.180144
O O4 0.584764 0.333841 0.210557
O O5 0.569475 0.932181 0.305102
O O6 0.827839 0.792529 0.324897
O O7 0.806570 0.009035 0.874133
O O8 0.745149 0.137469 0.077039
O O9 0.737209 0.487971 0.754261
O O10 0.288261 0.918058 0.427402
O O11 0.500000 0.000000 0.000000
O O12 0.176679 0.442388 0.673438
O O13 0.000000 0.500000 0.500000
O O14 0.181516 0.224154 0.136236
O O15 0.000000 0.000000 0.500000
O O16 0.000000 0.500000 0.000000
#
# Coordination Sequence:
#
# PCOD8014593 Si02
#       7
#     2   2   2   2   2   2   2
#     4  11  24  45  70 108 141 186 239 296 361 432
#     4  10  23  45  69 102 138 191 240 290 363 422
#     4  11  25  45  72 102 147 186 237 295 362 432
#     4  10  21  41  69 103 140 177 240 297 349 431
#     4  11  25  46  69 100 143 184 241 299 365 430
#     4  10  22  40  65 104 141 178 238 295 356 428
#     4  11  24  42  69 100 138 185 234 296 357 426
#
# _framework density 23.919578999999999
#
# number of rings (size 3 to 8) (size 9 to 14) (size 15 to 20)
#    0.000    1.429    1.429    2.571    6.000    4.000 
#    5.143    0.000    0.000    0.000    0.000    0.000 
#    0.000    0.000    0.000    0.000    0.000    0.000 
#
# Total GULP energy -173498.193967 kJ/mol
# GULP energy per Si atom -12392.728141 kJ/mol
# Density = 2.386514 g / cm^3
# Si number density = 23.919579 Si / 1000 Ang^3
#
#
#
# Elastic Constant Matrix: (Units=GPa)
#
#
# Indices 1 2 3 4 5 6 
#
# 1 130.0030 24.0842 38.2098 -8.1987 -3.0419 -28.2369
# 2 24.0842 111.2944 21.5911 -28.8175 3.1737 -15.3725
# 3 38.2098 21.5911 91.1956 -23.6461 -15.5565 -1.8009
# 4 -8.1987 -28.8175 -23.6461 38.6039 -15.0661 -4.1027
# 5 -3.0419 3.1737 -15.5565 -15.0661 32.1232 -4.6803
# 6 -28.2369 -15.3725 -1.8009 -4.1027 -4.6803 37.5231
#
#
#
# Elastic Compliance Matrix: (Units=1/GPa)
#
#
# Indices 1 2 3 4 5 6 
#
# 1 0.010681 -0.000294 -0.003976 0.000676 0.000579 0.007873
# 2 -0.000294 0.013553 0.002678 0.015935 0.008609 0.008276
# 3 -0.003976 0.002678 0.021827 0.023400 0.021545 0.004399
# 4 0.000676 0.015935 0.023400 0.073085 0.047312 0.022052
# 5 0.000579 0.008609 0.021545 0.047312 0.065633 0.018357
# 6 0.007873 0.008276 0.004399 0.022052 0.018357 0.040877
#
#
# Mechanical properties :
#
#
# Convention : Reuss Voigt Hill
#
# Bulk Modulus (GPa) = 23.32243 55.58479 39.45361
# Shear Modulus (GPa) = 20.56497 38.22390 29.39444
#
# Velocity S-wave (km/s) = 2.93534 4.00186 3.50935
# Velocity P-wave (km/s) = 4.61084 6.68145 5.74028
#
# Compressibility (1/GPa) = 0.04287718
#
# Stress axis : x y z
#
# Youngs Moduli (GPa) = 93.62014 73.78569 45.81511
#
# Poissons Ratio (x) = 0.02170 0.18217
# Poissons Ratio (y) = 0.02753 -0.12271
# Poissons Ratio (z) = 0.37225 -0.19762
#
# Static dielectric constant tensor:
#      x y z
#    x 4.477510 -0.506130 0.093790 
#    y -0.506130 4.328030 -0.184970 
#    z 0.093790 -0.184970 4.655340 
# 
# 
# High freq. dielectric constant tensor:
#      x y z
#    x 1.947710 -0.020250 -0.000010 
#    y -0.020250 1.943260 -0.016150 
#    z -0.000010 -0.016150 1.964870 
# 
# From -- ./inp_files/261251.got.cif
#   From: 2010.06.25/outbox.cif.g09.slc.cpg/sg2_131_cif.got.tgz:261251.got - 2010.06.27 13:26:56.
