data_PCOD8014286
_publ_section_title
;
Structure prediction by ZEFSAII (Michael W. Deem and Ramdas Pophale) SiO2 
 PCOD8014286
Probable space group: P -1
;
_chemical_formula_sum "Si O2"
_cell_formula_units_Z 16
_cell_length_a 8.187540
_cell_length_b 6.484237
_cell_length_c 14.782740
_cell_angle_alpha 106.627064
_cell_angle_beta 101.025304
_cell_angle_gamma 81.451154
_cell_volume 734.429656
_symmetry_space_group_name_H-M "P -1"
_symmetry_group_IT_number 2
_symmetry_cell_setting 'triclinic'
loop_
_space_group_symop_operation_xyz
x,y,z
-x,-y,-z
loop_
_atom_site_type_symbol
_atom_site_label
_atom_site_fract_x
_atom_site_fract_y
_atom_site_fract_z
Si Si1 0.266459 0.969008 0.035592
Si Si2 0.788667 0.433915 0.500664
Si Si3 0.428656 0.819181 0.857841
Si Si4 0.995518 0.263633 0.933285
Si Si5 0.942252 0.840947 0.599280
Si Si6 0.620378 0.157646 0.574573
Si Si7 0.168080 0.116534 0.762105
Si Si8 0.355339 0.403374 0.687332
O O1 0.377797 0.133138 0.119725
O O2 0.187992 0.817553 0.082624
O O3 0.123987 0.104409 0.982034
O O4 0.374865 0.813200 0.956701
O O5 0.847468 0.632705 0.591294
O O6 0.636160 0.347453 0.527359
O O7 0.728442 0.511470 0.404369
O O8 0.943735 0.243516 0.485830
O O9 0.400181 0.592567 0.781598
O O10 0.331012 0.019355 0.820408
O O11 0.043861 0.264894 0.832867
O O12 0.000000 0.500000 0.000000
O O13 0.805104 0.042627 0.595100
O O14 0.070603 0.913157 0.696300
O O15 0.530978 0.258881 0.667989
O O16 0.500000 0.000000 0.500000
O O17 0.223615 0.259103 0.702493
#
# Coordination Sequence:
#
# PCOD8014286 Si02
#       8
#     2   2   2   2   2   2   2   2
#     4   9  21  41  67  93 122 172 203 259 321 382
#     4  11  25  44  67  89 123 179 213 260 322 382
#     4  10  22  42  65  92 130 164 214 260 322 378
#     4  10  21  41  66  93 130 159 212 258 318 382
#     4  11  25  42  67  91 128 168 218 261 322 379
#     4  12  26  41  63  93 128 164 216 270 317 376
#     4  11  25  40  63  96 127 171 210 269 316 376
#     4  12  25  41  66  95 128 168 218 262 319 380
#
# _framework density 21.785613999999999
#
# number of rings (size 3 to 8) (size 9 to 14) (size 15 to 20)
#    0.000    1.250    2.500    2.250    3.500    4.000 
#    0.000    3.750    0.000    0.000    0.000    0.000 
#    0.000    0.000    0.000    0.000    0.000    0.000 
#
# Total GULP energy -198366.900984 kJ/mol
# GULP energy per Si atom -12397.931312 kJ/mol
# Density = 2.173603 g / cm^3
# Si number density = 21.785614 Si / 1000 Ang^3
#
#
#
# Elastic Constant Matrix: (Units=GPa)
#
#
# Indices 1 2 3 4 5 6 
#
# 1 130.7173 55.4672 54.9172 1.1247 -7.0511 28.9700
# 2 55.4672 83.4576 50.1843 17.9927 -18.7521 23.8519
# 3 54.9172 50.1843 105.9497 22.0483 -6.8445 22.6203
# 4 1.1247 17.9927 22.0483 43.4229 5.0450 0.8540
# 5 -7.0511 -18.7521 -6.8445 5.0450 43.4393 5.0493
# 6 28.9700 23.8519 22.6203 0.8540 5.0493 48.7520
#
#
#
# Elastic Compliance Matrix: (Units=1/GPa)
#
#
# Indices 1 2 3 4 5 6 
#
# 1 0.012510 -0.006746 -0.003911 0.004708 -0.001787 -0.002216
# 2 -0.006746 0.025917 -0.004444 -0.009480 0.011380 -0.007622
# 3 -0.003911 -0.004444 0.015429 -0.005941 0.000875 -0.002647
# 4 0.004708 -0.009480 -0.005941 0.030732 -0.008406 0.004929
# 5 -0.001787 0.011380 0.000875 -0.008406 0.029668 -0.007837
# 6 -0.002216 -0.007622 -0.002647 0.004929 -0.007837 0.027511
#
#
# Mechanical properties :
#
#
# Convention : Reuss Voigt Hill
#
# Bulk Modulus (GPa) = 42.27715 71.25133 56.76424
# Shear Modulus (GPa) = 27.80052 37.75989 32.78021
#
# Velocity S-wave (km/s) = 3.57612 4.16775 3.88322
# Velocity P-wave (km/s) = 6.04150 7.47909 6.79840
#
# Compressibility (1/GPa) = 0.02365344
#
# Stress axis : x y z
#
# Youngs Moduli (GPa) = 79.93678 38.58541 64.81401
#
# Poissons Ratio (x) = 0.26028 0.25350
# Poissons Ratio (y) = 0.53922 0.28804
# Poissons Ratio (z) = 0.31265 0.17148
#
# Static dielectric constant tensor:
#      x y z
#    x 4.649850 -0.409880 -0.256850 
#    y -0.409880 4.454240 0.278650 
#    z -0.256850 0.278650 3.939890 
# 
# 
# High freq. dielectric constant tensor:
#      x y z
#    x 1.876320 0.006050 -0.000530 
#    y 0.006050 1.851850 0.017250 
#    z -0.000530 0.017250 1.846430 
# 
# From -- ./inp_files/488688.got.cif
#   From: 2010.06.25/outbox.cif.g09.slc.cpg/sg2_245_cif.got.tgz:488688.got - 2010.06.27 13:26:56.
