data_PCOD8014072
_publ_section_title
;
Structure prediction by ZEFSAII (Michael W. Deem and Ramdas Pophale) SiO2 
 PCOD8014072
Probable space group: P -1
;
_chemical_formula_sum "Si O2"
_cell_formula_units_Z 16
_cell_length_a 11.344735
_cell_length_b 12.599767
_cell_length_c 10.504570
_cell_angle_alpha 111.838235
_cell_angle_beta 131.535843
_cell_angle_gamma 105.817092
_cell_volume 693.284449
_symmetry_space_group_name_H-M "P -1"
_symmetry_group_IT_number 2
_symmetry_cell_setting 'triclinic'
loop_
_space_group_symop_operation_xyz
x,y,z
-x,-y,-z
loop_
_atom_site_type_symbol
_atom_site_label
_atom_site_fract_x
_atom_site_fract_y
_atom_site_fract_z
Si Si1 0.158513 0.085463 0.780614
Si Si2 0.120898 0.209605 0.349266
Si Si3 0.424965 0.635135 0.377842
Si Si4 0.904850 0.693801 0.154894
Si Si5 0.286043 0.805944 0.302141
Si Si6 0.892955 0.586307 0.727258
Si Si7 0.312744 0.681765 0.763887
Si Si8 0.921179 0.631138 0.416751
O O1 0.208486 0.243452 0.924341
O O2 0.405229 0.152332 0.966140
O O3 0.000000 0.000000 0.500000
O O4 0.052164 0.970144 0.780343
O O5 0.304072 0.235025 0.409700
O O6 0.015957 0.241881 0.184997
O O7 0.216072 0.347374 0.588214
O O8 0.381170 0.745809 0.415750
O O9 0.337657 0.523921 0.394385
O O10 0.282202 0.505616 0.099519
O O11 0.974057 0.718390 0.361134
O O12 0.142718 0.808974 0.296257
O O13 0.500000 0.000000 0.500000
O O14 0.117918 0.666222 0.006308
O O15 0.814593 0.452938 0.505422
O O16 0.251001 0.573260 0.797602
O O17 0.182782 0.734582 0.704787
#
# Coordination Sequence:
#
# PCOD8014072 Si02
#       8
#     2   2   2   2   2   2   2   2
#     4  12  26  44  62 102 140 176 221 283 344 388
#     4  11  24  41  62  99 133 177 221 278 341 383
#     4  11  23  42  72  97 133 182 226 270 323 410
#     4  11  22  42  68  95 136 178 229 266 333 403
#     4  11  24  44  69 105 133 173 219 281 341 391
#     4  10  22  45  67  98 131 180 231 269 330 406
#     4  10  23  42  68  95 133 174 228 272 338 401
#     4  10  21  41  64  96 125 178 225 270 326 405
#
# _framework density 23.078551000000001
#
# number of rings (size 3 to 8) (size 9 to 14) (size 15 to 20)
#    0.000    1.250    1.250    5.625    1.750    4.500 
#    6.750    3.750    0.000    0.000    0.000    0.000 
#    0.000    0.000    0.000    0.000    0.000    0.000 
#
# Total GULP energy -198228.915953 kJ/mol
# GULP energy per Si atom -12389.307247 kJ/mol
# Density = 2.302602 g / cm^3
# Si number density = 23.078551 Si / 1000 Ang^3
#
#
#
# Elastic Constant Matrix: (Units=GPa)
#
#
# Indices 1 2 3 4 5 6 
#
# 1 79.8485 20.0356 20.0274 -0.6264 13.6271 9.8653
# 2 20.0356 134.4514 8.6226 4.3211 5.0817 17.6653
# 3 20.0274 8.6226 51.4367 8.0004 12.9213 15.3905
# 4 -0.6264 4.3211 8.0004 27.2152 6.3008 2.4024
# 5 13.6271 5.0817 12.9213 6.3008 34.1486 3.5654
# 6 9.8653 17.6653 15.3905 2.4024 3.5654 44.0592
#
#
#
# Elastic Compliance Matrix: (Units=1/GPa)
#
#
# Indices 1 2 3 4 5 6 
#
# 1 0.015024 -0.001761 -0.004669 0.003102 -0.004452 -0.000836
# 2 -0.001761 0.008100 0.000419 -0.001159 -0.000142 -0.002925
# 3 -0.004669 0.000419 0.025813 -0.005691 -0.006151 -0.007331
# 4 0.003102 -0.001159 -0.005691 0.040130 -0.006325 0.000082
# 5 -0.004452 -0.000142 -0.006151 -0.006325 0.034497 0.000756
# 6 -0.000836 -0.002925 -0.007331 0.000082 0.000756 0.026552
#
#
# Mechanical properties :
#
#
# Convention : Reuss Voigt Hill
#
# Bulk Modulus (GPa) = 27.08877 40.34529 33.71703
# Shear Modulus (GPa) = 28.66279 35.55467 32.10873
#
# Velocity S-wave (km/s) = 3.52798 3.92930 3.73403
# Velocity P-wave (km/s) = 5.32528 6.17297 5.76473
#
# Compressibility (1/GPa) = 0.03691566
#
# Stress axis : x y z
#
# Youngs Moduli (GPa) = 66.56038 123.45510 38.74036
#
# Poissons Ratio (x) = 0.21741 0.18086
# Poissons Ratio (y) = 0.11721 -0.01623
# Poissons Ratio (z) = 0.31074 -0.05172
#
# Static dielectric constant tensor:
#      x y z
#    x 4.452450 0.002430 0.154180 
#    y 0.002430 4.506950 -0.131930 
#    z 0.154180 -0.131930 3.761620 
# 
# 
# High freq. dielectric constant tensor:
#      x y z
#    x 1.927280 0.006880 0.012900 
#    y 0.006880 1.930960 -0.003810 
#    z 0.012900 -0.003810 1.872850 
# 
# From -- ./inp_files/428611.got.cif
#   From: 2010.06.25/outbox.cif.g09.slc.cpg/sg2_215_cif.got.tgz:428611.got - 2010.06.27 13:26:56.
