data_PCOD8014705
_publ_section_title
;
Structure prediction by ZEFSAII (Michael W. Deem and Ramdas Pophale) SiO2 
 PCOD8014705
Probable space group: P -1
;
_chemical_formula_sum "Si O2"
_cell_formula_units_Z 16
_cell_length_a 26.665932
_cell_length_b 10.956894
_cell_length_c 21.547048
_cell_angle_alpha 145.231134
_cell_angle_beta 12.237588
_cell_angle_gamma 146.327362
_cell_volume 738.093289
_symmetry_space_group_name_H-M "P -1"
_symmetry_group_IT_number 2
_symmetry_cell_setting 'triclinic'
loop_
_space_group_symop_operation_xyz
x,y,z
-x,-y,-z
loop_
_atom_site_type_symbol
_atom_site_label
_atom_site_fract_x
_atom_site_fract_y
_atom_site_fract_z
Si Si1 0.640395 0.878318 0.733199
Si Si2 0.391384 0.435924 0.780739
Si Si3 0.929835 0.829153 0.842554
Si Si4 0.600280 0.166398 0.793017
Si Si5 0.827137 0.029072 0.850175
Si Si6 0.273185 0.535772 0.826426
Si Si7 0.767521 0.601691 0.825180
Si Si8 0.113126 0.683275 0.888728
O O1 0.482504 0.642802 0.803072
O O2 0.887667 0.864192 0.463813
O O3 0.723348 0.034688 0.638881
O O4 0.500000 0.000000 0.000000
O O5 0.297848 0.507168 0.858279
O O6 0.604048 0.309947 0.460061
O O7 0.161806 0.264034 0.017813
O O8 0.738086 0.682616 0.964260
O O9 0.206521 0.802183 0.485116
O O10 0.919666 0.081515 0.951052
O O11 0.555600 0.395072 0.971135
O O12 0.330747 0.022631 0.043295
O O13 0.779052 0.801413 0.848871
O O14 0.731379 0.213924 0.080365
O O15 0.500000 0.500000 0.500000
O O16 0.027457 0.371685 0.029708
O O17 0.000000 0.500000 0.500000
O O18 0.000000 0.500000 0.000000
#
# Coordination Sequence:
#
# PCOD8014705 Si02
#       8
#     2   2   2   2   2   2   2   2
#     4  12  25  45  72 100 145 188 236 291 347 426
#     4  12  26  45  67 105 147 178 241 295 349 424
#     4  11  24  45  70 102 145 183 230 298 357 413
#     4  11  23  45  69 102 138 184 237 287 356 429
#     4  12  23  44  72 104 134 189 242 282 358 420
#     4  12  25  43  73 104 140 186 237 290 348 423
#     4  10  21  41  70  97 135 181 233 288 351 416
#     4  12  23  45  74 100 137 191 237 287 356 423
#
# _framework density 21.677475999999999
#
# number of rings (size 3 to 8) (size 9 to 14) (size 15 to 20)
#    0.000    0.500    6.250    3.750    1.750    1.000 
#    2.250    0.000    0.000    0.000    0.000    0.000 
#    0.000    0.000    0.000    0.000    0.000    0.000 
#
# Total GULP energy -198352.096168 kJ/mol
# GULP energy per Si atom -12397.006010 kJ/mol
# Density = 2.162814 g / cm^3
# Si number density = 21.677476 Si / 1000 Ang^3
#
#
#
# Elastic Constant Matrix: (Units=GPa)
#
#
# Indices 1 2 3 4 5 6 
#
# 1 95.2429 45.8127 54.8690 -5.6091 -2.9606 17.5032
# 2 45.8127 144.6536 47.1620 22.9162 4.4973 9.5790
# 3 54.8690 47.1620 98.2688 3.0941 -10.4314 6.9945
# 4 -5.6091 22.9162 3.0941 42.0514 1.8663 3.9241
# 5 -2.9606 4.4973 -10.4314 1.8663 31.9222 -6.3066
# 6 17.5032 9.5790 6.9945 3.9241 -6.3066 41.9876
#
#
#
# Elastic Compliance Matrix: (Units=1/GPa)
#
#
# Indices 1 2 3 4 5 6 
#
# 1 0.018618 -0.003477 -0.008687 0.005712 -0.002218 -0.006388
# 2 -0.003477 0.009916 -0.002883 -0.005534 -0.002372 -0.000172
# 3 -0.008687 -0.002883 0.016880 -0.001310 0.005676 0.002442
# 4 0.005712 -0.005534 -0.001310 0.028071 -0.001500 -0.003749
# 5 -0.002218 -0.002372 0.005676 -0.001500 0.034553 0.005850
# 6 -0.006388 -0.000172 0.002442 -0.003749 0.005850 0.027341
#
#
# Mechanical properties :
#
#
# Convention : Reuss Voigt Hill
#
# Bulk Modulus (GPa) = 65.27526 70.42809 67.85167
# Shear Modulus (GPa) = 29.31168 35.88035 32.59601
#
# Velocity S-wave (km/s) = 3.68118 4.07282 3.88194
# Velocity P-wave (km/s) = 6.94590 7.39437 7.17364
#
# Compressibility (1/GPa) = 0.01531974
#
# Stress axis : x y z
#
# Youngs Moduli (GPa) = 53.71108 100.84708 59.24048
#
# Poissons Ratio (x) = 0.35064 0.51465
# Poissons Ratio (y) = 0.18675 0.17078
# Poissons Ratio (z) = 0.46661 0.29073
#
# Static dielectric constant tensor:
#      x y z
#    x 4.171620 0.351500 -0.236590 
#    y 0.351500 4.450480 0.160620 
#    z -0.236590 0.160620 3.873260 
# 
# 
# High freq. dielectric constant tensor:
#      x y z
#    x 1.849750 0.015130 -0.010180 
#    y 0.015130 1.869880 0.014230 
#    z -0.010180 0.014230 1.841960 
# 
# From -- ./inp_files/607496.got.cif
#   From: 2010.06.25/outbox.cif.g09.slc.cpg/sg2_304_cif.got.tgz:607496.got - 2010.06.27 13:26:56.
