data_PCOD8014551
_publ_section_title
;
Structure prediction by ZEFSAII (Michael W. Deem and Ramdas Pophale) SiO2 
 PCOD8014551
Probable space group: P -1
;
_chemical_formula_sum "Si O2"
_cell_formula_units_Z 14
_cell_length_a 21.033183
_cell_length_b 9.041337
_cell_length_c 9.140406
_cell_angle_alpha 66.121378
_cell_angle_beta 36.393052
_cell_angle_gamma 43.279515
_cell_volume 632.973883
_symmetry_space_group_name_H-M "P -1"
_symmetry_group_IT_number 2
_symmetry_cell_setting 'triclinic'
loop_
_space_group_symop_operation_xyz
x,y,z
-x,-y,-z
loop_
_atom_site_type_symbol
_atom_site_label
_atom_site_fract_x
_atom_site_fract_y
_atom_site_fract_z
Si Si1 0.044279 0.692807 0.582555
Si Si2 0.849775 0.098431 0.555629
Si Si3 0.664698 0.850021 0.832466
Si Si4 0.264012 0.887205 0.522862
Si Si5 0.465489 0.089001 0.367095
Si Si6 0.763265 0.931868 0.197264
Si Si7 0.546422 0.337050 0.192841
O O1 0.086536 0.798746 0.559686
O O2 0.201131 0.419977 0.363353
O O3 0.962347 0.836105 0.524679
O O4 0.923276 0.719062 0.892947
O O5 0.855288 0.081252 0.374419
O O6 0.667951 0.277790 0.874655
O O7 0.712962 0.979012 0.669098
O O8 0.500000 0.000000 0.000000
O O9 0.625704 0.864955 0.069731
O O10 0.429291 0.608516 0.354693
O O11 0.193607 0.008505 0.764088
O O12 0.310472 0.158225 0.573749
O O13 0.442357 0.309847 0.318432
O O14 0.500000 0.000000 0.500000
O O15 0.638520 0.168737 0.232648
#
# Coordination Sequence:
#
# PCOD8014551 Si02
#       7
#     2   2   2   2   2   2   2
#     4  10  25  46  63  90 140 172 212 265 331 390
#     4  10  22  42  65  93 128 179 217 264 323 382
#     4  12  24  42  70  98 125 173 220 265 322 392
#     4  12  23  37  68 101 127 169 225 265 316 379
#     4  10  22  43  65 100 128 169 218 261 329 380
#     4  10  23  44  64  99 134 172 210 270 332 373
#     4  10  21  41  68  95 134 170 217 270 315 388
#
# _framework density 22.117816000000001
#
# number of rings (size 3 to 8) (size 9 to 14) (size 15 to 20)
#    0.000    1.429    2.857    1.714    2.000    1.714 
#    7.714    0.000    0.000    0.000    0.000    0.000 
#    0.000    0.000    0.000    0.000    0.000    0.000 
#
# Total GULP energy -173557.843263 kJ/mol
# GULP energy per Si atom -12396.988805 kJ/mol
# Density = 2.206747 g / cm^3
# Si number density = 22.117816 Si / 1000 Ang^3
#
#
#
# Elastic Constant Matrix: (Units=GPa)
#
#
# Indices 1 2 3 4 5 6 
#
# 1 111.3553 10.2357 34.9979 6.7151 19.2776 -7.8382
# 2 10.2357 64.7436 53.4854 12.1634 0.5244 -0.9360
# 3 34.9979 53.4854 131.6116 16.8682 13.1521 -5.6737
# 4 6.7151 12.1634 16.8682 36.9261 1.1287 -4.9935
# 5 19.2776 0.5244 13.1521 1.1287 37.5195 -3.0085
# 6 -7.8382 -0.9360 -5.6737 -4.9935 -3.0085 20.3289
#
#
#
# Elastic Compliance Matrix: (Units=1/GPa)
#
#
# Indices 1 2 3 4 5 6 
#
# 1 0.010679 0.000470 -0.002410 -0.000497 -0.004418 0.002691
# 2 0.000470 0.024158 -0.009808 -0.003918 0.002817 -0.001989
# 3 -0.002410 -0.009808 0.012822 -0.001924 -0.002958 0.001288
# 4 -0.000497 -0.003918 -0.001924 0.030215 0.000605 0.006602
# 5 -0.004418 0.002817 -0.002958 0.000605 0.030079 0.002201
# 6 0.002691 -0.001989 0.001288 0.006602 0.002201 0.052444
#
#
# Mechanical properties :
#
#
# Convention : Reuss Voigt Hill
#
# Bulk Modulus (GPa) = 41.38192 56.12760 48.75476
# Shear Modulus (GPa) = 26.04912 32.88767 29.46840
#
# Velocity S-wave (km/s) = 3.43555 3.86026 3.65408
# Velocity P-wave (km/s) = 5.87263 6.73057 6.31618
#
# Compressibility (1/GPa) = 0.02416514
#
# Stress axis : x y z
#
# Youngs Moduli (GPa) = 93.64602 41.39428 77.98879
#
# Poissons Ratio (x) = -0.01948 0.18792
# Poissons Ratio (y) = -0.04406 0.76489
# Poissons Ratio (z) = 0.22565 0.40598
#
# Static dielectric constant tensor:
#      x y z
#    x 0.815180 -0.520480 4.206420 
#    y -0.520480 3.890970 0.494440 
#    z 4.206420 0.494440 -1.883630 
# 
# 
# High freq. dielectric constant tensor:
#      x y z
#    x 1.886390 0.005740 0.010070 
#    y 0.005740 1.863510 -0.012830 
#    z 0.010070 -0.012830 1.862810 
# 
# From -- ./inp_files/223043.got.cif
#   From: 2010.06.25/outbox.cif.g09.slc.cpg/sg2_112_cif.got.tgz:223043.got - 2010.06.27 13:26:56.
