data_PCOD8014649
_publ_section_title
;
Structure prediction by ZEFSAII (Michael W. Deem and Ramdas Pophale) SiO2 
 PCOD8014649
Probable space group: P -1
;
_chemical_formula_sum "Si O2"
_cell_formula_units_Z 16
_cell_length_a 9.391056
_cell_length_b 11.051583
_cell_length_c 14.338745
_cell_angle_alpha 149.952082
_cell_angle_beta 113.293007
_cell_angle_gamma 68.529177
_cell_volume 683.511711
_symmetry_space_group_name_H-M "P -1"
_symmetry_group_IT_number 2
_symmetry_cell_setting 'triclinic'
loop_
_space_group_symop_operation_xyz
x,y,z
-x,-y,-z
loop_
_atom_site_type_symbol
_atom_site_label
_atom_site_fract_x
_atom_site_fract_y
_atom_site_fract_z
Si Si1 0.986475 0.501416 0.385828
Si Si2 0.308654 0.171285 0.509843
Si Si3 0.818129 0.949522 0.886654
Si Si4 0.709190 0.250608 0.896879
Si Si5 0.574895 0.642548 0.514319
Si Si6 0.747251 0.172035 0.390214
Si Si7 0.357753 0.212755 0.762347
Si Si8 0.662184 0.101790 0.131949
O O1 0.019009 0.217055 0.173634
O O2 0.103146 0.671582 0.474709
O O3 0.000000 0.500000 0.500000
O O4 0.818609 0.605705 0.380536
O O5 0.439866 0.212003 0.491442
O O6 0.383619 0.164173 0.626293
O O7 0.241666 0.911392 0.290011
O O8 0.691795 0.765151 0.696576
O O9 0.818431 0.164646 0.954437
O O10 0.781642 0.051349 0.047056
O O11 0.527468 0.220856 0.859117
O O12 0.736075 0.531230 0.072371
O O13 0.404906 0.639469 0.515062
O O14 0.650524 0.385524 0.335872
O O15 0.730724 0.998611 0.179017
O O16 0.748614 0.991399 0.358157
O O17 0.500000 0.000000 0.000000
#
# Coordination Sequence:
#
# PCOD8014649 Si02
#       8
#     2   2   2   2   2   2   2   2
#     4  12  24  46  69  93 137 173 216 277 338 386
#     4  11  23  44  70  93 129 184 214 262 331 393
#     4  11  21  42  68  96 128 168 216 271 334 384
#     4  10  21  41  69  98 130 164 217 280 313 383
#     4  11  21  41  66  99 128 166 222 281 318 379
#     4  12  24  41  64  99 137 171 219 277 318 391
#     4  11  23  42  65 102 132 174 221 264 321 389
#     4  12  21  35  63  99 130 167 212 277 337 373
#
# _framework density 23.408525000000001
#
# number of rings (size 3 to 8) (size 9 to 14) (size 15 to 20)
#    0.000    0.750    7.500    2.250    0.000    1.500 
#    4.500    2.500    0.000    0.000    0.000    0.000 
#    0.000    0.000    0.000    0.000    0.000    0.000 
#
# Total GULP energy -198376.442466 kJ/mol
# GULP energy per Si atom -12398.527654 kJ/mol
# Density = 2.335525 g / cm^3
# Si number density = 23.408525 Si / 1000 Ang^3
#
#
#
# Elastic Constant Matrix: (Units=GPa)
#
#
# Indices 1 2 3 4 5 6 
#
# 1 97.1372 28.2705 21.6761 2.9898 -2.5505 10.2605
# 2 28.2705 100.8828 34.8012 -2.9714 -9.9730 7.2395
# 3 21.6761 34.8012 109.9137 8.9872 -44.2908 8.5346
# 4 2.9898 -2.9714 8.9872 48.5736 3.3035 -5.0233
# 5 -2.5505 -9.9730 -44.2908 3.3035 40.1218 1.0715
# 6 10.2605 7.2395 8.5346 -5.0233 1.0715 34.3020
#
#
#
# Elastic Compliance Matrix: (Units=1/GPa)
#
#
# Indices 1 2 3 4 5 6 
#
# 1 0.011748 -0.002619 -0.002091 -0.000609 -0.002097 -0.002465
# 2 -0.002619 0.011971 -0.004159 0.001753 -0.001915 -0.000392
# 3 -0.002091 -0.004159 0.020737 -0.006025 0.022361 -0.005237
# 4 -0.000609 0.001753 -0.006025 0.022919 -0.008273 0.004926
# 5 -0.002097 -0.001915 0.022361 -0.008273 0.049876 -0.007302
# 6 -0.002465 -0.000392 -0.005237 0.004926 -0.007302 0.032225
#
#
# Mechanical properties :
#
#
# Convention : Reuss Voigt Hill
#
# Bulk Modulus (GPa) = 37.42767 53.04770 45.23768
# Shear Modulus (GPa) = 28.38977 39.47853 33.93415
#
# Velocity S-wave (km/s) = 3.48630 4.11116 3.81156
# Velocity P-wave (km/s) = 5.67709 6.72655 6.22398
#
# Compressibility (1/GPa) = 0.02671820
#
# Stress axis : x y z
#
# Youngs Moduli (GPa) = 85.12363 83.53247 48.22264
#
# Poissons Ratio (x) = 0.21877 0.10085
# Poissons Ratio (y) = 0.22293 0.20054
# Poissons Ratio (z) = 0.17803 0.34738
#
# Static dielectric constant tensor:
#      x y z
#    x 4.202090 0.071120 -0.296720 
#    y 0.071120 4.524640 0.236660 
#    z -0.296720 0.236660 4.467970 
# 
# 
# High freq. dielectric constant tensor:
#      x y z
#    x 1.912290 0.001240 -0.012060 
#    y 0.001240 1.929940 0.008690 
#    z -0.012060 0.008690 1.945080 
# 
# From -- ./inp_files/501258.got.cif
#   From: 2010.06.25/outbox.cif.g09.slc.cpg/sg2_251_cif.got.tgz:501258.got - 2010.06.27 13:26:56.
