data_PCOD8014826
_publ_section_title
;
Structure prediction by ZEFSAII (Michael W. Deem and Ramdas Pophale) SiO2 
 PCOD8014826
Probable space group: P -1
;
_chemical_formula_sum "Si O2"
_cell_formula_units_Z 16
_cell_length_a 8.698739
_cell_length_b 7.298846
_cell_length_c 22.308869
_cell_angle_alpha 89.486209
_cell_angle_beta 51.951213
_cell_angle_gamma 125.361567
_cell_volume 747.782023
_symmetry_space_group_name_H-M "P -1"
_symmetry_group_IT_number 2
_symmetry_cell_setting 'triclinic'
loop_
_space_group_symop_operation_xyz
x,y,z
-x,-y,-z
loop_
_atom_site_type_symbol
_atom_site_label
_atom_site_fract_x
_atom_site_fract_y
_atom_site_fract_z
Si Si1 0.770640 0.812235 0.005009
Si Si2 0.226121 0.646175 0.105689
Si Si3 0.905042 0.134657 0.777755
Si Si4 0.468688 0.552539 0.574372
Si Si5 0.658578 0.377736 0.619501
Si Si6 0.312547 0.898773 0.484887
Si Si7 0.915601 0.051705 0.185855
Si Si8 0.300760 0.654394 0.955955
O O1 0.509625 0.775507 0.074195
O O2 0.647324 0.521301 0.039871
O O3 0.000000 0.000000 0.000000
O O4 0.940444 0.962457 0.902111
O O5 0.054545 0.691416 0.178578
O O6 0.320576 0.772221 0.014974
O O7 0.998056 0.320752 0.160125
O O8 0.120124 0.338202 0.670986
O O9 0.980651 0.978900 0.778638
O O10 0.557302 0.896422 0.847810
O O11 0.500000 0.500000 0.500000
O O12 0.614693 0.522348 0.587591
O O13 0.647968 0.862115 0.540842
O O14 0.585974 0.151006 0.595963
O O15 0.435180 0.211859 0.729380
O O16 0.973238 0.606437 0.575168
O O17 0.500000 0.000000 0.500000
O O18 0.000000 0.500000 0.000000
#
# Coordination Sequence:
#
# PCOD8014826 Si02
#       8
#     2   2   2   2   2   2   2   2
#     4  11  22  39  61  90 131 167 206 258 311 373
#     4  11  21  41  64  85 134 164 206 261 307 380
#     4  11  22  39  67  90 123 171 209 257 320 374
#     4  11  23  44  66  98 129 167 219 270 331 386
#     4  10  23  43  70  92 131 166 218 268 320 400
#     4  11  22  44  68  95 128 169 211 273 332 377
#     4  10  21  42  60  95 122 166 211 253 320 374
#     4  11  22  39  60  94 129 166 211 257 309 375
#
# _framework density 21.396609999999999
#
# number of rings (size 3 to 8) (size 9 to 14) (size 15 to 20)
#    0.000    1.250    3.750    3.000    1.750    0.000 
#   11.250    1.250    0.000    0.000    0.000    0.000 
#    0.000    0.000    0.000    0.000    0.000    0.000 
#
# Total GULP energy -198306.059756 kJ/mol
# GULP energy per Si atom -12394.128735 kJ/mol
# Density = 2.134791 g / cm^3
# Si number density = 21.396610 Si / 1000 Ang^3
#
#
#
# Elastic Constant Matrix: (Units=GPa)
#
#
# Indices 1 2 3 4 5 6 
#
# 1 71.8320 24.0740 20.6805 -5.6316 -12.4836 7.4506
# 2 24.0740 101.5330 42.3086 -4.9298 -4.3082 0.4127
# 3 20.6805 42.3086 151.8186 -1.3958 -15.9881 9.0453
# 4 -5.6316 -4.9298 -1.3958 26.3313 2.3671 -8.6492
# 5 -12.4836 -4.3082 -15.9881 2.3671 27.2509 -4.4804
# 6 7.4506 0.4127 9.0453 -8.6492 -4.4804 42.0358
#
#
#
# Elastic Compliance Matrix: (Units=1/GPa)
#
#
# Indices 1 2 3 4 5 6 
#
# 1 0.016621 -0.003354 -0.000542 0.001751 0.006324 -0.001762
# 2 -0.003354 0.011961 -0.003089 0.001941 -0.001397 0.001392
# 3 -0.000542 -0.003089 0.007997 -0.001076 0.003817 -0.001409
# 4 0.001751 0.001941 -0.001076 0.041530 -0.001772 0.008259
# 5 0.006324 -0.001397 0.003817 -0.001772 0.042127 0.002197
# 6 -0.001762 0.001392 -0.001409 0.008259 0.002197 0.026325
#
#
# Mechanical properties :
#
#
# Convention : Reuss Voigt Hill
#
# Bulk Modulus (GPa) = 44.23120 55.47887 49.85504
# Shear Modulus (GPa) = 29.75008 34.99830 32.37419
#
# Velocity S-wave (km/s) = 3.73287 4.04876 3.89402
# Velocity P-wave (km/s) = 6.26865 6.91677 6.60067
#
# Compressibility (1/GPa) = 0.02260848
#
# Stress axis : x y z
#
# Youngs Moduli (GPa) = 60.16590 83.60761 125.04034
#
# Poissons Ratio (x) = 0.28046 0.06780
# Poissons Ratio (y) = 0.20182 0.38619
# Poissons Ratio (z) = 0.03262 0.25822
#
# Static dielectric constant tensor:
#      x y z
#    x 3.800240 -0.157170 -0.002090 
#    y -0.157170 4.235240 0.151540 
#    z -0.002090 0.151540 4.283260 
# 
# 
# High freq. dielectric constant tensor:
#      x y z
#    x 1.834260 -0.023180 -0.006960 
#    y -0.023180 1.838750 -0.013370 
#    z -0.006960 -0.013370 1.849590 
# 
# From -- ./inp_files/606733.got.cif
#   From: 2010.06.25/outbox.cif.g09.slc.cpg/sg2_304_cif.got.tgz:606733.got - 2010.06.27 13:26:56.
