data_PCOD8014809
_publ_section_title
;
Structure prediction by ZEFSAII (Michael W. Deem and Ramdas Pophale) SiO2 
 PCOD8014809
Probable space group: P -1
;
_chemical_formula_sum "Si O2"
_cell_formula_units_Z 14
_cell_length_a 27.555696
_cell_length_b 6.661189
_cell_length_c 5.249339
_cell_angle_alpha 70.086973
_cell_angle_beta 53.166149
_cell_angle_gamma 47.016319
_cell_volume 560.330830
_symmetry_space_group_name_H-M "P -1"
_symmetry_group_IT_number 2
_symmetry_cell_setting 'triclinic'
loop_
_space_group_symop_operation_xyz
x,y,z
-x,-y,-z
loop_
_atom_site_type_symbol
_atom_site_label
_atom_site_fract_x
_atom_site_fract_y
_atom_site_fract_z
Si Si1 0.657409 0.098929 0.165799
Si Si2 0.951773 0.662738 0.331979
Si Si3 0.586595 0.556464 0.528232
Si Si4 0.308684 0.529920 0.353544
Si Si5 0.168716 0.418887 0.191396
Si Si6 0.143795 0.722758 0.661528
Si Si7 0.424122 0.010505 0.943747
O O1 0.603541 0.269442 0.513201
O O2 0.607792 0.082791 0.124104
O O3 0.673158 0.309736 0.950534
O O4 0.740264 0.799285 0.082580
O O5 0.869336 0.721548 0.558799
O O6 0.000000 0.500000 0.500000
O O7 0.931442 0.957885 0.270547
O O8 0.000000 0.500000 0.000000
O O9 0.667315 0.458532 0.442654
O O10 0.564014 0.772751 0.285027
O O11 0.510087 0.730934 0.882887
O O12 0.217282 0.688581 0.555452
O O13 0.358771 0.196728 0.288613
O O14 0.162207 0.581680 0.390206
O O15 0.122367 0.605013 0.005650
#
# Coordination Sequence:
#
# PCOD8014809 Si02
#       7
#     2   2   2   2   2   2   2
#     4  11  23  39  65  97 137 187 250 292 363 429
#     4  12  28  51  79 113 150 183 235 298 362 441
#     4  10  23  37  64  91 141 184 242 312 356 418
#     4  11  23  39  65  96 137 189 245 301 358 424
#     4  12  27  47  77 109 147 197 239 293 365 433
#     4  12  27  47  76 108 149 192 243 295 359 437
#     4  10  21  42  58  96 133 187 243 305 365 419
#
# _framework density 24.985239
#
# number of rings (size 3 to 8) (size 9 to 14) (size 15 to 20)
#    0.000    0.857    2.857    3.429    4.000    6.286 
#    0.000    0.000    0.000    0.000    0.000    0.000 
#    0.000    0.000    0.000    0.000    0.000    0.000 
#
# Total GULP energy -173542.906953 kJ/mol
# GULP energy per Si atom -12395.921925 kJ/mol
# Density = 2.492837 g / cm^3
# Si number density = 24.985239 Si / 1000 Ang^3
#
#
#
# Elastic Constant Matrix: (Units=GPa)
#
#
# Indices 1 2 3 4 5 6 
#
# 1 83.9220 27.9532 22.7263 18.0203 20.0045 1.1866
# 2 27.9532 147.4176 35.3696 27.7795 23.0357 1.9084
# 3 22.7263 35.3696 96.8576 27.5362 19.5116 -2.6322
# 4 18.0203 27.7795 27.5362 34.5467 7.3011 6.5150
# 5 20.0045 23.0357 19.5116 7.3011 47.5661 0.7957
# 6 1.1866 1.9084 -2.6322 6.5150 0.7957 40.6010
#
#
#
# Elastic Compliance Matrix: (Units=1/GPa)
#
#
# Indices 1 2 3 4 5 6 
#
# 1 0.014669 -0.000863 -0.000574 -0.005622 -0.004662 0.000568
# 2 -0.000863 0.008553 -0.000888 -0.005254 -0.002616 0.000460
# 3 -0.000574 -0.000888 0.014542 -0.010298 -0.003759 0.002727
# 4 -0.005622 -0.005254 -0.010298 0.045249 0.002314 -0.007563
# 5 -0.004662 -0.002616 -0.003759 0.002314 0.025452 -0.000855
# 6 0.000568 0.000460 0.002727 -0.007563 -0.000855 0.025999
#
#
# Mechanical properties :
#
#
# Convention : Reuss Voigt Hill
#
# Bulk Modulus (GPa) = 30.19750 55.58837 42.89294
# Shear Modulus (GPa) = 33.29957 40.68598 36.99278
#
# Velocity S-wave (km/s) = 3.65467 4.03972 3.85201
# Velocity P-wave (km/s) = 5.47003 6.63746 6.08182
#
# Compressibility (1/GPa) = 0.03311532
#
# Stress axis : x y z
#
# Youngs Moduli (GPa) = 68.16948 116.91854 68.76517
#
# Poissons Ratio (x) = 0.10093 0.03945
# Poissons Ratio (y) = 0.05885 0.06104
# Poissons Ratio (z) = 0.03911 0.10378
#
# Static dielectric constant tensor:
#      x y z
#    x 4.320230 0.079940 -0.116270 
#    y 0.079940 4.871760 0.086980 
#    z -0.116270 0.086980 4.661950 
# 
# 
# High freq. dielectric constant tensor:
#      x y z
#    x 1.994500 0.008680 -0.004890 
#    y 0.008680 2.020090 0.001970 
#    z -0.004890 0.001970 1.998170 
# 
# From -- ./inp_files/6755.got.cif
#   From: 2010.06.25/outbox.cif.g09.slc.cpg/sg2_4_cif.got.tgz:6755.got - 2010.06.27 13:26:56.
