data_PCOD8014399
_publ_section_title
;
Structure prediction by ZEFSAII (Michael W. Deem and Ramdas Pophale) SiO2 
 PCOD8014399
Probable space group: P -1
;
_chemical_formula_sum "Si O2"
_cell_formula_units_Z 16
_cell_length_a 8.485119
_cell_length_b 10.820701
_cell_length_c 12.669777
_cell_angle_alpha 105.856185
_cell_angle_beta 47.809715
_cell_angle_gamma 120.637194
_cell_volume 737.222183
_symmetry_space_group_name_H-M "P -1"
_symmetry_group_IT_number 2
_symmetry_cell_setting 'triclinic'
loop_
_space_group_symop_operation_xyz
x,y,z
-x,-y,-z
loop_
_atom_site_type_symbol
_atom_site_label
_atom_site_fract_x
_atom_site_fract_y
_atom_site_fract_z
Si Si1 0.458889 0.834832 0.793518
Si Si2 0.003160 0.137270 0.975669
Si Si3 0.725065 0.055211 0.549199
Si Si4 0.218312 0.284090 0.310466
Si Si5 0.223702 0.392700 0.104520
Si Si6 0.902808 0.475680 0.155749
Si Si7 0.522507 0.548756 0.382827
Si Si8 0.632282 0.847572 0.350113
O O1 0.611838 0.795475 0.801971
O O2 0.308517 0.685998 0.763309
O O3 0.660300 0.956599 0.658821
O O4 0.265597 0.884837 0.936507
O O5 0.142639 0.155421 0.808795
O O6 0.143963 0.274588 0.019991
O O7 0.000000 0.000000 0.000000
O O8 0.530487 0.115054 0.646804
O O9 0.989383 0.187597 0.463335
O O10 0.724160 0.964248 0.427263
O O11 0.144093 0.314813 0.235394
O O12 0.349476 0.432027 0.350238
O O13 0.102133 0.497429 0.159034
O O14 0.500000 0.500000 0.000000
O O15 0.798943 0.589807 0.241277
O O16 0.000000 0.500000 0.000000
O O17 0.500000 0.500000 0.500000
O O18 0.475073 0.687464 0.429606
#
# Coordination Sequence:
#
# PCOD8014399 Si02
#       8
#     2   2   2   2   2   2   2   2
#     4  10  21  41  67  91 130 174 218 263 332 401
#     4  11  21  41  66  95 124 170 222 266 321 394
#     4  11  24  41  68  94 135 178 217 265 341 398
#     4  11  24  42  68  97 134 174 220 276 334 393
#     4  11  23  40  66  98 131 169 217 274 333 385
#     4  10  21  41  68  92 129 177 213 263 333 398
#     4  11  24  43  65  96 129 171 223 271 327 394
#     4  11  23  40  67  97 128 173 221 269 330 398
#
# _framework density 21.703091000000001
#
# number of rings (size 3 to 8) (size 9 to 14) (size 15 to 20)
#    0.000    1.250    1.250    6.375    7.000    0.500 
#    2.250    3.750    0.000    0.000    0.000    0.000 
#    0.000    0.000    0.000    0.000    0.000    0.000 
#
# Total GULP energy -198299.614431 kJ/mol
# GULP energy per Si atom -12393.725902 kJ/mol
# Density = 2.165369 g / cm^3
# Si number density = 21.703091 Si / 1000 Ang^3
#
#
#
# Elastic Constant Matrix: (Units=GPa)
#
#
# Indices 1 2 3 4 5 6 
#
# 1 124.9086 28.0353 33.9818 -1.7970 1.4045 -9.4984
# 2 28.0353 74.4676 10.1796 -12.6240 -0.9187 -12.7092
# 3 33.9818 10.1796 100.5752 -8.4132 2.0167 2.2282
# 4 -1.7970 -12.6240 -8.4132 36.9193 -3.5899 -2.5763
# 5 1.4045 -0.9187 2.0167 -3.5899 36.1034 -10.1992
# 6 -9.4984 -12.7092 2.2282 -2.5763 -10.1992 29.7099
#
#
#
# Elastic Compliance Matrix: (Units=1/GPa)
#
#
# Indices 1 2 3 4 5 6 
#
# 1 0.009669 -0.003071 -0.003098 -0.001132 0.000162 0.001967
# 2 -0.003071 0.017192 -0.000407 0.006553 0.003544 0.008188
# 3 -0.003098 -0.000407 0.011267 0.002038 -0.000924 -0.002150
# 4 -0.001132 0.006553 0.002038 0.030692 0.005035 0.006678
# 5 0.000162 0.003544 -0.000924 0.005035 0.032026 0.013068
# 6 0.001967 0.008188 -0.002150 0.006678 0.013068 0.043017
#
#
# Mechanical properties :
#
#
# Convention : Reuss Voigt Hill
#
# Bulk Modulus (GPa) = 40.03550 49.37163 44.70357
# Shear Modulus (GPa) = 30.24055 35.73019 32.98537
#
# Velocity S-wave (km/s) = 3.73684 4.06189 3.90275
# Velocity P-wave (km/s) = 6.09144 6.69303 6.39931
#
# Compressibility (1/GPa) = 0.02497783
#
# Stress axis : x y z
#
# Youngs Moduli (GPa) = 103.41923 58.16512 88.75275
#
# Poissons Ratio (x) = 0.17863 0.27493
# Poissons Ratio (y) = 0.31760 0.03611
# Poissons Ratio (z) = 0.32037 0.02366
#
# Static dielectric constant tensor:
#      x y z
#    x 4.274320 -0.391810 -0.230610 
#    y -0.391810 4.021000 -0.000560 
#    z -0.230610 -0.000560 3.903030 
# 
# 
# High freq. dielectric constant tensor:
#      x y z
#    x 1.862800 -0.026090 -0.012220 
#    y -0.026090 1.848910 -0.016280 
#    z -0.012220 -0.016280 1.853280 
# 
# From -- ./inp_files/392717.got.cif
#   From: 2010.06.25/outbox.cif.g09.slc.cpg/sg2_197_cif.got.tgz:392717.got - 2010.06.27 13:26:56.
