data_PCOD8014840
_publ_section_title
;
Structure prediction by ZEFSAII (Michael W. Deem and Ramdas Pophale) SiO2 
 PCOD8014840
Probable space group: P -1
;
_chemical_formula_sum "Si O2"
_cell_formula_units_Z 16
_cell_length_a 6.488868
_cell_length_b 18.253982
_cell_length_c 21.715906
_cell_angle_alpha 161.273682
_cell_angle_beta 119.453617
_cell_angle_gamma 65.265033
_cell_volume 708.715122
_symmetry_space_group_name_H-M "P -1"
_symmetry_group_IT_number 2
_symmetry_cell_setting 'triclinic'
loop_
_space_group_symop_operation_xyz
x,y,z
-x,-y,-z
loop_
_atom_site_type_symbol
_atom_site_label
_atom_site_fract_x
_atom_site_fract_y
_atom_site_fract_z
Si Si1 0.935620 0.288371 0.527656
Si Si2 0.780274 0.052847 0.093596
Si Si3 0.869561 0.263293 0.152113
Si Si4 0.071904 0.457559 0.146743
Si Si5 0.297843 0.639211 0.205414
Si Si6 0.336736 0.026987 0.855105
Si Si7 0.699214 0.999567 0.603059
Si Si8 0.460703 0.668662 0.073517
O O1 0.854051 0.399300 0.666252
O O2 0.109074 0.475939 0.661001
O O3 0.078526 0.080361 0.395237
O O4 0.700833 0.165840 0.358012
O O5 0.888594 0.260442 0.227719
O O6 0.805993 0.102368 0.209670
O O7 0.500000 0.000000 0.000000
O O8 0.905441 0.832752 0.920806
O O9 0.621321 0.104571 0.967980
O O10 0.137486 0.625966 0.231822
O O11 0.221840 0.251238 0.001077
O O12 0.789121 0.375932 0.035957
O O13 0.561383 0.791427 0.376490
O O14 0.186041 0.775889 0.242937
O O15 0.338009 0.379133 0.984317
O O16 0.519774 0.076848 0.690636
O O17 0.500000 0.500000 0.000000
#
# Coordination Sequence:
#
# PCOD8014840 Si02
#       8
#     2   2   2   2   2   2   2   2
#     4  12  24  43  66 100 139 175 225 274 339 400
#     4   9  20  45  76  98 135 173 215 269 331 403
#     4  10  22  45  72  99 136 173 213 280 327 395
#     4  12  24  42  62  94 136 177 223 281 329 397
#     4  10  23  41  63  85 128 175 227 279 331 385
#     4  11  24  43  67 103 134 175 222 270 337 404
#     4  10  21  42  61  93 124 172 227 277 332 396
#     4  10  22  42  63  88 125 174 226 279 331 387
#
# _framework density 22.576065
#
# number of rings (size 3 to 8) (size 9 to 14) (size 15 to 20)
#    0.000    1.500    3.750    0.750    0.000    4.000 
#    4.500    5.625    0.000    0.000    0.000    0.000 
#    0.000    0.000    0.000    0.000    0.000    0.000 
#
# Total GULP energy -198257.842284 kJ/mol
# GULP energy per Si atom -12391.115143 kJ/mol
# Density = 2.252468 g / cm^3
# Si number density = 22.576065 Si / 1000 Ang^3
#
#
#
# Elastic Constant Matrix: (Units=GPa)
#
#
# Indices 1 2 3 4 5 6 
#
# 1 81.8151 42.6055 38.2376 7.9272 -8.1835 4.7037
# 2 42.6055 117.0293 51.4170 4.7058 -4.3295 8.4793
# 3 38.2376 51.4170 100.4095 -14.8070 -15.8070 13.3174
# 4 7.9272 4.7058 -14.8070 30.0335 2.8154 2.2405
# 5 -8.1835 -4.3295 -15.8070 2.8154 25.8805 -3.2879
# 6 4.7037 8.4793 13.3174 2.2405 -3.2879 41.8871
#
#
#
# Elastic Compliance Matrix: (Units=1/GPa)
#
#
# Indices 1 2 3 4 5 6 
#
# 1 0.017649 -0.003625 -0.005698 -0.007212 0.002423 0.001139
# 2 -0.003625 0.012545 -0.005918 -0.003695 -0.002290 -0.000233
# 3 -0.005698 -0.005918 0.018408 0.011182 0.006716 -0.004086
# 4 -0.007212 -0.003695 0.011182 0.041722 -0.001156 -0.004320
# 5 0.002423 -0.002290 0.006716 -0.001156 0.043444 0.001528
# 6 0.001139 -0.000233 -0.004086 -0.004320 0.001528 0.025443
#
#
# Mechanical properties :
#
#
# Convention : Reuss Voigt Hill
#
# Bulk Modulus (GPa) = 55.18719 62.64157 58.91438
# Shear Modulus (GPa) = 25.54499 30.69313 28.11906
#
# Velocity S-wave (km/s) = 3.36744 3.69120 3.53303
# Velocity P-wave (km/s) = 6.29425 6.78039 6.54184
#
# Compressibility (1/GPa) = 0.01812015
#
# Stress axis : x y z
#
# Youngs Moduli (GPa) = 56.66050 79.71046 54.32502
#
# Poissons Ratio (x) = 0.28893 0.30955
# Poissons Ratio (y) = 0.20538 0.32151
# Poissons Ratio (z) = 0.32285 0.47174
#
# Static dielectric constant tensor:
#      x y z
#    x 4.030960 0.280880 -0.333750 
#    y 0.280880 4.673650 -0.110570 
#    z -0.333750 -0.110570 4.029520 
# 
# 
# High freq. dielectric constant tensor:
#      x y z
#    x 1.876580 0.003300 -0.018170 
#    y 0.003300 1.914270 -0.004270 
#    z -0.018170 -0.004270 1.871940 
# 
# From -- ./inp_files/584105.got.cif
#   From: 2010.06.25/outbox.cif.g09.slc.cpg/sg2_293_cif.got.tgz:584105.got - 2010.06.27 13:26:56.
