data_PCOD8014142
_publ_section_title
;
Structure prediction by ZEFSAII (Michael W. Deem and Ramdas Pophale) SiO2 
 PCOD8014142
Probable space group: P -1
;
_chemical_formula_sum "Si O2"
_cell_formula_units_Z 16
_cell_length_a 11.714535
_cell_length_b 20.126209
_cell_length_c 16.916484
_cell_angle_alpha 21.229613
_cell_angle_beta 43.253910
_cell_angle_gamma 32.798470
_cell_volume 750.681437
_symmetry_space_group_name_H-M "P -1"
_symmetry_group_IT_number 2
_symmetry_cell_setting 'triclinic'
loop_
_space_group_symop_operation_xyz
x,y,z
-x,-y,-z
loop_
_atom_site_type_symbol
_atom_site_label
_atom_site_fract_x
_atom_site_fract_y
_atom_site_fract_z
Si Si1 0.010315 0.706748 0.747561
Si Si2 0.551896 0.065594 0.645121
Si Si3 0.385487 0.973666 0.981635
Si Si4 0.864844 0.711990 0.654263
Si Si5 0.210302 0.403257 0.701311
Si Si6 0.452805 0.883552 0.752260
Si Si7 0.486394 0.510889 0.755950
Si Si8 0.820540 0.199803 0.806559
O O1 0.227822 0.654682 0.723179
O O2 0.990577 0.744253 0.620847
O O3 0.805871 0.933977 0.647421
O O4 0.000000 0.500000 0.000000
O O5 0.445344 0.340703 0.408375
O O6 0.520925 0.959445 0.855095
O O7 0.442724 0.044551 0.648074
O O8 0.228935 0.240033 0.804025
O O9 0.550914 0.759957 0.197200
O O10 0.215204 0.940833 0.079060
O O11 0.698312 0.693630 0.802996
O O12 0.032966 0.474154 0.779353
O O13 0.722717 0.953826 0.406485
O O14 0.115246 0.663456 0.426111
O O15 0.391324 0.728293 0.987559
O O16 0.587959 0.420309 0.718334
O O17 0.000000 0.000000 0.000000
#
# Coordination Sequence:
#
# PCOD8014142 Si02
#       8
#     2   2   2   2   2   2   2   2
#     4  11  20  40  69  92 123 167 202 263 316 366
#     4  11  22  40  67  96 124 166 214 257 318 373
#     4  11  24  43  66  92 131 165 217 265 312 376
#     4  10  21  41  65  91 127 169 202 261 323 370
#     4  11  24  42  64  95 128 167 213 261 320 371
#     4  10  22  41  65  90 129 163 208 263 314 372
#     4  12  22  40  67  95 124 163 219 258 310 381
#     4  12  25  42  66  93 129 173 212 260 317 381
#
# _framework density 21.313969
#
# number of rings (size 3 to 8) (size 9 to 14) (size 15 to 20)
#    0.000    1.000    5.000    3.000    0.000    1.500 
#    0.000    6.875    0.000    0.000    0.000    0.000 
#    0.000    0.000    0.000    0.000    0.000    0.000 
#
# Total GULP energy -198359.769217 kJ/mol
# GULP energy per Si atom -12397.485576 kJ/mol
# Density = 2.126546 g / cm^3
# Si number density = 21.313969 Si / 1000 Ang^3
#
#
#
# Elastic Constant Matrix: (Units=GPa)
#
#
# Indices 1 2 3 4 5 6 
#
# 1 110.6939 22.5653 66.8096 -4.3415 -2.4805 15.1972
# 2 22.5653 94.7234 8.1074 -4.8965 -12.9630 25.3068
# 3 66.8096 8.1074 111.2297 5.1906 -13.1390 6.7294
# 4 -4.3415 -4.8965 5.1906 24.8398 2.8384 2.9552
# 5 -2.4805 -12.9630 -13.1390 2.8384 32.6571 -1.6930
# 6 15.1972 25.3068 6.7294 2.9552 -1.6930 29.6676
#
#
#
# Elastic Compliance Matrix: (Units=1/GPa)
#
#
# Indices 1 2 3 4 5 6 
#
# 1 0.016437 -0.001937 -0.010200 0.005753 -0.004398 -0.005278
# 2 -0.001937 0.015066 0.001296 0.003185 0.005448 -0.012160
# 3 -0.010200 0.001296 0.016005 -0.005817 0.006760 0.001455
# 4 0.005753 0.003185 -0.005817 0.044759 -0.005001 -0.009088
# 5 -0.004398 0.005448 0.006760 -0.005001 0.035531 -0.001401
# 6 -0.005278 -0.012160 0.001455 -0.009088 -0.001401 0.047278
#
#
# Mechanical properties :
#
#
# Convention : Reuss Voigt Hill
#
# Bulk Modulus (GPa) = 38.72210 56.84576 47.78393
# Shear Modulus (GPa) = 24.34661 32.04389 28.19525
#
# Velocity S-wave (km/s) = 3.38344 3.88160 3.64105
# Velocity P-wave (km/s) = 5.78536 6.84235 6.33593
#
# Compressibility (1/GPa) = 0.02582504
#
# Stress axis : x y z
#
# Youngs Moduli (GPa) = 60.83916 66.37297 62.48212
#
# Poissons Ratio (x) = 0.12857 0.63733
# Poissons Ratio (y) = 0.11785 -0.08097
# Poissons Ratio (z) = 0.62057 -0.08601
#
# Static dielectric constant tensor:
#      x y z
#    x 4.002070 1.823660 -0.421650 
#    y 1.823660 20.175080 -5.387160 
#    z -0.421650 -5.387160 5.626610 
# 
# 
# High freq. dielectric constant tensor:
#      x y z
#    x 1.829350 0.011280 0.012940 
#    y 0.011280 1.850950 -0.001660 
#    z 0.012940 -0.001660 1.829810 
# 
# From -- ./inp_files/455452.got.cif
#   From: 2010.06.25/outbox.cif.g09.slc.cpg/sg2_228_cif.got.tgz:455452.got - 2010.06.27 13:26:56.
