data_PCOD8014327
_publ_section_title
;
Structure prediction by ZEFSAII (Michael W. Deem and Ramdas Pophale) SiO2 
 PCOD8014327
Probable space group: P -1
;
_chemical_formula_sum "Si O2"
_cell_formula_units_Z 16
_cell_length_a 11.511350
_cell_length_b 11.973136
_cell_length_c 12.240146
_cell_angle_alpha 35.137769
_cell_angle_beta 57.848108
_cell_angle_gamma 48.602647
_cell_volume 728.209896
_symmetry_space_group_name_H-M "P -1"
_symmetry_group_IT_number 2
_symmetry_cell_setting 'triclinic'
loop_
_space_group_symop_operation_xyz
x,y,z
-x,-y,-z
loop_
_atom_site_type_symbol
_atom_site_label
_atom_site_fract_x
_atom_site_fract_y
_atom_site_fract_z
Si Si1 0.676011 0.208795 0.833278
Si Si2 0.877220 0.655146 0.616976
Si Si3 0.073747 0.869427 0.396912
Si Si4 0.161797 0.737332 0.692573
Si Si5 0.680521 0.639802 0.531259
Si Si6 0.345549 0.254344 0.970483
Si Si7 0.648754 0.992721 0.622474
Si Si8 0.182344 0.260480 0.823484
O O1 0.764122 0.187047 0.693057
O O2 0.654425 0.426328 0.733302
O O3 0.512062 0.222010 0.873946
O O4 0.776873 0.989605 0.031014
O O5 0.810653 0.628397 0.557186
O O6 0.738127 0.778434 0.674091
O O7 0.967978 0.797372 0.433287
O O8 0.997151 0.414148 0.794825
O O9 0.099900 0.732145 0.605777
O O10 0.982943 0.129931 0.260223
O O11 0.254962 0.490922 0.885109
O O12 0.265696 0.859663 0.536905
O O13 0.740262 0.637755 0.379981
O O14 0.522844 0.860670 0.456358
O O15 0.254161 0.236656 0.926523
O O16 0.363581 0.074144 0.194247
#
# Coordination Sequence:
#
# PCOD8014327 Si02
#       8
#     2   2   2   2   2   2   2   2
#     4  12  25  41  67  99 130 173 215 271 330 382
#     4  11  25  47  68  93 132 181 218 266 319 384
#     4  10  22  41  65  98 131 175 211 272 326 386
#     4  10  21  41  66  96 135 165 218 268 333 384
#     4  12  25  47  66  93 137 177 220 261 320 394
#     4  12  24  42  68 103 131 167 215 276 335 381
#     4  11  25  44  70  98 131 171 218 273 324 386
#     4  12  26  43  67 102 132 168 219 271 331 386
#
# _framework density 21.971688
#
# number of rings (size 3 to 8) (size 9 to 14) (size 15 to 20)
#    0.000    0.750    5.000    1.875    3.500    2.000 
#    0.000    0.625    0.000    0.000    0.000    0.000 
#    0.000    0.000    0.000    0.000    0.000    0.000 
#
# Total GULP energy -198432.772466 kJ/mol
# GULP energy per Si atom -12402.048279 kJ/mol
# Density = 2.192168 g / cm^3
# Si number density = 21.971688 Si / 1000 Ang^3
#
#
#
# Elastic Constant Matrix: (Units=GPa)
#
#
# Indices 1 2 3 4 5 6 
#
# 1 94.9427 28.9175 22.6055 -6.2771 21.2329 -4.1333
# 2 28.9175 109.8925 28.9396 -19.6581 13.3551 -27.0182
# 3 22.6055 28.9396 75.8545 -22.9758 8.0266 4.4058
# 4 -6.2771 -19.6581 -22.9758 40.5386 -7.7859 6.9264
# 5 21.2329 13.3551 8.0266 -7.7859 22.8999 -5.7049
# 6 -4.1333 -27.0182 4.4058 6.9264 -5.7049 35.1563
#
#
#
# Elastic Compliance Matrix: (Units=1/GPa)
#
#
# Indices 1 2 3 4 5 6 
#
# 1 0.014426 -0.002329 -0.002852 -0.002654 -0.012218 -0.001196
# 2 -0.002329 0.013956 -0.004571 0.001804 -0.001153 0.010482
# 3 -0.002852 -0.004571 0.019168 0.009564 -0.000191 -0.008166
# 4 -0.002654 0.001804 0.009564 0.032990 0.007944 -0.005335
# 5 -0.012218 -0.001153 -0.000191 0.007944 0.059896 0.005856
# 6 -0.001196 0.010482 -0.008166 -0.005335 0.005856 0.039384
#
#
# Mechanical properties :
#
#
# Convention : Reuss Voigt Hill
#
# Bulk Modulus (GPa) = 35.65493 49.06833 42.36163
# Shear Modulus (GPa) = 23.96083 33.06744 28.51413
#
# Velocity S-wave (km/s) = 3.30590 3.88364 3.60636
# Velocity P-wave (km/s) = 5.55292 6.51853 6.05500
#
# Compressibility (1/GPa) = 0.02804661
#
# Stress axis : x y z
#
# Youngs Moduli (GPa) = 69.31888 71.65185 52.16917
#
# Poissons Ratio (x) = 0.16688 0.14880
# Poissons Ratio (y) = 0.16145 0.23846
# Poissons Ratio (z) = 0.19771 0.32751
#
# Static dielectric constant tensor:
#      x y z
#    x 3.824460 -0.277310 -0.058750 
#    y -0.277310 4.401570 -0.423460 
#    z -0.058750 -0.423460 3.978360 
# 
# 
# High freq. dielectric constant tensor:
#      x y z
#    x 1.853720 -0.016880 -0.008980 
#    y -0.016880 1.885270 -0.021000 
#    z -0.008980 -0.021000 1.852110 
# 
# From -- ./inp_files/427364.got.cif
#   From: 2010.06.25/outbox.cif.g09.slc.cpg/sg2_214_cif.got.tgz:427364.got - 2010.06.27 13:26:56.
