data_PCOD8014987
_publ_section_title
;
Structure prediction by ZEFSAII (Michael W. Deem and Ramdas Pophale) SiO2 
 PCOD8014987
Probable space group: P -1
;
_chemical_formula_sum "Si O2"
_cell_formula_units_Z 16
_cell_length_a 12.006562
_cell_length_b 14.458426
_cell_length_c 12.687760
_cell_angle_alpha 67.307845
_cell_angle_beta 92.035063
_cell_angle_gamma 150.186582
_cell_volume 765.746878
_symmetry_space_group_name_H-M "P -1"
_symmetry_group_IT_number 2
_symmetry_cell_setting 'triclinic'
loop_
_space_group_symop_operation_xyz
x,y,z
-x,-y,-z
loop_
_atom_site_type_symbol
_atom_site_label
_atom_site_fract_x
_atom_site_fract_y
_atom_site_fract_z
Si Si1 0.491104 0.747992 0.549345
Si Si2 0.857773 0.646391 0.111884
Si Si3 0.214956 0.700409 0.632474
Si Si4 0.523855 0.632726 0.401921
Si Si5 0.416170 0.188961 0.021203
Si Si6 0.097497 0.111842 0.070637
Si Si7 0.798678 0.405987 0.098434
Si Si8 0.891853 0.624852 0.670044
O O1 0.409532 0.609676 0.707430
O O2 0.229664 0.615911 0.591694
O O3 0.498082 0.687216 0.473316
O O4 0.805657 0.064573 0.433023
O O5 0.946641 0.635792 0.033860
O O6 0.742205 0.647022 0.042449
O O7 0.156757 0.921210 0.063839
O O8 0.269629 0.707339 0.748230
O O9 0.938981 0.545865 0.674250
O O10 0.500000 0.000000 0.500000
O O11 0.500000 0.500000 0.500000
O O12 0.259108 0.438594 0.399900
O O13 0.830671 0.902814 0.234257
O O14 0.310778 0.200250 0.076966
O O15 0.510853 0.187706 0.113292
O O16 0.687503 0.450802 0.842619
O O17 0.000000 0.000000 0.000000
O O18 0.000000 0.500000 0.000000
#
# Coordination Sequence:
#
# PCOD8014987 Si02
#       8
#     2   2   2   2   2   2   2   2
#     4  10  25  43  66  99 134 172 217 273 326 388
#     4  10  23  43  65  97 136 167 218 276 320 387
#     4   9  21  43  64  93 136 164 212 276 318 386
#     4  12  25  42  69  98 134 173 222 267 327 396
#     4  11  23  42  71  94 133 175 215 270 335 380
#     4  10  21  42  64  94 132 169 214 274 318 384
#     4  11  23  41  67  99 128 170 224 267 322 391
#     4  11  23  44  69  96 131 176 217 271 331 383
#
# _framework density 20.894634
#
# number of rings (size 3 to 8) (size 9 to 14) (size 15 to 20)
#    0.000    1.500    3.750    1.500    1.750    8.000 
#    0.000    0.000    0.000    0.000    0.000    0.000 
#    0.000    0.000    0.000    0.000    0.000    0.000 
#
# Total GULP energy -198225.543033 kJ/mol
# GULP energy per Si atom -12389.096440 kJ/mol
# Density = 2.084708 g / cm^3
# Si number density = 20.894634 Si / 1000 Ang^3
#
#
#
# Elastic Constant Matrix: (Units=GPa)
#
#
# Indices 1 2 3 4 5 6 
#
# 1 187.7597 64.8274 89.9034 8.1549 35.1016 16.1125
# 2 64.8274 90.5711 76.3263 -11.6099 46.5806 24.3792
# 3 89.9034 76.3263 249.7941 -41.2821 133.4506 61.0583
# 4 8.1549 -11.6099 -41.2821 42.3734 -39.6460 -18.6833
# 5 35.1016 46.5806 133.4506 -39.6460 173.3620 78.6541
# 6 16.1125 24.3792 61.0583 -18.6833 78.6541 82.1650
#
#
#
# Elastic Compliance Matrix: (Units=1/GPa)
#
#
# Indices 1 2 3 4 5 6 
#
# 1 0.008323 -0.004598 -0.002662 -0.005031 0.000340 0.000242
# 2 -0.004598 0.017559 -0.002728 0.001833 -0.000746 -0.001150
# 3 -0.002662 -0.002728 0.008990 0.004124 -0.004780 0.000164
# 4 -0.005031 0.001833 0.004124 0.033861 0.004935 0.000354
# 5 0.000340 -0.000746 -0.004780 0.004935 0.015056 -0.009584
# 6 0.000242 -0.001150 0.000164 0.000354 -0.009584 0.021598
#
#
# Mechanical properties :
#
#
# Convention : Reuss Voigt Hill
#
# Bulk Modulus (GPa) = 67.13436 110.02657 88.58046
# Shear Modulus (GPa) = 38.36495 79.38461 58.87478
#
# Velocity S-wave (km/s) = 4.28964 6.17052 5.31396
# Velocity P-wave (km/s) = 7.53222 10.17542 8.95192
#
# Compressibility (1/GPa) = 0.01489550
#
# Stress axis : x y z
#
# Youngs Moduli (GPa) = 120.15519 56.95045 111.23628
#
# Poissons Ratio (x) = 0.26185 0.29615
# Poissons Ratio (y) = 0.55246 0.30342
# Poissons Ratio (z) = 0.31990 0.15535
#
# Static dielectric constant tensor:
#      x y z
#    x 5.525830 0.063740 -0.053340 
#    y 0.063740 3.597700 0.058370 
#    z -0.053340 0.058370 3.943160 
# 
# 
# High freq. dielectric constant tensor:
#      x y z
#    x 1.850670 -0.005520 0.004070 
#    y -0.005520 1.792140 0.007070 
#    z 0.004070 0.007070 1.830850 
# 
# From -- ./inp_files/433836.got.cif
#   From: 2010.06.25/outbox.cif.g09.slc.cpg/sg2_217_cif.got.tgz:433836.got - 2010.06.27 13:26:56.
