data_PCOD8014869
_publ_section_title
;
Structure prediction by ZEFSAII (Michael W. Deem and Ramdas Pophale) SiO2 
 PCOD8014869
Probable space group: P -1
;
_chemical_formula_sum "Si O2"
_cell_formula_units_Z 16
_cell_length_a 16.318917
_cell_length_b 8.881538
_cell_length_c 8.473637
_cell_angle_alpha 53.404980
_cell_angle_beta 52.201371
_cell_angle_gamma 58.788933
_cell_volume 756.196283
_symmetry_space_group_name_H-M "P -1"
_symmetry_group_IT_number 2
_symmetry_cell_setting 'triclinic'
loop_
_space_group_symop_operation_xyz
x,y,z
-x,-y,-z
loop_
_atom_site_type_symbol
_atom_site_label
_atom_site_fract_x
_atom_site_fract_y
_atom_site_fract_z
Si Si1 0.518637 0.140036 0.527543
Si Si2 0.801966 0.521981 0.685892
Si Si3 0.898383 0.087288 0.359533
Si Si4 0.413453 0.536479 0.938761
Si Si5 0.297142 0.063629 0.347811
Si Si6 0.351240 0.305709 0.878043
Si Si7 0.972782 0.283038 0.429444
Si Si8 0.121658 0.541787 0.029341
O O1 0.580485 0.278807 0.283686
O O2 0.411611 0.257095 0.670436
O O3 0.500000 0.000000 0.500000
O O4 0.589316 0.024429 0.654444
O O5 0.760930 0.752468 0.594036
O O6 0.878224 0.459959 0.487209
O O7 0.700502 0.426272 0.862625
O O8 0.876734 0.441455 0.795731
O O9 0.931814 0.242407 0.106262
O O10 0.912623 0.157034 0.474379
O O11 0.774871 0.090825 0.471515
O O12 0.967677 0.862681 0.410246
O O13 0.421305 0.369801 0.898585
O O14 0.500000 0.500000 0.000000
O O15 0.315472 0.121223 0.108932
O O16 0.242937 0.468586 0.865386
O O17 0.052777 0.383195 0.172422
#
# Coordination Sequence:
#
# PCOD8014869 Si02
#       8
#     2   2   2   2   2   2   2   2
#     4  12  24  39  63  98 123 165 220 261 317 388
#     4  10  22  41  64  86 129 167 200 262 318 367
#     4  11  23  39  65  90 126 164 214 256 311 379
#     4  10  22  42  61  91 126 168 212 258 322 384
#     4  10  21  42  62  92 128 163 210 261 320 379
#     4  10  22  41  65  87 131 171 201 267 326 371
#     4  11  23  42  62  94 127 164 212 260 311 375
#     4  10  21  42  63  92 126 164 211 255 317 377
#
# _framework density 21.158526999999999
#
# number of rings (size 3 to 8) (size 9 to 14) (size 15 to 20)
#    0.000    1.750    2.500    4.500    0.000    4.500 
#    2.250    0.000    0.000    0.000    0.000    0.000 
#    0.000    0.000    0.000    0.000    0.000    0.000 
#
# Total GULP energy -198263.178938 kJ/mol
# GULP energy per Si atom -12391.448684 kJ/mol
# Density = 2.111037 g / cm^3
# Si number density = 21.158527 Si / 1000 Ang^3
#
#
#
# Elastic Constant Matrix: (Units=GPa)
#
#
# Indices 1 2 3 4 5 6 
#
# 1 56.8536 34.1631 31.7441 10.8000 -18.8780 4.6713
# 2 34.1631 81.8515 49.3517 -0.3821 -13.6218 0.1281
# 3 31.7441 49.3517 92.6726 -21.5350 -13.4486 -2.9252
# 4 10.8000 -0.3821 -21.5350 41.6367 -5.0995 7.1827
# 5 -18.8780 -13.6218 -13.4486 -5.0995 31.7949 -8.8471
# 6 4.6713 0.1281 -2.9252 7.1827 -8.8471 27.9146
#
#
#
# Elastic Compliance Matrix: (Units=1/GPa)
#
#
# Indices 1 2 3 4 5 6 
#
# 1 0.032059 -0.006396 -0.008692 -0.011573 0.010805 0.000156
# 2 -0.006396 0.020666 -0.009363 -0.003068 0.000901 0.001069
# 3 -0.008692 -0.009363 0.022446 0.013928 0.002885 0.001180
# 4 -0.011573 -0.003068 0.013928 0.035307 0.001962 -0.005053
# 5 0.010805 0.000901 0.002885 0.001962 0.043022 0.011620
# 6 0.000156 0.001069 0.001180 -0.005053 0.011620 0.040899
#
#
# Mechanical properties :
#
#
# Convention : Reuss Voigt Hill
#
# Bulk Modulus (GPa) = 38.06618 51.32171 44.69395
# Shear Modulus (GPa) = 19.83676 28.01050 23.92363
#
# Velocity S-wave (km/s) = 3.06523 3.64241 3.36621
# Velocity P-wave (km/s) = 5.52789 6.48058 6.02310
#
# Compressibility (1/GPa) = 0.02627003
#
# Stress axis : x y z
#
# Youngs Moduli (GPa) = 31.19247 48.38814 44.55053
#
# Poissons Ratio (x) = 0.30950 0.38722
# Poissons Ratio (y) = 0.19951 0.41712
# Poissons Ratio (z) = 0.27111 0.45306
#
# Static dielectric constant tensor:
#      x y z
#    x 4.228690 0.087560 -0.339730 
#    y 0.087560 3.723170 -0.287920 
#    z -0.339730 -0.287920 3.952730 
# 
# 
# High freq. dielectric constant tensor:
#      x y z
#    x 1.838370 -0.001470 -0.010440 
#    y -0.001470 1.813290 -0.019050 
#    z -0.010440 -0.019050 1.827140 
# 
# From -- ./inp_files/327007.got.cif
#   From: 2010.06.25/outbox.cif.g09.slc.cpg/sg2_164_cif.got.tgz:327007.got - 2010.06.27 13:26:56.
