data_PCOD8014061
_publ_section_title
;
Structure prediction by ZEFSAII (Michael W. Deem and Ramdas Pophale) SiO2 
 PCOD8014061
Probable space group: P -1
;
_chemical_formula_sum "Si O2"
_cell_formula_units_Z 16
_cell_length_a 9.844091
_cell_length_b 9.160722
_cell_length_c 13.535449
_cell_angle_alpha 64.262283
_cell_angle_beta 80.174750
_cell_angle_gamma 40.930566
_cell_volume 694.236695
_symmetry_space_group_name_H-M "P -1"
_symmetry_group_IT_number 2
_symmetry_cell_setting 'triclinic'
loop_
_space_group_symop_operation_xyz
x,y,z
-x,-y,-z
loop_
_atom_site_type_symbol
_atom_site_label
_atom_site_fract_x
_atom_site_fract_y
_atom_site_fract_z
Si Si1 0.238675 0.793335 0.151866
Si Si2 0.863531 0.338207 0.973188
Si Si3 0.900032 0.606650 0.178702
Si Si4 0.965683 0.783572 0.468920
Si Si5 0.258498 0.222637 0.651064
Si Si6 0.415122 0.262075 0.944816
Si Si7 0.698245 0.274686 0.613281
Si Si8 0.289830 0.069564 0.363624
O O1 0.245509 0.641133 0.116766
O O2 0.408877 0.773600 0.103855
O O3 0.311513 0.659000 0.290169
O O4 0.994052 0.087013 0.096148
O O5 0.050628 0.295076 0.932511
O O6 0.670634 0.603546 0.976671
O O7 0.731015 0.822490 0.219591
O O8 0.796837 0.544243 0.155371
O O9 0.119421 0.361112 0.276409
O O10 0.869017 0.812893 0.368493
O O11 0.767960 0.971221 0.515384
O O12 0.142489 0.498033 0.568221
O O13 0.081687 0.851647 0.422786
O O14 0.488848 0.032737 0.626981
O O15 0.500000 0.000000 0.000000
O O16 0.500000 0.500000 0.500000
O O17 0.707398 0.071390 0.679032
#
# Coordination Sequence:
#
# PCOD8014061 Si02
#       8
#     2   2   2   2   2   2   2   2
#     4  11  26  47  72  99 144 185 232 295 350 418
#     4  11  25  48  70 105 139 184 235 289 358 419
#     4  11  24  40  70 100 134 176 231 287 354 420
#     4  10  22  41  62  93 132 180 229 281 337 409
#     4  10  21  41  64  95 132 174 231 282 340 412
#     4  12  25  43  73 104 139 179 230 293 356 421
#     4  12  24  44  68  97 141 182 231 285 351 410
#     4  11  23  40  66  96 136 181 231 287 345 414
#
# _framework density 23.046893000000001
#
# number of rings (size 3 to 8) (size 9 to 14) (size 15 to 20)
#    0.000    1.000    2.500    3.750    5.250    0.000 
#    4.500    0.000    0.000    0.000    0.000    0.000 
#    0.000    0.000    0.000    0.000    0.000    0.000 
#
# Total GULP energy -198349.232448 kJ/mol
# GULP energy per Si atom -12396.827028 kJ/mol
# Density = 2.299444 g / cm^3
# Si number density = 23.046893 Si / 1000 Ang^3
#
#
#
# Elastic Constant Matrix: (Units=GPa)
#
#
# Indices 1 2 3 4 5 6 
#
# 1 110.8604 34.5895 24.2278 5.0988 4.0868 -12.7465
# 2 34.5895 114.4818 45.1073 17.4213 4.7244 -5.5666
# 3 24.2278 45.1073 103.3965 19.4655 17.4531 -3.9938
# 4 5.0988 17.4213 19.4655 31.9264 1.3708 -1.5639
# 5 4.0868 4.7244 17.4531 1.3708 33.0255 11.7787
# 6 -12.7465 -5.5666 -3.9938 -1.5639 11.7787 41.0262
#
#
#
# Elastic Compliance Matrix: (Units=1/GPa)
#
#
# Indices 1 2 3 4 5 6 
#
# 1 0.010471 -0.002627 -0.001033 0.000619 -0.001565 0.003269
# 2 -0.002627 0.011574 -0.003918 -0.003547 0.000894 -0.000019
# 3 -0.001033 -0.003918 0.014055 -0.005833 -0.007355 0.002405
# 4 0.000619 -0.003547 -0.005833 0.036627 0.002006 -0.000037
# 5 -0.001565 0.000894 -0.007355 0.002006 0.038444 -0.012042
# 6 0.003269 -0.000019 0.002405 -0.000037 -0.012042 0.029078
#
#
# Mechanical properties :
#
#
# Convention : Reuss Voigt Hill
#
# Bulk Modulus (GPa) = 47.74550 59.62087 53.68319
# Shear Modulus (GPa) = 30.79052 36.18323 33.48688
#
# Velocity S-wave (km/s) = 3.65909 3.96660 3.81594
# Velocity P-wave (km/s) = 6.21398 6.84866 6.53902
#
# Compressibility (1/GPa) = 0.02094438
#
# Stress axis : x y z
#
# Youngs Moduli (GPa) = 95.50160 86.39826 71.14744
#
# Poissons Ratio (x) = 0.22698 0.07353
# Poissons Ratio (y) = 0.25089 0.27873
# Poissons Ratio (z) = 0.09869 0.33847
#
# Static dielectric constant tensor:
#      x y z
#    x 4.264720 -0.063420 0.151440 
#    y -0.063420 4.182080 0.236200 
#    z 0.151440 0.236200 4.210710 
# 
# 
# High freq. dielectric constant tensor:
#      x y z
#    x 1.926680 -0.008220 0.010950 
#    y -0.008220 1.904480 0.012530 
#    z 0.010950 0.012530 1.903350 
# 
# From -- ./inp_files/494643.got.cif
#   From: 2010.06.25/outbox.cif.g09.slc.cpg/sg2_248_cif.got.tgz:494643.got - 2010.06.27 13:26:56.
