data_PCOD8014897
_publ_section_title
;
Structure prediction by ZEFSAII (Michael W. Deem and Ramdas Pophale) SiO2 
 PCOD8014897
Probable space group: P -1
;
_chemical_formula_sum "Si O2"
_cell_formula_units_Z 16
_cell_length_a 8.534674
_cell_length_b 14.237670
_cell_length_c 14.567059
_cell_angle_alpha 46.998640
_cell_angle_beta 113.746621
_cell_angle_gamma 76.283514
_cell_volume 763.861177
_symmetry_space_group_name_H-M "P -1"
_symmetry_group_IT_number 2
_symmetry_cell_setting 'triclinic'
loop_
_space_group_symop_operation_xyz
x,y,z
-x,-y,-z
loop_
_atom_site_type_symbol
_atom_site_label
_atom_site_fract_x
_atom_site_fract_y
_atom_site_fract_z
Si Si1 0.873433 0.000783 0.885076
Si Si2 0.613601 0.378184 0.840301
Si Si3 0.284380 0.119814 0.949748
Si Si4 0.006385 0.370529 0.214092
Si Si5 0.437472 0.268942 0.004551
Si Si6 0.729287 0.353152 0.579225
Si Si7 0.321974 0.403825 0.188170
Si Si8 0.235265 0.966692 0.586261
O O1 0.752462 0.186102 0.671663
O O2 0.660699 0.024494 0.865215
O O3 0.094860 0.790040 0.024823
O O4 0.000000 0.000000 0.000000
O O5 0.605489 0.260626 0.981855
O O6 0.368223 0.512264 0.622128
O O7 0.561442 0.537793 0.776564
O O8 0.289857 0.246868 0.924269
O O9 0.999191 0.262656 0.739660
O O10 0.500000 0.000000 0.000000
O O11 0.205358 0.377855 0.257325
O O12 0.776529 0.522141 0.132786
O O13 0.149477 0.157978 0.413921
O O14 0.901830 0.419194 0.053097
O O15 0.647633 0.091785 0.244563
O O16 0.500000 0.500000 0.500000
O O17 0.544499 0.198567 0.324169
O O18 0.000000 0.000000 0.500000
#
# Coordination Sequence:
#
# PCOD8014897 Si02
#       8
#     2   2   2   2   2   2   2   2
#     4  10  21  42  63  88 127 167 215 267 317 378
#     4  12  23  41  67  94 129 173 219 265 324 390
#     4  11  24  43  65  95 135 168 212 278 326 374
#     4  10  22  42  65  93 132 162 215 267 322 384
#     4  11  25  41  63  96 130 169 211 268 328 376
#     4  11  24  43  68  91 125 177 224 259 320 392
#     4  10  23  40  65  96 127 169 209 268 324 377
#     4  11  23  42  66  93 131 168 215 262 323 393
#
# _framework density 20.946214000000001
#
# number of rings (size 3 to 8) (size 9 to 14) (size 15 to 20)
#    0.000    1.250    2.500    4.125    0.000    8.500 
#    0.000    0.000    0.000    0.000    0.000    0.000 
#    0.000    0.000    0.000    0.000    0.000    0.000 
#
# Total GULP energy -198370.489398 kJ/mol
# GULP energy per Si atom -12398.155587 kJ/mol
# Density = 2.089854 g / cm^3
# Si number density = 20.946214 Si / 1000 Ang^3
#
#
#
# Elastic Constant Matrix: (Units=GPa)
#
#
# Indices 1 2 3 4 5 6 
#
# 1 137.6763 40.8649 55.5561 3.1616 -10.4825 -0.6194
# 2 40.8649 99.3481 52.1908 1.6793 -9.4909 9.2171
# 3 55.5561 52.1908 141.8381 -12.0264 -13.3325 -0.3168
# 4 3.1616 1.6793 -12.0264 24.2738 5.6031 -1.7359
# 5 -10.4825 -9.4909 -13.3325 5.6031 37.7372 -0.8520
# 6 -0.6194 9.2171 -0.3168 -1.7359 -0.8520 39.0600
#
#
#
# Elastic Compliance Matrix: (Units=1/GPa)
#
#
# Indices 1 2 3 4 5 6 
#
# 1 0.009259 -0.002126 -0.002948 -0.002810 0.001425 0.000531
# 2 -0.002126 0.013788 -0.004379 -0.003502 0.001772 -0.003440
# 3 -0.002948 -0.004379 0.010391 0.005716 0.000933 0.001345
# 4 -0.002810 -0.003502 0.005716 0.046324 -0.006458 0.002746
# 5 0.001425 0.001772 0.000933 -0.006458 0.028628 -0.000051
# 6 0.000531 -0.003440 0.001345 0.002746 -0.000051 0.026554
#
#
# Mechanical properties :
#
#
# Convention : Reuss Voigt Hill
#
# Bulk Modulus (GPa) = 68.80270 75.12069 71.96169
# Shear Modulus (GPa) = 31.50725 35.56422 33.53573
#
# Velocity S-wave (km/s) = 3.88261 4.12501 4.00564
# Velocity P-wave (km/s) = 7.28136 7.65696 7.47152
#
# Compressibility (1/GPa) = 0.01453431
#
# Stress axis : x y z
#
# Youngs Moduli (GPa) = 107.99977 72.52718 96.23294
#
# Poissons Ratio (x) = 0.15417 0.28367
# Poissons Ratio (y) = 0.22957 0.42138
# Poissons Ratio (z) = 0.31835 0.31758
#
# Static dielectric constant tensor:
#      x y z
#    x 3.918510 -1.354880 2.654040 
#    y -1.354880 4.149190 -2.322380 
#    z 2.654040 -2.322380 13.298720 
# 
# 
# High freq. dielectric constant tensor:
#      x y z
#    x 1.830630 -0.005080 -0.011480 
#    y -0.005080 1.827600 -0.004880 
#    z -0.011480 -0.004880 1.821060 
# 
# From -- ./inp_files/503884.got.cif
#   From: 2010.06.25/outbox.cif.g09.slc.cpg/sg2_252_cif.got.tgz:503884.got - 2010.06.27 13:26:56.
