data_PCOD8014707
_publ_section_title
;
Structure prediction by ZEFSAII (Michael W. Deem and Ramdas Pophale) SiO2 
 PCOD8014707
Probable space group: P -1
;
_chemical_formula_sum "Si O2"
_cell_formula_units_Z 14
_cell_length_a 9.033455
_cell_length_b 9.038430
_cell_length_c 9.348666
_cell_angle_alpha 61.287664
_cell_angle_beta 75.444083
_cell_angle_gamma 89.083538
_cell_volume 643.009706
_symmetry_space_group_name_H-M "P -1"
_symmetry_group_IT_number 2
_symmetry_cell_setting 'triclinic'
loop_
_space_group_symop_operation_xyz
x,y,z
-x,-y,-z
loop_
_atom_site_type_symbol
_atom_site_label
_atom_site_fract_x
_atom_site_fract_y
_atom_site_fract_z
Si Si1 0.389663 0.638076 0.836047
Si Si2 0.032965 0.986212 0.165559
Si Si3 0.131462 0.819260 0.663037
Si Si4 0.608284 0.959084 0.617541
Si Si5 0.349551 0.542939 0.203780
Si Si6 0.940807 0.660200 0.516022
Si Si7 0.362550 0.901870 0.164539
O O1 0.264099 0.708266 0.733988
O O2 0.543558 0.771155 0.775153
O O3 0.471126 0.489918 0.806436
O O4 0.309313 0.572418 0.033451
O O5 0.215458 0.002537 0.134704
O O6 0.947782 0.808990 0.328305
O O7 0.974820 0.142986 0.194656
O O8 0.000000 0.000000 0.000000
O O9 0.041224 0.716431 0.605805
O O10 0.212914 0.003484 0.496914
O O11 0.500000 0.000000 0.500000
O O12 0.589693 0.095004 0.683372
O O13 0.235033 0.386520 0.367907
O O14 0.320213 0.708681 0.220548
O O15 0.000000 0.500000 0.500000
O O16 0.500000 0.000000 0.000000
#
# Coordination Sequence:
#
# PCOD8014707 Si02
#       7
#     2   2   2   2   2   2   2
#     4  10  23  42  69 101 138 178 229 286 341 404
#     4  12  27  46  73 104 138 186 235 288 346 415
#     4  11  24  45  71 101 137 184 238 277 346 418
#     4  10  21  41  70  98 131 179 228 282 331 404
#     4  11  23  43  68 101 141 179 225 287 348 403
#     4  12  25  46  70 102 147 180 227 291 349 412
#     4  12  24  45  71  99 136 183 234 281 342 413
#
# _framework density 21.772611000000001
#
# number of rings (size 3 to 8) (size 9 to 14) (size 15 to 20)
#    0.000    0.857    4.286    2.143    4.000    0.571 
#    2.571    3.571    0.000    0.000    0.000    0.000 
#    0.000    0.000    0.000    0.000    0.000    0.000 
#
# Total GULP energy -173559.916821 kJ/mol
# GULP energy per Si atom -12397.136916 kJ/mol
# Density = 2.172306 g / cm^3
# Si number density = 21.772611 Si / 1000 Ang^3
#
#
#
# Elastic Constant Matrix: (Units=GPa)
#
#
# Indices 1 2 3 4 5 6 
#
# 1 118.4799 56.9739 61.0414 13.5906 -3.6760 -2.5293
# 2 56.9739 96.6811 45.1057 29.9772 11.3092 -0.2938
# 3 61.0414 45.1057 153.1410 15.6917 -3.8291 7.1807
# 4 13.5906 29.9772 15.6917 43.7527 4.4677 -1.3362
# 5 -3.6760 11.3092 -3.8291 4.4677 43.8759 -1.9333
# 6 -2.5293 -0.2938 7.1807 -1.3362 -1.9333 34.0947
#
#
#
# Elastic Compliance Matrix: (Units=1/GPa)
#
#
# Indices 1 2 3 4 5 6 
#
# 1 0.013660 -0.007265 -0.003512 0.001785 0.002613 0.001909
# 2 -0.007265 0.019009 -0.001801 -0.009660 -0.004710 -0.000641
# 3 -0.003512 -0.001801 0.008679 -0.000946 0.000932 -0.002088
# 4 0.001785 -0.009660 -0.000946 0.029339 -0.000370 0.001377
# 5 0.002613 -0.004710 0.000932 -0.000370 0.024402 0.001326
# 6 0.001909 -0.000641 -0.002088 0.001377 0.001326 0.030035
#
#
# Mechanical properties :
#
#
# Convention : Reuss Voigt Hill
#
# Bulk Modulus (GPa) = 61.76029 77.17155 69.46592
# Shear Modulus (GPa) = 32.11783 38.02340 35.07061
#
# Velocity S-wave (km/s) = 3.84493 4.18351 4.01779
# Velocity P-wave (km/s) = 6.93823 7.67183 7.31423
#
# Compressibility (1/GPa) = 0.01619163
#
# Stress axis : x y z
#
# Youngs Moduli (GPa) = 73.20533 52.60715 115.22653
#
# Poissons Ratio (x) = 0.38218 0.40471
# Poissons Ratio (y) = 0.53182 0.20752
# Poissons Ratio (z) = 0.25712 0.09474
#
# Static dielectric constant tensor:
#      x y z
#    x 4.067640 0.269550 -0.403670 
#    y 0.269550 4.857690 -0.019530 
#    z -0.403670 -0.019530 4.319020 
# 
# 
# High freq. dielectric constant tensor:
#      x y z
#    x 1.855710 -0.006610 -0.017340 
#    y -0.006610 1.859110 0.008960 
#    z -0.017340 0.008960 1.869780 
# 
# From -- ./inp_files/156673.got.cif
#   From: 2010.06.25/outbox.cif.g09.slc.cpg/sg2_79_cif.got.tgz:156673.got - 2010.06.27 13:26:56.
