data_PCOD8014635
_publ_section_title
;
Structure prediction by ZEFSAII (Michael W. Deem and Ramdas Pophale) SiO2 
 PCOD8014635
Probable space group: P -1
;
_chemical_formula_sum "Si O2"
_cell_formula_units_Z 16
_cell_length_a 11.744019
_cell_length_b 13.890530
_cell_length_c 10.059106
_cell_angle_alpha 65.895500
_cell_angle_beta 66.336398
_cell_angle_gamma 122.727544
_cell_volume 738.559137
_symmetry_space_group_name_H-M "P -1"
_symmetry_group_IT_number 2
_symmetry_cell_setting 'triclinic'
loop_
_space_group_symop_operation_xyz
x,y,z
-x,-y,-z
loop_
_atom_site_type_symbol
_atom_site_label
_atom_site_fract_x
_atom_site_fract_y
_atom_site_fract_z
Si Si1 0.973961 0.689866 0.112000
Si Si2 0.467510 0.201232 0.192003
Si Si3 0.795486 0.117439 0.856889
Si Si4 0.645799 0.113555 0.681481
Si Si5 0.843673 0.978864 0.306335
Si Si6 0.953622 0.485831 0.878475
Si Si7 0.473277 0.357330 0.568718
Si Si8 0.713202 0.838642 0.958118
O O1 0.705848 0.484614 0.314439
O O2 0.101750 0.669189 0.064649
O O3 0.977996 0.724385 0.246494
O O4 0.106799 0.868763 0.857391
O O5 0.318365 0.128222 0.430059
O O6 0.427179 0.258965 0.060789
O O7 0.415177 0.044464 0.260088
O O8 0.735354 0.403552 0.994588
O O9 0.577620 0.972010 0.142836
O O10 0.777790 0.199914 0.713325
O O11 0.819442 0.030071 0.808831
O O12 0.812819 0.294619 0.404444
O O13 0.736927 0.828095 0.324823
O O14 0.086860 0.105433 0.169172
O O15 0.000000 0.500000 0.000000
O O16 0.500000 0.500000 0.500000
O O17 0.448267 0.290173 0.764773
#
# Coordination Sequence:
#
# PCOD8014635 Si02
#       8
#     2   2   2   2   2   2   2   2
#     4  12  24  39  70  98 132 176 217 278 333 387
#     4  11  26  45  69  96 135 186 215 271 341 392
#     4  10  21  41  69  96 131 174 216 278 334 387
#     4  10  23  44  64  99 135 170 223 272 332 395
#     4  12  25  46  67  98 137 177 226 272 328 403
#     4  12  26  41  65  99 134 175 222 270 330 399
#     4  12  24  42  70 101 131 173 226 274 333 389
#     4  11  23  46  69  96 136 173 225 277 331 396
#
# _framework density 21.663803000000001
#
# number of rings (size 3 to 8) (size 9 to 14) (size 15 to 20)
#    0.000    0.750    3.750    3.750    3.500    1.500 
#    0.000    0.625    0.000    0.000    0.000    0.000 
#    0.000    0.000    0.000    0.000    0.000    0.000 
#
# Total GULP energy -198325.770495 kJ/mol
# GULP energy per Si atom -12395.360656 kJ/mol
# Density = 2.161450 g / cm^3
# Si number density = 21.663803 Si / 1000 Ang^3
#
#
#
# Elastic Constant Matrix: (Units=GPa)
#
#
# Indices 1 2 3 4 5 6 
#
# 1 87.1948 21.8408 19.4283 1.7937 3.5409 17.3156
# 2 21.8408 64.3129 25.7254 7.6405 6.2422 20.8563
# 3 19.4283 25.7254 95.4668 13.0233 9.9376 12.3285
# 4 1.7937 7.6405 13.0233 32.6687 0.4828 2.3342
# 5 3.5409 6.2422 9.9376 0.4828 34.2446 4.1832
# 6 17.3156 20.8563 12.3285 2.3342 4.1832 41.7944
#
#
#
# Elastic Compliance Matrix: (Units=1/GPa)
#
#
# Indices 1 2 3 4 5 6 
#
# 1 0.013227 -0.002764 -0.001586 0.000815 0.000035 -0.003682
# 2 -0.002764 0.020953 -0.003523 -0.002753 -0.001499 -0.007968
# 3 -0.001586 -0.003523 0.012689 -0.004048 -0.002718 -0.000830
# 4 0.000815 -0.002753 -0.004048 0.032786 0.001095 0.000289
# 5 0.000035 -0.001499 -0.002718 0.001095 0.030437 -0.001572
# 6 -0.003682 -0.007968 -0.000830 0.000289 -0.001572 0.029814
#
#
# Mechanical properties :
#
#
# Convention : Reuss Voigt Hill
#
# Bulk Modulus (GPa) = 32.13021 42.32927 37.22974
# Shear Modulus (GPa) = 30.11533 33.74022 31.92777
#
# Velocity S-wave (km/s) = 3.73248 3.95073 3.84315
# Velocity P-wave (km/s) = 5.78262 6.35552 6.07583
#
# Compressibility (1/GPa) = 0.03112336
#
# Stress axis : x y z
#
# Youngs Moduli (GPa) = 75.60113 47.72498 78.80607
#
# Poissons Ratio (x) = 0.13189 0.12502
# Poissons Ratio (y) = 0.20893 0.27766
# Poissons Ratio (z) = 0.11994 0.16815
#
# Static dielectric constant tensor:
#      x y z
#    x 4.163330 0.196210 0.000060 
#    y 0.196210 3.843580 0.113870 
#    z 0.000060 0.113870 3.910330 
# 
# 
# High freq. dielectric constant tensor:
#      x y z
#    x 1.866470 0.010390 -0.000920 
#    y 0.010390 1.851270 0.007390 
#    z -0.000920 0.007390 1.846220 
# 
# From -- ./inp_files/84186.got.cif
#   From: 2010.06.25/outbox.cif.g09.slc.cpg/sg2_43_cif.got.tgz:84186.got - 2010.06.27 13:26:56.
