data_PCOD8014504
_publ_section_title
;
Structure prediction by ZEFSAII (Michael W. Deem and Ramdas Pophale) SiO2 
 PCOD8014504
Probable space group: P -1
;
_chemical_formula_sum "Si O2"
_cell_formula_units_Z 14
_cell_length_a 9.278755
_cell_length_b 8.855088
_cell_length_c 15.436892
_cell_angle_alpha 76.812858
_cell_angle_beta 144.679440
_cell_angle_gamma 120.735898
_cell_volume 582.996904
_symmetry_space_group_name_H-M "P -1"
_symmetry_group_IT_number 2
_symmetry_cell_setting 'triclinic'
loop_
_space_group_symop_operation_xyz
x,y,z
-x,-y,-z
loop_
_atom_site_type_symbol
_atom_site_label
_atom_site_fract_x
_atom_site_fract_y
_atom_site_fract_z
Si Si1 0.765775 0.678655 0.182037
Si Si2 0.276435 0.359139 0.280765
Si Si3 0.683369 0.003812 0.505223
Si Si4 0.371438 0.021628 0.193867
Si Si5 0.248212 0.332661 0.081620
Si Si6 0.251334 0.598985 0.374139
Si Si7 0.314628 0.034789 0.970971
O O1 0.467436 0.492062 0.099378
O O2 0.978436 0.620289 0.255142
O O3 0.648025 0.763905 0.043223
O O4 0.954372 0.849276 0.321471
O O5 0.277721 0.434903 0.174678
O O6 0.133859 0.431916 0.268936
O O7 0.620037 0.432819 0.469401
O O8 0.046051 0.129337 0.195289
O O9 0.639293 0.079056 0.383928
O O10 0.559938 0.785719 0.459858
O O11 0.500000 0.000000 0.500000
O O12 0.313523 0.180493 0.162041
O O13 0.451354 0.030389 0.130945
O O14 0.091142 0.802056 0.108397
O O15 0.500000 0.000000 0.000000
#
# Coordination Sequence:
#
# PCOD8014504 Si02
#       7
#     2   2   2   2   2   2   2
#     4  11  24  43  75 102 133 178 242 282 331 418
#     4  10  22  45  65 100 141 179 221 288 349 405
#     4  10  21  41  68 101 133 177 228 284 337 402
#     4  10  24  43  69  95 145 184 224 280 358 407
#     4  10  23  41  68 102 136 180 230 283 344 411
#     4  10  22  39  73  99 135 180 227 279 352 400
#     4  11  26  46  67 101 143 182 225 290 345 410
#
# _framework density 24.013850999999999
#
# number of rings (size 3 to 8) (size 9 to 14) (size 15 to 20)
#    0.000    1.714    1.429    1.714   12.000    5.143 
#    2.571    4.286    0.000    0.000    0.000    0.000 
#    0.000    0.000    0.000    0.000    0.000    0.000 
#
# Total GULP energy -173475.591265 kJ/mol
# GULP energy per Si atom -12391.113662 kJ/mol
# Density = 2.395919 g / cm^3
# Si number density = 24.013851 Si / 1000 Ang^3
#
#
#
# Elastic Constant Matrix: (Units=GPa)
#
#
# Indices 1 2 3 4 5 6 
#
# 1 93.5537 48.0506 15.8068 -4.3978 -3.1439 6.0540
# 2 48.0506 121.2787 38.0068 9.8089 -2.3174 17.1227
# 3 15.8068 38.0068 82.1691 5.0114 -18.0996 11.8247
# 4 -4.3978 9.8089 5.0114 31.4181 -5.0403 10.3893
# 5 -3.1439 -2.3174 -18.0996 -5.0403 35.5145 2.9565
# 6 6.0540 17.1227 11.8247 10.3893 2.9565 30.5153
#
#
#
# Elastic Compliance Matrix: (Units=1/GPa)
#
#
# Indices 1 2 3 4 5 6 
#
# 1 0.013947 -0.005752 0.000281 0.004419 0.001740 -0.001322
# 2 -0.005752 0.012595 -0.004623 -0.003467 -0.002308 -0.002731
# 3 0.000281 -0.004623 0.016947 0.002106 0.009127 -0.005630
# 4 0.004419 -0.003467 0.002106 0.039030 0.007926 -0.013803
# 5 0.001740 -0.002308 0.009127 0.007926 0.034657 -0.008643
# 6 -0.001322 -0.002731 -0.005630 -0.013803 -0.008643 0.042283
#
#
# Mechanical properties :
#
#
# Convention : Reuss Voigt Hill
#
# Bulk Modulus (GPa) = 42.91542 55.63665 49.27603
# Shear Modulus (GPa) = 26.67891 32.49874 29.58883
#
# Velocity S-wave (km/s) = 3.33675 3.68276 3.51402
# Velocity P-wave (km/s) = 5.72321 6.42670 6.08513
#
# Compressibility (1/GPa) = 0.02330165
#
# Stress axis : x y z
#
# Youngs Moduli (GPa) = 71.69782 79.39667 59.00877
#
# Poissons Ratio (x) = 0.45666 -0.01660
# Poissons Ratio (y) = 0.41238 0.27282
# Poissons Ratio (z) = -0.02017 0.36708
#
# Static dielectric constant tensor:
#      x y z
#    x 4.081680 -0.026950 -0.343050 
#    y -0.026950 4.559020 0.365320 
#    z -0.343050 0.365320 4.651570 
# 
# 
# High freq. dielectric constant tensor:
#      x y z
#    x 1.926660 -0.003560 -0.031470 
#    y -0.003560 1.955910 0.009660 
#    z -0.031470 0.009660 1.963960 
# 
# From -- ./inp_files/495006.got.cif
#   From: 2010.06.25/outbox.cif.g09.slc.cpg/sg2_248_cif.got.tgz:495006.got - 2010.06.27 13:26:56.
