data_PCOD8014881
_publ_section_title
;
Structure prediction by ZEFSAII (Michael W. Deem and Ramdas Pophale) SiO2 
 PCOD8014881
Probable space group: P -1
;
_chemical_formula_sum "Si O2"
_cell_formula_units_Z 16
_cell_length_a 16.196752
_cell_length_b 8.555920
_cell_length_c 13.382808
_cell_angle_alpha 92.427031
_cell_angle_beta 153.506175
_cell_angle_gamma 77.684157
_cell_volume 759.883008
_symmetry_space_group_name_H-M "P -1"
_symmetry_group_IT_number 2
_symmetry_cell_setting 'triclinic'
loop_
_space_group_symop_operation_xyz
x,y,z
-x,-y,-z
loop_
_atom_site_type_symbol
_atom_site_label
_atom_site_fract_x
_atom_site_fract_y
_atom_site_fract_z
Si Si1 0.337481 0.329977 0.532576
Si Si2 0.972195 0.122871 0.789721
Si Si3 0.765677 0.105534 0.237385
Si Si4 0.069281 0.726674 0.889188
Si Si5 0.847083 0.410753 0.818597
Si Si6 0.406636 0.788748 0.741617
Si Si7 0.367547 0.588361 0.023598
Si Si8 0.371561 0.019712 0.112404
O O1 0.333787 0.450863 0.437172
O O2 0.420272 0.400031 0.718401
O O3 0.122540 0.325369 0.326820
O O4 0.502942 0.140682 0.685504
O O5 0.941164 0.227827 0.861035
O O6 0.790601 0.223669 0.520507
O O7 0.992546 0.930204 0.822993
O O8 0.170102 0.131213 0.954774
O O9 0.653847 0.100820 0.219448
O O10 0.725984 0.301574 0.173819
O O11 0.000000 0.000000 0.500000
O O12 0.677029 0.031913 0.050635
O O13 0.209395 0.632519 0.133263
O O14 0.203470 0.663657 0.935208
O O15 0.000000 0.500000 0.000000
O O16 0.583728 0.606926 0.952853
O O17 0.492489 0.874418 0.752702
#
# Coordination Sequence:
#
# PCOD8014881 Si02
#       8
#     2   2   2   2   2   2   2   2
#     4  10  21  42  62  94 130 169 209 272 312 379
#     4  12  22  44  65  96 133 169 219 268 320 384
#     4  11  22  45  66  95 134 169 212 271 321 381
#     4  11  22  43  65  93 131 173 216 265 329 373
#     4  10  24  41  66  96 134 166 216 276 318 382
#     4  12  24  41  68  98 129 174 218 261 327 382
#     4  11  24  42  67  96 131 169 217 267 320 384
#     4  11  24  41  69  93 133 174 214 261 324 390
#
# _framework density 21.055872000000001
#
# number of rings (size 3 to 8) (size 9 to 14) (size 15 to 20)
#    0.000    1.000    6.250    1.125    3.500    0.500 
#    0.000    3.125    0.000    0.000    0.000    0.000 
#    0.000    0.000    0.000    0.000    0.000    0.000 
#
# Total GULP energy -198337.066779 kJ/mol
# GULP energy per Si atom -12396.066674 kJ/mol
# Density = 2.100795 g / cm^3
# Si number density = 21.055872 Si / 1000 Ang^3
#
#
#
# Elastic Constant Matrix: (Units=GPa)
#
#
# Indices 1 2 3 4 5 6 
#
# 1 78.2787 11.3384 34.2016 -0.9868 6.3179 10.4819
# 2 11.3384 80.2961 30.3138 -22.8797 6.9418 -0.0813
# 3 34.2016 30.3138 103.3600 -18.5479 2.9275 6.9504
# 4 -0.9868 -22.8797 -18.5479 34.6574 4.5170 -10.7709
# 5 6.3179 6.9418 2.9275 4.5170 31.6042 -2.5250
# 6 10.4819 -0.0813 6.9504 -10.7709 -2.5250 27.2302
#
#
#
# Elastic Compliance Matrix: (Units=1/GPa)
#
#
# Indices 1 2 3 4 5 6 
#
# 1 0.016468 -0.001679 -0.005390 -0.005521 -0.002223 -0.007359
# 2 -0.001679 0.017709 -0.002629 0.012694 -0.004648 0.005960
# 3 -0.005390 -0.002629 0.013159 0.005450 -0.000276 0.000838
# 4 -0.005521 0.012694 0.005450 0.046727 -0.007384 0.018571
# 5 -0.002223 -0.004648 -0.000276 -0.007384 0.034281 0.001170
# 6 -0.007359 0.005960 0.000838 0.018571 0.001170 0.046815
#
#
# Mechanical properties :
#
#
# Convention : Reuss Voigt Hill
#
# Bulk Modulus (GPa) = 35.79208 45.96025 40.87617
# Shear Modulus (GPa) = 24.52570 31.10377 27.81473
#
# Velocity S-wave (km/s) = 3.41661 3.84761 3.63849
# Velocity P-wave (km/s) = 5.70962 6.45089 6.09154
#
# Compressibility (1/GPa) = 0.02793914
#
# Stress axis : x y z
#
# Youngs Moduli (GPa) = 60.72318 56.46996 75.99434
#
# Poissons Ratio (x) = 0.09482 0.40960
# Poissons Ratio (y) = 0.10197 0.19980
# Poissons Ratio (z) = 0.32729 0.14847
#
# Static dielectric constant tensor:
#      x y z
#    x 3.768310 0.245020 -0.199790 
#    y 0.245020 4.053710 -0.256370 
#    z -0.199790 -0.256370 4.152930 
# 
# 
# High freq. dielectric constant tensor:
#      x y z
#    x 1.815960 0.010990 -0.003170 
#    y 0.010990 1.829310 -0.014390 
#    z -0.003170 -0.014390 1.832380 
# 
# From -- ./inp_files/202451.got.cif
#   From: 2010.06.25/outbox.cif.g09.slc.cpg/sg2_102_cif.got.tgz:202451.got - 2010.06.27 13:26:56.
