data_PCOD8014620
_publ_section_title
;
Structure prediction by ZEFSAII (Michael W. Deem and Ramdas Pophale) SiO2 
 PCOD8014620
Probable space group: P -1
;
_chemical_formula_sum "Si O2"
_cell_formula_units_Z 14
_cell_length_a 16.267289
_cell_length_b 7.062353
_cell_length_c 11.395207
_cell_angle_alpha 62.731922
_cell_angle_beta 45.715352
_cell_angle_gamma 44.340020
_cell_volume 652.788675
_symmetry_space_group_name_H-M "P -1"
_symmetry_group_IT_number 2
_symmetry_cell_setting 'triclinic'
loop_
_space_group_symop_operation_xyz
x,y,z
-x,-y,-z
loop_
_atom_site_type_symbol
_atom_site_label
_atom_site_fract_x
_atom_site_fract_y
_atom_site_fract_z
Si Si1 0.970223 0.162653 0.316665
Si Si2 0.320403 0.698009 0.496931
Si Si3 0.932220 0.391301 0.522262
Si Si4 0.348082 0.734626 0.729282
Si Si5 0.331589 0.272573 0.951608
Si Si6 0.331886 0.129553 0.251071
Si Si7 0.151110 0.211844 0.963478
O O1 0.804554 0.337603 0.381878
O O2 0.971866 0.353942 0.355497
O O3 0.010519 0.894657 0.407163
O O4 0.096079 0.062041 0.125114
O O5 0.310381 0.790195 0.614183
O O6 0.478561 0.414504 0.388602
O O7 0.291331 0.929311 0.372264
O O8 0.756925 0.612831 0.646532
O O9 0.000000 0.500000 0.500000
O O10 0.310610 0.549342 0.877041
O O11 0.251298 0.027396 0.806130
O O12 0.245111 0.254157 0.941134
O O13 0.501091 0.013837 0.845538
O O14 0.280440 0.249695 0.136422
O O15 0.000000 0.500000 0.000000
#
# Coordination Sequence:
#
# PCOD8014620 Si02
#       7
#     2   2   2   2   2   2   2
#     4  11  25  39  63 100 128 168 222 262 333 388
#     4  10  22  44  68  97 127 173 225 273 326 387
#     4  11  22  39  63  95 133 165 208 274 328 384
#     4  10  24  46  66  92 135 174 221 275 324 392
#     4  10  23  44  64  97 132 172 224 264 338 397
#     4  10  21  41  69  94 130 174 214 278 328 387
#     4  12  27  42  66  97 133 181 218 270 331 403
#
# _framework density 21.446451
#
# number of rings (size 3 to 8) (size 9 to 14) (size 15 to 20)
#    0.000    1.429    1.429    2.571    6.000    3.429 
#    0.000    5.714    0.000    0.000    0.000    0.000 
#    0.000    0.000    0.000    0.000    0.000    0.000 
#
# Total GULP energy -173550.659856 kJ/mol
# GULP energy per Si atom -12396.475704 kJ/mol
# Density = 2.139764 g / cm^3
# Si number density = 21.446451 Si / 1000 Ang^3
#
#
#
# Elastic Constant Matrix: (Units=GPa)
#
#
# Indices 1 2 3 4 5 6 
#
# 1 100.0032 43.1163 16.6660 13.7709 -10.0472 6.4611
# 2 43.1163 89.7876 30.8489 32.0083 10.7823 -0.7431
# 3 16.6660 30.8489 82.0789 22.4140 9.3463 4.2842
# 4 13.7709 32.0083 22.4140 44.7151 -3.4349 2.7689
# 5 -10.0472 10.7823 9.3463 -3.4349 34.6442 -1.6854
# 6 6.4611 -0.7431 4.2842 2.7689 -1.6854 23.7891
#
#
#
# Elastic Compliance Matrix: (Units=1/GPa)
#
#
# Indices 1 2 3 4 5 6 
#
# 1 0.014422 -0.008503 -0.001190 0.003035 0.007266 -0.003807
# 2 -0.008503 0.021731 -0.002014 -0.012936 -0.009766 0.004164
# 3 -0.001190 -0.002014 0.015510 -0.006189 -0.004620 -0.002140
# 4 0.003035 -0.012936 -0.006189 0.034762 0.009854 -0.003462
# 5 0.007266 -0.009766 -0.004620 0.009854 0.036234 -0.000026
# 6 -0.003807 0.004164 -0.002140 -0.003462 -0.000026 0.043987
#
#
# Mechanical properties :
#
#
# Convention : Reuss Voigt Hill
#
# Bulk Modulus (GPa) = 35.39929 50.34801 42.87365
# Shear Modulus (GPa) = 25.06587 32.71224 28.88905
#
# Velocity S-wave (km/s) = 3.42243 3.90974 3.67417
# Velocity P-wave (km/s) = 5.67090 6.62635 6.16716
#
# Compressibility (1/GPa) = 0.02824915
#
# Stress axis : x y z
#
# Youngs Moduli (GPa) = 69.33922 46.01751 64.47540
#
# Poissons Ratio (x) = 0.39127 0.07674
# Poissons Ratio (y) = 0.58956 0.12985
# Poissons Ratio (z) = 0.08253 0.09268
#
# Static dielectric constant tensor:
#      x y z
#    x 3.682740 -0.222450 0.621160 
#    y -0.222450 3.982230 0.623200 
#    z 0.621160 0.623200 4.528780 
# 
# 
# High freq. dielectric constant tensor:
#      x y z
#    x 1.841810 -0.016340 -0.002020 
#    y -0.016340 1.840460 0.005160 
#    z -0.002020 0.005160 1.859920 
# 
# From -- ./inp_files/66605.got.cif
#   From: 2010.06.25/outbox.cif.g09.slc.cpg/sg2_34_cif.got.tgz:66605.got - 2010.06.27 13:26:56.
