data_PCOD8014964
_publ_section_title
;
Structure prediction by ZEFSAII (Michael W. Deem and Ramdas Pophale) SiO2 
 PCOD8014964
Probable space group: P -1
;
_chemical_formula_sum "Si O2"
_cell_formula_units_Z 16
_cell_length_a 15.138376
_cell_length_b 18.352406
_cell_length_c 8.914895
_cell_angle_alpha 39.603710
_cell_angle_beta 30.330966
_cell_angle_gamma 38.692623
_cell_volume 744.243766
_symmetry_space_group_name_H-M "P -1"
_symmetry_group_IT_number 2
_symmetry_cell_setting 'triclinic'
loop_
_space_group_symop_operation_xyz
x,y,z
-x,-y,-z
loop_
_atom_site_type_symbol
_atom_site_label
_atom_site_fract_x
_atom_site_fract_y
_atom_site_fract_z
Si Si1 0.907417 0.191468 0.601060
Si Si2 0.305963 0.539037 0.630813
Si Si3 0.191294 0.456569 0.204876
Si Si4 0.281972 0.971341 0.015002
Si Si5 0.308548 0.815844 0.788629
Si Si6 0.284762 0.013450 0.283064
Si Si7 0.388629 0.178433 0.424756
Si Si8 0.543234 0.429635 0.201004
O O1 0.787815 0.315524 0.492698
O O2 0.863565 0.077559 0.775436
O O3 0.132926 0.152873 0.308196
O O4 0.851027 0.203012 0.841580
O O5 0.500000 0.500000 0.500000
O O6 0.351413 0.465966 0.522231
O O7 0.164189 0.495417 0.006899
O O8 0.275322 0.311908 0.320530
O O9 0.000000 0.500000 0.500000
O O10 0.314452 0.525573 0.988646
O O11 0.257833 0.961469 0.243372
O O12 0.493102 0.892131 0.779670
O O13 0.247508 0.111756 0.793566
O O14 0.482556 0.813903 0.637685
O O15 0.374105 0.713654 0.725357
O O16 0.230152 0.941037 0.612719
O O17 0.500000 0.000000 0.000000
O O18 0.500000 0.500000 0.000000
#
# Coordination Sequence:
#
# PCOD8014964 Si02
#       8
#     2   2   2   2   2   2   2   2
#     4  11  24  44  66  95 133 170 219 263 322 393
#     4  10  22  42  69  96 129 168 215 268 320 393
#     4  11  25  40  63  97 130 164 213 268 320 384
#     4  10  22  41  67  90 123 175 213 263 318 380
#     4  11  22  41  68  91 131 169 212 269 321 392
#     4  12  26  41  63  98 131 170 219 271 323 373
#     4  10  21  42  64  90 132 166 211 262 327 379
#     4  11  20  42  68  92 122 174 216 258 330 377
#
# _framework density 21.498332999999999
#
# number of rings (size 3 to 8) (size 9 to 14) (size 15 to 20)
#    0.000    1.250    3.750    3.000    7.000    1.000 
#    2.250    0.625    0.000    0.000    0.000    0.000 
#    0.000    0.000    0.000    0.000    0.000    0.000 
#
# Total GULP energy -198337.688736 kJ/mol
# GULP energy per Si atom -12396.105546 kJ/mol
# Density = 2.144940 g / cm^3
# Si number density = 21.498333 Si / 1000 Ang^3
#
#
#
# Elastic Constant Matrix: (Units=GPa)
#
#
# Indices 1 2 3 4 5 6 
#
# 1 69.4006 49.9111 50.7673 4.8350 34.3041 2.9738
# 2 49.9111 149.9526 65.6738 1.4827 13.5259 -3.2042
# 3 50.7673 65.6738 125.0309 13.2559 33.3966 -4.4892
# 4 4.8350 1.4827 13.2559 40.4910 2.2151 4.0530
# 5 34.3041 13.5259 33.3966 2.2151 44.1834 -0.8811
# 6 2.9738 -3.2042 -4.4892 4.0530 -0.8811 37.6627
#
#
#
# Elastic Compliance Matrix: (Units=1/GPa)
#
#
# Indices 1 2 3 4 5 6 
#
# 1 0.033059 -0.007429 -0.004167 -0.000788 -0.020286 -0.004129
# 2 -0.007429 0.010427 -0.004075 0.001436 0.005603 0.000965
# 3 -0.004167 -0.004075 0.013832 -0.003757 -0.005746 0.001901
# 4 -0.000788 0.001436 -0.003757 0.026183 0.001639 -0.003043
# 5 -0.020286 0.005603 -0.005746 0.001639 0.040972 0.002176
# 6 -0.004129 0.000965 0.001901 -0.003043 0.002176 0.027564
#
#
# Mechanical properties :
#
#
# Convention : Reuss Voigt Hill
#
# Bulk Modulus (GPa) = 38.49713 75.23207 56.86460
# Shear Modulus (GPa) = 26.03637 36.33620 31.18629
#
# Velocity S-wave (km/s) = 3.48384 4.11565 3.81286
# Velocity P-wave (km/s) = 5.84199 7.59310 6.77436
#
# Compressibility (1/GPa) = 0.02597596
#
# Stress axis : x y z
#
# Youngs Moduli (GPa) = 30.24856 95.90371 72.29771
#
# Poissons Ratio (x) = 0.71249 0.30128
# Poissons Ratio (y) = 0.22472 0.29459
# Poissons Ratio (z) = 0.12605 0.39078
#
# Static dielectric constant tensor:
#      x y z
#    x 3.706320 0.157470 0.329650 
#    y 0.157470 4.256850 0.182780 
#    z 0.329650 0.182780 4.379840 
# 
# 
# High freq. dielectric constant tensor:
#      x y z
#    x 1.834150 0.005100 0.030640 
#    y 0.005100 1.851690 0.006200 
#    z 0.030640 0.006200 1.846260 
# 
# From -- ./inp_files/186166.got.cif
#   From: 2010.06.25/outbox.cif.g09.slc.cpg/sg2_94_cif.got.tgz:186166.got - 2010.06.27 13:26:56.
