data_PCOD8014452
_publ_section_title
;
Structure prediction by ZEFSAII (Michael W. Deem and Ramdas Pophale) SiO2 
 PCOD8014452
Probable space group: P -1
;
_chemical_formula_sum "Si O2"
_cell_formula_units_Z 12
_cell_length_a 10.901999
_cell_length_b 16.037722
_cell_length_c 13.231894
_cell_angle_alpha 35.815518
_cell_angle_beta 142.252892
_cell_angle_gamma 157.276016
_cell_volume 513.525024
_symmetry_space_group_name_H-M "P -1"
_symmetry_group_IT_number 2
_symmetry_cell_setting 'triclinic'
loop_
_space_group_symop_operation_xyz
x,y,z
-x,-y,-z
loop_
_atom_site_type_symbol
_atom_site_label
_atom_site_fract_x
_atom_site_fract_y
_atom_site_fract_z
Si Si1 0.344167 0.757778 0.643246
Si Si2 0.408741 0.367893 0.172249
Si Si3 0.340855 0.583729 0.400486
Si Si4 0.633454 0.762710 0.014876
Si Si5 0.784127 0.077496 0.165852
Si Si6 0.711540 0.507064 0.766454
O O1 0.473543 0.730502 0.662147
O O2 0.957681 0.551947 0.585754
O O3 0.500000 0.000000 0.500000
O O4 0.424292 0.728820 0.830060
O O5 0.589974 0.564790 0.180593
O O6 0.029483 0.157827 0.159802
O O7 0.500000 0.500000 0.000000
O O8 0.482787 0.511087 0.589036
O O9 0.203753 0.518636 0.259807
O O10 0.625646 0.855763 0.338700
O O11 0.500595 0.725901 0.076547
O O12 0.000000 0.000000 0.000000
O O13 0.963597 0.272464 0.176297
O O14 0.500000 0.000000 0.000000
#
# Coordination Sequence:
#
# PCOD8014452 Si02
#       6
#     2   2   2   2   2   2
#     4  11  24  43  66 100 137 178 227 276 346 408
#     4   9  21  40  65  96 136 173 222 276 339 406
#     4  11  24  43  69  93 140 178 226 285 332 410
#     4  10  21  41  67  96 133 176 226 282 337 406
#     4  11  23  42  71  99 134 174 228 285 341 410
#     4  10  24  43  67 100 131 180 230 276 345 396
#
# _framework density 23.367896999999999
#
# number of rings (size 3 to 8) (size 9 to 14) (size 15 to 20)
#    0.000    1.667    0.000    4.500    9.333    2.667 
#    3.000    4.167    0.000    0.000    0.000    0.000 
#    0.000    0.000    0.000    0.000    0.000    0.000 
#
# Total GULP energy -148720.285884 kJ/mol
# GULP energy per Si atom -12393.357157 kJ/mol
# Density = 2.331471 g / cm^3
# Si number density = 23.367897 Si / 1000 Ang^3
#
#
#
# Elastic Constant Matrix: (Units=GPa)
#
#
# Indices 1 2 3 4 5 6 
#
# 1 93.8687 46.1198 24.1272 2.4851 8.9005 16.2982
# 2 46.1198 161.0094 28.1845 -7.8745 6.2144 27.9755
# 3 24.1272 28.1845 70.6925 -6.4618 7.2932 0.9890
# 4 2.4851 -7.8745 -6.4618 46.7710 -1.3112 -4.5244
# 5 8.9005 6.2144 7.2932 -1.3112 43.0193 6.8907
# 6 16.2982 27.9755 0.9890 -4.5244 6.8907 43.6177
#
#
#
# Elastic Compliance Matrix: (Units=1/GPa)
#
#
# Indices 1 2 3 4 5 6 
#
# 1 0.013681 -0.002779 -0.003561 -0.002039 -0.001368 -0.003245
# 2 -0.002779 0.008131 -0.002207 0.000826 0.000459 -0.004113
# 3 -0.003561 -0.002207 0.016638 0.002341 -0.002167 0.002954
# 4 -0.002039 0.000826 0.002341 0.022194 0.000189 0.002451
# 5 -0.001368 0.000459 -0.002167 0.000189 0.024407 -0.003570
# 6 -0.003245 -0.004113 0.002954 0.002451 -0.003570 0.027528
#
#
# Mechanical properties :
#
#
# Convention : Reuss Voigt Hill
#
# Bulk Modulus (GPa) = 46.82922 58.04818 52.43870
# Shear Modulus (GPa) = 36.55218 41.82420 39.18819
#
# Velocity S-wave (km/s) = 3.95929 4.23521 4.09957
# Velocity P-wave (km/s) = 6.40194 6.98648 6.70059
#
# Compressibility (1/GPa) = 0.02135419
#
# Stress axis : x y z
#
# Youngs Moduli (GPa) = 73.09574 122.99363 60.10500
#
# Poissons Ratio (x) = 0.34174 0.21405
# Poissons Ratio (y) = 0.20310 0.13268
# Poissons Ratio (z) = 0.26031 0.27151
#
# Static dielectric constant tensor:
#      x y z
#    x 5.766940 0.285750 -0.332980 
#    y 0.285750 3.759170 -0.468740 
#    z -0.332980 -0.468740 4.877890 
# 
# 
# High freq. dielectric constant tensor:
#      x y z
#    x 1.930080 0.013140 -0.001600 
#    y 0.013140 1.926650 -0.006910 
#    z -0.001600 -0.006910 1.926330 
# 
# From -- ./inp_files/159824.got.cif
#   From: 2010.06.25/outbox.cif.g09.slc.cpg/sg2_80_cif.got.tgz:159824.got - 2010.06.27 13:26:56.
