data_PCOD8014793
_publ_section_title
;
Structure prediction by ZEFSAII (Michael W. Deem and Ramdas Pophale) SiO2 
 PCOD8014793
Probable space group: P -1
;
_chemical_formula_sum "Si O2"
_cell_formula_units_Z 16
_cell_length_a 11.777854
_cell_length_b 13.111166
_cell_length_c 15.006918
_cell_angle_alpha 30.120856
_cell_angle_beta 61.541610
_cell_angle_gamma 81.924087
_cell_volume 805.539049
_symmetry_space_group_name_H-M "P -1"
_symmetry_group_IT_number 2
_symmetry_cell_setting 'triclinic'
loop_
_space_group_symop_operation_xyz
x,y,z
-x,-y,-z
loop_
_atom_site_type_symbol
_atom_site_label
_atom_site_fract_x
_atom_site_fract_y
_atom_site_fract_z
Si Si1 0.494001 0.153140 0.965483
Si Si2 0.637751 0.126696 0.103205
Si Si3 0.177268 0.366563 0.920111
Si Si4 0.404363 0.214691 0.216696
Si Si5 0.483261 0.546769 0.572320
Si Si6 0.925314 0.428505 0.893783
Si Si7 0.190674 0.994428 0.301683
Si Si8 0.683421 0.192385 0.323217
O O1 0.627919 0.218278 0.939967
O O2 0.309690 0.971011 0.213189
O O3 0.542575 0.423331 0.708438
O O4 0.500000 0.000000 0.000000
O O5 0.526186 0.148047 0.196154
O O6 0.588245 0.844696 0.331011
O O7 0.823680 0.301838 0.936701
O O8 0.292716 0.408424 0.764515
O O9 0.286424 0.611957 0.759196
O O10 0.022744 0.322200 0.965892
O O11 0.111469 0.103878 0.194831
O O12 0.302696 0.197471 0.184219
O O13 0.284885 0.000476 0.498690
O O14 0.500000 0.500000 0.000000
O O15 0.500000 0.500000 0.500000
O O16 0.049999 0.730432 0.600705
O O17 0.808049 0.367995 0.065565
O O18 0.500000 0.000000 0.500000
#
# Coordination Sequence:
#
# PCOD8014793 Si02
#       8
#     2   2   2   2   2   2   2   2
#     4  10  21  41  73  97 119 167 228 271 320 390
#     4  11  23  42  63  99 130 166 220 268 323 390
#     4  11  23  42  63  96 134 168 223 263 328 395
#     4  11  22  41  66  96 132 173 227 270 310 381
#     4  11  21  41  77  95 122 171 222 277 325 381
#     4  12  25  41  63  93 144 173 203 277 332 386
#     4  10  24  40  64  94 132 173 215 270 328 381
#     4  12  22  41  64  93 128 177 227 263 310 390
#
# _framework density 19.862476000000001
#
# number of rings (size 3 to 8) (size 9 to 14) (size 15 to 20)
#    0.000    1.000    5.000    1.875    0.000    4.500 
#    0.000    1.250    0.000    0.000    0.000    0.000 
#    0.000    0.000    0.000    0.000    0.000    0.000 
#
# Total GULP energy -198369.626103 kJ/mol
# GULP energy per Si atom -12398.101631 kJ/mol
# Density = 1.981727 g / cm^3
# Si number density = 19.862476 Si / 1000 Ang^3
#
#
#
# Elastic Constant Matrix: (Units=GPa)
#
#
# Indices 1 2 3 4 5 6 
#
# 1 161.6122 54.6001 58.3713 -1.1043 6.3480 13.0309
# 2 54.6001 127.2318 67.8867 -0.4698 3.7292 6.8427
# 3 58.3713 67.8867 131.1749 4.6071 16.3022 -1.5163
# 4 -1.1043 -0.4698 4.6071 33.6318 1.1391 6.2950
# 5 6.3480 3.7292 16.3022 1.1391 34.3320 -1.8772
# 6 13.0309 6.8427 -1.5163 6.2950 -1.8772 25.3587
#
#
#
# Elastic Compliance Matrix: (Units=1/GPa)
#
#
# Indices 1 2 3 4 5 6 
#
# 1 0.008153 -0.001777 -0.002773 0.001428 -0.000277 -0.004251
# 2 -0.001777 0.011677 -0.005515 0.001332 0.001483 -0.002788
# 3 -0.002773 -0.005515 0.012400 -0.002451 -0.004480 0.003931
# 4 0.001428 0.001332 -0.002451 0.031887 -0.000807 -0.009215
# 5 -0.000277 0.001483 -0.004480 -0.000807 0.031280 0.001990
# 6 -0.004251 -0.002788 0.003931 -0.009215 0.001990 0.045041
#
#
# Mechanical properties :
#
#
# Convention : Reuss Voigt Hill
#
# Bulk Modulus (GPa) = 82.65553 86.85945 84.75749
# Shear Modulus (GPa) = 30.37630 34.60858 32.49244
#
# Velocity S-wave (km/s) = 3.91491 4.17875 4.04898
# Velocity P-wave (km/s) = 7.88287 8.19194 8.03889
#
# Compressibility (1/GPa) = 0.01209840
#
# Stress axis : x y z
#
# Youngs Moduli (GPa) = 122.65368 85.64168 80.64488
#
# Poissons Ratio (x) = 0.15220 0.22363
# Poissons Ratio (y) = 0.21797 0.44479
# Poissons Ratio (z) = 0.34013 0.47235
#
# Static dielectric constant tensor:
#      x y z
#    x 3.876370 0.037910 0.314930 
#    y 0.037910 3.597990 0.276340 
#    z 0.314930 0.276340 3.535670 
# 
# 
# High freq. dielectric constant tensor:
#      x y z
#    x 1.782280 0.008890 0.024090 
#    y 0.008890 1.771490 0.004560 
#    z 0.024090 0.004560 1.777220 
# 
# From -- ./inp_files/284582.got.cif
#   From: 2010.06.25/outbox.cif.g09.slc.cpg/sg2_143_cif.got.tgz:284582.got - 2010.06.27 13:26:56.
