data_PCOD8014056
_publ_section_title
;
Structure prediction by ZEFSAII (Michael W. Deem and Ramdas Pophale) SiO2 
 PCOD8014056
Probable space group: P -1
;
_chemical_formula_sum "Si O2"
_cell_formula_units_Z 16
_cell_length_a 13.248646
_cell_length_b 15.907471
_cell_length_c 12.345972
_cell_angle_alpha 152.378623
_cell_angle_beta 57.144008
_cell_angle_gamma 139.129846
_cell_volume 716.283154
_symmetry_space_group_name_H-M "P -1"
_symmetry_group_IT_number 2
_symmetry_cell_setting 'triclinic'
loop_
_space_group_symop_operation_xyz
x,y,z
-x,-y,-z
loop_
_atom_site_type_symbol
_atom_site_label
_atom_site_fract_x
_atom_site_fract_y
_atom_site_fract_z
Si Si1 0.342364 0.175070 0.781852
Si Si2 0.475755 0.159146 0.476253
Si Si3 0.785531 0.747136 0.516886
Si Si4 0.498221 0.222678 0.958507
Si Si5 0.195471 0.061554 0.058738
Si Si6 0.141547 0.859087 0.222184
Si Si7 0.186221 0.320464 0.162441
Si Si8 0.017817 0.677219 0.328756
O O1 0.446813 0.276824 0.724241
O O2 0.477296 0.282487 0.919862
O O3 0.237738 0.247674 0.947618
O O4 0.195248 0.863723 0.503671
O O5 0.668990 0.370582 0.563522
O O6 0.433453 0.907567 0.246996
O O7 0.346350 0.070401 0.354173
O O8 0.721439 0.798019 0.713754
O O9 0.899567 0.718338 0.478213
O O10 0.895836 0.996233 0.657119
O O11 0.632628 0.489478 0.247847
O O12 0.315682 0.031074 0.906973
O O13 0.195069 0.228006 0.165877
O O14 0.998679 0.787294 0.873401
O O15 0.048616 0.751968 0.269169
O O16 0.073686 0.608516 0.913439
#
# Coordination Sequence:
#
# PCOD8014056 Si02
#       8
#     2   2   2   2   2   2   2   2
#     4  10  21  41  65  92 128 164 205 271 322 372
#     4  11  22  40  63  97 127 164 215 262 323 379
#     4  12  22  43  65  93 127 172 212 260 321 370
#     4  11  24  41  63  93 132 166 212 268 308 380
#     4  10  23  42  61  88 124 173 214 256 311 381
#     4  10  22  39  64  96 131 165 208 264 320 380
#     4  10  21  41  65  88 125 168 211 263 318 372
#     4  10  21  41  64  95 131 163 211 263 317 383
#
# _framework density 22.337534999999999
#
# number of rings (size 3 to 8) (size 9 to 14) (size 15 to 20)
#    0.000    1.500    2.500    3.000    0.000    2.500 
#    4.500    1.250    0.000    0.000    0.000    0.000 
#    0.000    0.000    0.000    0.000    0.000    0.000 
#
# Total GULP energy -198312.959602 kJ/mol
# GULP energy per Si atom -12394.559975 kJ/mol
# Density = 2.228669 g / cm^3
# Si number density = 22.337535 Si / 1000 Ang^3
#
#
#
# Elastic Constant Matrix: (Units=GPa)
#
#
# Indices 1 2 3 4 5 6 
#
# 1 54.9705 11.1829 13.0965 3.4504 12.6857 6.3130
# 2 11.1829 77.4718 33.4688 7.3833 9.6564 7.9574
# 3 13.0965 33.4688 65.7907 15.5069 12.6760 -5.0898
# 4 3.4504 7.3833 15.5069 33.7796 3.3628 7.8065
# 5 12.6857 9.6564 12.6760 3.3628 42.3992 -3.9473
# 6 6.3130 7.9574 -5.0898 7.8065 -3.9473 22.7186
#
#
#
# Elastic Compliance Matrix: (Units=1/GPa)
#
#
# Indices 1 2 3 4 5 6 
#
# 1 0.021522 0.000321 -0.004551 0.002531 -0.006196 -0.009059
# 2 0.000321 0.018523 -0.010671 0.003501 -0.002388 -0.010585
# 3 -0.004551 -0.010671 0.025893 -0.012343 -0.001596 0.014767
# 4 0.002531 0.003501 -0.012343 0.038783 -0.002661 -0.018484
# 5 -0.006196 -0.002388 -0.001596 -0.002661 0.027404 0.007876
# 6 -0.009059 -0.010585 0.014767 -0.018484 0.007876 0.061270
#
#
# Mechanical properties :
#
#
# Convention : Reuss Voigt Hill
#
# Bulk Modulus (GPa) = 27.67333 34.85884 31.26609
# Shear Modulus (GPa) = 21.25472 29.14515 25.19994
#
# Velocity S-wave (km/s) = 3.08803 3.61607 3.36243
# Velocity P-wave (km/s) = 5.01300 5.75100 5.39463
#
# Compressibility (1/GPa) = 0.03613587
#
# Stress axis : x y z
#
# Youngs Moduli (GPa) = 46.46448 53.98777 38.62000
#
# Poissons Ratio (x) = -0.01733 0.17576
# Poissons Ratio (y) = -0.01492 0.41211
# Poissons Ratio (z) = 0.21147 0.57610
#
# Static dielectric constant tensor:
#      x y z
#    x 3.925160 0.246200 0.187770 
#    y 0.246200 3.917010 -0.041690 
#    z 0.187770 -0.041690 4.100130 
# 
# 
# High freq. dielectric constant tensor:
#      x y z
#    x 1.868770 0.013460 0.016410 
#    y 0.013460 1.868150 -0.000800 
#    z 0.016410 -0.000800 1.886560 
# 
# From -- ./inp_files/456001.got.cif
#   From: 2010.06.25/outbox.cif.g09.slc.cpg/sg2_229_cif.got.tgz:456001.got - 2010.06.27 13:26:56.
