data_PCOD8014225
_publ_section_title
;
Structure prediction by ZEFSAII (Michael W. Deem and Ramdas Pophale) SiO2 
 PCOD8014225
Probable space group: P -1
;
_chemical_formula_sum "Si O2"
_cell_formula_units_Z 14
_cell_length_a 13.807615
_cell_length_b 13.702195
_cell_length_c 6.714649
_cell_angle_alpha 98.774380
_cell_angle_beta 112.338030
_cell_angle_gamma 32.178554
_cell_volume 587.732235
_symmetry_space_group_name_H-M "P -1"
_symmetry_group_IT_number 2
_symmetry_cell_setting 'triclinic'
loop_
_space_group_symop_operation_xyz
x,y,z
-x,-y,-z
loop_
_atom_site_type_symbol
_atom_site_label
_atom_site_fract_x
_atom_site_fract_y
_atom_site_fract_z
Si Si1 0.513600 0.186260 0.484729
Si Si2 0.794958 0.267277 0.081008
Si Si3 0.160450 0.218992 0.536602
Si Si4 0.199576 0.954710 0.039250
Si Si5 0.579779 0.537256 0.666484
Si Si6 0.061056 0.770072 0.432561
Si Si7 0.933229 0.536952 0.740951
O O1 0.554742 0.253793 0.407644
O O2 0.276637 0.355931 0.403960
O O3 0.610503 0.014523 0.384465
O O4 0.629685 0.107234 0.763480
O O5 0.822159 0.246413 0.336697
O O6 0.706644 0.231474 0.944735
O O7 0.628230 0.480384 0.922486
O O8 0.011395 0.110946 0.094730
O O9 0.097726 0.327850 0.323527
O O10 0.001509 0.260099 0.463167
O O11 0.129448 0.322407 0.724417
O O12 0.135072 0.030017 0.783324
O O13 0.500000 0.500000 0.500000
O O14 0.788040 0.395967 0.666812
O O15 0.000000 0.500000 0.000000
#
# Coordination Sequence:
#
# PCOD8014225 Si02
#       7
#     2   2   2   2   2   2   2
#     4  12  24  47  74 107 144 189 239 298 358 432
#     4  10  21  41  65  98 148 195 236 286 340 418
#     4  11  26  49  72 109 135 186 246 289 376 430
#     4  10  22  39  67 101 145 189 236 290 346 415
#     4  11  24  43  66 105 153 192 233 293 351 416
#     4  11  23  42  70  98 145 190 240 291 350 420
#     4  11  28  52  77 102 144 180 237 318 368 428
#
# _framework density 23.820371999999999
#
# number of rings (size 3 to 8) (size 9 to 14) (size 15 to 20)
#    0.000    1.143    4.286    0.857    4.000    2.286 
#    7.714    0.000    0.000    0.000    0.000    0.000 
#    0.000    0.000    0.000    0.000    0.000    0.000 
#
# Total GULP energy -173480.671991 kJ/mol
# GULP energy per Si atom -12391.476571 kJ/mol
# Density = 2.376616 g / cm^3
# Si number density = 23.820372 Si / 1000 Ang^3
#
#
#
# Elastic Constant Matrix: (Units=GPa)
#
#
# Indices 1 2 3 4 5 6 
#
# 1 93.0139 35.3949 38.7821 -11.2089 -7.1192 15.2386
# 2 35.3949 106.3413 56.8847 -1.6200 -17.0538 27.7969
# 3 38.7821 56.8847 184.0933 -10.5026 -12.4637 11.9060
# 4 -11.2089 -1.6200 -10.5026 24.0333 -1.9084 -3.7820
# 5 -7.1192 -17.0538 -12.4637 -1.9084 32.3887 -11.4272
# 6 15.2386 27.7969 11.9060 -3.7820 -11.4272 41.0047
#
#
#
# Elastic Compliance Matrix: (Units=1/GPa)
#
#
# Indices 1 2 3 4 5 6 
#
# 1 0.013494 -0.003070 -0.001445 0.005186 0.000422 -0.001918
# 2 -0.003070 0.014517 -0.003333 -0.002798 0.002997 -0.007155
# 3 -0.001445 -0.003333 0.006899 0.002424 0.001202 0.001352
# 4 0.005186 -0.002798 0.002424 0.046074 0.005051 0.004923
# 5 0.000422 0.002997 0.001202 0.005051 0.036127 0.007996
# 6 -0.001918 -0.007155 0.001352 0.004923 0.007996 0.032240
#
#
# Mechanical properties :
#
#
# Convention : Reuss Voigt Hill
#
# Bulk Modulus (GPa) = 52.05060 71.73020 61.89040
# Shear Modulus (GPa) = 29.16280 36.31112 32.73696
#
# Velocity S-wave (km/s) = 3.50277 3.90856 3.71121
# Velocity P-wave (km/s) = 6.18530 7.10967 6.66353
#
# Compressibility (1/GPa) = 0.01921207
#
# Stress axis : x y z
#
# Youngs Moduli (GPa) = 74.10970 68.88680 144.95642
#
# Poissons Ratio (x) = 0.21148 0.20953
# Poissons Ratio (y) = 0.22751 0.48312
# Poissons Ratio (z) = 0.10713 0.22959
#
# Static dielectric constant tensor:
#      x y z
#    x 4.061920 0.222600 -0.384060 
#    y 0.222600 4.453520 0.005090 
#    z -0.384060 0.005090 4.111030 
# 
# 
# High freq. dielectric constant tensor:
#      x y z
#    x 1.941220 0.008340 -0.015270 
#    y 0.008340 1.945040 0.001790 
#    z -0.015270 0.001790 1.936960 
# 
# From -- ./inp_files/98352.got.cif
#   From: 2010.06.25/outbox.cif.g09.slc.cpg/sg2_50_cif.got.tgz:98352.got - 2010.06.27 13:26:56.
