data_PCOD8014087
_publ_section_title
;
Structure prediction by ZEFSAII (Michael W. Deem and Ramdas Pophale) SiO2 
 PCOD8014087
Probable space group: P -1
;
_chemical_formula_sum "Si O2"
_cell_formula_units_Z 14
_cell_length_a 9.092913
_cell_length_b 8.477423
_cell_length_c 9.442043
_cell_angle_alpha 91.449440
_cell_angle_beta 105.038308
_cell_angle_gamma 66.883604
_cell_volume 644.064590
_symmetry_space_group_name_H-M "P -1"
_symmetry_group_IT_number 2
_symmetry_cell_setting 'triclinic'
loop_
_space_group_symop_operation_xyz
x,y,z
-x,-y,-z
loop_
_atom_site_type_symbol
_atom_site_label
_atom_site_fract_x
_atom_site_fract_y
_atom_site_fract_z
Si Si1 0.414777 0.048652 0.159801
Si Si2 0.602436 0.389335 0.239624
Si Si3 0.667813 0.666294 0.654638
Si Si4 0.814162 0.546700 0.403954
Si Si5 0.741254 0.804308 0.149932
Si Si6 0.070714 0.619848 0.108316
Si Si7 0.340149 0.729865 0.052180
O O1 0.330418 0.155528 0.281241
O O2 0.618176 0.964694 0.217859
O O3 0.333085 0.910601 0.113970
O O4 0.366981 0.186130 0.019403
O O5 0.504818 0.335020 0.334835
O O6 0.769362 0.381735 0.361210
O O7 0.497764 0.582217 0.160574
O O8 0.646373 0.261499 0.114419
O O9 0.683011 0.670031 0.489061
O O10 0.820061 0.495799 0.740443
O O11 0.782713 0.632006 0.244185
O O12 0.000000 0.500000 0.500000
O O13 0.922141 0.789581 0.142538
O O14 0.174746 0.697409 0.040784
O O15 0.000000 0.500000 0.000000
#
# Coordination Sequence:
#
# PCOD8014087 Si02
#       7
#     2   2   2   2   2   2   2
#     4  11  23  42  67  98 128 174 212 276 329 373
#     4  10  21  41  64  99 125 172 226 264 312 391
#     4  11  24  40  68  95 133 172 216 266 328 387
#     4  12  24  41  68  97 132 175 215 269 322 389
#     4  11  22  40  64  92 131 167 219 262 318 381
#     4  11  21  39  65  98 128 170 221 271 309 379
#     4  10  22  38  70  96 129 166 221 275 318 374
#
# _framework density 21.736953
#
# number of rings (size 3 to 8) (size 9 to 14) (size 15 to 20)
#    0.000    1.143    4.286    3.000    4.000    1.143 
#    0.000    1.429    0.000    4.286    0.000    0.000 
#    0.000    0.000    0.000    0.000    0.000    0.000 
#
# Total GULP energy -173444.951405 kJ/mol
# GULP energy per Si atom -12388.925100 kJ/mol
# Density = 2.168748 g / cm^3
# Si number density = 21.736953 Si / 1000 Ang^3
#
#
#
# Elastic Constant Matrix: (Units=GPa)
#
#
# Indices 1 2 3 4 5 6 
#
# 1 159.1652 44.0819 43.6154 5.5408 9.5549 -0.4583
# 2 44.0819 87.3667 27.2025 15.9881 7.3014 4.8053
# 3 43.6154 27.2025 50.9057 17.6671 -1.8112 18.1227
# 4 5.5408 15.9881 17.6671 32.6514 -2.1892 4.9047
# 5 9.5549 7.3014 -1.8112 -2.1892 36.0764 4.3744
# 6 -0.4583 4.8053 18.1227 4.9047 4.3744 37.9421
#
#
#
# Elastic Compliance Matrix: (Units=1/GPa)
#
#
# Indices 1 2 3 4 5 6 
#
# 1 0.009962 -0.002527 -0.010697 0.004328 -0.003049 0.005342
# 2 -0.002527 0.015333 -0.004963 -0.004813 -0.003143 0.001382
# 3 -0.010697 -0.004963 0.044293 -0.016309 0.007425 -0.019405
# 4 0.004328 -0.004813 -0.016309 0.040687 0.001106 0.003064
# 5 -0.003049 -0.003143 0.007425 0.001106 0.030431 -0.006837
# 6 0.005342 0.001382 -0.019405 0.003064 -0.006837 0.035906
#
#
# Mechanical properties :
#
#
# Convention : Reuss Voigt Hill
#
# Bulk Modulus (GPa) = 30.10606 58.58190 44.34398
# Shear Modulus (GPa) = 22.31574 33.50317 27.90946
#
# Velocity S-wave (km/s) = 3.20758 3.93020 3.58713
# Velocity P-wave (km/s) = 5.25341 6.89958 6.13198
#
# Compressibility (1/GPa) = 0.03321590
#
# Stress axis : x y z
#
# Youngs Moduli (GPa) = 100.38601 65.21748 22.57668
#
# Poissons Ratio (x) = 0.16478 0.24150
# Poissons Ratio (y) = 0.25363 0.11204
# Poissons Ratio (z) = 1.07383 0.32365
#
# Static dielectric constant tensor:
#      x y z
#    x 4.249450 -0.223260 -0.043680 
#    y -0.223260 3.781030 -0.006700 
#    z -0.043680 -0.006700 3.882630 
# 
# 
# High freq. dielectric constant tensor:
#      x y z
#    x 1.871070 -0.004450 -0.009540 
#    y -0.004450 1.830680 0.003970 
#    z -0.009540 0.003970 1.839950 
# 
# From -- ./inp_files/158440.got.cif
#   From: 2010.06.25/outbox.cif.g09.slc.cpg/sg2_80_cif.got.tgz:158440.got - 2010.06.27 13:26:56.
