data_PCOD8014211
_publ_section_title
;
Structure prediction by ZEFSAII (Michael W. Deem and Ramdas Pophale) SiO2 
 PCOD8014211
Probable space group: P -1
;
_chemical_formula_sum "Si O2"
_cell_formula_units_Z 16
_cell_length_a 14.686944
_cell_length_b 6.279275
_cell_length_c 11.681541
_cell_angle_alpha 69.107743
_cell_angle_beta 51.249525
_cell_angle_gamma 93.170414
_cell_volume 725.319892
_symmetry_space_group_name_H-M "P -1"
_symmetry_group_IT_number 2
_symmetry_cell_setting 'triclinic'
loop_
_space_group_symop_operation_xyz
x,y,z
-x,-y,-z
loop_
_atom_site_type_symbol
_atom_site_label
_atom_site_fract_x
_atom_site_fract_y
_atom_site_fract_z
Si Si1 0.255043 0.868281 0.501640
Si Si2 0.325989 0.411700 0.287011
Si Si3 0.143830 0.680352 0.855845
Si Si4 0.138965 0.842149 0.079233
Si Si5 0.697442 0.616447 0.143855
Si Si6 0.651219 0.328745 0.008844
Si Si7 0.518315 0.228572 0.717219
Si Si8 0.084522 0.478475 0.543019
O O1 0.179744 0.853205 0.682293
O O2 0.361036 0.748132 0.460660
O O3 0.157648 0.737675 0.500550
O O4 0.333826 0.147849 0.349286
O O5 0.364681 0.499842 0.110934
O O6 0.430303 0.612373 0.241492
O O7 0.183460 0.374914 0.434814
O O8 0.236948 0.531047 0.804947
O O9 0.158754 0.846234 0.925169
O O10 0.000000 0.500000 0.000000
O O11 0.210123 0.679697 0.109721
O O12 0.995547 0.714551 0.259532
O O13 0.193382 0.122583 0.026846
O O14 0.582464 0.674100 0.284634
O O15 0.635615 0.456310 0.112822
O O16 0.550715 0.051598 0.134153
O O17 0.000000 0.500000 0.500000
#
# Coordination Sequence:
#
# PCOD8014211 Si02
#       8
#     2   2   2   2   2   2   2   2
#     4  11  26  42  64  98 133 173 215 267 319 379
#     4  11  24  38  66  98 132 176 209 269 327 381
#     4  11  24  45  65  95 132 169 220 267 314 387
#     4  10  22  41  65  95 128 172 216 263 321 384
#     4  10  24  41  69  92 123 179 213 266 324 377
#     4  10  21  41  65  96 131 167 216 265 325 386
#     4  10  23  44  63  95 131 167 223 263 323 385
#     4  11  23  40  62  98 139 167 212 267 321 391
#
# _framework density 22.059234
#
# number of rings (size 3 to 8) (size 9 to 14) (size 15 to 20)
#    0.000    1.500    2.500    1.125    3.500    6.500 
#    0.000    8.750    0.000    0.000    0.000    0.000 
#    0.000    0.000    0.000    0.000    0.000    0.000 
#
# Total GULP energy -198337.611386 kJ/mol
# GULP energy per Si atom -12396.100712 kJ/mol
# Density = 2.200903 g / cm^3
# Si number density = 22.059234 Si / 1000 Ang^3
#
#
#
# Elastic Constant Matrix: (Units=GPa)
#
#
# Indices 1 2 3 4 5 6 
#
# 1 103.6935 43.4565 39.0806 4.1956 -12.3651 1.6655
# 2 43.4565 110.9654 28.2571 -15.0252 -5.5847 15.2027
# 3 39.0806 28.2571 77.0645 -1.4837 -3.8762 8.3419
# 4 4.1956 -15.0252 -1.4837 27.6890 -0.1827 -11.7909
# 5 -12.3651 -5.5847 -3.8762 -0.1827 36.3841 -2.4294
# 6 1.6655 15.2027 8.3419 -11.7909 -2.4294 31.7540
#
#
#
# Elastic Compliance Matrix: (Units=1/GPa)
#
#
# Indices 1 2 3 4 5 6 
#
# 1 0.014362 -0.004839 -0.005593 -0.004357 0.003634 0.001693
# 2 -0.004839 0.012594 -0.001720 0.006183 -0.000066 -0.003033
# 3 -0.005593 -0.001720 0.016789 -0.000728 -0.000621 -0.003612
# 4 -0.004357 0.006183 -0.000728 0.046365 0.000607 0.014722
# 5 0.003634 -0.000066 -0.000621 0.000607 0.028809 0.002434
# 6 0.001693 -0.003033 -0.003612 0.014722 0.002434 0.039457
#
#
# Mechanical properties :
#
#
# Convention : Reuss Voigt Hill
#
# Bulk Modulus (GPa) = 51.43853 57.03464 54.23658
# Shear Modulus (GPa) = 26.43241 31.22736 28.82988
#
# Velocity S-wave (km/s) = 3.46533 3.76655 3.61907
# Velocity P-wave (km/s) = 6.27537 6.69531 6.48874
#
# Compressibility (1/GPa) = 0.01944068
#
# Stress axis : x y z
#
# Youngs Moduli (GPa) = 69.62662 79.40018 59.56320
#
# Poissons Ratio (x) = 0.38424 0.33316
# Poissons Ratio (y) = 0.33695 0.10244
# Poissons Ratio (z) = 0.38944 0.13656
#
# Static dielectric constant tensor:
#      x y z
#    x 4.170010 -0.096240 -0.291960 
#    y -0.096240 4.148580 0.172190 
#    z -0.291960 0.172190 3.824520 
# 
# 
# High freq. dielectric constant tensor:
#      x y z
#    x 1.874030 0.001640 -0.024210 
#    y 0.001640 1.872270 0.004250 
#    z -0.024210 0.004250 1.863060 
# 
# From -- ./inp_files/69362.got.cif
#   From: 2010.06.25/outbox.cif.g09.slc.cpg/sg2_35_cif.got.tgz:69362.got - 2010.06.27 13:26:56.
