data_PCOD8014101
_publ_section_title
;
Structure prediction by ZEFSAII (Michael W. Deem and Ramdas Pophale) SiO2 
 PCOD8014101
Probable space group: P -1
;
_chemical_formula_sum "Si O2"
_cell_formula_units_Z 14
_cell_length_a 14.628514
_cell_length_b 12.222038
_cell_length_c 8.769128
_cell_angle_alpha 122.965755
_cell_angle_beta 58.271021
_cell_angle_gamma 149.895385
_cell_volume 654.089435
_symmetry_space_group_name_H-M "P -1"
_symmetry_group_IT_number 2
_symmetry_cell_setting 'triclinic'
loop_
_space_group_symop_operation_xyz
x,y,z
-x,-y,-z
loop_
_atom_site_type_symbol
_atom_site_label
_atom_site_fract_x
_atom_site_fract_y
_atom_site_fract_z
Si Si1 0.966695 0.529770 0.214410
Si Si2 0.469607 0.638453 0.437616
Si Si3 0.267055 0.646866 0.132695
Si Si4 0.844550 0.875403 0.234082
Si Si5 0.796819 0.652866 0.824172
Si Si6 0.566326 0.098398 0.348771
Si Si7 0.181380 0.380017 0.730595
O O1 0.783698 0.298317 0.283872
O O2 0.954870 0.676074 0.309561
O O3 0.134395 0.643601 0.256671
O O4 0.000000 0.500000 0.000000
O O5 0.666555 0.766232 0.379436
O O6 0.372359 0.502439 0.261412
O O7 0.499220 0.821027 0.567112
O O8 0.343218 0.469476 0.561914
O O9 0.207227 0.492116 0.204043
O O10 0.472591 0.902575 0.168261
O O11 0.265606 0.571439 0.915641
O O12 0.919144 0.832370 0.246386
O O13 0.782420 0.756190 0.035486
O O14 0.007493 0.140614 0.277079
O O15 0.500000 0.000000 0.500000
#
# Coordination Sequence:
#
# PCOD8014101 Si02
#       7
#     2   2   2   2   2   2   2
#     4   9  21  39  60  88 123 161 200 244 302 363
#     4  11  22  38  60  90 122 152 203 252 301 355
#     4  10  21  41  65  86 127 161 194 252 312 353
#     4  10  22  41  62  83 120 164 198 245 309 348
#     4  10  22  39  61  91 117 154 207 250 293 369
#     4  11  23  38  61  95 124 155 206 251 303 369
#     4   9  21  41  60  90 121 158 207 245 289 378
#
# _framework density 21.403801000000001
#
# number of rings (size 3 to 8) (size 9 to 14) (size 15 to 20)
#    0.000    2.000    1.429    0.857    2.000    8.571 
#    0.000    4.286    0.000    0.000    0.000    0.000 
#    0.000    0.000    0.000    0.000    0.000    0.000 
#
# Total GULP energy -173544.306153 kJ/mol
# GULP energy per Si atom -12396.021868 kJ/mol
# Density = 2.135509 g / cm^3
# Si number density = 21.403801 Si / 1000 Ang^3
#
#
#
# Elastic Constant Matrix: (Units=GPa)
#
#
# Indices 1 2 3 4 5 6 
#
# 1 76.8466 27.1231 12.5009 -7.9229 -1.2358 2.7524
# 2 27.1231 65.9677 17.3564 -8.3792 4.6374 -8.7959
# 3 12.5009 17.3564 54.7913 -17.1508 -3.2312 -1.7239
# 4 -7.9229 -8.3792 -17.1508 40.3290 3.4956 -3.0025
# 5 -1.2358 4.6374 -3.2312 3.4956 28.8117 -8.7448
# 6 2.7524 -8.7959 -1.7239 -3.0025 -8.7448 29.6080
#
#
#
# Elastic Compliance Matrix: (Units=1/GPa)
#
#
# Indices 1 2 3 4 5 6 
#
# 1 0.015728 -0.006466 -0.001332 0.000898 0.000477 -0.003229
# 2 -0.006466 0.020115 -0.004324 0.001713 -0.002455 0.005774
# 3 -0.001332 -0.004324 0.022781 0.008428 0.002725 0.001825
# 4 0.000898 0.001713 0.008428 0.029321 -0.001833 0.003348
# 5 0.000477 -0.002455 0.002725 -0.001833 0.038895 0.010687
# 6 -0.003229 0.005774 0.001825 0.003348 0.010687 0.039392
#
#
# Mechanical properties :
#
#
# Convention : Reuss Voigt Hill
#
# Bulk Modulus (GPa) = 29.08704 34.61849 31.85276
# Shear Modulus (GPa) = 24.76034 29.12476 26.94255
#
# Velocity S-wave (km/s) = 3.40489 3.69281 3.55177
# Velocity P-wave (km/s) = 5.39230 5.86443 5.63331
#
# Compressibility (1/GPa) = 0.03437957
#
# Stress axis : x y z
#
# Youngs Moduli (GPa) = 63.58179 49.71396 43.89652
#
# Poissons Ratio (x) = 0.32145 0.05849
# Poissons Ratio (y) = 0.41112 0.18979
# Poissons Ratio (z) = 0.08472 0.21494
#
# Static dielectric constant tensor:
#      x y z
#    x 5.419930 0.097260 0.004100 
#    y 0.097260 4.139790 -0.205030 
#    z 0.004100 -0.205030 3.975030 
# 
# 
# High freq. dielectric constant tensor:
#      x y z
#    x 1.838890 -0.014180 0.003970 
#    y -0.014180 1.833700 -0.010000 
#    z 0.003970 -0.010000 1.844200 
# 
# From -- ./inp_files/68166.got.cif
#   From: 2010.06.25/outbox.cif.g09.slc.cpg/sg2_35_cif.got.tgz:68166.got - 2010.06.27 13:26:56.
