data_PCOD8014857
_publ_section_title
;
Structure prediction by ZEFSAII (Michael W. Deem and Ramdas Pophale) SiO2 
 PCOD8014857
Probable space group: P -1
;
_chemical_formula_sum "Si O2"
_cell_formula_units_Z 16
_cell_length_a 6.390354
_cell_length_b 12.184668
_cell_length_c 20.485468
_cell_angle_alpha 146.124950
_cell_angle_beta 58.416504
_cell_angle_gamma 126.089721
_cell_volume 716.325623
_symmetry_space_group_name_H-M "P -1"
_symmetry_group_IT_number 2
_symmetry_cell_setting 'triclinic'
loop_
_space_group_symop_operation_xyz
x,y,z
-x,-y,-z
loop_
_atom_site_type_symbol
_atom_site_label
_atom_site_fract_x
_atom_site_fract_y
_atom_site_fract_z
Si Si1 0.840541 0.906600 0.746331
Si Si2 0.556975 0.482500 0.636064
Si Si3 0.446324 0.096050 0.962453
Si Si4 0.257526 0.853648 0.502965
Si Si5 0.772400 0.314373 0.134655
Si Si6 0.394680 0.104836 0.730509
Si Si7 0.653780 0.554226 0.932467
Si Si8 0.283720 0.169043 0.419846
O O1 0.773610 0.705474 0.703440
O O2 0.754509 0.809579 0.640181
O O3 0.676082 0.052487 0.864420
O O4 0.134625 0.048388 0.789631
O O5 0.700064 0.367335 0.604007
O O6 0.298891 0.509344 0.724536
O O7 0.492218 0.364262 0.518133
O O8 0.225879 0.877770 0.912003
O O9 0.545045 0.228268 0.076670
O O10 0.349852 0.234321 0.995672
O O11 0.988982 0.843423 0.505977
O O12 0.500000 0.000000 0.500000
O O13 0.247592 0.963936 0.626438
O O14 0.041009 0.420464 0.104203
O O15 0.508184 0.347358 0.811950
O O16 0.631146 0.035734 0.685519
O O17 0.500000 0.500000 0.000000
#
# Coordination Sequence:
#
# PCOD8014857 Si02
#       8
#     2   2   2   2   2   2   2   2
#     4  10  21  42  62  90 127 161 209 257 316 363
#     4  10  23  39  64  93 121 166 209 257 307 379
#     4  10  23  44  65  91 129 168 212 266 312 377
#     4  10  24  39  59  88 125 165 201 251 308 368
#     4  10  24  42  66  94 127 167 213 261 319 378
#     4  10  24  38  60  92 124 162 202 257 304 378
#     4  12  25  40  66  97 125 169 213 262 321 376
#     4  10  22  39  62  92 125 163 205 258 310 369
#
# _framework density 22.336210000000001
#
# number of rings (size 3 to 8) (size 9 to 14) (size 15 to 20)
#    0.000    1.750    0.000    2.250    5.250    9.500 
#    0.000    5.000    0.000    0.000    0.000    0.000 
#    0.000    0.000    0.000    0.000    0.000    0.000 
#
# Total GULP energy -198211.160444 kJ/mol
# GULP energy per Si atom -12388.197528 kJ/mol
# Density = 2.228537 g / cm^3
# Si number density = 22.336210 Si / 1000 Ang^3
#
#
#
# Elastic Constant Matrix: (Units=GPa)
#
#
# Indices 1 2 3 4 5 6 
#
# 1 75.3544 31.9716 22.0113 6.4967 -19.6099 11.1412
# 2 31.9716 98.5855 27.0761 -2.9926 -14.2332 19.1385
# 3 22.0113 27.0761 105.4596 4.6189 -13.5255 3.3014
# 4 6.4967 -2.9926 4.6189 30.2743 -0.7737 1.8587
# 5 -19.6099 -14.2332 -13.5255 -0.7737 29.2213 -3.7482
# 6 11.1412 19.1385 3.3014 1.8587 -3.7482 37.6434
#
#
#
# Elastic Compliance Matrix: (Units=1/GPa)
#
#
# Indices 1 2 3 4 5 6 
#
# 1 0.018451 -0.003919 -0.001400 -0.003756 0.009441 -0.002220
# 2 -0.003919 0.013522 -0.002321 0.002923 0.002262 -0.005430
# 3 -0.001400 -0.002321 0.010794 -0.001562 0.003016 0.001025
# 4 -0.003756 0.002923 -0.001562 0.034461 -0.001171 -0.002056
# 5 0.009441 0.002262 0.003016 -0.001171 0.043042 0.000135
# 6 -0.002220 -0.005430 0.001025 -0.002056 0.000135 0.030008
#
#
# Mechanical properties :
#
#
# Convention : Reuss Voigt Hill
#
# Bulk Modulus (GPa) = 36.38335 49.05753 42.72044
# Shear Modulus (GPa) = 28.61718 32.65050 30.63384
#
# Velocity S-wave (km/s) = 3.58327 3.82746 3.70738
# Velocity P-wave (km/s) = 5.78309 6.44543 6.12322
#
# Compressibility (1/GPa) = 0.02748510
#
# Stress axis : x y z
#
# Youngs Moduli (GPa) = 54.19624 73.95567 92.64727
#
# Poissons Ratio (x) = 0.28986 0.12971
# Poissons Ratio (y) = 0.21241 0.21508
# Poissons Ratio (z) = 0.07588 0.17168
#
# Static dielectric constant tensor:
#      x y z
#    x 3.870510 0.110120 -0.175460 
#    y 0.110120 3.997840 0.015620 
#    z -0.175460 0.015620 4.300590 
# 
# 
# High freq. dielectric constant tensor:
#      x y z
#    x 1.866010 0.013360 -0.006480 
#    y 0.013360 1.878640 -0.005970 
#    z -0.006480 -0.005970 1.896930 
# 
# From -- ./inp_files/97627.got.cif
#   From: 2010.06.25/outbox.cif.g09.slc.cpg/sg2_49_cif.got.tgz:97627.got - 2010.06.27 13:26:56.
