data_PCOD8014031
_publ_section_title
;
Structure prediction by ZEFSAII (Michael W. Deem and Ramdas Pophale) SiO2 
 PCOD8014031
Probable space group: P -1
;
_chemical_formula_sum "Si O2"
_cell_formula_units_Z 16
_cell_length_a 17.084091
_cell_length_b 9.478614
_cell_length_c 9.400687
_cell_angle_alpha 62.375410
_cell_angle_beta 72.716275
_cell_angle_gamma 34.744257
_cell_volume 757.988315
_symmetry_space_group_name_H-M "P -1"
_symmetry_group_IT_number 2
_symmetry_cell_setting 'triclinic'
loop_
_space_group_symop_operation_xyz
x,y,z
-x,-y,-z
loop_
_atom_site_type_symbol
_atom_site_label
_atom_site_fract_x
_atom_site_fract_y
_atom_site_fract_z
Si Si1 0.418832 0.833074 0.864612
Si Si2 0.351532 0.638850 0.854174
Si Si3 0.050316 0.648536 0.832848
Si Si4 0.058957 0.957135 0.835706
Si Si5 0.587557 0.811054 0.405460
Si Si6 0.473631 0.706100 0.341488
Si Si7 0.778302 0.910412 0.895106
Si Si8 0.902509 0.280986 0.501962
O O1 0.385088 0.777588 0.769577
O O2 0.388986 0.066325 0.756862
O O3 0.579093 0.552657 0.954651
O O4 0.320316 0.909142 0.001735
O O5 0.187716 0.869853 0.836710
O O6 0.415804 0.451690 0.770752
O O7 0.883466 0.894570 0.830248
O O8 0.103871 0.729804 0.831708
O O9 0.083814 0.587013 0.672729
O O10 0.129927 0.390917 0.998627
O O11 0.954661 0.221669 0.664472
O O12 0.000000 0.000000 0.000000
O O13 0.493798 0.828033 0.371085
O O14 0.738297 0.496006 0.503991
O O15 0.500000 0.000000 0.500000
O O16 0.500000 0.500000 0.500000
O O17 0.314286 0.959574 0.256936
O O18 0.000000 0.000000 0.500000
#
# Coordination Sequence:
#
# PCOD8014031 Si02
#       8
#     2   2   2   2   2   2   2   2
#     4  10  22  43  64  94 134 170 223 280 345 395
#     4  10  23  41  65  94 131 175 218 281 335 407
#     4  10  21  41  64  93 130 171 225 275 339 397
#     4  11  24  38  66  93 131 175 228 268 338 404
#     4  12  26  43  69  97 137 176 226 282 343 398
#     4  11  25  40  65  97 130 173 228 275 337 407
#     4  10  22  38  67  92 126 173 221 282 330 403
#     4  10  23  43  67  96 132 181 218 278 337 404
#
# _framework density 21.108505000000001
#
# number of rings (size 3 to 8) (size 9 to 14) (size 15 to 20)
#    0.000    1.500    1.250    3.000    8.750    1.000 
#    0.000    0.625    0.000    0.000    0.000    0.000 
#    0.000    0.000    0.000    0.000    0.000    0.000 
#
# Total GULP energy -198322.968125 kJ/mol
# GULP energy per Si atom -12395.185508 kJ/mol
# Density = 2.106046 g / cm^3
# Si number density = 21.108505 Si / 1000 Ang^3
#
#
#
# Elastic Constant Matrix: (Units=GPa)
#
#
# Indices 1 2 3 4 5 6 
#
# 1 127.6056 41.2905 53.0438 -12.4687 15.7315 -0.0769
# 2 41.2905 95.7068 38.2706 -9.8695 14.6818 -12.2834
# 3 53.0438 38.2706 129.0582 -6.9992 12.4330 -10.5214
# 4 -12.4687 -9.8695 -6.9992 40.2730 -1.6650 4.2501
# 5 15.7315 14.6818 12.4330 -1.6650 32.0083 -4.1219
# 6 -0.0769 -12.2834 -10.5214 4.2501 -4.1219 43.5521
#
#
#
# Elastic Compliance Matrix: (Units=1/GPa)
#
#
# Indices 1 2 3 4 5 6 
#
# 1 0.010712 -0.002910 -0.003324 0.002129 -0.002795 -0.002077
# 2 -0.002910 0.013653 -0.002194 0.001619 -0.003532 0.002823
# 3 -0.003324 -0.002194 0.010000 -0.000051 -0.001028 0.001699
# 4 0.002129 0.001619 -0.000051 0.026077 -0.000691 -0.002162
# 5 -0.002795 -0.003532 -0.001028 -0.000691 0.034872 0.002118
# 6 -0.002077 0.002823 0.001699 -0.002162 0.002118 0.024575
#
#
# Mechanical properties :
#
#
# Convention : Reuss Voigt Hill
#
# Bulk Modulus (GPa) = 57.11933 68.62005 62.86969
# Shear Modulus (GPa) = 35.06762 37.81774 36.44268
#
# Velocity S-wave (km/s) = 4.08033 4.23731 4.15956
# Velocity P-wave (km/s) = 7.02263 7.51788 7.27447
#
# Compressibility (1/GPa) = 0.01750721
#
# Stress axis : x y z
#
# Youngs Moduli (GPa) = 93.35746 73.24579 99.99891
#
# Poissons Ratio (x) = 0.21316 0.33241
# Poissons Ratio (y) = 0.27170 0.21941
# Poissons Ratio (z) = 0.31033 0.16071
#
# Static dielectric constant tensor:
#      x y z
#    x 3.920480 -0.100380 0.040370 
#    y -0.100380 3.852390 -0.065760 
#    z 0.040370 -0.065760 4.317410 
# 
# 
# High freq. dielectric constant tensor:
#      x y z
#    x 1.822440 -0.012440 0.001980 
#    y -0.012440 1.828780 -0.004570 
#    z 0.001980 -0.004570 1.833710 
# 
# From -- ./inp_files/297862.got.cif
#   From: 2010.06.25/outbox.cif.g09.slc.cpg/sg2_149_cif.got.tgz:297862.got - 2010.06.27 13:26:56.
