data_PCOD8014416
_publ_section_title
;
Structure prediction by ZEFSAII (Michael W. Deem and Ramdas Pophale) SiO2 
 PCOD8014416
Probable space group: P -1
;
_chemical_formula_sum "Si O2"
_cell_formula_units_Z 16
_cell_length_a 14.142092
_cell_length_b 12.767357
_cell_length_c 14.701889
_cell_angle_alpha 139.392313
_cell_angle_beta 149.177132
_cell_angle_gamma 60.378276
_cell_volume 780.081618
_symmetry_space_group_name_H-M "P -1"
_symmetry_group_IT_number 2
_symmetry_cell_setting 'triclinic'
loop_
_space_group_symop_operation_xyz
x,y,z
-x,-y,-z
loop_
_atom_site_type_symbol
_atom_site_label
_atom_site_fract_x
_atom_site_fract_y
_atom_site_fract_z
Si Si1 0.233161 0.782092 0.554326
Si Si2 0.207059 0.039834 0.082187
Si Si3 0.595823 0.389279 0.557334
Si Si4 0.215967 0.672487 0.810464
Si Si5 0.490010 0.797103 0.949106
Si Si6 0.632894 0.290354 0.845789
Si Si7 0.751274 0.595169 0.003332
Si Si8 0.208593 0.971915 0.245858
O O1 0.258855 0.647943 0.416294
O O2 0.307791 0.760907 0.702289
O O3 0.988235 0.723805 0.315779
O O4 0.366388 0.990378 0.770067
O O5 0.408757 0.197807 0.307451
O O6 0.231072 0.059387 0.222861
O O7 0.002576 0.059576 0.898626
O O8 0.179772 0.848304 0.898511
O O9 0.500000 0.500000 0.500000
O O10 0.738718 0.500883 0.833884
O O11 0.381841 0.694462 0.884623
O O12 0.000000 0.500000 0.500000
O O13 0.293122 0.630128 0.940945
O O14 0.635863 0.717355 0.977490
O O15 0.788029 0.220685 0.883405
O O16 0.405266 0.118573 0.561360
O O17 0.629990 0.443217 0.879598
#
# Coordination Sequence:
#
# PCOD8014416 Si02
#       8
#     2   2   2   2   2   2   2   2
#     4  11  25  47  68  96 133 182 220 274 329 389
#     4  10  21  41  67  93 131 172 215 273 334 387
#     4  12  24  44  69 101 131 171 225 279 329 388
#     4  11  24  42  66  94 131 177 219 266 332 399
#     4  11  25  47  68  93 142 175 220 274 326 399
#     4  10  22  40  62  97 130 163 215 274 322 394
#     4  12  25  43  72  97 130 174 228 273 330 391
#     4   9  20  39  66  93 128 167 208 269 341 381
#
# _framework density 20.510674000000002
#
# number of rings (size 3 to 8) (size 9 to 14) (size 15 to 20)
#    0.000    1.250    3.750    1.500    3.500    1.500 
#    4.500    0.000    0.000    0.000    0.000    0.000 
#    0.000    0.000    0.000    0.000    0.000    0.000 
#
# Total GULP energy -198482.981507 kJ/mol
# GULP energy per Si atom -12405.186344 kJ/mol
# Density = 2.046399 g / cm^3
# Si number density = 20.510674 Si / 1000 Ang^3
#
#
#
# Elastic Constant Matrix: (Units=GPa)
#
#
# Indices 1 2 3 4 5 6 
#
# 1 72.5284 9.6397 33.8128 -1.2480 -10.8859 -2.6627
# 2 9.6397 80.4758 28.8243 -0.7083 -6.4308 0.3333
# 3 33.8128 28.8243 124.5844 -10.4442 -13.1165 3.2008
# 4 -1.2480 -0.7083 -10.4442 30.8424 -2.6316 1.9130
# 5 -10.8859 -6.4308 -13.1165 -2.6316 33.5228 -5.2168
# 6 -2.6627 0.3333 3.2008 1.9130 -5.2168 35.9519
#
#
#
# Elastic Compliance Matrix: (Units=1/GPa)
#
#
# Indices 1 2 3 4 5 6 
#
# 1 0.016386 -0.000196 -0.004082 -0.000519 0.003986 0.002185
# 2 -0.000196 0.013633 -0.003017 -0.000621 0.001379 0.000361
# 3 -0.004082 -0.003017 0.010397 0.003546 0.002277 -0.001058
# 4 -0.000519 -0.000621 0.003546 0.033990 0.003512 -0.001648
# 5 0.003986 0.001379 0.002277 0.003512 0.033291 0.004723
# 6 0.002185 0.000361 -0.001058 -0.001648 0.004723 0.028841
#
#
# Mechanical properties :
#
#
# Convention : Reuss Voigt Hill
#
# Bulk Modulus (GPa) = 38.72043 46.90467 42.81255
# Shear Modulus (GPa) = 31.30129 33.75088 32.52608
#
# Velocity S-wave (km/s) = 3.91077 4.06091 3.98655
# Velocity P-wave (km/s) = 6.26987 6.70120 6.48912
#
# Compressibility (1/GPa) = 0.02582616
#
# Stress axis : x y z
#
# Youngs Moduli (GPa) = 61.02672 73.34878 96.18235
#
# Poissons Ratio (x) = 0.01437 0.39262
# Poissons Ratio (y) = 0.01195 0.29022
# Poissons Ratio (z) = 0.24911 0.22132
#
# Static dielectric constant tensor:
#      x y z
#    x 3.662990 -0.209410 -0.109290 
#    y -0.209410 2.702310 -0.410340 
#    z -0.109290 -0.410340 3.646750 
# 
# 
# High freq. dielectric constant tensor:
#      x y z
#    x 1.797880 -0.002730 -0.003490 
#    y -0.002730 1.806620 -0.001250 
#    z -0.003490 -0.001250 1.812910 
# 
# From -- ./inp_files/455460.got.cif
#   From: 2010.06.25/outbox.cif.g09.slc.cpg/sg2_228_cif.got.tgz:455460.got - 2010.06.27 13:26:56.
