data_PCOD8014251
_publ_section_title
;
Structure prediction by ZEFSAII (Michael W. Deem and Ramdas Pophale) SiO2 
 PCOD8014251
Probable space group: P -1
;
_chemical_formula_sum "Si O2"
_cell_formula_units_Z 16
_cell_length_a 15.280205
_cell_length_b 8.250701
_cell_length_c 14.852225
_cell_angle_alpha 68.508770
_cell_angle_beta 153.096192
_cell_angle_gamma 119.002801
_cell_volume 730.640262
_symmetry_space_group_name_H-M "P -1"
_symmetry_group_IT_number 2
_symmetry_cell_setting 'triclinic'
loop_
_space_group_symop_operation_xyz
x,y,z
-x,-y,-z
loop_
_atom_site_type_symbol
_atom_site_label
_atom_site_fract_x
_atom_site_fract_y
_atom_site_fract_z
Si Si1 0.941508 0.781164 0.011948
Si Si2 0.798956 0.550587 0.086487
Si Si3 0.965556 0.920070 0.385960
Si Si4 0.330542 0.424433 0.728371
Si Si5 0.953728 0.699244 0.683333
Si Si6 0.668731 0.048292 0.568373
Si Si7 0.725323 0.661889 0.664888
Si Si8 0.794084 0.243294 0.470212
O O1 0.769550 0.685503 0.951715
O O2 0.147663 0.777282 0.250785
O O3 0.873513 0.654205 0.885990
O O4 0.000000 0.000000 0.000000
O O5 0.869619 0.387917 0.144182
O O6 0.969785 0.667284 0.292289
O O7 0.572527 0.455508 0.942311
O O8 0.766607 0.724544 0.249888
O O9 0.177212 0.891374 0.553933
O O10 0.000000 0.000000 0.500000
O O11 0.927833 0.073210 0.254764
O O12 0.216439 0.361331 0.540413
O O13 0.292597 0.611800 0.684206
O O14 0.830430 0.632762 0.676446
O O15 0.628238 0.131655 0.419266
O O16 0.500000 0.000000 0.500000
O O17 0.713445 0.865609 0.619910
O O18 0.500000 0.500000 0.500000
#
# Coordination Sequence:
#
# PCOD8014251 Si02
#       8
#     2   2   2   2   2   2   2   2
#     4   9  21  38  58  85 125 161 207 254 303 367
#     4  10  22  39  61  91 122 161 207 253 307 370
#     4  10  21  42  64  88 124 160 202 258 318 363
#     4  10  22  39  66  89 119 158 212 255 306 373
#     4  10  22  41  59  89 130 162 197 261 313 369
#     4  10  22  39  62  91 125 168 207 249 311 379
#     4  11  22  37  63  89 126 166 210 252 314 370
#     4  10  21  41  66  89 123 162 205 255 311 365
#
# _framework density 21.898602
#
# number of rings (size 3 to 8) (size 9 to 14) (size 15 to 20)
#    0.000    2.000    1.250    1.125    8.750    1.500 
#    2.250    2.500    0.000    0.000    0.000    0.000 
#    0.000    0.000    0.000    0.000    0.000    0.000 
#
# Total GULP energy -198217.063852 kJ/mol
# GULP energy per Si atom -12388.566491 kJ/mol
# Density = 2.184876 g / cm^3
# Si number density = 21.898602 Si / 1000 Ang^3
#
#
#
# Elastic Constant Matrix: (Units=GPa)
#
#
# Indices 1 2 3 4 5 6 
#
# 1 134.4263 43.7877 27.3002 -0.6051 22.8890 1.9371
# 2 43.7877 120.3616 22.1389 -7.0518 16.2861 7.7257
# 3 27.3002 22.1389 62.5672 2.3641 8.8360 -1.7212
# 4 -0.6051 -7.0518 2.3641 23.7089 -3.4019 6.3247
# 5 22.8890 16.2861 8.8360 -3.4019 33.6448 3.1678
# 6 1.9371 7.7257 -1.7212 6.3247 3.1678 44.0354
#
#
#
# Elastic Compliance Matrix: (Units=1/GPa)
#
#
# Indices 1 2 3 4 5 6 
#
# 1 0.009564 -0.002441 -0.002584 -0.001017 -0.004786 0.000397
# 2 -0.002441 0.010279 -0.002465 0.003510 -0.002110 -0.002145
# 3 -0.002584 -0.002465 0.018515 -0.003518 -0.002451 0.001951
# 4 -0.001017 0.003510 -0.003518 0.046381 0.005336 -0.007754
# 5 -0.004786 -0.002110 -0.002451 0.005336 0.035450 -0.002832
# 6 0.000397 -0.002145 0.001951 -0.007754 -0.002832 0.024461
#
#
# Mechanical properties :
#
#
# Convention : Reuss Voigt Hill
#
# Bulk Modulus (GPa) = 42.77803 55.97873 49.37838
# Shear Modulus (GPa) = 29.86435 35.21970 32.54203
#
# Velocity S-wave (km/s) = 3.69691 4.01472 3.85909
# Velocity P-wave (km/s) = 6.14816 6.86359 6.51570
#
# Compressibility (1/GPa) = 0.02337649
#
# Stress axis : x y z
#
# Youngs Moduli (GPa) = 104.56231 97.28724 54.00938
#
# Poissons Ratio (x) = 0.23753 0.13955
# Poissons Ratio (y) = 0.25529 0.13315
# Poissons Ratio (z) = 0.27017 0.23985
#
# Static dielectric constant tensor:
#      x y z
#    x 4.328940 0.480990 -0.125270 
#    y 0.480990 4.689600 0.042220 
#    z -0.125270 0.042220 3.781260 
# 
# 
# High freq. dielectric constant tensor:
#      x y z
#    x 1.877380 0.013210 -0.004230 
#    y 0.013210 1.877360 0.002340 
#    z -0.004230 0.002340 1.823320 
# 
# From -- ./inp_files/529584.got.cif
#   From: 2010.06.25/outbox.cif.g09.slc.cpg/sg2_265_cif.got.tgz:529584.got - 2010.06.27 13:26:56.
