data_PCOD8014296
_publ_section_title
;
Structure prediction by ZEFSAII (Michael W. Deem and Ramdas Pophale) SiO2 
 PCOD8014296
Probable space group: P -1
;
_chemical_formula_sum "Si O2"
_cell_formula_units_Z 16
_cell_length_a 15.837315
_cell_length_b 14.731285
_cell_length_c 12.290852
_cell_angle_alpha 57.906325
_cell_angle_beta 27.347651
_cell_angle_gamma 41.166051
_cell_volume 772.476032
_symmetry_space_group_name_H-M "P -1"
_symmetry_group_IT_number 2
_symmetry_cell_setting 'triclinic'
loop_
_space_group_symop_operation_xyz
x,y,z
-x,-y,-z
loop_
_atom_site_type_symbol
_atom_site_label
_atom_site_fract_x
_atom_site_fract_y
_atom_site_fract_z
Si Si1 0.343731 0.348554 0.934502
Si Si2 0.746145 0.673118 0.705569
Si Si3 0.767341 0.116491 0.966934
Si Si4 0.063209 0.382331 0.911387
Si Si5 0.221237 0.196564 0.043777
Si Si6 0.420784 0.919515 0.590124
Si Si7 0.211892 0.093040 0.499281
Si Si8 0.944515 0.111051 0.404203
O O1 0.192791 0.310214 0.081262
O O2 0.644244 0.240491 0.621393
O O3 0.357223 0.325835 0.061457
O O4 0.169921 0.521315 0.975077
O O5 0.825472 0.764144 0.549539
O O6 0.000000 0.500000 0.500000
O O7 0.532026 0.731297 0.822918
O O8 0.947275 0.146447 0.723703
O O9 0.762475 0.070719 0.123106
O O10 0.870375 0.980714 0.854497
O O11 0.090419 0.265315 0.029355
O O12 0.341670 0.262590 0.601862
O O13 0.000000 0.500000 0.000000
O O14 0.534035 0.038576 0.782731
O O15 0.043443 0.177006 0.310160
O O16 0.500000 0.000000 0.500000
O O17 0.243668 0.026393 0.622750
O O18 0.000000 0.000000 0.500000
#
# Coordination Sequence:
#
# PCOD8014296 Si02
#       8
#     2   2   2   2   2   2   2   2
#     4  11  23  39  67  91 129 167 210 268 326 382
#     4  12  26  43  62  92 130 175 213 268 326 381
#     4  12  23  41  66  98 129 165 220 267 319 393
#     4   9  21  42  65  95 129 169 213 267 327 383
#     4  10  21  41  66  94 125 164 211 265 324 376
#     4  11  21  42  71  96 129 172 218 268 324 388
#     4  11  23  41  67  94 126 168 213 266 319 386
#     4  12  23  39  64  99 128 164 218 265 318 390
#
# _framework density 20.712616000000001
#
# number of rings (size 3 to 8) (size 9 to 14) (size 15 to 20)
#    0.000    1.000    5.000    1.875    1.750    2.000 
#    0.000    2.500    0.000    0.000    0.000    0.000 
#    0.000    0.000    0.000    0.000    0.000    0.000 
#
# Total GULP energy -198258.960510 kJ/mol
# GULP energy per Si atom -12391.185032 kJ/mol
# Density = 2.066547 g / cm^3
# Si number density = 20.712616 Si / 1000 Ang^3
#
#
#
# Elastic Constant Matrix: (Units=GPa)
#
#
# Indices 1 2 3 4 5 6 
#
# 1 57.2538 13.4314 22.8703 -0.0269 -5.8225 0.6627
# 2 13.4314 86.8996 47.3245 13.2314 -9.8742 -1.6619
# 3 22.8703 47.3245 93.1636 0.8156 -7.6254 3.1001
# 4 -0.0269 13.2314 0.8156 35.2743 4.4811 0.6173
# 5 -5.8225 -9.8742 -7.6254 4.4811 49.1672 -4.3439
# 6 0.6627 -1.6619 3.1001 0.6173 -4.3439 33.6709
#
#
#
# Elastic Compliance Matrix: (Units=1/GPa)
#
#
# Indices 1 2 3 4 5 6 
#
# 1 0.019499 -0.000420 -0.004454 0.000076 0.001545 0.000204
# 2 -0.000420 0.017718 -0.008666 -0.006863 0.002984 0.002191
# 3 -0.004454 -0.008666 0.016252 0.002928 -0.000183 -0.001914
# 4 0.000076 -0.006863 0.002928 0.031384 -0.003925 -0.001692
# 5 0.001545 0.002984 -0.000183 -0.003925 0.021716 0.003007
# 6 0.000204 0.002191 -0.001914 -0.001692 0.003007 0.030399
#
#
# Mechanical properties :
#
#
# Convention : Reuss Voigt Hill
#
# Bulk Modulus (GPa) = 37.89501 44.95216 41.42359
# Shear Modulus (GPa) = 28.92798 33.86853 31.39826
#
# Velocity S-wave (km/s) = 3.74121 4.04810 3.89768
# Velocity P-wave (km/s) = 6.08256 6.60299 6.34811
#
# Compressibility (1/GPa) = 0.02638870
#
# Stress axis : x y z
#
# Youngs Moduli (GPa) = 51.28543 56.44136 61.53033
#
# Poissons Ratio (x) = 0.02371 0.27407
# Poissons Ratio (y) = 0.02155 0.53319
# Poissons Ratio (z) = 0.22844 0.48909
#
# Static dielectric constant tensor:
#      x y z
#    x 3.766460 -0.077970 -0.298030 
#    y -0.077970 4.030700 0.162510 
#    z -0.298030 0.162510 3.253430 
# 
# 
# High freq. dielectric constant tensor:
#      x y z
#    x 1.812170 -0.016310 0.004800 
#    y -0.016310 1.814450 0.001250 
#    z 0.004800 0.001250 1.808240 
# 
# From -- ./inp_files/427822.got.cif
#   From: 2010.06.25/outbox.cif.g09.slc.cpg/sg2_214_cif.got.tgz:427822.got - 2010.06.27 13:26:56.
