data_PCOD8014394
_publ_section_title
;
Structure prediction by ZEFSAII (Michael W. Deem and Ramdas Pophale) SiO2 
 PCOD8014394
Probable space group: P -1
;
_chemical_formula_sum "Si O2"
_cell_formula_units_Z 14
_cell_length_a 9.026346
_cell_length_b 8.643605
_cell_length_c 10.304620
_cell_angle_alpha 73.958099
_cell_angle_beta 60.898235
_cell_angle_gamma 96.780385
_cell_volume 643.884022
_symmetry_space_group_name_H-M "P -1"
_symmetry_group_IT_number 2
_symmetry_cell_setting 'triclinic'
loop_
_space_group_symop_operation_xyz
x,y,z
-x,-y,-z
loop_
_atom_site_type_symbol
_atom_site_label
_atom_site_fract_x
_atom_site_fract_y
_atom_site_fract_z
Si Si1 0.216489 0.997890 0.128736
Si Si2 0.072393 0.186806 0.864797
Si Si3 0.435361 0.190209 0.604855
Si Si4 0.047302 0.280313 0.128438
Si Si5 0.430135 0.803024 0.196976
Si Si6 0.644833 0.204318 0.269469
Si Si7 0.341991 0.580996 0.039946
O O1 0.095164 0.114144 0.199593
O O2 0.325157 0.944804 0.211523
O O3 0.359564 0.109217 0.939727
O O4 0.092749 0.820592 0.158842
O O5 0.248706 0.227526 0.693419
O O6 0.096604 0.316165 0.945013
O O7 0.000000 0.000000 0.000000
O O8 0.573382 0.281131 0.640243
O O9 0.516883 0.258216 0.415029
O O10 0.415877 0.994460 0.678264
O O11 0.154934 0.439432 0.129925
O O12 0.840431 0.259222 0.236770
O O13 0.337604 0.667817 0.159509
O O14 0.625261 0.285646 0.121672
O O15 0.500000 0.500000 0.000000
#
# Coordination Sequence:
#
# PCOD8014394 Si02
#       7
#     2   2   2   2   2   2   2
#     4  10  18  32  63  88 116 149 214 252 279 351
#     4  10  16  34  62  88 116 156 213 243 291 364
#     4  11  21  39  63  94 125 152 202 264 308 351
#     4  11  20  39  60  92 120 161 210 247 293 372
#     4  11  20  36  60  92 119 162 202 245 304 357
#     4  11  24  39  62  94 126 157 199 264 311 342
#     4  12  24  39  61  92 125 165 206 245 299 374
#
# _framework density 21.743046
#
# number of rings (size 3 to 8) (size 9 to 14) (size 15 to 20)
#    0.000    1.143    7.143    3.000    0.000    0.000 
#    0.000    5.714    0.000    0.000    0.000    0.000 
#    0.000    0.000    0.000    0.000    0.000    0.000 
#
# Total GULP energy -173502.916624 kJ/mol
# GULP energy per Si atom -12393.065473 kJ/mol
# Density = 2.169356 g / cm^3
# Si number density = 21.743046 Si / 1000 Ang^3
#
#
#
# Elastic Constant Matrix: (Units=GPa)
#
#
# Indices 1 2 3 4 5 6 
#
# 1 107.9598 36.4713 26.3256 2.5995 -12.5460 24.2331
# 2 36.4713 63.5450 22.1269 5.1530 0.3679 25.5697
# 3 26.3256 22.1269 74.0098 20.3559 -11.7166 16.1043
# 4 2.5995 5.1530 20.3559 17.3178 -3.2159 5.5682
# 5 -12.5460 0.3679 -11.7166 -3.2159 33.9676 7.8119
# 6 24.2331 25.5697 16.1043 5.5682 7.8119 43.7203
#
#
#
# Elastic Compliance Matrix: (Units=1/GPa)
#
#
# Indices 1 2 3 4 5 6 
#
# 1 0.013334 -0.005136 -0.002660 0.005366 0.005748 -0.005118
# 2 -0.005136 0.023745 -0.003568 0.000793 -0.001095 -0.009631
# 3 -0.002660 -0.003568 0.023841 -0.024508 0.005676 -0.003114
# 4 0.005366 0.000793 -0.024508 0.088122 0.003294 -0.006222
# 5 0.005748 -0.001095 0.005676 0.003294 0.036507 -0.011579
# 6 -0.005118 -0.009631 -0.003114 -0.006222 -0.011579 0.035351
#
#
# Mechanical properties :
#
#
# Convention : Reuss Voigt Hill
#
# Bulk Modulus (GPa) = 26.18271 46.15135 36.16703
# Shear Modulus (GPa) = 19.50403 29.70719 24.60561
#
# Velocity S-wave (km/s) = 2.99829 3.70034 3.36766
# Velocity P-wave (km/s) = 4.90452 6.28717 5.63839
#
# Compressibility (1/GPa) = 0.03819314
#
# Stress axis : x y z
#
# Youngs Moduli (GPa) = 74.99739 42.11499 41.94405
#
# Poissons Ratio (x) = 0.21630 0.11156
# Poissons Ratio (y) = 0.38517 0.14964
# Poissons Ratio (z) = 0.19947 0.15025
#
# Static dielectric constant tensor:
#      x y z
#    x 4.522410 0.227820 -0.101330 
#    y 0.227820 3.998170 0.241130 
#    z -0.101330 0.241130 3.639140 
# 
# 
# High freq. dielectric constant tensor:
#      x y z
#    x 1.884440 0.008670 -0.015030 
#    y 0.008670 1.840600 0.021340 
#    z -0.015030 0.021340 1.803720 
# 
# From -- ./inp_files/381886.got.cif
#   From: 2010.06.25/outbox.cif.g09.slc.cpg/sg2_191_cif.got.tgz:381886.got - 2010.06.27 13:26:56.
