data_PCOD8014428
_publ_section_title
;
Structure prediction by ZEFSAII (Michael W. Deem and Ramdas Pophale) SiO2 
 PCOD8014428
Probable space group: P -1
;
_chemical_formula_sum "Si O2"
_cell_formula_units_Z 16
_cell_length_a 9.430815
_cell_length_b 21.637701
_cell_length_c 7.684055
_cell_angle_alpha 145.556874
_cell_angle_beta 50.717472
_cell_angle_gamma 123.225286
_cell_volume 685.260866
_symmetry_space_group_name_H-M "P -1"
_symmetry_group_IT_number 2
_symmetry_cell_setting 'triclinic'
loop_
_space_group_symop_operation_xyz
x,y,z
-x,-y,-z
loop_
_atom_site_type_symbol
_atom_site_label
_atom_site_fract_x
_atom_site_fract_y
_atom_site_fract_z
Si Si1 0.001736 0.372617 0.170039
Si Si2 0.494811 0.037128 0.894013
Si Si3 0.640456 0.246287 0.127945
Si Si4 0.118366 0.042572 0.670304
Si Si5 0.827267 0.084532 0.347332
Si Si6 0.956096 0.309701 0.672003
Si Si7 0.442777 0.622759 0.810115
Si Si8 0.197457 0.289824 0.135766
O O1 0.164583 0.330434 0.061388
O O2 0.000000 0.500000 0.500000
O O3 0.813829 0.307699 0.233115
O O4 0.040389 0.347366 0.880107
O O5 0.673761 0.992381 0.562198
O O6 0.308542 0.991838 0.843505
O O7 0.509772 0.171473 0.184947
O O8 0.500000 0.000000 0.000000
O O9 0.538264 0.340600 0.322818
O O10 0.707386 0.163309 0.738380
O O11 0.045472 0.990830 0.796081
O O12 0.114930 0.169406 0.947336
O O13 0.000000 0.000000 0.500000
O O14 0.947140 0.175546 0.353302
O O15 0.090809 0.357573 0.524855
O O16 0.759670 0.362085 0.922589
O O17 0.500000 0.500000 0.500000
O O18 0.584506 0.700970 0.990370
#
# Coordination Sequence:
#
# PCOD8014428 Si02
#       8
#     2   2   2   2   2   2   2   2
#     4  10  22  42  65  93 131 167 217 282 327 384
#     4  11  22  37  64  90 132 175 208 259 332 395
#     4   9  19  40  60  90 131 168 207 264 329 383
#     4  11  22  39  61  96 128 164 217 267 316 388
#     4   9  19  39  61  86 130 168 209 255 317 391
#     4  10  24  43  67  95 132 178 214 263 347 387
#     4  10  21  41  67  95 125 164 222 278 321 388
#     4  12  23  41  70  92 131 171 221 272 321 395
#
# _framework density 23.348769999999998
#
# number of rings (size 3 to 8) (size 9 to 14) (size 15 to 20)
#    0.000    2.000    0.000    7.500    3.500    2.500 
#    6.750    1.250    0.000    7.500    0.000    0.000 
#    0.000    0.000    0.000    0.000    0.000    0.000 
#
# Total GULP energy -198294.337223 kJ/mol
# GULP energy per Si atom -12393.396076 kJ/mol
# Density = 2.329563 g / cm^3
# Si number density = 23.348770 Si / 1000 Ang^3
#
#
#
# Elastic Constant Matrix: (Units=GPa)
#
#
# Indices 1 2 3 4 5 6 
#
# 1 147.6863 28.7198 16.7465 -10.0557 6.7245 -16.0068
# 2 28.7198 75.3733 21.4073 10.3077 8.4736 -16.3636
# 3 16.7465 21.4073 58.3083 20.8578 -3.1605 -4.2671
# 4 -10.0557 10.3077 20.8578 32.6282 -3.0573 -6.9634
# 5 6.7245 8.4736 -3.1605 -3.0573 44.5762 12.6810
# 6 -16.0068 -16.3636 -4.2671 -6.9634 12.6810 35.9835
#
#
#
# Elastic Compliance Matrix: (Units=1/GPa)
#
#
# Indices 1 2 3 4 5 6 
#
# 1 0.008596 -0.001848 -0.003894 0.006490 -0.002057 0.004502
# 2 -0.001848 0.018286 -0.005273 -0.001693 -0.006166 0.008713
# 3 -0.003894 -0.005273 0.026106 -0.017077 0.003894 -0.005711
# 4 0.006490 -0.001693 -0.017077 0.045993 -0.001413 0.009490
# 5 -0.002057 -0.006166 0.003894 -0.001413 0.027896 -0.013362
# 6 0.004502 0.008713 -0.005711 0.009490 -0.013362 0.039624
#
#
# Mechanical properties :
#
#
# Convention : Reuss Voigt Hill
#
# Bulk Modulus (GPa) = 32.30299 46.12392 39.21346
# Shear Modulus (GPa) = 25.14452 36.93719 31.04086
#
# Velocity S-wave (km/s) = 3.28519 3.98172 3.65011
# Velocity P-wave (km/s) = 5.31554 6.39813 5.88179
#
# Compressibility (1/GPa) = 0.03095688
#
# Stress axis : x y z
#
# Youngs Moduli (GPa) = 116.33867 54.68762 38.30479
#
# Poissons Ratio (x) = 0.10107 0.14915
# Poissons Ratio (y) = 0.21501 0.20200
# Poissons Ratio (z) = 0.45301 0.28839
#
# Static dielectric constant tensor:
#      x y z
#    x 4.635500 -0.557080 0.007190 
#    y -0.557080 8.532500 -0.441990 
#    z 0.007190 -0.441990 4.319210 
# 
# 
# High freq. dielectric constant tensor:
#      x y z
#    x 1.933460 -0.008750 -0.002940 
#    y -0.008750 1.933240 0.016500 
#    z -0.002940 0.016500 1.915510 
# 
# From -- ./inp_files/225719.got.cif
#   From: 2010.06.25/outbox.cif.g09.slc.cpg/sg2_113_cif.got.tgz:225719.got - 2010.06.27 13:26:56.
