data_PCOD8014532
_publ_section_title
;
Structure prediction by ZEFSAII (Michael W. Deem and Ramdas Pophale) SiO2 
 PCOD8014532
Probable space group: P -1
;
_chemical_formula_sum "Si O2"
_cell_formula_units_Z 16
_cell_length_a 12.427819
_cell_length_b 8.026975
_cell_length_c 7.897066
_cell_angle_alpha 120.582098
_cell_angle_beta 91.438530
_cell_angle_gamma 92.677089
_cell_volume 676.377671
_symmetry_space_group_name_H-M "P -1"
_symmetry_group_IT_number 2
_symmetry_cell_setting 'triclinic'
loop_
_space_group_symop_operation_xyz
x,y,z
-x,-y,-z
loop_
_atom_site_type_symbol
_atom_site_label
_atom_site_fract_x
_atom_site_fract_y
_atom_site_fract_z
Si Si1 0.795003 0.037085 0.332616
Si Si2 0.651121 0.738480 0.011050
Si Si3 0.374470 0.271328 0.355326
Si Si4 0.999096 0.830937 0.776826
Si Si5 0.190371 0.008312 0.298336
Si Si6 0.320299 0.503071 0.805135
Si Si7 0.089721 0.605695 0.939816
Si Si8 0.402121 0.846429 0.785395
O O1 0.912313 0.127726 0.342825
O O2 0.788726 0.983245 0.498804
O O3 0.703035 0.183054 0.356890
O O4 0.768698 0.839250 0.119400
O O5 0.614005 0.594341 0.089380
O O6 0.572466 0.918812 0.062582
O O7 0.650988 0.624877 0.773279
O O8 0.336311 0.394743 0.573321
O O9 0.501113 0.242190 0.359639
O O10 0.305683 0.061844 0.242014
O O11 0.026924 0.637417 0.777300
O O12 0.885384 0.818206 0.668089
O O13 0.000000 0.000000 0.000000
O O14 0.135769 0.803968 0.132124
O O15 0.193790 0.487163 0.843404
O O16 0.371441 0.722976 0.892240
O O17 0.000000 0.500000 0.000000
#
# Coordination Sequence:
#
# PCOD8014532 Si02
#       8
#     2   2   2   2   2   2   2   2
#     4  10  21  44  68 102 136 187 238 295 352 428
#     4  10  24  43  73 100 144 190 241 291 358 427
#     4  12  24  45  76 106 143 199 237 294 364 428
#     4  10  21  41  68  92 136 182 234 295 356 418
#     4  11  24  42  74 100 138 193 240 289 370 430
#     4  12  25  46  70 109 147 184 243 305 357 429
#     4  11  26  45  70 105 144 185 241 306 364 434
#     4  10  24  47  73 104 151 187 245 299 353 427
#
# _framework density 23.655424
#
# number of rings (size 3 to 8) (size 9 to 14) (size 15 to 20)
#    0.750    0.500    2.500    3.375    5.250    4.500 
#    0.000    1.250    0.000    0.000    0.000    0.000 
#    0.000    0.000    0.000    0.000    0.000    0.000 
#
# Total GULP energy -198245.457247 kJ/mol
# GULP energy per Si atom -12390.341078 kJ/mol
# Density = 2.360158 g / cm^3
# Si number density = 23.655424 Si / 1000 Ang^3
#
#
#
# Elastic Constant Matrix: (Units=GPa)
#
#
# Indices 1 2 3 4 5 6 
#
# 1 133.4246 53.4035 28.0270 -11.3944 -25.5466 11.8800
# 2 53.4035 163.6507 45.6030 -34.1615 -2.6178 -12.0743
# 3 28.0270 45.6030 109.6550 -30.2352 -7.9155 -9.7990
# 4 -11.3944 -34.1615 -30.2352 41.8591 0.6812 2.8752
# 5 -25.5466 -2.6178 -7.9155 0.6812 29.5820 0.9295
# 6 11.8800 -12.0743 -9.7990 2.8752 0.9295 29.4343
#
#
#
# Elastic Compliance Matrix: (Units=1/GPa)
#
#
# Indices 1 2 3 4 5 6 
#
# 1 0.011831 -0.003972 -0.001529 -0.000793 0.009699 -0.007142
# 2 -0.003972 0.009109 -0.001146 0.005265 -0.003195 0.004545
# 3 -0.001529 -0.001146 0.012453 0.007375 0.001630 0.003521
# 4 -0.000793 0.005265 0.007375 0.033168 0.000939 0.001665
# 5 0.009699 -0.003195 0.001630 0.000939 0.042505 -0.006117
# 6 -0.007142 0.004545 0.003521 0.001665 -0.006117 0.039924
#
#
# Mechanical properties :
#
#
# Convention : Reuss Voigt Hill
#
# Bulk Modulus (GPa) = 49.75162 73.42193 61.58677
# Shear Modulus (GPa) = 29.58876 38.82153 34.20515
#
# Velocity S-wave (km/s) = 3.54054 4.05548 3.80672
# Velocity P-wave (km/s) = 6.14746 7.28249 6.73892
#
# Compressibility (1/GPa) = 0.02009985
#
# Stress axis : x y z
#
# Youngs Moduli (GPa) = 84.52193 109.77669 80.30489
#
# Poissons Ratio (x) = 0.43605 0.12276
# Poissons Ratio (y) = 0.33573 0.09202
# Poissons Ratio (z) = 0.12921 0.12579
#
# Static dielectric constant tensor:
#      x y z
#    x 4.559960 -0.180990 0.096850 
#    y -0.180990 4.597090 -0.225600 
#    z 0.096850 -0.225600 3.919680 
# 
# 
# High freq. dielectric constant tensor:
#      x y z
#    x 1.943510 -0.000980 0.003420 
#    y -0.000980 1.942330 -0.021680 
#    z 0.003420 -0.021680 1.920520 
# 
# From -- ./inp_files/241026.got.cif
#   From: 2010.06.25/outbox.cif.g09.slc.cpg/sg2_121_cif.got.tgz:241026.got - 2010.06.27 13:26:56.
