data_PCOD8014230
_publ_section_title
;
Structure prediction by ZEFSAII (Michael W. Deem and Ramdas Pophale) SiO2 
 PCOD8014230
Probable space group: P -1
;
_chemical_formula_sum "Si O2"
_cell_formula_units_Z 14
_cell_length_a 12.723411
_cell_length_b 11.256321
_cell_length_c 8.137219
_cell_angle_alpha 65.409972
_cell_angle_beta 113.737165
_cell_angle_gamma 144.134468
_cell_volume 616.184339
_symmetry_space_group_name_H-M "P -1"
_symmetry_group_IT_number 2
_symmetry_cell_setting 'triclinic'
loop_
_space_group_symop_operation_xyz
x,y,z
-x,-y,-z
loop_
_atom_site_type_symbol
_atom_site_label
_atom_site_fract_x
_atom_site_fract_y
_atom_site_fract_z
Si Si1 0.590456 0.411863 0.148204
Si Si2 0.055405 0.942891 0.312518
Si Si3 0.676233 0.225564 0.171834
Si Si4 0.563837 0.682266 0.531504
Si Si5 0.772344 0.830695 0.035075
Si Si6 0.372306 0.757381 0.234696
Si Si7 0.017859 0.410198 0.422158
O O1 0.684635 0.353206 0.233555
O O2 0.523549 0.384748 0.305207
O O3 0.726517 0.644671 0.041723
O O4 0.417128 0.260830 0.000092
O O5 0.894108 0.911941 0.229800
O O6 0.972113 0.729332 0.427361
O O7 0.217650 0.127688 0.427508
O O8 0.118011 0.990965 0.134012
O O9 0.840625 0.270101 0.277598
O O10 0.484264 0.986442 0.214348
O O11 0.695871 0.303172 0.959481
O O12 0.500000 0.500000 0.500000
O O13 0.505152 0.753299 0.346082
O O14 0.198904 0.600331 0.330059
O O15 0.000000 0.500000 0.500000
#
# Coordination Sequence:
#
# PCOD8014230 Si02
#       7
#     2   2   2   2   2   2   2
#     4  10  22  42  73  97 136 185 232 278 350 416
#     4  10  21  41  65  99 140 175 230 286 342 404
#     4  11  25  47  71 100 139 187 230 289 344 412
#     4  11  24  43  68 101 142 183 231 289 347 409
#     4   9  20  38  66 103 131 173 237 277 339 411
#     4  11  26  45  69 103 142 181 235 284 349 407
#     4  12  25  44  73 105 139 180 234 286 345 421
#
# _framework density 22.720472000000001
#
# number of rings (size 3 to 8) (size 9 to 14) (size 15 to 20)
#    0.000    1.429    1.429    3.000   10.000    1.143 
#    0.000    5.714    0.000    0.000    0.000    0.000 
#    0.000    0.000    0.000    0.000    0.000    0.000 
#
# Total GULP energy -173569.357433 kJ/mol
# GULP energy per Si atom -12397.811245 kJ/mol
# Density = 2.266876 g / cm^3
# Si number density = 22.720472 Si / 1000 Ang^3
#
#
#
# Elastic Constant Matrix: (Units=GPa)
#
#
# Indices 1 2 3 4 5 6 
#
# 1 71.4667 33.1656 41.0457 1.3137 7.2167 3.0572
# 2 33.1656 112.1359 44.8983 -8.4291 -11.6959 14.5233
# 3 41.0457 44.8983 134.0166 -4.6154 14.1259 11.1085
# 4 1.3137 -8.4291 -4.6154 44.0829 6.8384 7.3661
# 5 7.2167 -11.6959 14.1259 6.8384 35.8689 6.6591
# 6 3.0572 14.5233 11.1085 7.3661 6.6591 43.8453
#
#
#
# Elastic Compliance Matrix: (Units=1/GPa)
#
#
# Indices 1 2 3 4 5 6 
#
# 1 0.018831 -0.004773 -0.003997 -0.001653 -0.003854 0.002144
# 2 -0.004773 0.013082 -0.003206 0.001994 0.006959 -0.004580
# 3 -0.003997 -0.003206 0.010346 0.001418 -0.004429 -0.000846
# 4 -0.001653 0.001994 0.001418 0.024547 -0.003418 -0.004509
# 5 -0.003854 0.006959 -0.004429 -0.003418 0.034351 -0.005557
# 6 0.002144 -0.004580 -0.000846 -0.004509 -0.005557 0.025991
#
#
# Mechanical properties :
#
#
# Convention : Reuss Voigt Hill
#
# Bulk Modulus (GPa) = 54.62407 61.75983 58.19195
# Shear Modulus (GPa) = 31.80621 37.99340 34.89980
#
# Velocity S-wave (km/s) = 3.74557 4.09370 3.92350
# Velocity P-wave (km/s) = 6.54215 7.04173 6.79653
#
# Compressibility (1/GPa) = 0.01830695
#
# Stress axis : x y z
#
# Youngs Moduli (GPa) = 53.10444 76.44100 96.65842
#
# Poissons Ratio (x) = 0.36485 0.38631
# Poissons Ratio (y) = 0.25347 0.30989
# Poissons Ratio (z) = 0.21224 0.24508
#
# Static dielectric constant tensor:
#      x y z
#    x 4.101650 0.443480 0.451260 
#    y 0.443480 4.300740 0.120630 
#    z 0.451260 0.120630 4.461250 
# 
# 
# High freq. dielectric constant tensor:
#      x y z
#    x 1.871700 0.023020 0.030500 
#    y 0.023020 1.909630 -0.001030 
#    z 0.030500 -0.001030 1.914740 
# 
# From -- ./inp_files/304846.got.cif
#   From: 2010.06.25/outbox.cif.g09.slc.cpg/sg2_153_cif.got.tgz:304846.got - 2010.06.27 13:26:56.
