data_PCOD8014607
_publ_section_title
;
Structure prediction by ZEFSAII (Michael W. Deem and Ramdas Pophale) SiO2 
 PCOD8014607
Probable space group: P -1
;
_chemical_formula_sum "Si O2"
_cell_formula_units_Z 14
_cell_length_a 17.784139
_cell_length_b 7.127161
_cell_length_c 9.432004
_cell_angle_alpha 125.476064
_cell_angle_beta 43.459561
_cell_angle_gamma 124.731725
_cell_volume 645.712870
_symmetry_space_group_name_H-M "P -1"
_symmetry_group_IT_number 2
_symmetry_cell_setting 'triclinic'
loop_
_space_group_symop_operation_xyz
x,y,z
-x,-y,-z
loop_
_atom_site_type_symbol
_atom_site_label
_atom_site_fract_x
_atom_site_fract_y
_atom_site_fract_z
Si Si1 0.406688 0.011987 0.019269
Si Si2 0.980402 0.238843 0.274341
Si Si3 0.145464 0.374158 0.333419
Si Si4 0.264934 0.362613 0.440902
Si Si5 0.513801 0.234195 0.678961
Si Si6 0.339639 0.473319 0.897623
Si Si7 0.835825 0.735081 0.169336
O O1 0.319537 0.138731 0.268943
O O2 0.350576 0.737137 0.934113
O O3 0.500000 0.000000 0.000000
O O4 0.456220 0.162291 0.878193
O O5 0.901592 0.395711 0.506014
O O6 0.053755 0.174920 0.279447
O O7 0.894714 0.012846 0.224892
O O8 0.073289 0.374949 0.088289
O O9 0.165066 0.300261 0.433346
O O10 0.268880 0.438261 0.123090
O O11 0.356324 0.618749 0.406299
O O12 0.199431 0.387133 0.685585
O O13 0.457831 0.416830 0.750534
O O14 0.500000 0.000000 0.500000
O O15 0.277351 0.292157 0.781343
#
# Coordination Sequence:
#
# PCOD8014607 Si02
#       7
#     2   2   2   2   2   2   2
#     4  12  24  42  66  92 137 176 215 261 310 384
#     4   9  21  44  65  91 126 172 214 276 326 377
#     4  10  21  41  69  92 127 170 219 268 324 381
#     4  12  24  41  65 101 128 173 219 263 322 388
#     4  12  27  42  63 100 137 171 215 265 318 392
#     4  11  23  44  65  96 136 175 212 260 326 388
#     4  10  23  40  65  94 127 171 212 265 334 379
#
# _framework density 21.681463999999998
#
# number of rings (size 3 to 8) (size 9 to 14) (size 15 to 20)
#    0.000    1.143    2.857    3.000    4.000    2.286 
#    0.000    0.000    0.000    0.000    0.000    0.000 
#    0.000    0.000    0.000    0.000    0.000    0.000 
#
# Total GULP energy -173549.096521 kJ/mol
# GULP energy per Si atom -12396.364037 kJ/mol
# Density = 2.163212 g / cm^3
# Si number density = 21.681464 Si / 1000 Ang^3
#
#
#
# Elastic Constant Matrix: (Units=GPa)
#
#
# Indices 1 2 3 4 5 6 
#
# 1 151.6945 37.6943 39.4489 -0.4840 17.7610 4.2314
# 2 37.6943 79.2671 11.3963 3.0312 10.2106 7.2774
# 3 39.4489 11.3963 80.7371 -4.9495 19.3976 1.7165
# 4 -0.4840 3.0312 -4.9495 38.5236 -7.9859 5.2521
# 5 17.7610 10.2106 19.3976 -7.9859 33.2225 0.9640
# 6 4.2314 7.2774 1.7165 5.2521 0.9640 31.1862
#
#
#
# Elastic Compliance Matrix: (Units=1/GPa)
#
#
# Indices 1 2 3 4 5 6 
#
# 1 0.008469 -0.003316 -0.003289 -0.000393 -0.001681 -0.000076
# 2 -0.003316 0.014874 0.000263 -0.001482 -0.003230 -0.002686
# 3 -0.003289 0.000263 0.015772 0.000474 -0.007407 -0.000334
# 4 -0.000393 -0.001482 0.000474 0.028277 0.007320 -0.004615
# 5 -0.001681 -0.003230 -0.007407 0.007320 0.038106 -0.001021
# 6 -0.000076 -0.002686 -0.000334 -0.004615 -0.001021 0.033530
#
#
# Mechanical properties :
#
#
# Convention : Reuss Voigt Hill
#
# Bulk Modulus (GPa) = 37.83377 54.30864 46.07120
# Shear Modulus (GPa) = 31.14856 35.46373 33.30615
#
# Velocity S-wave (km/s) = 3.79442 4.04873 3.92364
# Velocity P-wave (km/s) = 6.05678 6.85267 6.46698
#
# Compressibility (1/GPa) = 0.02643141
#
# Stress axis : x y z
#
# Youngs Moduli (GPa) = 118.07658 67.23130 63.40550
#
# Poissons Ratio (x) = 0.22294 0.20852
# Poissons Ratio (y) = 0.39154 -0.01668
# Poissons Ratio (z) = 0.38832 -0.01769
#
# Static dielectric constant tensor:
#      x y z
#    x 4.173490 0.215240 0.118340 
#    y 0.215240 3.883860 -0.014570 
#    z 0.118340 -0.014570 4.243040 
# 
# 
# High freq. dielectric constant tensor:
#      x y z
#    x 1.867330 0.019070 0.011950 
#    y 0.019070 1.827920 -0.002570 
#    z 0.011950 -0.002570 1.865750 
# 
# From -- ./inp_files/38408.got.cif
#   From: 2010.06.25/outbox.cif.g09.slc.cpg/sg2_20_cif.got.tgz:38408.got - 2010.06.27 13:26:56.
