data_PCOD8014733
_publ_section_title
;
Structure prediction by ZEFSAII (Michael W. Deem and Ramdas Pophale) SiO2 
 PCOD8014733
Probable space group: P -1
;
_chemical_formula_sum "Si O2"
_cell_formula_units_Z 12
_cell_length_a 7.155782
_cell_length_b 7.176022
_cell_length_c 16.269043
_cell_angle_alpha 125.266427
_cell_angle_beta 49.326355
_cell_angle_gamma 138.603752
_cell_volume 412.411620
_symmetry_space_group_name_H-M "P -1"
_symmetry_group_IT_number 2
_symmetry_cell_setting 'triclinic'
loop_
_space_group_symop_operation_xyz
x,y,z
-x,-y,-z
loop_
_atom_site_type_symbol
_atom_site_label
_atom_site_fract_x
_atom_site_fract_y
_atom_site_fract_z
Si Si1 0.054584 0.542129 0.092084
Si Si2 0.719196 0.753116 0.571731
Si Si3 0.478171 0.547603 0.115047
Si Si4 0.759014 0.274325 0.447390
Si Si5 0.359578 0.180392 0.214948
Si Si6 0.805584 0.174219 0.237725
O O1 0.715503 0.290965 0.167622
O O2 0.154289 0.850381 0.165873
O O3 0.351500 0.531206 0.018822
O O4 0.000000 0.500000 0.000000
O O5 0.613857 0.436293 0.492523
O O6 0.810312 0.781938 0.651046
O O7 0.476297 0.817451 0.666413
O O8 0.000000 0.000000 0.500000
O O9 0.415882 0.372004 0.170372
O O10 0.122087 0.443046 0.169538
O O11 0.711516 0.881947 0.151081
O O12 0.901152 0.197298 0.313689
O O13 0.000000 0.500000 0.500000
O O14 0.500000 0.000000 0.500000
#
# Coordination Sequence:
#
# PCOD8014733 Si02
#       6
#     2   2   2   2   2   2
#     4  10  21  41  71 105 136 176 237 301 346 402
#     4  12  28  49  71 104 151 191 232 292 359 426
#     4  11  22  43  71 102 137 180 237 291 346 421
#     4  12  26  46  72 100 131 183 247 295 340 413
#     4  11  23  43  72 103 136 188 239 287 346 416
#     4  12  25  42  66 100 141 184 223 288 361 416
#
# _framework density 29.097142999999999
#
# number of rings (size 3 to 8) (size 9 to 14) (size 15 to 20)
#    0.000    0.667    0.000   10.500    0.000    6.667 
#    0.000    5.000    0.000    0.000    0.000    0.000 
#    0.000    0.000    0.000    0.000    0.000    0.000 
#
# Total GULP energy -148838.523507 kJ/mol
# GULP energy per Si atom -12403.210292 kJ/mol
# Density = 2.903092 g / cm^3
# Si number density = 29.097143 Si / 1000 Ang^3
#
#
#
# Elastic Constant Matrix: (Units=GPa)
#
#
# Indices 1 2 3 4 5 6 
#
# 1 77.7802 28.0668 17.3050 -23.6215 -3.0851 -4.0666
# 2 28.0668 242.2415 107.8889 -9.0085 12.1405 -9.0394
# 3 17.3050 107.8889 233.5452 -23.6954 26.1279 -14.0404
# 4 -23.6215 -9.0085 -23.6954 82.7863 -9.2966 -0.8641
# 5 -3.0851 12.1405 26.1279 -9.2966 44.4051 -2.7102
# 6 -4.0666 -9.0394 -14.0404 -0.8641 -2.7102 50.0733
#
#
#
# Elastic Compliance Matrix: (Units=1/GPa)
#
#
# Indices 1 2 3 4 5 6 
#
# 1 0.014941 -0.001589 -0.000150 0.004343 0.002537 0.001097
# 2 -0.001589 0.005371 -0.002381 -0.000582 -0.000291 0.000147
# 3 -0.000150 -0.002381 0.005850 0.001102 -0.002505 0.001082
# 4 0.004343 -0.000582 0.001102 0.013893 0.002778 0.000947
# 5 0.002537 -0.000291 -0.002505 0.002778 0.024883 0.000846
# 6 0.001097 0.000147 0.001082 0.000947 0.000846 0.020452
#
#
# Mechanical properties :
#
#
# Convention : Reuss Voigt Hill
#
# Bulk Modulus (GPa) = 55.79989 95.56537 75.68263
# Shear Modulus (GPa) = 50.19905 62.14004 56.16954
#
# Velocity S-wave (km/s) = 4.15809 4.62628 4.39841
# Velocity P-wave (km/s) = 6.50166 7.83910 7.20150
#
# Compressibility (1/GPa) = 0.01792118
#
# Stress axis : x y z
#
# Youngs Moduli (GPa) = 66.93190 186.17976 170.93757
#
# Poissons Ratio (x) = 0.29581 0.02569
# Poissons Ratio (y) = 0.10634 0.40703
# Poissons Ratio (z) = 0.01006 0.44333
#
# Static dielectric constant tensor:
#      x y z
#    x 10.402630 1.048530 0.691990 
#    y 1.048530 5.206130 -0.237100 
#    z 0.691990 -0.237100 6.904980 
# 
# 
# High freq. dielectric constant tensor:
#      x y z
#    x 2.297230 0.004510 0.021130 
#    y 0.004510 2.173140 -0.025790 
#    z 0.021130 -0.025790 2.241470 
# 
# From -- ./inp_files/588187.got.cif
#   From: 2010.06.25/outbox.cif.g09.slc.cpg/sg2_295_cif.got.tgz:588187.got - 2010.06.27 13:26:56.
