data_PCOD8014205
_publ_section_title
;
Structure prediction by ZEFSAII (Michael W. Deem and Ramdas Pophale) SiO2 
 PCOD8014205
Probable space group: P -1
;
_chemical_formula_sum "Si O2"
_cell_formula_units_Z 16
_cell_length_a 11.709068
_cell_length_b 12.859101
_cell_length_c 6.925909
_cell_angle_alpha 131.821881
_cell_angle_beta 104.054380
_cell_angle_gamma 98.489955
_cell_volume 681.251875
_symmetry_space_group_name_H-M "P -1"
_symmetry_group_IT_number 2
_symmetry_cell_setting 'triclinic'
loop_
_space_group_symop_operation_xyz
x,y,z
-x,-y,-z
loop_
_atom_site_type_symbol
_atom_site_label
_atom_site_fract_x
_atom_site_fract_y
_atom_site_fract_z
Si Si1 0.296153 0.859017 0.134235
Si Si2 0.722421 0.502337 0.844150
Si Si3 0.900310 0.022195 0.843873
Si Si4 0.077919 0.341110 0.187414
Si Si5 0.124092 0.533556 0.798593
Si Si6 0.536864 0.663747 0.612935
Si Si7 0.430979 0.109537 0.773016
Si Si8 0.661274 0.726414 0.338983
O O1 0.204688 0.916324 0.037672
O O2 0.435519 0.905935 0.149272
O O3 0.318373 0.941024 0.458990
O O4 0.229701 0.676317 0.901228
O O5 0.791749 0.613341 0.827863
O O6 0.603517 0.345087 0.525693
O O7 0.828870 0.473755 0.975525
O O8 0.645869 0.572917 0.034796
O O9 0.809546 0.854621 0.511291
O O10 0.987796 0.157447 0.896704
O O11 0.000000 0.000000 0.000000
O O12 0.106628 0.381904 0.478810
O O13 0.008449 0.446254 0.210854
O O14 0.500000 0.500000 0.500000
O O15 0.638028 0.693348 0.516260
O O16 0.605780 0.812527 0.963667
O O17 0.443542 0.217855 0.723944
#
# Coordination Sequence:
#
# PCOD8014205 Si02
#       8
#     2   2   2   2   2   2   2   2
#     4   9  20  40  67  93 131 177 208 272 331 380
#     4  12  24  38  68  97 132 171 221 273 324 391
#     4  10  22  41  66  93 132 171 216 268 323 392
#     4  10  23  42  66  98 128 178 217 268 330 384
#     4  10  21  41  65  95 136 168 219 270 323 394
#     4  12  26  40  65  97 130 172 218 271 331 389
#     4  10  21  43  64  93 135 169 220 269 326 395
#     4  11  25  42  63  97 129 174 220 271 328 386
#
# _framework density 23.486177000000001
#
# number of rings (size 3 to 8) (size 9 to 14) (size 15 to 20)
#    0.000    1.500    1.250    3.000    5.250    0.500 
#    0.000   22.500    0.000    0.000    0.000    0.000 
#    0.000    0.000    0.000    0.000    0.000    0.000 
#
# Total GULP energy -198258.099752 kJ/mol
# GULP energy per Si atom -12391.131235 kJ/mol
# Density = 2.343272 g / cm^3
# Si number density = 23.486177 Si / 1000 Ang^3
#
#
#
# Elastic Constant Matrix: (Units=GPa)
#
#
# Indices 1 2 3 4 5 6 
#
# 1 93.4909 20.0198 26.4765 -7.5491 5.6558 -3.3631
# 2 20.0198 68.7729 27.3672 -2.0074 -2.9713 3.7388
# 3 26.4765 27.3672 108.3550 -0.0924 -1.1061 7.0409
# 4 -7.5491 -2.0074 -0.0924 34.4904 2.3578 5.5102
# 5 5.6558 -2.9713 -1.1061 2.3578 38.2998 -4.6084
# 6 -3.3631 3.7388 7.0409 5.5102 -4.6084 37.9028
#
#
#
# Elastic Compliance Matrix: (Units=1/GPa)
#
#
# Indices 1 2 3 4 5 6 
#
# 1 0.012335 -0.002708 -0.002427 0.002489 -0.002111 0.001194
# 2 -0.002708 0.016863 -0.003508 0.000464 0.001441 -0.001144
# 3 -0.002427 -0.003508 0.010826 -0.000434 0.000210 -0.001792
# 4 0.002489 0.000464 -0.000434 0.030474 -0.002763 -0.004510
# 5 -0.002111 0.001441 0.000210 -0.002763 0.027110 0.003329
# 6 0.001194 -0.001144 -0.001792 -0.004510 0.003329 0.027995
#
#
# Mechanical properties :
#
#
# Convention : Reuss Voigt Hill
#
# Bulk Modulus (GPa) = 43.97983 46.48287 45.23135
# Shear Modulus (GPa) = 33.22936 35.25561 34.24248
#
# Velocity S-wave (km/s) = 3.76553 3.87863 3.82250
# Velocity P-wave (km/s) = 6.13776 6.31609 6.22756
#
# Compressibility (1/GPa) = 0.02273769
#
# Stress axis : x y z
#
# Youngs Moduli (GPa) = 81.06867 59.30176 92.36911
#
# Poissons Ratio (x) = 0.16062 0.22418
# Poissons Ratio (y) = 0.21957 0.32401
# Poissons Ratio (z) = 0.19676 0.20802
#
# Static dielectric constant tensor:
#      x y z
#    x 4.222510 -0.206430 0.372020 
#    y -0.206430 4.070350 0.207880 
#    z 0.372020 0.207880 4.379660 
# 
# 
# High freq. dielectric constant tensor:
#      x y z
#    x 1.935060 -0.015990 0.023370 
#    y -0.015990 1.906480 0.018770 
#    z 0.023370 0.018770 1.924990 
# 
# From -- ./inp_files/78791.got.cif
#   From: 2010.06.25/outbox.cif.g09.slc.cpg/sg2_40_cif.got.tgz:78791.got - 2010.06.27 13:26:56.
