data_PCOD8014789
_publ_section_title
;
Structure prediction by ZEFSAII (Michael W. Deem and Ramdas Pophale) SiO2 
 PCOD8014789
Probable space group: P -1
;
_chemical_formula_sum "Si O2"
_cell_formula_units_Z 16
_cell_length_a 14.390296
_cell_length_b 11.838519
_cell_length_c 9.356517
_cell_angle_alpha 128.020127
_cell_angle_beta 141.300310
_cell_angle_gamma 69.902460
_cell_volume 754.109712
_symmetry_space_group_name_H-M "P -1"
_symmetry_group_IT_number 2
_symmetry_cell_setting 'triclinic'
loop_
_space_group_symop_operation_xyz
x,y,z
-x,-y,-z
loop_
_atom_site_type_symbol
_atom_site_label
_atom_site_fract_x
_atom_site_fract_y
_atom_site_fract_z
Si Si1 0.393717 0.358629 0.840377
Si Si2 0.879246 0.036334 0.483501
Si Si3 0.410662 0.766273 0.824515
Si Si4 0.561842 0.907621 0.849206
Si Si5 0.608159 0.894469 0.589798
Si Si6 0.933107 0.616789 0.427724
Si Si7 0.955967 0.053498 0.135621
Si Si8 0.066278 0.635231 0.292387
O O1 0.375326 0.221577 0.601229
O O2 0.240327 0.398084 0.739093
O O3 0.500000 0.500000 0.000000
O O4 0.470539 0.321711 0.048787
O O5 0.914249 0.214157 0.657383
O O6 0.713057 0.937643 0.154297
O O7 0.000000 0.000000 0.500000
O O8 0.911708 0.982439 0.635937
O O9 0.241996 0.653692 0.570790
O O10 0.451999 0.927123 0.079765
O O11 0.424239 0.804536 0.700271
O O12 0.550409 0.818287 0.615790
O O13 0.500000 0.000000 0.500000
O O14 0.780237 0.983231 0.913777
O O15 0.000000 0.500000 0.500000
O O16 0.036894 0.774769 0.726915
O O17 0.951094 0.608652 0.270344
O O18 0.000000 0.000000 0.000000
O O19 0.000000 0.500000 0.000000
#
# Coordination Sequence:
#
# PCOD8014789 Si02
#       8
#     2   2   2   2   2   2   2   2
#     4  12  27  45  67 101 144 186 224 283 357 415
#     4  11  21  41  71  99 135 174 228 287 342 403
#     4  10  22  44  68  99 136 176 224 286 346 406
#     4  10  21  41  73 102 133 175 226 287 347 397
#     4  12  25  42  72 105 138 178 234 286 340 423
#     4  12  27  47  68  98 145 186 226 295 347 408
#     4  12  25  43  71 106 134 181 240 285 340 415
#     4  11  26  45  71  99 136 185 232 283 350 416
#
# _framework density 21.217074
#
# number of rings (size 3 to 8) (size 9 to 14) (size 15 to 20)
#    0.000    0.750    5.000    2.250    3.500    3.000 
#    0.000    1.250    0.000    0.000    0.000    0.000 
#    0.000    0.000    0.000    0.000    0.000    0.000 
#
# Total GULP energy -198231.476598 kJ/mol
# GULP energy per Si atom -12389.467287 kJ/mol
# Density = 2.116878 g / cm^3
# Si number density = 21.217074 Si / 1000 Ang^3
#
#
#
# Elastic Constant Matrix: (Units=GPa)
#
#
# Indices 1 2 3 4 5 6 
#
# 1 159.8866 39.0276 50.3629 -4.4208 -11.2063 -2.8630
# 2 39.0276 127.3752 50.4524 -16.0021 -1.9831 -7.5991
# 3 50.3629 50.4524 86.1813 -0.5955 -7.5912 -3.4687
# 4 -4.4208 -16.0021 -0.5955 37.7631 -1.1217 2.9054
# 5 -11.2063 -1.9831 -7.5912 -1.1217 45.3433 -4.3263
# 6 -2.8630 -7.5991 -3.4687 2.9054 -4.3263 37.2271
#
#
#
# Elastic Compliance Matrix: (Units=1/GPa)
#
#
# Indices 1 2 3 4 5 6 
#
# 1 0.007800 -0.000689 -0.004033 0.000581 0.001254 0.000184
# 2 -0.000689 0.011076 -0.006042 0.004408 -0.000470 0.001246
# 3 -0.004033 -0.006042 0.017646 -0.002744 0.001674 0.000509
# 4 0.000581 0.004408 -0.002744 0.028501 0.000440 -0.001484
# 5 0.001254 -0.000470 0.001674 0.000440 0.022900 0.002784
# 6 0.000184 0.001246 0.000509 -0.001484 0.002784 0.027618
#
#
# Mechanical properties :
#
#
# Convention : Reuss Voigt Hill
#
# Bulk Modulus (GPa) = 66.69252 72.56987 69.63120
# Shear Modulus (GPa) = 35.19447 39.64003 37.41725
#
# Velocity S-wave (km/s) = 4.07723 4.32708 4.20401
# Velocity P-wave (km/s) = 7.32576 7.69692 7.51363
#
# Compressibility (1/GPa) = 0.01499418
#
# Stress axis : x y z
#
# Youngs Moduli (GPa) = 128.20061 90.28537 56.66850
#
# Poissons Ratio (x) = 0.06221 0.22855
# Poissons Ratio (y) = 0.08834 0.34240
# Poissons Ratio (z) = 0.51704 0.54552
#
# Static dielectric constant tensor:
#      x y z
#    x 5.758660 -0.352340 0.494980 
#    y -0.352340 3.864980 -0.029800 
#    z 0.494980 -0.029800 3.803170 
# 
# 
# High freq. dielectric constant tensor:
#      x y z
#    x 1.858080 0.001080 0.003220 
#    y 0.001080 1.833490 -0.011600 
#    z 0.003220 -0.011600 1.822480 
# 
# From -- ./inp_files/308658.got.cif
#   From: 2010.06.25/outbox.cif.g09.slc.cpg/sg2_155_cif.got.tgz:308658.got - 2010.06.27 13:26:56.
