data_PCOD8014830
_publ_section_title
;
Structure prediction by ZEFSAII (Michael W. Deem and Ramdas Pophale) SiO2 
 PCOD8014830
Probable space group: P -1
;
_chemical_formula_sum "Si O2"
_cell_formula_units_Z 16
_cell_length_a 18.251632
_cell_length_b 8.328113
_cell_length_c 14.168603
_cell_angle_alpha 109.529669
_cell_angle_beta 160.382963
_cell_angle_gamma 72.306182
_cell_volume 681.041789
_symmetry_space_group_name_H-M "P -1"
_symmetry_group_IT_number 2
_symmetry_cell_setting 'triclinic'
loop_
_space_group_symop_operation_xyz
x,y,z
-x,-y,-z
loop_
_atom_site_type_symbol
_atom_site_label
_atom_site_fract_x
_atom_site_fract_y
_atom_site_fract_z
Si Si1 0.391978 0.753071 0.959812
Si Si2 0.646604 0.470984 0.312677
Si Si3 0.974380 0.678957 0.176304
Si Si4 0.367671 0.268367 0.379075
Si Si5 0.243565 0.005953 0.528495
Si Si6 0.345750 0.472088 0.108418
Si Si7 0.419091 0.994357 0.534645
Si Si8 0.846483 0.207462 0.145189
O O1 0.565701 0.654955 0.218691
O O2 0.520912 0.932817 0.129929
O O3 0.325181 0.651681 0.766187
O O4 0.173057 0.776814 0.760823
O O5 0.466720 0.388622 0.150203
O O6 0.876639 0.484484 0.652496
O O7 0.144351 0.838745 0.426954
O O8 0.858049 0.677263 0.933397
O O9 0.782578 0.680647 0.022584
O O10 0.476265 0.438452 0.588357
O O11 0.544920 0.188297 0.506756
O O12 0.299243 0.125916 0.346182
O O13 0.271524 0.970389 0.443845
O O14 0.080804 0.155534 0.384181
O O15 0.178058 0.609676 0.896087
O O16 0.663073 0.069315 0.863523
#
# Coordination Sequence:
#
# PCOD8014830 Si02
#       8
#     2   2   2   2   2   2   2   2
#     4   9  21  43  70  87 119 160 207 255 302 362
#     4  10  23  44  64  92 120 162 206 252 307 362
#     4  12  25  38  59  96 129 158 202 252 307 364
#     4  10  21  42  61  88 125 168 200 254 297 349
#     4  11  22  38  67  94 121 158 205 256 302 364
#     4  10  23  41  61  86 132 163 200 250 300 363
#     4   9  20  40  61  90 124 158 209 247 296 359
#     4   9  18  40  66  91 116 159 209 250 296 363
#
# _framework density 23.493418999999999
#
# number of rings (size 3 to 8) (size 9 to 14) (size 15 to 20)
#    0.000    2.000    1.250    1.875    1.750    2.500 
#    2.250    5.000    0.000    0.000    0.000    0.000 
#    0.000    0.000    0.000    0.000    0.000    0.000 
#
# Total GULP energy -198319.380818 kJ/mol
# GULP energy per Si atom -12394.961301 kJ/mol
# Density = 2.343995 g / cm^3
# Si number density = 23.493419 Si / 1000 Ang^3
#
#
#
# Elastic Constant Matrix: (Units=GPa)
#
#
# Indices 1 2 3 4 5 6 
#
# 1 123.3772 26.2315 20.6383 4.7778 19.2230 -6.7320
# 2 26.2315 43.2689 16.5795 11.5721 1.3786 7.2273
# 3 20.6383 16.5795 57.8499 -8.6602 8.9600 11.8441
# 4 4.7778 11.5721 -8.6602 36.3992 7.5078 8.0656
# 5 19.2230 1.3786 8.9600 7.5078 28.7290 2.7090
# 6 -6.7320 7.2273 11.8441 8.0656 2.7090 35.4688
#
#
#
# Elastic Compliance Matrix: (Units=1/GPa)
#
#
# Indices 1 2 3 4 5 6 
#
# 1 0.011192 -0.006873 -0.001685 0.000827 -0.007270 0.004455
# 2 -0.006873 0.035478 -0.011041 -0.014633 0.010382 -0.002312
# 3 -0.001685 -0.011041 0.026544 0.014074 -0.009411 -0.009416
# 4 0.000827 -0.014633 0.014074 0.040373 -0.013879 -0.009682
# 5 -0.007270 0.010382 -0.009411 -0.013879 0.045802 -0.000695
# 6 0.004455 -0.002312 -0.009416 -0.009682 -0.000695 0.034909
#
#
# Mechanical properties :
#
#
# Convention : Reuss Voigt Hill
#
# Bulk Modulus (GPa) = 29.39864 39.04385 34.22125
# Shear Modulus (GPa) = 20.42191 30.85585 25.63888
#
# Velocity S-wave (km/s) = 2.95152 3.62799 3.30710
# Velocity P-wave (km/s) = 4.91488 5.84850 5.40190
#
# Compressibility (1/GPa) = 0.03401517
#
# Stress axis : x y z
#
# Youngs Moduli (GPa) = 89.34848 28.18680 37.67333
#
# Poissons Ratio (x) = 0.19373 0.06349
# Poissons Ratio (y) = 0.61410 0.41595
# Poissons Ratio (z) = 0.15058 0.31121
#
# Static dielectric constant tensor:
#      x y z
#    x 4.410960 0.113850 0.072850 
#    y 0.113850 4.082030 -0.173460 
#    z 0.072850 -0.173460 3.997760 
# 
# 
# High freq. dielectric constant tensor:
#      x y z
#    x 1.940740 0.007930 0.010880 
#    y 0.007930 1.916580 -0.004380 
#    z 0.010880 -0.004380 1.910220 
# 
# From -- ./inp_files/336772.got.cif
#   From: 2010.06.25/outbox.cif.g09.slc.cpg/sg2_169_cif.got.tgz:336772.got - 2010.06.27 13:26:56.
