data_PCOD8014783
_publ_section_title
;
Structure prediction by ZEFSAII (Michael W. Deem and Ramdas Pophale) SiO2 
 PCOD8014783
Probable space group: P -1
;
_chemical_formula_sum "Si O2"
_cell_formula_units_Z 16
_cell_length_a 8.410538
_cell_length_b 11.617430
_cell_length_c 12.088201
_cell_angle_alpha 49.588366
_cell_angle_beta 60.474396
_cell_angle_gamma 88.374937
_cell_volume 702.934431
_symmetry_space_group_name_H-M "P -1"
_symmetry_group_IT_number 2
_symmetry_cell_setting 'triclinic'
loop_
_space_group_symop_operation_xyz
x,y,z
-x,-y,-z
loop_
_atom_site_type_symbol
_atom_site_label
_atom_site_fract_x
_atom_site_fract_y
_atom_site_fract_z
Si Si1 0.211640 0.071708 0.239134
Si Si2 0.456299 0.510889 0.662194
Si Si3 0.795081 0.058522 0.440379
Si Si4 0.413103 0.737084 0.710371
Si Si5 0.169943 0.913039 0.116981
Si Si6 0.214004 0.590011 0.308797
Si Si7 0.409122 0.614685 0.015133
Si Si8 0.737817 0.770056 0.247723
O O1 0.413860 0.245843 0.058247
O O2 0.019819 0.113990 0.283125
O O3 0.211338 0.960208 0.413693
O O4 0.197439 0.967928 0.199656
O O5 0.407800 0.569315 0.760108
O O6 0.623958 0.439198 0.654658
O O7 0.538514 0.672957 0.452114
O O8 0.259148 0.356326 0.772632
O O9 0.737099 0.208564 0.337943
O O10 0.643034 0.885357 0.540107
O O11 0.335261 0.694656 0.889982
O O12 0.274061 0.787458 0.147804
O O13 0.932571 0.818980 0.227582
O O14 0.277487 0.067981 0.899276
O O15 0.000000 0.500000 0.500000
O O16 0.222340 0.519464 0.224793
O O17 0.500000 0.500000 0.000000
#
# Coordination Sequence:
#
# PCOD8014783 Si02
#       8
#     2   2   2   2   2   2   2   2
#     4  10  22  41  70  98 141 182 230 293 349 427
#     4  11  22  43  67 102 145 183 231 289 363 416
#     4   9  21  40  67 109 134 186 235 280 361 420
#     4  10  21  41  72  99 143 183 227 296 342 434
#     4  11  24  44  68  98 138 183 237 292 348 430
#     4  12  26  44  72 103 138 194 237 295 359 424
#     4  11  24  44  67 100 142 183 230 286 358 420
#     4  10  24  41  65  99 141 183 225 294 354 419
#
# _framework density 22.761724000000001
#
# number of rings (size 3 to 8) (size 9 to 14) (size 15 to 20)
#    0.000    1.500    2.500    1.500    0.000   10.000 
#    2.250    0.625    0.000    0.000    0.000    0.000 
#    0.000    0.000    0.000    0.000    0.000    0.000 
#
# Total GULP energy -198401.254558 kJ/mol
# GULP energy per Si atom -12400.078410 kJ/mol
# Density = 2.270992 g / cm^3
# Si number density = 22.761724 Si / 1000 Ang^3
#
#
#
# Elastic Constant Matrix: (Units=GPa)
#
#
# Indices 1 2 3 4 5 6 
#
# 1 117.2429 54.5488 34.6302 3.4050 19.8039 -2.9257
# 2 54.5488 146.5600 44.6040 8.9357 8.0272 7.1454
# 3 34.6302 44.6040 102.7946 5.8720 9.1631 -9.0865
# 4 3.4050 8.9357 5.8720 39.1719 -3.3951 1.4379
# 5 19.8039 8.0272 9.1631 -3.3951 25.8168 -3.9415
# 6 -2.9257 7.1454 -9.0865 1.4379 -3.9415 39.5442
#
#
#
# Elastic Compliance Matrix: (Units=1/GPa)
#
#
# Indices 1 2 3 4 5 6 
#
# 1 0.011970 -0.003481 -0.001784 -0.000642 -0.007493 0.000381
# 2 -0.003481 0.009215 -0.003009 -0.001227 0.000324 -0.002537
# 3 -0.001784 -0.003009 0.012128 -0.001236 -0.001694 0.003075
# 4 -0.000642 -0.001227 -0.001236 0.026479 0.004703 -0.000604
# 5 -0.007493 0.000324 -0.001694 0.004703 0.046124 0.003424
# 6 0.000381 -0.002537 0.003075 -0.000604 0.003424 0.026845
#
#
# Mechanical properties :
#
#
# Convention : Reuss Voigt Hill
#
# Bulk Modulus (GPa) = 59.64647 70.46261 65.05454
# Shear Modulus (GPa) = 32.27958 36.42754 34.35356
#
# Velocity S-wave (km/s) = 3.76992 4.00482 3.88915
# Velocity P-wave (km/s) = 6.72394 7.23938 6.98641
#
# Compressibility (1/GPa) = 0.01676545
#
# Stress axis : x y z
#
# Youngs Moduli (GPa) = 83.54503 108.51454 82.45360
#
# Poissons Ratio (x) = 0.37777 0.14706
# Poissons Ratio (y) = 0.29084 0.24810
# Poissons Ratio (z) = 0.14901 0.32652
#
# Static dielectric constant tensor:
#      x y z
#    x 4.176930 0.177800 0.245520 
#    y 0.177800 4.093300 -0.022370 
#    z 0.245520 -0.022370 4.317630 
# 
# 
# High freq. dielectric constant tensor:
#      x y z
#    x 1.898470 0.010680 0.023830 
#    y 0.010680 1.896490 0.000480 
#    z 0.023830 0.000480 1.901960 
# 
# From -- ./inp_files/392031.got.cif
#   From: 2010.06.25/outbox.cif.g09.slc.cpg/sg2_197_cif.got.tgz:392031.got - 2010.06.27 13:26:56.
