data_PCOD8014565
_publ_section_title
;
Structure prediction by ZEFSAII (Michael W. Deem and Ramdas Pophale) SiO2 
 PCOD8014565
Probable space group: P -1
;
_chemical_formula_sum "Si O2"
_cell_formula_units_Z 14
_cell_length_a 11.861396
_cell_length_b 8.282213
_cell_length_c 11.570101
_cell_angle_alpha 71.368468
_cell_angle_beta 39.956439
_cell_angle_gamma 93.975999
_cell_volume 592.347507
_symmetry_space_group_name_H-M "P -1"
_symmetry_group_IT_number 2
_symmetry_cell_setting 'triclinic'
loop_
_space_group_symop_operation_xyz
x,y,z
-x,-y,-z
loop_
_atom_site_type_symbol
_atom_site_label
_atom_site_fract_x
_atom_site_fract_y
_atom_site_fract_z
Si Si1 0.475082 0.017925 0.732697
Si Si2 0.645021 0.422074 0.368341
Si Si3 0.579661 0.793139 0.055032
Si Si4 0.958209 0.338865 0.866557
Si Si5 0.864422 0.580887 0.531051
Si Si6 0.716122 0.518704 0.037753
Si Si7 0.647289 0.783300 0.745619
O O1 0.580883 0.218867 0.531172
O O2 0.410052 0.037507 0.910504
O O3 0.636989 0.941765 0.631056
O O4 0.259198 0.853993 0.881264
O O5 0.500000 0.500000 0.500000
O O6 0.629440 0.384324 0.252548
O O7 0.875097 0.599696 0.177955
O O8 0.352253 0.605855 0.288679
O O9 0.741694 0.732980 0.990385
O O10 0.644334 0.864272 0.856840
O O11 0.034542 0.303226 0.693387
O O12 0.923757 0.526972 0.835812
O O13 0.836992 0.744772 0.588684
O O14 0.000000 0.500000 0.500000
O O15 0.561332 0.426013 0.070460
#
# Coordination Sequence:
#
# PCOD8014565 Si02
#       7
#     2   2   2   2   2   2   2
#     4  11  24  44  67  99 133 174 217 275 330 389
#     4  12  23  46  69  95 134 175 222 270 332 391
#     4  11  20  43  68  94 137 176 214 275 333 388
#     4  11  24  42  65 100 131 170 225 268 330 392
#     4  11  20  39  66  98 134 177 219 267 328 397
#     4  10  21  41  68  97 127 178 222 267 329 393
#     4  10  22  39  67 100 134 173 219 273 332 387
#
# _framework density 23.634775000000001
#
# number of rings (size 3 to 8) (size 9 to 14) (size 15 to 20)
#    0.000    1.143    2.857    6.000    0.000    2.857 
#    2.571    1.429    0.000    0.000    0.000    0.000 
#    0.000    0.000    0.000    0.000    0.000    0.000 
#
# Total GULP energy -173481.119726 kJ/mol
# GULP energy per Si atom -12391.508552 kJ/mol
# Density = 2.358098 g / cm^3
# Si number density = 23.634775 Si / 1000 Ang^3
#
#
#
# Elastic Constant Matrix: (Units=GPa)
#
#
# Indices 1 2 3 4 5 6 
#
# 1 110.9250 36.7735 31.6303 4.6490 -8.2509 -11.7775
# 2 36.7735 108.7787 21.7645 11.4391 -15.9120 -26.1835
# 3 31.6303 21.7645 64.5809 4.3471 1.9896 -3.7789
# 4 4.6490 11.4391 4.3471 40.7753 -4.0730 -1.1344
# 5 -8.2509 -15.9120 1.9896 -4.0730 35.8908 8.5681
# 6 -11.7775 -26.1835 -3.7789 -1.1344 8.5681 46.0320
#
#
#
# Elastic Compliance Matrix: (Units=1/GPa)
#
#
# Indices 1 2 3 4 5 6 
#
# 1 0.011394 -0.002479 -0.004752 0.000085 0.001598 0.000820
# 2 -0.002479 0.012713 -0.002683 -0.002483 0.003585 0.005648
# 3 -0.004752 -0.002683 0.018854 -0.001062 -0.003303 -0.000606
# 4 0.000085 -0.002483 -0.001062 0.025507 0.002172 -0.001253
# 5 0.001598 0.003585 -0.003303 0.002172 0.031098 -0.003558
# 6 0.000820 0.005648 -0.000606 -0.001253 -0.003558 0.025728
#
#
# Mechanical properties :
#
#
# Convention : Reuss Voigt Hill
#
# Bulk Modulus (GPa) = 43.22900 51.62458 47.42679
# Shear Modulus (GPa) = 32.71530 37.48070 35.09800
#
# Velocity S-wave (km/s) = 3.72452 3.98657 3.85777
# Velocity P-wave (km/s) = 6.06846 6.56356 6.32086
#
# Compressibility (1/GPa) = 0.02313262
#
# Stress axis : x y z
#
# Youngs Moduli (GPa) = 87.76269 78.66045 53.03897
#
# Poissons Ratio (x) = 0.19500 0.25205
# Poissons Ratio (y) = 0.21757 0.14231
# Poissons Ratio (z) = 0.41707 0.21105
#
# Static dielectric constant tensor:
#      x y z
#    x 5.053480 -0.330690 0.134440 
#    y -0.330690 4.721970 0.457310 
#    z 0.134440 0.457310 4.126120 
# 
# 
# High freq. dielectric constant tensor:
#      x y z
#    x 1.938980 -0.011930 0.001470 
#    y -0.011930 1.947530 0.031530 
#    z 0.001470 0.031530 1.910650 
# 
# From -- ./inp_files/177135.got.cif
#   From: 2010.06.25/outbox.cif.g09.slc.cpg/sg2_89_cif.got.tgz:177135.got - 2010.06.27 13:26:56.
