data_PCOD8014816
_publ_section_title
;
Structure prediction by ZEFSAII (Michael W. Deem and Ramdas Pophale) SiO2 
 PCOD8014816
Probable space group: P -1
;
_chemical_formula_sum "Si O2"
_cell_formula_units_Z 14
_cell_length_a 15.010888
_cell_length_b 6.922051
_cell_length_c 9.058370
_cell_angle_alpha 128.693710
_cell_angle_beta 113.412811
_cell_angle_gamma 66.846962
_cell_volume 660.220504
_symmetry_space_group_name_H-M "P -1"
_symmetry_group_IT_number 2
_symmetry_cell_setting 'triclinic'
loop_
_space_group_symop_operation_xyz
x,y,z
-x,-y,-z
loop_
_atom_site_type_symbol
_atom_site_label
_atom_site_fract_x
_atom_site_fract_y
_atom_site_fract_z
Si Si1 0.535836 0.733053 0.575433
Si Si2 0.354303 0.093171 0.502348
Si Si3 0.237820 0.322604 0.797440
Si Si4 0.612765 0.939959 0.991543
Si Si5 0.055512 0.196476 0.050857
Si Si6 0.266459 0.873076 0.062423
Si Si7 0.969976 0.761410 0.285726
O O1 0.500000 0.500000 0.500000
O O2 0.595586 0.692398 0.440947
O O3 0.437728 0.949814 0.600271
O O4 0.616661 0.774036 0.767812
O O5 0.259881 0.221169 0.596667
O O6 0.326651 0.907887 0.268863
O O7 0.327787 0.209853 0.908933
O O8 0.143579 0.225575 0.744761
O O9 0.221458 0.623647 0.932189
O O10 0.500000 0.000000 0.000000
O O11 0.664551 0.159669 0.058195
O O12 0.031233 0.482010 0.240742
O O13 0.173981 0.106892 0.094880
O O14 0.015994 0.205339 0.862426
O O15 0.000000 0.000000 0.000000
O O16 0.000000 0.000000 0.500000
#
# Coordination Sequence:
#
# PCOD8014816 Si02
#       7
#     2   2   2   2   2   2   2
#     4  10  21  42  60  88 132 176 218 271 324 382
#     4  10  24  39  62  97 128 170 226 267 323 394
#     4  12  24  43  69  99 134 177 227 279 338 406
#     4  11  23  42  64  97 137 179 224 274 329 397
#     4  11  24  48  71  97 139 177 220 287 351 405
#     4  11  25  44  67  99 138 178 224 272 345 406
#     4  11  27  46  72 103 134 174 232 286 342 413
#
# _framework density 21.205034999999999
#
# number of rings (size 3 to 8) (size 9 to 14) (size 15 to 20)
#    0.000    1.143    4.286    0.857    4.000    2.286 
#    5.143    0.000    0.000    0.000    0.000    0.000 
#    0.000    0.000    0.000    0.000    0.000    0.000 
#
# Total GULP energy -173469.814238 kJ/mol
# GULP energy per Si atom -12390.701017 kJ/mol
# Density = 2.115677 g / cm^3
# Si number density = 21.205035 Si / 1000 Ang^3
#
#
#
# Elastic Constant Matrix: (Units=GPa)
#
#
# Indices 1 2 3 4 5 6 
#
# 1 139.1714 60.8710 25.2450 8.7428 -3.8310 6.6224
# 2 60.8710 118.0888 52.3074 5.2011 -0.8496 20.0805
# 3 25.2450 52.3074 85.0810 13.6599 -3.8590 -0.1667
# 4 8.7428 5.2011 13.6599 29.0724 2.9247 8.5313
# 5 -3.8310 -0.8496 -3.8590 2.9247 37.0540 -1.0749
# 6 6.6224 20.0805 -0.1667 8.5313 -1.0749 40.6238
#
#
#
# Elastic Compliance Matrix: (Units=1/GPa)
#
#
# Indices 1 2 3 4 5 6 
#
# 1 0.009579 -0.005647 0.001193 -0.003125 0.001288 0.001925
# 2 -0.005647 0.016950 -0.009826 0.006068 -0.001953 -0.008825
# 3 0.001193 -0.009826 0.019178 -0.009927 0.002879 0.006902
# 4 -0.003125 0.006068 -0.009927 0.042833 -0.004937 -0.011657
# 5 0.001288 -0.001953 0.002879 -0.004937 0.027839 0.002541
# 6 0.001925 -0.008825 0.006902 -0.011657 0.002541 0.031208
#
#
# Mechanical properties :
#
#
# Convention : Reuss Voigt Hill
#
# Bulk Modulus (GPa) = 58.31147 68.79867 63.55507
# Shear Modulus (GPa) = 27.49338 34.94455 31.21897
#
# Velocity S-wave (km/s) = 3.60467 4.06388 3.84114
# Velocity P-wave (km/s) = 6.69951 7.38479 7.05048
#
# Compressibility (1/GPa) = 0.01714929
#
# Stress axis : x y z
#
# Youngs Moduli (GPa) = 104.39712 58.99576 52.14244
#
# Poissons Ratio (x) = 0.33312 -0.06222
# Poissons Ratio (y) = 0.58948 0.51234
# Poissons Ratio (z) = -0.12457 0.57968
#
# Static dielectric constant tensor:
#      x y z
#    x 4.453580 0.786470 0.495740 
#    y 0.786470 5.173090 0.861050 
#    z 0.495740 0.861050 4.909880 
# 
# 
# High freq. dielectric constant tensor:
#      x y z
#    x 1.852270 0.017070 -0.000560 
#    y 0.017070 1.835450 -0.015050 
#    z -0.000560 -0.015050 1.821080 
# 
# From -- ./inp_files/37133.got.cif
#   From: 2010.06.25/outbox.cif.g09.slc.cpg/sg2_19_cif.got.tgz:37133.got - 2010.06.27 13:26:56.
