data_PCOD8014378
_publ_section_title
;
Structure prediction by ZEFSAII (Michael W. Deem and Ramdas Pophale) SiO2 
 PCOD8014378
Probable space group: P -1
;
_chemical_formula_sum "Si O2"
_cell_formula_units_Z 14
_cell_length_a 8.138191
_cell_length_b 12.183559
_cell_length_c 9.176222
_cell_angle_alpha 134.070917
_cell_angle_beta 68.903826
_cell_angle_gamma 117.390799
_cell_volume 579.276824
_symmetry_space_group_name_H-M "P -1"
_symmetry_group_IT_number 2
_symmetry_cell_setting 'triclinic'
loop_
_space_group_symop_operation_xyz
x,y,z
-x,-y,-z
loop_
_atom_site_type_symbol
_atom_site_label
_atom_site_fract_x
_atom_site_fract_y
_atom_site_fract_z
Si Si1 0.588629 0.430394 0.038754
Si Si2 0.245372 0.254380 0.595357
Si Si3 0.614355 0.993231 0.813245
Si Si4 0.250133 0.855622 0.665227
Si Si5 0.072633 0.621655 0.265639
Si Si6 0.905231 0.279049 0.098394
Si Si7 0.753734 0.829462 0.154956
O O1 0.798429 0.425138 0.939209
O O2 0.441001 0.254240 0.949212
O O3 0.500000 0.500000 0.000000
O O4 0.613591 0.561068 0.281884
O O5 0.290127 0.150167 0.351896
O O6 0.266096 0.168268 0.661799
O O7 0.035230 0.260274 0.653161
O O8 0.471217 0.949799 0.683849
O O9 0.500000 0.000000 0.000000
O O10 0.775384 0.165211 0.909840
O O11 0.212274 0.711612 0.430700
O O12 0.178528 0.778795 0.771425
O O13 0.157563 0.989565 0.766620
O O14 0.919172 0.462869 0.233075
O O15 0.112555 0.272642 0.022304
#
# Coordination Sequence:
#
# PCOD8014378 Si02
#       7
#     2   2   2   2   2   2   2
#     4  10  21  41  67 106 138 176 223 286 340 404
#     4  11  24  43  69 103 138 180 227 284 350 405
#     4  10  25  47  69  97 139 182 234 282 341 414
#     4  11  25  44  68  97 137 189 231 282 339 402
#     4  12  24  43  72 105 140 179 228 284 348 411
#     4  11  24  45  68 100 141 182 228 286 338 413
#     4  11  24  42  72 103 140 180 235 282 341 411
#
# _framework density 24.168066
#
# number of rings (size 3 to 8) (size 9 to 14) (size 15 to 20)
#    0.000    1.143    2.857    3.857    2.000    5.714 
#    0.000    2.857    0.000    0.000    0.000    0.000 
#    0.000    0.000    0.000    0.000    0.000    0.000 
#
# Total GULP energy -173524.564483 kJ/mol
# GULP energy per Si atom -12394.611749 kJ/mol
# Density = 2.411306 g / cm^3
# Si number density = 24.168066 Si / 1000 Ang^3
#
#
#
# Elastic Constant Matrix: (Units=GPa)
#
#
# Indices 1 2 3 4 5 6 
#
# 1 106.4656 18.2353 31.4299 10.3346 3.5307 11.3160
# 2 18.2353 90.4801 24.3779 22.7247 17.6431 1.8647
# 3 31.4299 24.3779 123.3918 29.2690 13.5020 4.0032
# 4 10.3346 22.7247 29.2690 33.7149 10.2973 6.1861
# 5 3.5307 17.6431 13.5020 10.2973 45.0201 8.7272
# 6 11.3160 1.8647 4.0032 6.1861 8.7272 31.8001
#
#
#
# Elastic Compliance Matrix: (Units=1/GPa)
#
#
# Indices 1 2 3 4 5 6 
#
# 1 0.010759 -0.001754 -0.002494 0.000370 0.001249 -0.003826
# 2 -0.001754 0.014220 -0.000051 -0.008234 -0.004022 0.002502
# 3 -0.002494 -0.000051 0.010867 -0.008493 -0.001404 0.001560
# 4 0.000370 -0.008234 -0.008493 0.044625 -0.003226 -0.006375
# 5 0.001249 -0.004022 -0.001404 -0.003226 0.026124 -0.006574
# 6 -0.003826 0.002502 0.001560 -0.006375 -0.006574 0.035509
#
#
# Mechanical properties :
#
#
# Convention : Reuss Voigt Hill
#
# Bulk Modulus (GPa) = 36.69976 52.04708 44.37342
# Shear Modulus (GPa) = 31.29225 38.52665 34.90945
#
# Velocity S-wave (km/s) = 3.60220 3.99697 3.80471
# Velocity P-wave (km/s) = 5.70258 6.54853 6.14014
#
# Compressibility (1/GPa) = 0.02724813
#
# Stress axis : x y z
#
# Youngs Moduli (GPa) = 92.94717 70.32398 92.02048
#
# Poissons Ratio (x) = 0.12335 0.22953
# Poissons Ratio (y) = 0.16303 0.00466
# Poissons Ratio (z) = 0.23184 0.00356
#
# Static dielectric constant tensor:
#      x y z
#    x 4.817430 0.428720 0.379000 
#    y 0.428720 4.384880 0.533530 
#    z 0.379000 0.533530 4.558970 
# 
# 
# High freq. dielectric constant tensor:
#      x y z
#    x 1.977460 0.005840 0.009100 
#    y 0.005840 1.939550 0.031970 
#    z 0.009100 0.031970 1.958470 
# 
# From -- ./inp_files/190647.got.cif
#   From: 2010.06.25/outbox.cif.g09.slc.cpg/sg2_96_cif.got.tgz:190647.got - 2010.06.27 13:26:56.
