data_PCOD8014566
_publ_section_title
;
Structure prediction by ZEFSAII (Michael W. Deem and Ramdas Pophale) SiO2 
 PCOD8014566
Probable space group: P -1
;
_chemical_formula_sum "Si O2"
_cell_formula_units_Z 16
_cell_length_a 7.110564
_cell_length_b 12.430951
_cell_length_c 11.033584
_cell_angle_alpha 110.957850
_cell_angle_beta 63.951347
_cell_angle_gamma 123.242816
_cell_volume 723.886345
_symmetry_space_group_name_H-M "P -1"
_symmetry_group_IT_number 2
_symmetry_cell_setting 'triclinic'
loop_
_space_group_symop_operation_xyz
x,y,z
-x,-y,-z
loop_
_atom_site_type_symbol
_atom_site_label
_atom_site_fract_x
_atom_site_fract_y
_atom_site_fract_z
Si Si1 0.895138 0.912083 0.167967
Si Si2 0.423098 0.651566 0.173078
Si Si3 0.130609 0.722957 0.445355
Si Si4 0.872032 0.064474 0.636193
Si Si5 0.974972 0.170569 0.138326
Si Si6 0.515265 0.590883 0.878384
Si Si7 0.429495 0.815309 0.633011
Si Si8 0.393817 0.374023 0.399186
O O1 0.621060 0.802342 0.195027
O O2 0.012112 0.895890 0.249833
O O3 0.925578 0.059258 0.210375
O O4 0.051589 0.895801 0.010938
O O5 0.195331 0.624434 0.309857
O O6 0.522473 0.554512 0.149722
O O7 0.356368 0.619838 0.034957
O O8 0.102976 0.808807 0.384166
O O9 0.338978 0.797280 0.512824
O O10 0.879094 0.657333 0.560658
O O11 0.595017 0.965538 0.677573
O O12 0.000000 0.000000 0.500000
O O13 0.787439 0.225686 0.229419
O O14 0.222567 0.296677 0.127993
O O15 0.459247 0.602014 0.758145
O O16 0.578212 0.737255 0.580558
O O17 0.500000 0.500000 0.500000
#
# Coordination Sequence:
#
# PCOD8014566 Si02
#       8
#     2   2   2   2   2   2   2   2
#     4  10  22  41  67  98 134 168 223 271 325 388
#     4  10  23  42  71  95 132 178 211 273 329 386
#     4  12  25  43  67  98 132 172 218 267 330 387
#     4  12  23  39  63  95 132 169 216 273 321 387
#     4  10  21  41  68  97 129 176 215 271 328 389
#     4  10  22  45  67  97 133 170 221 266 328 391
#     4  12  24  42  67  95 129 176 216 269 330 386
#     4  12  27  42  67  98 132 170 222 270 316 396
#
# _framework density 22.102919
#
# number of rings (size 3 to 8) (size 9 to 14) (size 15 to 20)
#    0.000    1.000    2.500    4.125    3.500    2.500 
#    0.000    0.625    0.000    0.000    0.000    0.000 
#    0.000    0.000    0.000    0.000    0.000    0.000 
#
# Total GULP energy -198335.283378 kJ/mol
# GULP energy per Si atom -12395.955211 kJ/mol
# Density = 2.205261 g / cm^3
# Si number density = 22.102919 Si / 1000 Ang^3
#
#
#
# Elastic Constant Matrix: (Units=GPa)
#
#
# Indices 1 2 3 4 5 6 
#
# 1 73.4252 0.2199 41.4345 2.0073 12.6266 -8.7053
# 2 0.2199 73.6085 1.4716 2.4777 5.5190 -0.4268
# 3 41.4345 1.4716 134.5276 0.9331 9.0640 -12.4352
# 4 2.0073 2.4777 0.9331 29.5825 -6.7441 6.3113
# 5 12.6266 5.5190 9.0640 -6.7441 46.2294 -0.9725
# 6 -8.7053 -0.4268 -12.4352 6.3113 -0.9725 20.9745
#
#
#
# Elastic Compliance Matrix: (Units=1/GPa)
#
#
# Indices 1 2 3 4 5 6 
#
# 1 0.017715 0.000506 -0.004649 -0.003236 -0.004346 0.005379
# 2 0.000506 0.013804 -0.000074 -0.001843 -0.002021 0.000908
# 3 -0.004649 -0.000074 0.009265 -0.000918 -0.000592 0.003811
# 4 -0.003236 -0.001843 -0.000918 0.038537 0.006628 -0.013214
# 5 -0.004346 -0.002021 -0.000592 0.006628 0.024078 -0.003074
# 6 0.005379 0.000908 0.003811 -0.013214 -0.003074 0.056020
#
#
# Mechanical properties :
#
#
# Convention : Reuss Voigt Hill
#
# Bulk Modulus (GPa) = 30.91246 40.86814 35.89030
# Shear Modulus (GPa) = 27.98983 35.25297 31.62140
#
# Velocity S-wave (km/s) = 3.56243 3.99801 3.78649
# Velocity P-wave (km/s) = 5.56213 6.31207 5.94893
#
# Compressibility (1/GPa) = 0.03234941
#
# Stress axis : x y z
#
# Youngs Moduli (GPa) = 56.44939 72.44164 107.93692
#
# Poissons Ratio (x) = -0.03666 0.50183
# Poissons Ratio (y) = -0.02857 0.00798
# Poissons Ratio (z) = 0.26245 0.00536
#
# Static dielectric constant tensor:
#      x y z
#    x 3.190480 0.790210 1.092190 
#    y 0.790210 3.329770 -1.675790 
#    z 1.092190 -1.675790 2.380520 
# 
# 
# High freq. dielectric constant tensor:
#      x y z
#    x 1.844960 0.000780 0.001750 
#    y 0.000780 1.874790 0.000750 
#    z 0.001750 0.000750 1.894990 
# 
# From -- ./inp_files/364983.got.cif
#   From: 2010.06.25/outbox.cif.g09.slc.cpg/sg2_183_cif.got.tgz:364983.got - 2010.06.27 13:26:56.
