data_PCOD8014495
_publ_section_title
;
Structure prediction by ZEFSAII (Michael W. Deem and Ramdas Pophale) SiO2 
 PCOD8014495
Probable space group: P -1
;
_chemical_formula_sum "Si O2"
_cell_formula_units_Z 16
_cell_length_a 11.977150
_cell_length_b 5.098143
_cell_length_c 13.821391
_cell_angle_alpha 112.751941
_cell_angle_beta 66.935999
_cell_angle_gamma 76.105342
_cell_volume 635.222647
_symmetry_space_group_name_H-M "P -1"
_symmetry_group_IT_number 2
_symmetry_cell_setting 'triclinic'
loop_
_space_group_symop_operation_xyz
x,y,z
-x,-y,-z
loop_
_atom_site_type_symbol
_atom_site_label
_atom_site_fract_x
_atom_site_fract_y
_atom_site_fract_z
Si Si1 0.176411 0.444374 0.543231
Si Si2 0.288532 0.263798 0.843261
Si Si3 0.790442 0.260176 0.239046
Si Si4 0.483931 0.566509 0.162862
Si Si5 0.915781 0.242946 0.877610
Si Si6 0.730619 0.506105 0.677537
Si Si7 0.996900 0.870561 0.370757
Si Si8 0.311431 0.938477 0.099104
O O1 0.248851 0.537364 0.618925
O O2 0.276864 0.316817 0.396860
O O3 0.130471 0.181278 0.554960
O O4 0.046037 0.769376 0.599347
O O5 0.231012 0.492999 0.803251
O O6 0.437736 0.220761 0.816244
O O7 0.307555 0.908419 0.764604
O O8 0.178243 0.423829 0.989233
O O9 0.944942 0.974130 0.143479
O O10 0.390365 0.597143 0.293397
O O11 0.381842 0.684112 0.124240
O O12 0.597238 0.195976 0.048945
O O13 0.945294 0.346198 0.776253
O O14 0.837814 0.027587 0.863643
O O15 0.885838 0.214433 0.598273
O O16 0.701730 0.725507 0.813645
#
# Coordination Sequence:
#
# PCOD8014495 Si02
#       8
#     2   2   2   2   2   2   2   2
#     4  11  26  42  66  95 136 172 224 269 323 383
#     4  11  25  42  67  92 132 174 220 267 321 385
#     4  11  23  43  62  94 131 173 221 273 312 377
#     4  10  24  42  64  98 131 172 218 266 329 395
#     4  10  21  41  68 100 127 167 210 272 344 388
#     4  12  23  39  69  93 133 179 213 264 336 394
#     4  11  23  41  64 103 136 166 210 276 333 399
#     4  10  22  42  65 101 133 164 213 276 330 402
#
# _framework density 25.188020000000002
#
# number of rings (size 3 to 8) (size 9 to 14) (size 15 to 20)
#    0.000    1.250    1.250    4.875    3.500    4.000 
#    0.000    1.250    0.000    0.000    0.000    0.000 
#    0.000    0.000    0.000    0.000    0.000    0.000 
#
# Total GULP energy -198402.969106 kJ/mol
# GULP energy per Si atom -12400.185569 kJ/mol
# Density = 2.513069 g / cm^3
# Si number density = 25.188020 Si / 1000 Ang^3
#
#
#
# Elastic Constant Matrix: (Units=GPa)
#
#
# Indices 1 2 3 4 5 6 
#
# 1 85.3984 -3.6103 39.8301 -4.6777 -3.1985 30.3524
# 2 -3.6103 54.8578 11.2853 -12.7173 -1.1136 15.9652
# 3 39.8301 11.2853 89.3887 -28.5252 5.8854 21.8189
# 4 -4.6777 -12.7173 -28.5252 44.5136 9.6524 1.9639
# 5 -3.1985 -1.1136 5.8854 9.6524 43.4632 -3.5823
# 6 30.3524 15.9652 21.8189 1.9639 -3.5823 33.2877
#
#
#
# Elastic Compliance Matrix: (Units=1/GPa)
#
#
# Indices 1 2 3 4 5 6 
#
# 1 0.022332 0.009505 -0.004913 0.002853 0.000117 -0.021857
# 2 0.009505 0.028561 0.002683 0.012833 -0.003867 -0.025298
# 3 -0.004913 0.002683 0.022144 0.016779 -0.008104 -0.013184
# 4 0.002853 0.012833 0.016779 0.040993 -0.012778 -0.023548
# 5 0.000117 -0.003867 -0.008104 -0.012778 0.027743 0.010799
# 6 -0.021857 -0.025298 -0.013184 -0.023548 0.010799 0.073297
#
#
# Mechanical properties :
#
#
# Convention : Reuss Voigt Hill
#
# Bulk Modulus (GPa) = 11.41701 36.07279 23.74490
# Shear Modulus (GPa) = 21.76601 36.39555 29.08078
#
# Velocity S-wave (km/s) = 2.94282 3.80538 3.40155
# Velocity P-wave (km/s) = 4.01117 5.80176 4.98748
#
# Compressibility (1/GPa) = 0.08758859
#
# Stress axis : x y z
#
# Youngs Moduli (GPa) = 44.77800 35.01236 45.15956
#
# Poissons Ratio (x) = -0.33280 0.22188
# Poissons Ratio (y) = -0.42563 -0.12118
# Poissons Ratio (z) = 0.22000 -0.09395
#
# Static dielectric constant tensor:
#      x y z
#    x 4.537090 -0.006560 0.023640 
#    y -0.006560 4.160910 -0.142910 
#    z 0.023640 -0.142910 5.039800 
# 
# 
# High freq. dielectric constant tensor:
#      x y z
#    x 1.993950 0.006510 0.005300 
#    y 0.006510 1.997440 -0.005190 
#    z 0.005300 -0.005190 2.016190 
# 
# From -- ./inp_files/511239.got.cif
#   From: 2010.06.25/outbox.cif.g09.slc.cpg/sg2_256_cif.got.tgz:511239.got - 2010.06.27 13:26:56.
