data_PCOD8014414
_publ_section_title
;
Structure prediction by ZEFSAII (Michael W. Deem and Ramdas Pophale) SiO2 
 PCOD8014414
Probable space group: P -1
;
_chemical_formula_sum "Si O2"
_cell_formula_units_Z 16
_cell_length_a 14.540949
_cell_length_b 18.040440
_cell_length_c 6.459079
_cell_angle_alpha 116.146461
_cell_angle_beta 75.002744
_cell_angle_gamma 149.125439
_cell_volume 753.816342
_symmetry_space_group_name_H-M "P -1"
_symmetry_group_IT_number 2
_symmetry_cell_setting 'triclinic'
loop_
_space_group_symop_operation_xyz
x,y,z
-x,-y,-z
loop_
_atom_site_type_symbol
_atom_site_label
_atom_site_fract_x
_atom_site_fract_y
_atom_site_fract_z
Si Si1 0.260329 0.545812 0.699080
Si Si2 0.120017 0.866912 0.320082
Si Si3 0.196610 0.594816 0.187870
Si Si4 0.510121 0.450763 0.739175
Si Si5 0.481945 0.238788 0.532531
Si Si6 0.717292 0.155767 0.528709
Si Si7 0.756898 0.641827 0.468829
Si Si8 0.966210 0.304423 0.220492
O O1 0.429022 0.714409 0.686797
O O2 0.323774 0.509295 0.739509
O O3 0.108200 0.397216 0.441891
O O4 0.172871 0.545715 0.906720
O O5 0.200422 0.845827 0.355444
O O6 0.972498 0.803170 0.476004
O O7 0.276326 0.050878 0.417521
O O8 0.033502 0.772683 0.034119
O O9 0.397378 0.714988 0.302469
O O10 0.182702 0.682430 0.295633
O O11 0.028115 0.433979 0.225538
O O12 0.479164 0.334451 0.687588
O O13 0.709093 0.611263 0.705555
O O14 0.342425 0.353887 0.569707
O O15 0.500000 0.500000 0.000000
O O16 0.763259 0.163283 0.272880
O O17 0.500000 0.000000 0.500000
#
# Coordination Sequence:
#
# PCOD8014414 Si02
#       8
#     2   2   2   2   2   2   2   2
#     4  10  21  42  67  94 123 173 217 266 317 381
#     4  12  25  43  64  97 137 170 211 268 323 385
#     4  11  22  43  67  89 129 170 225 269 311 383
#     4  10  22  41  71  97 123 165 214 268 319 390
#     4  10  24  40  65  98 130 168 210 263 331 380
#     4  12  26  42  61  98 133 174 218 269 323 373
#     4  10  21  41  67  93 127 161 215 262 320 384
#     4  11  24  41  66  92 127 177 218 267 315 381
#
# _framework density 21.225328000000001
#
# number of rings (size 3 to 8) (size 9 to 14) (size 15 to 20)
#    0.000    1.250    3.750    1.125    5.250    5.000 
#    0.000    0.625    0.000    0.000    0.000    0.000 
#    0.000    0.000    0.000    0.000    0.000    0.000 
#
# Total GULP energy -198305.678309 kJ/mol
# GULP energy per Si atom -12394.104894 kJ/mol
# Density = 2.117702 g / cm^3
# Si number density = 21.225328 Si / 1000 Ang^3
#
#
#
# Elastic Constant Matrix: (Units=GPa)
#
#
# Indices 1 2 3 4 5 6 
#
# 1 92.1275 29.2482 23.8902 -9.0279 -1.7875 0.7516
# 2 29.2482 167.4125 48.1884 -17.1392 -8.6714 16.6334
# 3 23.8902 48.1884 100.8830 -16.6254 -15.1311 2.0681
# 4 -9.0279 -17.1392 -16.6254 28.1643 8.8313 -6.7924
# 5 -1.7875 -8.6714 -15.1311 8.8313 28.8026 -2.7346
# 6 0.7516 16.6334 2.0681 -6.7924 -2.7346 38.1083
#
#
#
# Elastic Compliance Matrix: (Units=1/GPa)
#
#
# Indices 1 2 3 4 5 6 
#
# 1 0.012031 -0.001434 -0.001987 0.002451 -0.001402 0.000833
# 2 -0.001434 0.007516 -0.002928 0.001766 -0.000171 -0.002791
# 3 -0.001987 -0.002928 0.013165 0.004270 0.004764 0.001706
# 4 0.002451 0.001766 0.004270 0.044556 -0.010149 0.006162
# 5 -0.001402 -0.000171 0.004764 -0.010149 0.040283 0.000925
# 6 0.000833 -0.002791 0.001706 0.006162 0.000925 0.028515
#
#
# Mechanical properties :
#
#
# Convention : Reuss Voigt Hill
#
# Bulk Modulus (GPa) = 49.96725 62.56406 56.26565
# Shear Modulus (GPa) = 30.22316 36.28810 33.25563
#
# Velocity S-wave (km/s) = 3.77758 4.13929 3.96256
# Velocity P-wave (km/s) = 6.52834 7.23775 6.89218
#
# Compressibility (1/GPa) = 0.02001311
#
# Stress axis : x y z
#
# Youngs Moduli (GPa) = 83.11552 133.05239 75.95983
#
# Poissons Ratio (x) = 0.19084 0.15096
# Poissons Ratio (y) = 0.11922 0.22239
# Poissons Ratio (z) = 0.16519 0.38954
#
# Static dielectric constant tensor:
#      x y z
#    x 3.109760 0.193870 -0.559380 
#    y 0.193870 4.137730 -0.282340 
#    z -0.559380 -0.282340 3.500220 
# 
# 
# High freq. dielectric constant tensor:
#      x y z
#    x 1.841200 -0.000470 -0.002900 
#    y -0.000470 1.838060 -0.029330 
#    z -0.002900 -0.029330 1.815580 
# 
# From -- ./inp_files/47155.got.cif
#   From: 2010.06.25/outbox.cif.g09.slc.cpg/sg2_24_cif.got.tgz:47155.got - 2010.06.27 13:26:56.
