data_PCOD8014173
_publ_section_title
;
Structure prediction by ZEFSAII (Michael W. Deem and Ramdas Pophale) SiO2 
 PCOD8014173
Probable space group: P -1
;
_chemical_formula_sum "Si O2"
_cell_formula_units_Z 14
_cell_length_a 7.502821
_cell_length_b 16.985916
_cell_length_c 11.549257
_cell_angle_alpha 142.556317
_cell_angle_beta 59.003545
_cell_angle_gamma 130.223823
_cell_volume 683.246453
_symmetry_space_group_name_H-M "P -1"
_symmetry_group_IT_number 2
_symmetry_cell_setting 'triclinic'
loop_
_space_group_symop_operation_xyz
x,y,z
-x,-y,-z
loop_
_atom_site_type_symbol
_atom_site_label
_atom_site_fract_x
_atom_site_fract_y
_atom_site_fract_z
Si Si1 0.538492 0.157708 0.707596
Si Si2 0.368434 0.364000 0.466198
Si Si3 0.183944 0.158358 0.660885
Si Si4 0.941542 0.396111 0.702910
Si Si5 0.595116 0.321179 0.541722
Si Si6 0.830165 0.277285 0.961009
Si Si7 0.407757 0.830668 0.849765
O O1 0.304040 0.166949 0.756796
O O2 0.768062 0.286568 0.725514
O O3 0.594278 0.180311 0.852609
O O4 0.500000 0.000000 0.500000
O O5 0.500000 0.500000 0.500000
O O6 0.493419 0.412324 0.607561
O O7 0.391389 0.220804 0.247367
O O8 0.097434 0.321932 0.517173
O O9 0.385611 0.204599 0.552176
O O10 0.054780 0.259317 0.823217
O O11 0.000000 0.000000 0.500000
O O12 0.804726 0.423963 0.674252
O O13 0.106112 0.554431 0.884205
O O14 0.695384 0.240565 0.324467
O O15 0.782667 0.228457 0.053696
O O16 0.500000 0.000000 0.000000
#
# Coordination Sequence:
#
# PCOD8014173 Si02
#       7
#     2   2   2   2   2   2   2
#     4  11  25  40  67  98 132 172 222 270 334 394
#     4  10  21  41  65  93 133 175 212 269 334 381
#     4  11  22  42  68  91 130 177 214 271 342 381
#     4  11  23  43  67 100 131 178 219 272 331 397
#     4   9  23  41  66  92 136 169 218 269 337 385
#     4  12  24  41  67  97 134 169 225 274 320 400
#     4  10  23  42  66  95 132 172 223 272 323 395
#
# _framework density 20.490411000000002
#
# number of rings (size 3 to 8) (size 9 to 14) (size 15 to 20)
#    0.857    0.571    2.857    2.143    2.000    5.714 
#    2.571    0.714    0.000    0.000    0.000    0.000 
#    0.000    0.000    0.000    0.000    0.000    0.000 
#
# Total GULP energy -173481.192229 kJ/mol
# GULP energy per Si atom -12391.513731 kJ/mol
# Density = 2.044377 g / cm^3
# Si number density = 20.490411 Si / 1000 Ang^3
#
#
#
# Elastic Constant Matrix: (Units=GPa)
#
#
# Indices 1 2 3 4 5 6 
#
# 1 123.0538 23.2202 29.2196 -0.3833 3.4039 -0.0378
# 2 23.2202 81.6748 43.3845 12.2895 -1.6263 -7.5772
# 3 29.2196 43.3845 96.8847 6.3376 2.4459 1.2702
# 4 -0.3833 12.2895 6.3376 40.0851 -6.7994 -1.8778
# 5 3.4039 -1.6263 2.4459 -6.7994 37.2565 1.3258
# 6 -0.0378 -7.5772 1.2702 -1.8778 1.3258 30.4014
#
#
#
# Elastic Compliance Matrix: (Units=1/GPa)
#
#
# Indices 1 2 3 4 5 6 
#
# 1 0.008927 -0.001631 -0.001995 0.000787 -0.000604 -0.000237
# 2 -0.001631 0.017530 -0.007169 -0.003965 0.000505 0.004400
# 3 -0.001995 -0.007169 0.014214 -0.000356 -0.001045 -0.002360
# 4 0.000787 -0.003965 -0.000356 0.027046 0.004697 0.000493
# 5 -0.000604 0.000505 -0.001045 0.004697 0.027871 -0.000757
# 6 -0.000237 0.004400 -0.002360 0.000493 -0.000757 0.034152
#
#
# Mechanical properties :
#
#
# Convention : Reuss Voigt Hill
#
# Bulk Modulus (GPa) = 52.40716 54.80689 53.60702
# Shear Modulus (GPa) = 31.70757 35.26786 33.48772
#
# Velocity S-wave (km/s) = 3.93801 4.15322 4.04705
# Velocity P-wave (km/s) = 6.80509 7.05724 6.93231
#
# Compressibility (1/GPa) = 0.01908136
#
# Stress axis : x y z
#
# Youngs Moduli (GPa) = 112.01863 57.04416 70.35166
#
# Poissons Ratio (x) = 0.09301 0.14038
# Poissons Ratio (y) = 0.18265 0.50437
# Poissons Ratio (z) = 0.22352 0.40897
#
# Static dielectric constant tensor:
#      x y z
#    x 4.089490 -0.004200 -0.042040 
#    y -0.004200 3.572340 -0.148350 
#    z -0.042040 -0.148350 3.799660 
# 
# 
# High freq. dielectric constant tensor:
#      x y z
#    x 1.804650 -0.014130 -0.001450 
#    y -0.014130 1.800710 -0.004600 
#    z -0.001450 -0.004600 1.792480 
# 
# From -- ./inp_files/401409.got.cif
#   From: 2010.06.25/outbox.cif.g09.slc.cpg/sg2_201_cif.got.tgz:401409.got - 2010.06.27 13:26:56.
