data_PCOD8014307
_publ_section_title
;
Structure prediction by ZEFSAII (Michael W. Deem and Ramdas Pophale) SiO2 
 PCOD8014307
Probable space group: P -1
;
_chemical_formula_sum "Si O2"
_cell_formula_units_Z 16
_cell_length_a 13.318402
_cell_length_b 9.792131
_cell_length_c 22.141762
_cell_angle_alpha 27.150266
_cell_angle_beta 31.614315
_cell_angle_gamma 42.611494
_cell_volume 687.862075
_symmetry_space_group_name_H-M "P -1"
_symmetry_group_IT_number 2
_symmetry_cell_setting 'triclinic'
loop_
_space_group_symop_operation_xyz
x,y,z
-x,-y,-z
loop_
_atom_site_type_symbol
_atom_site_label
_atom_site_fract_x
_atom_site_fract_y
_atom_site_fract_z
Si Si1 0.809738 0.643651 0.113860
Si Si2 0.297034 0.419798 0.539238
Si Si3 0.839453 0.671470 0.955332
Si Si4 0.064762 0.750546 0.611050
Si Si5 0.645002 0.099153 0.493506
Si Si6 0.314772 0.424362 0.052047
Si Si7 0.566130 0.022831 0.157308
Si Si8 0.124824 0.265703 0.559760
O O1 0.704332 0.366804 0.311842
O O2 0.763397 0.941939 0.055979
O O3 0.038381 0.619692 0.001302
O O4 0.727780 0.651973 0.083864
O O5 0.121927 0.455026 0.661745
O O6 0.415480 0.130630 0.608063
O O7 0.431375 0.728920 0.359422
O O8 0.215156 0.405995 0.519323
O O9 0.683994 0.654482 0.988377
O O10 0.986888 0.967972 0.760950
O O11 0.246486 0.884262 0.504723
O O12 0.896397 0.650660 0.782826
O O13 0.000000 0.000000 0.500000
O O14 0.698193 0.798375 0.550376
O O15 0.465744 0.222601 0.082331
O O16 0.381859 0.776774 0.888839
O O17 0.000000 0.500000 0.500000
#
# Coordination Sequence:
#
# PCOD8014307 Si02
#       8
#     2   2   2   2   2   2   2   2
#     4   9  20  41  64  89 127 161 214 258 315 374
#     4  11  23  40  64  97 132 166 212 264 321 380
#     4  10  21  41  66  95 121 167 220 258 311 383
#     4  12  22  41  68  94 127 171 216 265 318 390
#     4  10  22  44  63  95 130 166 213 270 321 377
#     4  11  22  42  64  92 132 166 214 260 315 380
#     4  10  23  41  62  93 132 167 206 267 315 376
#     4  11  21  39  67  96 128 170 213 265 317 378
#
# _framework density 23.260476000000001
#
# number of rings (size 3 to 8) (size 9 to 14) (size 15 to 20)
#    0.000    1.500    3.750    2.250    1.750    1.000 
#    0.000    6.250    0.000    0.000    0.000    0.000 
#    0.000    0.000    0.000    0.000    0.000    0.000 
#
# Total GULP energy -198343.152116 kJ/mol
# GULP energy per Si atom -12396.447007 kJ/mol
# Density = 2.320753 g / cm^3
# Si number density = 23.260476 Si / 1000 Ang^3
#
#
#
# Elastic Constant Matrix: (Units=GPa)
#
#
# Indices 1 2 3 4 5 6 
#
# 1 112.1013 -0.2081 32.5866 2.7595 10.1731 1.9498
# 2 -0.2081 112.1072 14.6401 -9.6921 13.7855 -14.3160
# 3 32.5866 14.6401 31.2709 -3.8485 -3.0163 3.0390
# 4 2.7595 -9.6921 -3.8485 11.2221 4.5077 2.7935
# 5 10.1731 13.7855 -3.0163 4.5077 29.4600 -1.1515
# 6 1.9498 -14.3160 3.0390 2.7935 -1.1515 39.3565
#
#
#
# Elastic Compliance Matrix: (Units=1/GPa)
#
#
# Indices 1 2 3 4 5 6 
#
# 1 0.015257 0.003347 -0.019009 -0.004676 -0.007987 0.002028
# 2 0.003347 0.012698 -0.009571 0.009573 -0.009377 0.004238
# 3 -0.019009 -0.009571 0.060041 0.012912 0.014916 -0.007656
# 4 -0.004676 0.009573 0.012912 0.111990 -0.018905 -0.005785
# 5 -0.007987 -0.009377 0.014916 -0.018905 0.045452 -0.001495
# 6 0.002028 0.004238 -0.007656 -0.005785 -0.001495 0.027808
#
#
# Mechanical properties :
#
#
# Convention : Reuss Voigt Hill
#
# Bulk Modulus (GPa) = 26.64572 38.83518 32.74045
# Shear Modulus (GPa) = 14.87115 29.90509 22.38812
#
# Velocity S-wave (km/s) = 2.53124 3.58950 3.10578
# Velocity P-wave (km/s) = 4.47472 5.82335 5.19300
#
# Compressibility (1/GPa) = 0.03752948
#
# Stress axis : x y z
#
# Youngs Moduli (GPa) = 65.54336 78.75190 16.65540
#
# Poissons Ratio (x) = -0.26362 0.31661
# Poissons Ratio (y) = -0.21941 0.15942
# Poissons Ratio (z) = 1.24592 0.75377
#
# Static dielectric constant tensor:
#      x y z
#    x 4.300200 -0.041950 0.032350 
#    y -0.041950 5.175770 0.000110 
#    z 0.032350 0.000110 3.854760 
# 
# 
# High freq. dielectric constant tensor:
#      x y z
#    x 1.929790 0.002150 0.008090 
#    y 0.002150 1.941680 -0.000060 
#    z 0.008090 -0.000060 1.886910 
# 
# From -- ./inp_files/593901.got.cif
#   From: 2010.06.25/outbox.cif.g09.slc.cpg/sg2_297_cif.got.tgz:593901.got - 2010.06.27 13:26:56.
