data_PCOD8014846
_publ_section_title
;
Structure prediction by ZEFSAII (Michael W. Deem and Ramdas Pophale) SiO2 
 PCOD8014846
Probable space group: P -1
;
_chemical_formula_sum "Si O2"
_cell_formula_units_Z 16
_cell_length_a 9.348045
_cell_length_b 17.751216
_cell_length_c 9.934846
_cell_angle_alpha 49.921634
_cell_angle_beta 134.830413
_cell_angle_gamma 100.762088
_cell_volume 778.658112
_symmetry_space_group_name_H-M "P -1"
_symmetry_group_IT_number 2
_symmetry_cell_setting 'triclinic'
loop_
_space_group_symop_operation_xyz
x,y,z
-x,-y,-z
loop_
_atom_site_type_symbol
_atom_site_label
_atom_site_fract_x
_atom_site_fract_y
_atom_site_fract_z
Si Si1 0.302571 0.782833 0.955822
Si Si2 0.197287 0.594539 0.572286
Si Si3 0.706923 0.399899 0.674229
Si Si4 0.819107 0.837901 0.462752
Si Si5 0.505917 0.064154 0.105942
Si Si6 0.573985 0.636345 0.872453
Si Si7 0.116419 0.384608 0.127646
Si Si8 0.653619 0.750473 0.022732
O O1 0.320838 0.892376 0.889927
O O2 0.076538 0.817806 0.674349
O O3 0.303452 0.713831 0.167341
O O4 0.528510 0.706874 0.097707
O O5 0.311932 0.577948 0.521335
O O6 0.241872 0.474686 0.795644
O O7 0.927537 0.679492 0.298392
O O8 0.323656 0.643929 0.695959
O O9 0.500000 0.500000 0.500000
O O10 0.948601 0.385652 0.899627
O O11 0.814666 0.720592 0.606063
O O12 0.649498 0.927902 0.360055
O O13 0.721977 0.890738 0.191079
O O14 0.426023 0.118268 0.140986
O O15 0.565695 0.742635 0.823959
O O16 0.655928 0.630993 0.779295
O O17 0.000000 0.500000 0.000000
#
# Coordination Sequence:
#
# PCOD8014846 Si02
#       8
#     2   2   2   2   2   2   2   2
#     4   9  22  36  65  90 122 155 207 253 302 353
#     4  11  24  38  59  84 130 160 213 241 309 372
#     4  11  22  38  58  93 124 165 203 249 304 370
#     4  10  21  42  61  97 122 154 213 252 302 368
#     4   9  22  38  69  87 122 163 201 258 306 357
#     4  11  24  39  57  87 122 172 194 260 304 362
#     4  11  25  37  63  92 128 158 203 258 305 362
#     4  10  22  37  62  89 116 164 199 251 307 359
#
# _framework density 20.548169999999999
#
# number of rings (size 3 to 8) (size 9 to 14) (size 15 to 20)
#    0.750    1.000    1.250    2.250    8.750    2.000 
#    0.000    0.625    0.000    0.750    0.000    0.000 
#    0.000    0.000    0.000    0.000    0.000    0.000 
#
# Total GULP energy -198312.135805 kJ/mol
# GULP energy per Si atom -12394.508488 kJ/mol
# Density = 2.050140 g / cm^3
# Si number density = 20.548170 Si / 1000 Ang^3
#
#
#
# Elastic Constant Matrix: (Units=GPa)
#
#
# Indices 1 2 3 4 5 6 
#
# 1 78.8865 19.7098 24.5190 -3.4986 13.4158 -9.4314
# 2 19.7098 123.0097 27.6038 -12.3474 8.3975 -15.8808
# 3 24.5190 27.6038 59.5330 -7.7645 12.8758 1.8120
# 4 -3.4986 -12.3474 -7.7645 27.8030 1.8594 1.7736
# 5 13.4158 8.3975 12.8758 1.8594 27.0250 1.0878
# 6 -9.4314 -15.8808 1.8120 1.7736 1.0878 33.7794
#
#
#
# Elastic Compliance Matrix: (Units=1/GPa)
#
#
# Indices 1 2 3 4 5 6 
#
# 1 0.015928 -0.000332 -0.005303 0.000442 -0.005498 0.004729
# 2 -0.000332 0.010101 -0.003960 0.003135 -0.001495 0.004752
# 3 -0.005303 -0.003960 0.023171 0.004829 -0.007324 -0.004603
# 4 0.000442 0.003135 0.004829 0.039210 -0.006171 -0.000522
# 5 -0.005498 -0.001495 -0.007324 -0.006171 0.044229 -0.002945
# 6 0.004729 0.004752 -0.004603 -0.000522 -0.002945 0.033528
#
#
# Mechanical properties :
#
#
# Convention : Reuss Voigt Hill
#
# Bulk Modulus (GPa) = 33.32089 45.01047 39.16568
# Shear Modulus (GPa) = 25.59378 30.36125 27.97751
#
# Velocity S-wave (km/s) = 3.53306 3.84808 3.69393
# Velocity P-wave (km/s) = 5.73538 6.45725 6.10699
#
# Compressibility (1/GPa) = 0.03001120
#
# Stress axis : x y z
#
# Youngs Moduli (GPa) = 62.78374 98.99594 43.15661
#
# Poissons Ratio (x) = 0.03284 0.22887
# Poissons Ratio (y) = 0.02083 0.17088
# Poissons Ratio (z) = 0.33296 0.39198
#
# Static dielectric constant tensor:
#      x y z
#    x 3.588250 0.088760 0.155040 
#    y 0.088760 3.864940 0.114510 
#    z 0.155040 0.114510 3.602720 
# 
# 
# High freq. dielectric constant tensor:
#      x y z
#    x 1.787450 0.005600 0.021720 
#    y 0.005600 1.811020 0.017090 
#    z 0.021720 0.017090 1.791780 
# 
# From -- ./inp_files/214817.got.cif
#   From: 2010.06.25/outbox.cif.g09.slc.cpg/sg2_108_cif.got.tgz:214817.got - 2010.06.27 13:26:56.
