data_PCOD8014788
_publ_section_title
;
Structure prediction by ZEFSAII (Michael W. Deem and Ramdas Pophale) SiO2 
 PCOD8014788
Probable space group: P -1
;
_chemical_formula_sum "Si O2"
_cell_formula_units_Z 16
_cell_length_a 8.777567
_cell_length_b 8.565307
_cell_length_c 10.707874
_cell_angle_alpha 92.234769
_cell_angle_beta 122.821311
_cell_angle_gamma 100.597262
_cell_volume 655.555187
_symmetry_space_group_name_H-M "P -1"
_symmetry_group_IT_number 2
_symmetry_cell_setting 'triclinic'
loop_
_space_group_symop_operation_xyz
x,y,z
-x,-y,-z
loop_
_atom_site_type_symbol
_atom_site_label
_atom_site_fract_x
_atom_site_fract_y
_atom_site_fract_z
Si Si1 0.917738 0.322969 0.005746
Si Si2 0.943854 0.158526 0.453774
Si Si3 0.599000 0.326421 0.514500
Si Si4 0.449586 0.846190 0.763710
Si Si5 0.012954 0.555034 0.367145
Si Si6 0.367589 0.621387 0.936356
Si Si7 0.729600 0.074839 0.729619
Si Si8 0.186714 0.247976 0.334260
O O1 0.706511 0.312191 0.967250
O O2 0.068986 0.279192 0.164059
O O3 0.899525 0.206260 0.872917
O O4 0.000000 0.500000 0.000000
O O5 0.955711 0.250853 0.596008
O O6 0.072475 0.269567 0.408881
O O7 0.739782 0.097078 0.302451
O O8 0.000000 0.000000 0.500000
O O9 0.589783 0.294158 0.361556
O O10 0.606816 0.165106 0.590879
O O11 0.397980 0.367174 0.452945
O O12 0.798221 0.464614 0.626443
O O13 0.485796 0.768642 0.909970
O O14 0.614982 0.992961 0.798524
O O15 0.828087 0.473313 0.211945
O O16 0.000000 0.500000 0.500000
O O17 0.500000 0.500000 0.000000
O O18 0.793103 0.936667 0.674456
#
# Coordination Sequence:
#
# PCOD8014788 Si02
#       8
#     2   2   2   2   2   2   2   2
#     4  12  28  47  66 102 146 183 236 281 341 423
#     4  11  21  38  70 106 136 170 230 292 342 409
#     4  10  21  41  73 101 133 173 231 285 340 406
#     4  10  21  44  68  98 139 174 237 288 335 413
#     4  11  21  44  70  97 135 182 231 284 345 400
#     4  12  27  47  70  98 142 188 231 289 346 407
#     4  11  24  44  72 102 138 190 228 278 353 412
#     4  11  22  44  70 104 140 181 225 285 349 407
#
# _framework density 24.406791999999999
#
# number of rings (size 3 to 8) (size 9 to 14) (size 15 to 20)
#    0.000    1.000    3.750    4.875    3.500    2.500 
#    4.500    4.375    0.000    0.000    0.000    0.000 
#    0.000    0.000    0.000    0.000    0.000    0.000 
#
# Total GULP energy -198275.637222 kJ/mol
# GULP energy per Si atom -12392.227326 kJ/mol
# Density = 2.435124 g / cm^3
# Si number density = 24.406792 Si / 1000 Ang^3
#
#
#
# Elastic Constant Matrix: (Units=GPa)
#
#
# Indices 1 2 3 4 5 6 
#
# 1 131.3080 23.8656 27.4626 -8.2515 16.2268 -8.9275
# 2 23.8656 42.1390 3.8477 -6.0786 13.4487 4.3135
# 3 27.4626 3.8477 64.3774 1.2541 9.7119 -17.7126
# 4 -8.2515 -6.0786 1.2541 53.1510 -0.9913 4.6150
# 5 16.2268 13.4487 9.7119 -0.9913 42.3011 -6.5733
# 6 -8.9275 4.3135 -17.7126 4.6150 -6.5733 46.5306
#
#
#
# Elastic Compliance Matrix: (Units=1/GPa)
#
#
# Indices 1 2 3 4 5 6 
#
# 1 0.009411 -0.004552 -0.003387 0.000939 -0.001260 0.000667
# 2 -0.004552 0.029995 -0.000049 0.003015 -0.008512 -0.005174
# 3 -0.003387 -0.000049 0.019115 -0.001585 -0.002102 0.006492
# 4 0.000939 0.003015 -0.001585 0.019566 -0.000928 -0.002774
# 5 -0.001260 -0.008512 -0.002102 -0.000928 0.027877 0.003777
# 6 0.000667 -0.005174 0.006492 -0.002774 0.003777 0.025379
#
#
# Mechanical properties :
#
#
# Convention : Reuss Voigt Hill
#
# Bulk Modulus (GPa) = 23.50468 38.68626 31.09547
# Shear Modulus (GPa) = 30.95936 40.57311 35.76623
#
# Velocity S-wave (km/s) = 3.56543 4.08164 3.83224
# Velocity P-wave (km/s) = 5.15761 6.17236 5.68766
#
# Compressibility (1/GPa) = 0.04254471
#
# Stress axis : x y z
#
# Youngs Moduli (GPa) = 106.25312 33.33935 52.31373
#
# Poissons Ratio (x) = 0.15175 0.17721
# Poissons Ratio (y) = 0.48363 0.00257
# Poissons Ratio (z) = 0.35993 0.00164
#
# Static dielectric constant tensor:
#      x y z
#    x 5.309620 -0.065300 -0.289400 
#    y -0.065300 4.707100 -0.168450 
#    z -0.289400 -0.168450 4.681990 
# 
# 
# High freq. dielectric constant tensor:
#      x y z
#    x 1.989980 -0.000480 0.000170 
#    y -0.000480 1.998420 -0.003530 
#    z 0.000170 -0.003530 1.953520 
# 
# From -- ./inp_files/379321.got.cif
#   From: 2010.06.25/outbox.cif.g09.slc.cpg/sg2_190_cif.got.tgz:379321.got - 2010.06.27 13:26:56.
