data_PCOD8014263
_publ_section_title
;
Structure prediction by ZEFSAII (Michael W. Deem and Ramdas Pophale) SiO2 
 PCOD8014263
Probable space group: P -1
;
_chemical_formula_sum "Si O2"
_cell_formula_units_Z 16
_cell_length_a 10.757036
_cell_length_b 10.149383
_cell_length_c 7.571638
_cell_angle_alpha 69.049955
_cell_angle_beta 66.241235
_cell_angle_gamma 75.263360
_cell_volume 700.665412
_symmetry_space_group_name_H-M "P -1"
_symmetry_group_IT_number 2
_symmetry_cell_setting 'triclinic'
loop_
_space_group_symop_operation_xyz
x,y,z
-x,-y,-z
loop_
_atom_site_type_symbol
_atom_site_label
_atom_site_fract_x
_atom_site_fract_y
_atom_site_fract_z
Si Si1 0.552165 0.650971 0.380604
Si Si2 0.567212 0.139322 0.941032
Si Si3 0.807153 0.963333 0.736513
Si Si4 0.494911 0.316403 0.231621
Si Si5 0.056819 0.767464 0.084570
Si Si6 0.909104 0.995746 0.299280
Si Si7 0.729608 0.482657 0.910813
Si Si8 0.180849 0.322349 0.958126
O O1 0.500000 0.500000 0.500000
O O2 0.484138 0.724436 0.210899
O O3 0.510822 0.742963 0.537257
O O4 0.715766 0.641361 0.271681
O O5 0.728061 0.098164 0.822444
O O6 0.537529 0.184142 0.139256
O O7 0.500000 0.000000 0.000000
O O8 0.792597 0.979901 0.522072
O O9 0.752277 0.820314 0.906834
O O10 0.965263 0.948534 0.700423
O O11 0.343253 0.403605 0.241507
O O12 0.606663 0.425950 0.115523
O O13 0.171581 0.651481 0.165521
O O14 0.954325 0.843509 0.254138
O O15 0.966411 0.690092 0.034918
O O16 0.137708 0.884535 0.880325
O O17 0.829879 0.552626 0.951880
#
# Coordination Sequence:
#
# PCOD8014263 Si02
#       8
#     2   2   2   2   2   2   2   2
#     4  12  24  44  68  98 137 181 225 277 343 399
#     4  12  24  44  66 100 137 175 226 283 333 408
#     4  10  21  41  66  90 137 176 216 282 342 387
#     4  11  24  41  69  95 137 177 223 280 334 404
#     4  10  22  39  67  97 130 172 229 275 335 408
#     4   9  21  41  63  96 129 173 222 278 336 405
#     4  11  21  43  62  95 132 176 218 279 340 395
#     4  11  22  42  63  95 136 172 223 290 326 406
#
# _framework density 22.835433999999999
#
# number of rings (size 3 to 8) (size 9 to 14) (size 15 to 20)
#    0.000    1.250    3.750    1.875    1.750    2.500 
#    0.000    5.000    0.000    0.000    0.000    0.000 
#    0.000    0.000    0.000    0.000    0.000    0.000 
#
# Total GULP energy -198332.269037 kJ/mol
# GULP energy per Si atom -12395.766815 kJ/mol
# Density = 2.278346 g / cm^3
# Si number density = 22.835434 Si / 1000 Ang^3
#
#
#
# Elastic Constant Matrix: (Units=GPa)
#
#
# Indices 1 2 3 4 5 6 
#
# 1 44.8129 26.6120 10.4389 3.3880 -6.0912 -6.4028
# 2 26.6120 123.4028 38.7111 14.4015 -3.2246 -1.2840
# 3 10.4389 38.7111 118.7559 13.3902 2.0212 3.2185
# 4 3.3880 14.4015 13.3902 37.6169 8.3230 -5.1200
# 5 -6.0912 -3.2246 2.0212 8.3230 21.8265 8.6055
# 6 -6.4028 -1.2840 3.2185 -5.1200 8.6055 36.5644
#
#
#
# Elastic Compliance Matrix: (Units=1/GPa)
#
#
# Indices 1 2 3 4 5 6 
#
# 1 0.026945 -0.005273 -0.000713 -0.001075 0.006023 0.003028
# 2 -0.005273 0.010470 -0.002585 -0.003238 0.002048 -0.001263
# 3 -0.000713 -0.002585 0.009657 -0.002601 0.000088 -0.001451
# 4 -0.001075 -0.003238 -0.002601 0.033732 -0.016792 0.008602
# 5 0.006023 0.002048 0.000088 -0.016792 0.060273 -0.015418
# 6 0.003028 -0.001263 -0.001451 0.008602 -0.015418 0.032796
#
#
# Mechanical properties :
#
#
# Convention : Reuss Voigt Hill
#
# Bulk Modulus (GPa) = 33.41103 48.72170 41.06637
# Shear Modulus (GPa) = 24.87674 33.28220 29.07947
#
# Velocity S-wave (km/s) = 3.30417 3.82184 3.57240
# Velocity P-wave (km/s) = 5.40553 6.39199 5.91935
#
# Compressibility (1/GPa) = 0.02993024
#
# Stress axis : x y z
#
# Youngs Moduli (GPa) = 37.11291 95.51334 103.55225
#
# Poissons Ratio (x) = 0.50361 0.07385
# Poissons Ratio (y) = 0.19568 0.26767
# Poissons Ratio (z) = 0.02647 0.24689
#
# Static dielectric constant tensor:
#      x y z
#    x 4.020690 -0.029830 0.033570 
#    y -0.029830 4.091480 0.047410 
#    z 0.033570 0.047410 4.453430 
# 
# 
# High freq. dielectric constant tensor:
#      x y z
#    x 1.892670 0.006550 -0.001390 
#    y 0.006550 1.904530 0.007550 
#    z -0.001390 0.007550 1.890910 
# 
# From -- ./inp_files/238221.got.cif
#   From: 2010.06.25/outbox.cif.g09.slc.cpg/sg2_120_cif.got.tgz:238221.got - 2010.06.27 13:26:56.
