data_PCOD8014905
_publ_section_title
;
Structure prediction by ZEFSAII (Michael W. Deem and Ramdas Pophale) SiO2 
 PCOD8014905
Probable space group: P -1
;
_chemical_formula_sum "Si O2"
_cell_formula_units_Z 14
_cell_length_a 15.044349
_cell_length_b 8.717129
_cell_length_c 14.926397
_cell_angle_alpha 148.807885
_cell_angle_beta 131.637781
_cell_angle_gamma 67.756359
_cell_volume 660.309833
_symmetry_space_group_name_H-M "P -1"
_symmetry_group_IT_number 2
_symmetry_cell_setting 'triclinic'
loop_
_space_group_symop_operation_xyz
x,y,z
-x,-y,-z
loop_
_atom_site_type_symbol
_atom_site_label
_atom_site_fract_x
_atom_site_fract_y
_atom_site_fract_z
Si Si1 0.175312 0.989945 0.659722
Si Si2 0.036058 0.851567 0.316985
Si Si3 0.856478 0.693797 0.723655
Si Si4 0.865425 0.115592 0.785663
Si Si5 0.594054 0.970055 0.473683
Si Si6 0.420145 0.708033 0.559385
Si Si7 0.478065 0.192910 0.998387
O O1 0.155268 0.041085 0.565607
O O2 0.109651 0.589501 0.432007
O O3 0.331206 0.174366 0.886841
O O4 0.097814 0.128750 0.737987
O O5 0.088386 0.016177 0.336715
O O6 0.993190 0.451716 0.081730
O O7 0.738240 0.542953 0.644941
O O8 0.799449 0.814466 0.663052
O O9 0.000000 0.000000 0.000000
O O10 0.750351 0.211986 0.728093
O O11 0.500000 0.000000 0.500000
O O12 0.568612 0.104139 0.431382
O O13 0.580149 0.595235 0.268736
O O14 0.500000 0.500000 0.500000
O O15 0.497308 0.009237 0.833048
O O16 0.500000 0.000000 0.000000
#
# Coordination Sequence:
#
# PCOD8014905 Si02
#       7
#     2   2   2   2   2   2   2
#     4  10  21  42  63  91 129 164 216 266 329 388
#     4  10  22  38  64  92 124 169 213 268 320 390
#     4  11  22  41  63  91 132 168 212 269 326 382
#     4  11  22  39  63  93 127 166 216 263 328 386
#     4  12  24  42  69  99 131 174 221 271 331 397
#     4  11  25  44  66  97 133 178 222 273 332 396
#     4  11  23  43  67  97 135 171 218 276 330 396
#
# _framework density 21.202166999999999
#
# number of rings (size 3 to 8) (size 9 to 14) (size 15 to 20)
#    0.000    1.143    1.429    6.429    2.000    0.571 
#    2.571    0.000    0.000    0.000    0.000    0.000 
#    0.000    0.000    0.000    0.000    0.000    0.000 
#
# Total GULP energy -173560.056000 kJ/mol
# GULP energy per Si atom -12397.146857 kJ/mol
# Density = 2.115391 g / cm^3
# Si number density = 21.202167 Si / 1000 Ang^3
#
#
#
# Elastic Constant Matrix: (Units=GPa)
#
#
# Indices 1 2 3 4 5 6 
#
# 1 145.4097 59.4665 36.5652 -5.5507 -15.9190 13.4160
# 2 59.4665 148.5859 26.8182 -0.2181 -7.8300 17.0311
# 3 36.5652 26.8182 81.4141 0.3604 -0.0101 5.3441
# 4 -5.5507 -0.2181 0.3604 40.1042 -2.1331 2.6346
# 5 -15.9190 -7.8300 -0.0101 -2.1331 28.6889 0.6678
# 6 13.4160 17.0311 5.3441 2.6346 0.6678 40.8553
#
#
#
# Elastic Compliance Matrix: (Units=1/GPa)
#
#
# Indices 1 2 3 4 5 6 
#
# 1 0.009587 -0.002794 -0.003278 0.001707 0.004723 -0.001742
# 2 -0.002794 0.008412 -0.001357 -0.000128 0.000792 -0.002416
# 3 -0.003278 -0.001357 0.014214 -0.000699 -0.002233 -0.000136
# 4 0.001707 -0.000128 -0.000699 0.025467 0.002854 -0.002105
# 5 0.004723 0.000792 -0.002233 0.002854 0.037961 -0.002394
# 6 -0.001742 -0.002416 -0.000136 -0.002105 -0.002394 0.026248
#
#
# Mechanical properties :
#
#
# Convention : Reuss Voigt Hill
#
# Bulk Modulus (GPa) = 57.62082 69.01215 63.31649
# Shear Modulus (GPa) = 35.07997 38.76701 36.92349
#
# Velocity S-wave (km/s) = 4.07202 4.28067 4.17765
# Velocity P-wave (km/s) = 7.02455 7.55331 7.29372
#
# Compressibility (1/GPa) = 0.01735484
#
# Stress axis : x y z
#
# Youngs Moduli (GPa) = 104.30678 118.88152 70.35442
#
# Poissons Ratio (x) = 0.33218 0.23062
# Poissons Ratio (y) = 0.29145 0.09545
# Poissons Ratio (z) = 0.34192 0.16128
#
# Static dielectric constant tensor:
#      x y z
#    x -13.874430 -0.199980 18.945650 
#    y -0.199980 4.057960 0.192640 
#    z 18.945650 0.192640 -16.425680 
# 
# 
# High freq. dielectric constant tensor:
#      x y z
#    x 1.830640 -0.002050 -0.004140 
#    y -0.002050 1.845360 -0.010700 
#    z -0.004140 -0.010700 1.836110 
# 
# From -- ./inp_files/174757.got.cif
#   From: 2010.06.25/outbox.cif.g09.slc.cpg/sg2_88_cif.got.tgz:174757.got - 2010.06.27 13:26:56.
