data_PCOD8014512
_publ_section_title
;
Structure prediction by ZEFSAII (Michael W. Deem and Ramdas Pophale) SiO2 
 PCOD8014512
Probable space group: P -1
;
_chemical_formula_sum "Si O2"
_cell_formula_units_Z 16
_cell_length_a 14.917139
_cell_length_b 9.176705
_cell_length_c 11.299865
_cell_angle_alpha 72.641592
_cell_angle_beta 151.926427
_cell_angle_gamma 112.735383
_cell_volume 668.138586
_symmetry_space_group_name_H-M "P -1"
_symmetry_group_IT_number 2
_symmetry_cell_setting 'triclinic'
loop_
_space_group_symop_operation_xyz
x,y,z
-x,-y,-z
loop_
_atom_site_type_symbol
_atom_site_label
_atom_site_fract_x
_atom_site_fract_y
_atom_site_fract_z
Si Si1 0.385876 0.445960 0.205484
Si Si2 0.707283 0.085302 0.440648
Si Si3 0.093472 0.287786 0.716974
Si Si4 0.696166 0.905007 0.138431
Si Si5 0.594850 0.759313 0.301005
Si Si6 0.590537 0.177921 0.528078
Si Si7 0.863491 0.265093 0.233402
Si Si8 0.855323 0.402952 0.951882
O O1 0.594853 0.580526 0.384382
O O2 0.428802 0.276812 0.310005
O O3 0.295055 0.495206 0.208649
O O4 0.214942 0.429585 0.908580
O O5 0.697563 0.178197 0.527156
O O6 0.917664 0.168071 0.611288
O O7 0.681753 0.894381 0.469823
O O8 0.531025 0.090491 0.142855
O O9 0.250990 0.194632 0.882851
O O10 0.003526 0.356121 0.481127
O O11 0.711382 0.815506 0.301272
O O12 0.853932 0.078517 0.279581
O O13 0.358492 0.723572 0.020487
O O14 0.741576 0.242449 0.793208
O O15 0.500000 0.000000 0.500000
O O16 0.958659 0.344186 0.200290
O O17 0.000000 0.500000 0.000000
#
# Coordination Sequence:
#
# PCOD8014512 Si02
#       8
#     2   2   2   2   2   2   2   2
#     4  11  26  45  70 108 141 181 241 298 364 423
#     4  11  22  44  72 103 138 188 239 293 347 423
#     4  12  23  40  72 111 141 177 239 292 363 428
#     4  11  20  41  67 107 146 180 235 279 363 435
#     4  10  21  41  68 102 146 181 225 291 371 418
#     4  12  25  50  73  94 142 197 243 290 344 426
#     4  10  21  41  69 101 141 185 229 289 351 428
#     4  11  26  48  70 101 144 191 238 295 352 410
#
# _framework density 23.947126999999998
#
# number of rings (size 3 to 8) (size 9 to 14) (size 15 to 20)
#    0.000    1.000    3.750    4.500    0.000    3.500 
#    4.500    1.250    0.000    0.000    0.000    0.000 
#    0.000    0.000    0.000    0.000    0.000    0.000 
#
# Total GULP energy -198356.490400 kJ/mol
# GULP energy per Si atom -12397.280650 kJ/mol
# Density = 2.389262 g / cm^3
# Si number density = 23.947127 Si / 1000 Ang^3
#
#
#
# Elastic Constant Matrix: (Units=GPa)
#
#
# Indices 1 2 3 4 5 6 
#
# 1 156.9977 81.7312 29.4012 20.6025 -0.4989 12.7028
# 2 81.7312 142.1119 39.1216 16.7933 -4.7749 10.4349
# 3 29.4012 39.1216 60.6791 21.4712 -14.6818 7.2260
# 4 20.6025 16.7933 21.4712 34.0460 -2.6144 -8.5385
# 5 -0.4989 -4.7749 -14.6818 -2.6144 37.0660 6.9186
# 6 12.7028 10.4349 7.2260 -8.5385 6.9186 45.4579
#
#
#
# Elastic Compliance Matrix: (Units=1/GPa)
#
#
# Indices 1 2 3 4 5 6 
#
# 1 0.009636 -0.004945 0.000176 -0.004105 -0.000296 -0.002311
# 2 -0.004945 0.011227 -0.005200 0.000649 -0.000605 -0.000155
# 3 0.000176 -0.005200 0.029797 -0.017619 0.011507 -0.008653
# 4 -0.004105 0.000649 -0.017619 0.045504 -0.006222 0.013293
# 5 -0.000296 -0.000605 0.011507 -0.006222 0.032456 -0.007716
# 6 -0.002311 -0.000155 -0.008653 0.013293 -0.007716 0.027726
#
#
# Mechanical properties :
#
#
# Convention : Reuss Voigt Hill
#
# Bulk Modulus (GPa) = 32.55151 73.36630 52.95891
# Shear Modulus (GPa) = 26.80623 37.28297 32.04460
#
# Velocity S-wave (km/s) = 3.34936 3.95002 3.66203
# Velocity P-wave (km/s) = 5.34605 7.17683 6.32800
#
# Compressibility (1/GPa) = 0.03072054
#
# Stress axis : x y z
#
# Youngs Moduli (GPa) = 103.77957 89.07489 33.56085
#
# Poissons Ratio (x) = 0.44049 -0.00589
# Poissons Ratio (y) = 0.51321 0.17450
# Poissons Ratio (z) = -0.01822 0.46315
#
# Static dielectric constant tensor:
#      x y z
#    x 4.574740 -0.046830 -0.211870 
#    y -0.046830 4.752240 0.151560 
#    z -0.211870 0.151560 4.067010 
# 
# 
# High freq. dielectric constant tensor:
#      x y z
#    x 1.957810 -0.006880 -0.006330 
#    y -0.006880 1.960560 0.011110 
#    z -0.006330 0.011110 1.937520 
# 
# From -- ./inp_files/447431.got.cif
#   From: 2010.06.25/outbox.cif.g09.slc.cpg/sg2_224_cif.got.tgz:447431.got - 2010.06.27 13:26:56.
