data_PCOD8014214
_publ_section_title
;
Structure prediction by ZEFSAII (Michael W. Deem and Ramdas Pophale) SiO2 
 PCOD8014214
Probable space group: P -1
;
_chemical_formula_sum "Si O2"
_cell_formula_units_Z 14
_cell_length_a 9.300644
_cell_length_b 27.145045
_cell_length_c 9.896886
_cell_angle_alpha 154.324003
_cell_angle_beta 42.630395
_cell_angle_gamma 143.454749
_cell_volume 643.987915
_symmetry_space_group_name_H-M "P -1"
_symmetry_group_IT_number 2
_symmetry_cell_setting 'triclinic'
loop_
_space_group_symop_operation_xyz
x,y,z
-x,-y,-z
loop_
_atom_site_type_symbol
_atom_site_label
_atom_site_fract_x
_atom_site_fract_y
_atom_site_fract_z
Si Si1 0.533452 0.642156 0.080284
Si Si2 0.751613 0.489955 0.687179
Si Si3 0.534293 0.250242 0.870215
Si Si4 0.917142 0.583089 0.084859
Si Si5 0.400390 0.211882 0.343518
Si Si6 0.857668 0.810298 0.785937
Si Si7 0.608928 0.025137 0.134258
O O1 0.593286 0.707053 0.052324
O O2 0.655607 0.755091 0.386276
O O3 0.642199 0.542893 0.777019
O O4 0.237617 0.561701 0.102009
O O5 0.587765 0.338521 0.448138
O O6 0.000000 0.500000 0.500000
O O7 0.784790 0.572893 0.006425
O O8 0.556398 0.125863 0.501591
O O9 0.799234 0.371184 0.019034
O O10 0.369407 0.210800 0.018584
O O11 0.880922 0.680113 0.447863
O O12 0.168106 0.150323 0.252972
O O13 0.502132 0.109595 0.038738
O O14 0.104483 0.924743 0.957485
O O15 0.500000 0.000000 0.000000
#
# Coordination Sequence:
#
# PCOD8014214 Si02
#       7
#     2   2   2   2   2   2   2
#     4  11  21  42  68  94 135 174 207 266 328 382
#     4  11  22  40  69 102 128 172 220 261 320 392
#     4  11  25  42  67 100 130 170 217 267 322 385
#     4  10  21  41  65  96 135 169 212 262 328 383
#     4  11  21  45  65  90 133 174 210 264 322 380
#     4  11  23  43  67  94 130 171 218 267 319 383
#     4  11  25  45  67  93 129 172 219 269 322 377
#
# _framework density 21.739538
#
# number of rings (size 3 to 8) (size 9 to 14) (size 15 to 20)
#    0.000    1.143    4.286    2.571    0.000    2.857 
#    5.143    0.000    0.000    0.000    0.000    0.000 
#    0.000    0.000    0.000    0.000    0.000    0.000 
#
# Total GULP energy -173579.586755 kJ/mol
# GULP energy per Si atom -12398.541911 kJ/mol
# Density = 2.169006 g / cm^3
# Si number density = 21.739538 Si / 1000 Ang^3
#
#
#
# Elastic Constant Matrix: (Units=GPa)
#
#
# Indices 1 2 3 4 5 6 
#
# 1 138.3173 47.0142 44.9555 17.4534 6.8378 -4.0149
# 2 47.0142 63.9313 45.0142 -1.5380 -7.5087 6.2562
# 3 44.9555 45.0142 91.5644 11.8864 -1.9759 0.8967
# 4 17.4534 -1.5380 11.8864 30.4007 -4.9616 -9.1861
# 5 6.8378 -7.5087 -1.9759 -4.9616 40.6489 5.1785
# 6 -4.0149 6.2562 0.8967 -9.1861 5.1785 38.1995
#
#
#
# Elastic Compliance Matrix: (Units=1/GPa)
#
#
# Indices 1 2 3 4 5 6 
#
# 1 0.011702 -0.009247 -0.000367 -0.007330 -0.004798 0.001641
# 2 -0.009247 0.033682 -0.013387 0.012409 0.009207 -0.004438
# 3 -0.000367 -0.013387 0.018686 -0.008153 -0.002510 0.000095
# 4 -0.007330 0.012409 -0.008153 0.044281 0.007642 0.007001
# 5 -0.004798 0.009207 -0.002510 0.007642 0.028425 -0.003969
# 6 0.001641 -0.004438 0.000095 0.007001 -0.003969 0.029297
#
#
# Mechanical properties :
#
#
# Convention : Reuss Voigt Hill
#
# Bulk Modulus (GPa) = 55.34988 63.08676 59.21832
# Shear Modulus (GPa) = 22.92537 32.30507 27.61522
#
# Velocity S-wave (km/s) = 3.25090 3.85906 3.56796
# Velocity P-wave (km/s) = 6.29340 6.99563 6.65378
#
# Compressibility (1/GPa) = 0.01806689
#
# Stress axis : x y z
#
# Youngs Moduli (GPa) = 85.45509 29.68937 53.51526
#
# Poissons Ratio (x) = 0.27455 0.01966
# Poissons Ratio (y) = 0.79023 0.71641
# Poissons Ratio (z) = 0.03140 0.39745
#
# Static dielectric constant tensor:
#      x y z
#    x 4.281080 0.057220 0.260380 
#    y 0.057220 3.734670 0.168580 
#    z 0.260380 0.168580 4.070240 
# 
# 
# High freq. dielectric constant tensor:
#      x y z
#    x 1.868610 -0.000490 0.011440 
#    y -0.000490 1.831900 0.012750 
#    z 0.011440 0.012750 1.856430 
# 
# From -- ./inp_files/226696.got.cif
#   From: 2010.06.25/outbox.cif.g09.slc.cpg/sg2_114_cif.got.tgz:226696.got - 2010.06.27 13:26:56.
