data_PCOD8014803
_publ_section_title
;
Structure prediction by ZEFSAII (Michael W. Deem and Ramdas Pophale) SiO2 
 PCOD8014803
Probable space group: P -1
;
_chemical_formula_sum "Si O2"
_cell_formula_units_Z 14
_cell_length_a 12.559674
_cell_length_b 8.789184
_cell_length_c 14.225918
_cell_angle_alpha 45.190073
_cell_angle_beta 140.957152
_cell_angle_gamma 152.244262
_cell_volume 459.853624
_symmetry_space_group_name_H-M "P -1"
_symmetry_group_IT_number 2
_symmetry_cell_setting 'triclinic'
loop_
_space_group_symop_operation_xyz
x,y,z
-x,-y,-z
loop_
_atom_site_type_symbol
_atom_site_label
_atom_site_fract_x
_atom_site_fract_y
_atom_site_fract_z
Si Si1 0.706724 0.395581 0.431716
Si Si2 0.890237 0.993502 0.021158
Si Si3 0.245619 0.104866 0.505229
Si Si4 0.278129 0.616579 0.351929
Si Si5 0.359048 0.657491 0.794436
Si Si6 0.380815 0.437249 0.262122
Si Si7 0.292557 0.856162 0.841304
O O1 0.651703 0.200624 0.575949
O O2 0.746298 0.337702 0.379049
O O3 0.495001 0.381872 0.287094
O O4 0.981295 0.742969 0.510513
O O5 0.746913 0.688060 0.125474
O O6 0.675420 0.973418 0.862899
O O7 0.143968 0.340243 0.092891
O O8 0.000000 0.000000 0.000000
O O9 0.308939 0.380759 0.492338
O O10 0.474238 0.127390 0.660857
O O11 0.233728 0.175495 0.359474
O O12 0.001101 0.399687 0.209487
O O13 0.258519 0.648567 0.828034
O O14 0.612217 0.827567 0.277176
O O15 0.500000 0.000000 0.000000
#
# Coordination Sequence:
#
# PCOD8014803 Si02
#       7
#     2   2   2   2   2   2   2
#     4  11  21  44  73 101 130 180 239 282 329 410
#     4  11  22  43  69 100 131 187 236 270 326 424
#     4  10  21  41  75 103 126 182 237 282 327 406
#     4  10  24  41  70 103 137 179 231 282 340 404
#     4  11  26  43  69  98 144 181 223 284 346 395
#     4  11  23  41  74 101 134 175 236 281 334 405
#     4  12  28  47  64 105 148 177 215 294 350 406
#
# _framework density 30.444469999999999
#
# number of rings (size 3 to 8) (size 9 to 14) (size 15 to 20)
#    0.000    1.143    4.286    1.286    8.000    1.143 
#    2.571    0.714    0.000    0.000    0.000    0.000 
#    0.000    0.000    0.000    0.000    0.000    0.000 
#
# Total GULP energy -173463.943310 kJ/mol
# GULP energy per Si atom -12390.281665 kJ/mol
# Density = 3.037518 g / cm^3
# Si number density = 30.444470 Si / 1000 Ang^3
#
#
#
# Elastic Constant Matrix: (Units=GPa)
#
#
# Indices 1 2 3 4 5 6 
#
# 1 145.4225 11.9633 53.6580 21.7548 -5.7668 2.4516
# 2 11.9633 86.5072 13.0616 12.3277 -1.1212 13.5359
# 3 53.6580 13.0616 143.1507 45.3098 11.5563 11.9345
# 4 21.7548 12.3277 45.3098 41.0874 12.6530 -1.8793
# 5 -5.7668 -1.1212 11.5563 12.6530 61.7240 7.5476
# 6 2.4516 13.5359 11.9345 -1.8793 7.5476 47.7670
#
#
#
# Elastic Compliance Matrix: (Units=1/GPa)
#
#
# Indices 1 2 3 4 5 6 
#
# 1 0.008208 -0.000464 -0.002578 -0.001862 0.001620 0.000025
# 2 -0.000464 0.012951 0.000917 -0.005359 0.001650 -0.004347
# 3 -0.002578 0.000917 0.012134 -0.012633 0.000551 -0.003744
# 4 -0.001862 -0.005359 -0.012633 0.043615 -0.007791 0.007717
# 5 0.001620 0.001650 0.000551 -0.007791 0.018353 -0.003895
# 6 0.000025 -0.004347 -0.003744 0.007717 -0.003895 0.024020
#
#
# Mechanical properties :
#
#
# Convention : Reuss Voigt Hill
#
# Bulk Modulus (GPa) = 34.42938 59.16069 46.79503
# Shear Modulus (GPa) = 37.53474 49.87551 43.70512
#
# Velocity S-wave (km/s) = 3.51507 4.05192 3.79300
# Velocity P-wave (km/s) = 5.27330 6.43158 5.88102
#
# Compressibility (1/GPa) = 0.02904496
#
# Stress axis : x y z
#
# Youngs Moduli (GPa) = 121.82946 77.21689 82.41100
#
# Poissons Ratio (x) = 0.03579 0.21246
# Poissons Ratio (y) = 0.05647 -0.07561
# Poissons Ratio (z) = 0.31408 -0.07085
#
# Static dielectric constant tensor:
#      x y z
#    x 5.588640 0.046650 0.408410 
#    y 0.046650 6.480960 -0.072280 
#    z 0.408410 -0.072280 5.944230 
# 
# 
# High freq. dielectric constant tensor:
#      x y z
#    x 2.253860 0.011990 -0.007090 
#    y 0.011990 2.293650 0.000570 
#    z -0.007090 0.000570 2.271520 
# 
# From -- ./inp_files/515240.got.cif
#   From: 2010.06.25/outbox.cif.g09.slc.cpg/sg2_258_cif.got.tgz:515240.got - 2010.06.27 13:26:56.
