data_PCOD8014995
_publ_section_title
;
Structure prediction by ZEFSAII (Michael W. Deem and Ramdas Pophale) SiO2 
 PCOD8014995
Probable space group: P -1
;
_chemical_formula_sum "Si O2"
_cell_formula_units_Z 14
_cell_length_a 19.493113
_cell_length_b 9.002448
_cell_length_c 8.426925
_cell_angle_alpha 47.213972
_cell_angle_beta 46.611879
_cell_angle_gamma 36.633404
_cell_volume 612.668264
_symmetry_space_group_name_H-M "P -1"
_symmetry_group_IT_number 2
_symmetry_cell_setting 'triclinic'
loop_
_space_group_symop_operation_xyz
x,y,z
-x,-y,-z
loop_
_atom_site_type_symbol
_atom_site_label
_atom_site_fract_x
_atom_site_fract_y
_atom_site_fract_z
Si Si1 0.543771 0.891004 0.774463
Si Si2 0.213821 0.827079 0.546682
Si Si3 0.682550 0.706525 0.364814
Si Si4 0.443029 0.751685 0.296704
Si Si5 0.873994 0.134440 0.014055
Si Si6 0.039075 0.625968 0.459291
Si Si7 0.881925 0.714473 0.128178
O O1 0.625869 0.728328 0.610347
O O2 0.413889 0.139117 0.734113
O O3 0.597817 0.006769 0.702757
O O4 0.532586 0.712703 0.041553
O O5 0.228059 0.598174 0.598001
O O6 0.324880 0.828567 0.334671
O O7 0.223346 0.779750 0.757221
O O8 0.084658 0.089631 0.501889
O O9 0.758645 0.813983 0.163468
O O10 0.500000 0.500000 0.500000
O O11 0.878117 0.954364 0.005926
O O12 0.855458 0.371897 0.782406
O O13 0.000000 0.000000 0.000000
O O14 0.000000 0.500000 0.500000
O O15 0.114408 0.432137 0.620254
O O16 0.000000 0.500000 0.000000
#
# Coordination Sequence:
#
# PCOD8014995 Si02
#       7
#     2   2   2   2   2   2   2
#     4  10  25  47  71  97 141 181 223 288 343 399
#     4  11  23  41  72 100 133 178 227 282 334 406
#     4  11  25  46  66 105 143 178 226 283 348 404
#     4  11  23  46  73 102 126 179 239 278 337 411
#     4  10  21  42  64  95 131 174 226 269 322 408
#     4  11  24  43  69  97 136 183 227 272 339 403
#     4  12  25  42  68 101 140 176 224 283 338 403
#
# _framework density 22.850864000000001
#
# number of rings (size 3 to 8) (size 9 to 14) (size 15 to 20)
#    0.000    1.143    4.286    2.571    2.000    4.000 
#    0.000    0.000    0.000    0.000    0.000    0.000 
#    0.000    0.000    0.000    0.000    0.000    0.000 
#
# Total GULP energy -173553.068145 kJ/mol
# GULP energy per Si atom -12396.647725 kJ/mol
# Density = 2.279885 g / cm^3
# Si number density = 22.850864 Si / 1000 Ang^3
#
#
#
# Elastic Constant Matrix: (Units=GPa)
#
#
# Indices 1 2 3 4 5 6 
#
# 1 83.1967 11.0123 9.9356 -7.3815 -25.1399 21.7179
# 2 11.0123 92.6705 14.5685 -4.1878 -9.2543 28.4973
# 3 9.9356 14.5685 121.7601 -12.3702 -7.6650 16.1493
# 4 -7.3815 -4.1878 -12.3702 35.4914 2.4626 -0.4492
# 5 -25.1399 -9.2543 -7.6650 2.4626 46.0980 -5.6409
# 6 21.7179 28.4973 16.1493 -0.4492 -5.6409 43.0852
#
#
#
# Elastic Compliance Matrix: (Units=1/GPa)
#
#
# Indices 1 2 3 4 5 6 
#
# 1 0.016779 0.001527 0.000418 0.003131 0.008319 -0.008503
# 2 0.001527 0.013885 -0.000210 0.001600 0.002331 -0.009553
# 3 0.000418 -0.000210 0.009022 0.003088 0.001120 -0.003275
# 4 0.003131 0.001600 0.003088 0.030013 0.000521 -0.003413
# 5 0.008319 0.002331 0.001120 0.000521 0.026529 -0.002676
# 6 -0.008503 -0.009553 -0.003275 -0.003413 -0.002676 0.034656
#
#
# Mechanical properties :
#
#
# Convention : Reuss Voigt Hill
#
# Bulk Modulus (GPa) = 23.17120 40.96223 32.06671
# Shear Modulus (GPa) = 35.26129 42.40896 38.83513
#
# Velocity S-wave (km/s) = 3.93250 4.31269 4.12698
# Velocity P-wave (km/s) = 5.54812 6.53941 6.06405
#
# Compressibility (1/GPa) = 0.04315702
#
# Stress axis : x y z
#
# Youngs Moduli (GPa) = 59.59949 72.01876 110.83491
#
# Poissons Ratio (x) = -0.11000 -0.04628
# Poissons Ratio (y) = -0.09103 0.02323
# Poissons Ratio (z) = -0.02489 0.01509
#
# Static dielectric constant tensor:
#      x y z
#    x 4.118160 0.378520 1.110150 
#    y 0.378520 3.898570 1.810710 
#    z 1.110150 1.810710 14.629320 
# 
# 
# High freq. dielectric constant tensor:
#      x y z
#    x 1.910480 0.007080 -0.009040 
#    y 0.007080 1.890080 0.002600 
#    z -0.009040 0.002600 1.916090 
# 
# From -- ./inp_files/343259.got.cif
#   From: 2010.06.25/outbox.cif.g09.slc.cpg/sg2_172_cif.got.tgz:343259.got - 2010.06.27 13:26:56.
