data_PCOD8014302
_publ_section_title
;
Structure prediction by ZEFSAII (Michael W. Deem and Ramdas Pophale) SiO2 
 PCOD8014302
Probable space group: P -1
;
_chemical_formula_sum "Si O2"
_cell_formula_units_Z 16
_cell_length_a 8.927653
_cell_length_b 18.646440
_cell_length_c 5.197461
_cell_angle_alpha 96.288170
_cell_angle_beta 97.984291
_cell_angle_gamma 53.811471
_cell_volume 691.118075
_symmetry_space_group_name_H-M "P -1"
_symmetry_group_IT_number 2
_symmetry_cell_setting 'triclinic'
loop_
_space_group_symop_operation_xyz
x,y,z
-x,-y,-z
loop_
_atom_site_type_symbol
_atom_site_label
_atom_site_fract_x
_atom_site_fract_y
_atom_site_fract_z
Si Si1 0.225449 0.756944 0.734523
Si Si2 0.872303 0.678716 0.349553
Si Si3 0.751573 0.496352 0.702629
Si Si4 0.593688 0.394347 0.691339
Si Si5 0.963342 0.963450 0.727935
Si Si6 0.583519 0.664271 0.022433
Si Si7 0.090635 0.239288 0.115324
Si Si8 0.373995 0.036020 0.235417
O O1 0.265007 0.686395 0.497052
O O2 0.421296 0.745023 0.839991
O O3 0.089813 0.858604 0.659076
O O4 0.111939 0.742500 0.919357
O O5 0.881767 0.703856 0.651953
O O6 0.032366 0.573633 0.337729
O O7 0.674525 0.693358 0.258637
O O8 0.887124 0.736968 0.159911
O O9 0.685733 0.443917 0.827952
O O10 0.614916 0.535066 0.441258
O O11 0.742439 0.576179 0.873779
O O12 0.559580 0.355501 0.912996
O O13 0.752739 0.998171 0.750159
O O14 0.000000 0.000000 0.500000
O O15 0.000000 0.000000 0.000000
O O16 0.250101 0.140754 0.203664
O O17 0.500000 0.000000 0.500000
O O18 0.500000 0.000000 0.000000
#
# Coordination Sequence:
#
# PCOD8014302 Si02
#       8
#     2   2   2   2   2   2   2   2
#     4  10  24  44  68  95 135 179 229 270 330 417
#     4  12  26  42  67 100 139 175 224 282 335 389
#     4  10  22  40  64  95 130 184 226 272 332 400
#     4  10  21  41  66  94 128 181 230 270 330 402
#     4  11  26  45  72 107 138 179 226 288 351 406
#     4  11  25  39  65 100 135 175 225 286 336 386
#     4  11  26  46  69  97 132 185 225 267 336 412
#     4  11  24  47  73 101 138 180 230 281 345 424
#
# _framework density 23.150893
#
# number of rings (size 3 to 8) (size 9 to 14) (size 15 to 20)
#    0.000    1.250    1.250    3.000    7.000    5.500 
#    0.000    0.000    0.000    0.000    0.000    0.000 
#    0.000    0.000    0.000    0.000    0.000    0.000 
#
# Total GULP energy -198215.123535 kJ/mol
# GULP energy per Si atom -12388.445221 kJ/mol
# Density = 2.309820 g / cm^3
# Si number density = 23.150893 Si / 1000 Ang^3
#
#
#
# Elastic Constant Matrix: (Units=GPa)
#
#
# Indices 1 2 3 4 5 6 
#
# 1 120.8647 32.2228 28.0288 4.3321 17.1186 -7.4493
# 2 32.2228 89.1102 10.4556 -4.3643 6.9606 -15.3742
# 3 28.0288 10.4556 81.6366 5.4856 1.0331 -3.8804
# 4 4.3321 -4.3643 5.4856 15.0680 2.6719 -1.7651
# 5 17.1186 6.9606 1.0331 2.6719 40.9331 -1.8158
# 6 -7.4493 -15.3742 -3.8804 -1.7651 -1.8158 35.4714
#
#
#
# Elastic Compliance Matrix: (Units=1/GPa)
#
#
# Indices 1 2 3 4 5 6 
#
# 1 0.010415 -0.003215 -0.002963 -0.002191 -0.003583 0.000177
# 2 -0.003215 0.013806 -0.000797 0.006055 -0.001136 0.005465
# 3 -0.002963 -0.000797 0.013675 -0.004552 0.001343 0.000370
# 4 -0.002191 0.006055 -0.004552 0.071785 -0.004462 0.005010
# 5 -0.003583 -0.001136 0.001343 -0.004462 0.026380 0.000031
# 6 0.000177 0.005465 0.000370 0.005010 0.000031 0.030889
#
#
# Mechanical properties :
#
#
# Convention : Reuss Voigt Hill
#
# Bulk Modulus (GPa) = 41.76098 48.11398 44.93748
# Shear Modulus (GPa) = 26.47128 33.02145 29.74637
#
# Velocity S-wave (km/s) = 3.38512 3.78081 3.58843
# Velocity P-wave (km/s) = 5.77551 6.31564 6.05160
#
# Compressibility (1/GPa) = 0.02394580
#
# Stress axis : x y z
#
# Youngs Moduli (GPa) = 96.01520 72.43040 73.12437
#
# Poissons Ratio (x) = 0.23289 0.21667
# Poissons Ratio (y) = 0.30872 0.05828
# Poissons Ratio (z) = 0.28450 0.05773
#
# Static dielectric constant tensor:
#      x y z
#    x 4.282440 -0.085100 0.006870 
#    y -0.085100 4.430740 -0.077590 
#    z 0.006870 -0.077590 4.035560 
# 
# 
# High freq. dielectric constant tensor:
#      x y z
#    x 1.927240 -0.009920 0.006970 
#    y -0.009920 1.923110 -0.010800 
#    z 0.006970 -0.010800 1.911170 
# 
# From -- ./inp_files/39704.got.cif
#   From: 2010.06.25/outbox.cif.g09.slc.cpg/sg2_20_cif.got.tgz:39704.got - 2010.06.27 13:26:56.
