data_PCOD8014338
_publ_section_title
;
Structure prediction by ZEFSAII (Michael W. Deem and Ramdas Pophale) SiO2 
 PCOD8014338
Probable space group: P -1
;
_chemical_formula_sum "Si O2"
_cell_formula_units_Z 16
_cell_length_a 8.687530
_cell_length_b 12.459900
_cell_length_c 19.115765
_cell_angle_alpha 29.617017
_cell_angle_beta 47.970158
_cell_angle_gamma 50.857338
_cell_volume 752.726796
_symmetry_space_group_name_H-M "P -1"
_symmetry_group_IT_number 2
_symmetry_cell_setting 'triclinic'
loop_
_space_group_symop_operation_xyz
x,y,z
-x,-y,-z
loop_
_atom_site_type_symbol
_atom_site_label
_atom_site_fract_x
_atom_site_fract_y
_atom_site_fract_z
Si Si1 0.840663 0.103787 0.149147
Si Si2 0.699883 0.901273 0.039435
Si Si3 0.381894 0.554909 0.620076
Si Si4 0.762545 0.475041 0.069341
Si Si5 0.450979 0.903944 0.888314
Si Si6 0.280306 0.710677 0.419324
Si Si7 0.895162 0.709325 0.453164
Si Si8 0.522399 0.236941 0.391446
O O1 0.757261 0.322869 0.090702
O O2 0.711059 0.131508 0.102199
O O3 0.791085 0.894737 0.326632
O O4 0.089822 0.075585 0.079102
O O5 0.695189 0.646580 0.201276
O O6 0.695556 0.046404 0.027974
O O7 0.500000 0.000000 0.000000
O O8 0.228827 0.626383 0.560552
O O9 0.610215 0.483315 0.555127
O O10 0.383389 0.754450 0.562558
O O11 0.658489 0.371187 0.225461
O O12 0.629258 0.702722 0.960833
O O13 0.000000 0.500000 0.000000
O O14 0.567386 0.109388 0.718761
O O15 0.062974 0.810429 0.393575
O O16 0.714427 0.639687 0.598306
O O17 0.000000 0.500000 0.500000
O O18 0.500000 0.000000 0.500000
#
# Coordination Sequence:
#
# PCOD8014338 Si02
#       8
#     2   2   2   2   2   2   2   2
#     4  12  25  45  66 101 142 181 235 291 351 424
#     4  11  23  42  70 101 136 182 238 290 350 418
#     4  10  21  41  66  97 138 177 220 289 345 406
#     4  12  26  47  72  96 144 193 231 284 356 427
#     4  11  25  42  70 101 135 184 235 294 351 413
#     4  10  22  41  68  99 133 175 232 285 350 411
#     4  12  25  42  73 100 136 182 233 289 355 415
#     4  12  25  44  69 102 141 179 231 286 349 425
#
# _framework density 21.256050999999999
#
# number of rings (size 3 to 8) (size 9 to 14) (size 15 to 20)
#    0.000    0.750    2.500    6.000    5.250    1.000 
#    0.000    1.875    0.000    0.000    0.000    0.000 
#    0.000    0.000    0.000    0.000    0.000    0.000 
#
# Total GULP energy -198366.057473 kJ/mol
# GULP energy per Si atom -12397.878592 kJ/mol
# Density = 2.120767 g / cm^3
# Si number density = 21.256051 Si / 1000 Ang^3
#
#
#
# Elastic Constant Matrix: (Units=GPa)
#
#
# Indices 1 2 3 4 5 6 
#
# 1 115.1449 52.2298 38.2267 14.5604 6.9440 11.9375
# 2 52.2298 143.5529 45.1810 1.9117 -4.1886 18.9741
# 3 38.2267 45.1810 106.4192 7.9598 3.1858 0.2943
# 4 14.5604 1.9117 7.9598 42.0991 -5.7029 -4.9043
# 5 6.9440 -4.1886 3.1858 -5.7029 33.4579 4.6178
# 6 11.9375 18.9741 0.2943 -4.9043 4.6178 45.7685
#
#
#
# Elastic Compliance Matrix: (Units=1/GPa)
#
#
# Indices 1 2 3 4 5 6 
#
# 1 0.011924 -0.003362 -0.002448 -0.004144 -0.003116 -0.001830
# 2 -0.003362 0.009650 -0.003065 0.001314 0.002870 -0.003253
# 3 -0.002448 -0.003065 0.011706 -0.001209 -0.001452 0.001851
# 4 -0.004144 0.001314 -0.001209 0.026398 0.005247 0.002843
# 5 -0.003116 0.002870 -0.001452 0.005247 0.032351 -0.003070
# 6 -0.001830 -0.003253 0.001851 0.002843 -0.003070 0.024277
#
#
# Mechanical properties :
#
#
# Convention : Reuss Voigt Hill
#
# Bulk Modulus (GPa) = 64.38442 70.71021 67.54731
# Shear Modulus (GPa) = 35.91169 39.56372 37.73771
#
# Velocity S-wave (km/s) = 4.11479 4.31895 4.21810
# Velocity P-wave (km/s) = 7.27537 7.62950 7.45454
#
# Compressibility (1/GPa) = 0.01553171
#
# Stress axis : x y z
#
# Youngs Moduli (GPa) = 83.86520 103.62743 85.42761
#
# Poissons Ratio (x) = 0.34838 0.20909
# Poissons Ratio (y) = 0.28194 0.26180
# Poissons Ratio (z) = 0.20527 0.31757
#
# Static dielectric constant tensor:
#      x y z
#    x 4.015670 0.121970 0.009940 
#    y 0.121970 4.106120 0.046850 
#    z 0.009940 0.046850 3.897400 
# 
# 
# High freq. dielectric constant tensor:
#      x y z
#    x 1.842450 0.015190 -0.004280 
#    y 0.015190 1.841280 0.005950 
#    z -0.004280 0.005950 1.835520 
# 
# From -- ./inp_files/184335.got.cif
#   From: 2010.06.25/outbox.cif.g09.slc.cpg/sg2_93_cif.got.tgz:184335.got - 2010.06.27 13:26:56.
