data_PCOD8014821
_publ_section_title
;
Structure prediction by ZEFSAII (Michael W. Deem and Ramdas Pophale) SiO2 
 PCOD8014821
Probable space group: P -1
;
_chemical_formula_sum "Si O2"
_cell_formula_units_Z 12
_cell_length_a 7.099033
_cell_length_b 11.919823
_cell_length_c 14.277092
_cell_angle_alpha 50.429538
_cell_angle_beta 89.338054
_cell_angle_gamma 54.526162
_cell_volume 622.878794
_symmetry_space_group_name_H-M "P -1"
_symmetry_group_IT_number 2
_symmetry_cell_setting 'triclinic'
loop_
_space_group_symop_operation_xyz
x,y,z
-x,-y,-z
loop_
_atom_site_type_symbol
_atom_site_label
_atom_site_fract_x
_atom_site_fract_y
_atom_site_fract_z
Si Si1 0.824040 0.505680 0.727608
Si Si2 0.207872 0.745497 0.632097
Si Si3 0.208269 0.262831 0.030850
Si Si4 0.012399 0.639890 0.539006
Si Si5 0.769357 0.783948 0.270534
Si Si6 0.242524 0.563338 0.920642
O O1 0.527557 0.612304 0.700153
O O2 0.788431 0.685711 0.583981
O O3 0.996930 0.301345 0.762841
O O4 0.003037 0.423799 0.863114
O O5 0.163228 0.672422 0.762054
O O6 0.159042 0.686007 0.568381
O O7 0.000000 0.000000 0.500000
O O8 0.039302 0.262912 0.107371
O O9 0.466958 0.020364 0.119040
O O10 0.327111 0.344638 0.030269
O O11 0.854623 0.795049 0.366678
O O12 0.244418 0.385987 0.638943
O O13 0.500000 0.500000 0.000000
#
# Coordination Sequence:
#
# PCOD8014821 Si02
#       6
#     2   2   2   2   2   2
#     4  10  21  42  60  91 122 157 208 251 298 367
#     4  12  26  39  64  92 125 164 201 254 309 358
#     4  11  22  41  68  84 129 162 200 258 302 360
#     4   9  22  43  58  91 129 152 215 246 293 376
#     4   9  21  42  66  88 120 169 198 253 311 347
#     4  11  24  41  57  95 125 159 212 245 297 373
#
# _framework density 19.265387
#
# number of rings (size 3 to 8) (size 9 to 14) (size 15 to 20)
#    1.000    0.667    3.333    0.500    4.667    1.333 
#    3.000    1.667    0.000    0.000    0.000    0.000 
#    0.000    0.000    0.000    0.000    0.000    0.000 
#
# Total GULP energy -148749.354762 kJ/mol
# GULP energy per Si atom -12395.779564 kJ/mol
# Density = 1.922154 g / cm^3
# Si number density = 19.265387 Si / 1000 Ang^3
#
#
#
# Elastic Constant Matrix: (Units=GPa)
#
#
# Indices 1 2 3 4 5 6 
#
# 1 102.6929 43.6580 42.7802 0.5374 10.7104 -1.0814
# 2 43.6580 96.6759 47.1970 -2.8393 12.0094 -8.1975
# 3 42.7802 47.1970 67.3518 3.7037 10.7029 -1.4876
# 4 0.5374 -2.8393 3.7037 39.0240 4.4576 4.2973
# 5 10.7104 12.0094 10.7029 4.4576 22.0158 9.2349
# 6 -1.0814 -8.1975 -1.4876 4.2973 9.2349 42.0258
#
#
#
# Elastic Compliance Matrix: (Units=1/GPa)
#
#
# Indices 1 2 3 4 5 6 
#
# 1 0.013869 -0.002790 -0.006539 0.000471 -0.002143 0.000004
# 2 -0.002790 0.017375 -0.009554 0.002415 -0.005630 0.003969
# 3 -0.006539 -0.009554 0.026472 -0.002671 -0.003956 0.000048
# 4 0.000471 0.002415 -0.002671 0.026771 -0.005159 -0.001215
# 5 -0.002143 -0.005630 -0.003956 -0.005159 0.058188 -0.013552
# 6 0.000004 0.003969 0.000048 -0.001215 -0.013552 0.027673
#
#
# Mechanical properties :
#
#
# Convention : Reuss Voigt Hill
#
# Bulk Modulus (GPa) = 50.12571 59.33233 54.72902
# Shear Modulus (GPa) = 23.28120 29.48547 26.38334
#
# Velocity S-wave (km/s) = 3.48004 3.91639 3.70465
# Velocity P-wave (km/s) = 6.49789 7.16345 6.83877
#
# Compressibility (1/GPa) = 0.01994984
#
# Stress axis : x y z
#
# Youngs Moduli (GPa) = 72.10152 57.55431 37.77527
#
# Poissons Ratio (x) = 0.16060 0.24703
# Poissons Ratio (y) = 0.20119 0.36089
# Poissons Ratio (z) = 0.47150 0.54985
#
# Static dielectric constant tensor:
#      x y z
#    x 3.346820 -0.036720 -0.058760 
#    y -0.036720 3.571030 0.216230 
#    z -0.058760 0.216230 3.424520 
# 
# 
# High freq. dielectric constant tensor:
#      x y z
#    x 1.735320 0.000460 0.002690 
#    y 0.000460 1.754250 0.019780 
#    z 0.002690 0.019780 1.751720 
# 
# From -- ./inp_files/91353.got.cif
#   From: 2010.06.25/outbox.cif.g09.slc.cpg/sg2_46_cif.got.tgz:91353.got - 2010.06.27 13:26:56.
