data_PCOD8014332
_publ_section_title
;
Structure prediction by ZEFSAII (Michael W. Deem and Ramdas Pophale) SiO2 
 PCOD8014332
Probable space group: P -1
;
_chemical_formula_sum "Si O2"
_cell_formula_units_Z 16
_cell_length_a 11.413502
_cell_length_b 11.976069
_cell_length_c 6.492739
_cell_angle_alpha 77.659448
_cell_angle_beta 95.363330
_cell_angle_gamma 124.749490
_cell_volume 711.911069
_symmetry_space_group_name_H-M "P -1"
_symmetry_group_IT_number 2
_symmetry_cell_setting 'triclinic'
loop_
_space_group_symop_operation_xyz
x,y,z
-x,-y,-z
loop_
_atom_site_type_symbol
_atom_site_label
_atom_site_fract_x
_atom_site_fract_y
_atom_site_fract_z
Si Si1 0.229888 0.401249 0.737544
Si Si2 0.997741 0.002931 0.757035
Si Si3 0.016115 0.641617 0.994027
Si Si4 0.454097 0.111899 0.149322
Si Si5 0.444622 0.701503 0.524154
Si Si6 0.685202 0.198230 0.829080
Si Si7 0.689999 0.799527 0.214026
Si Si8 0.960557 0.777060 0.581813
O O1 0.365305 0.558420 0.690754
O O2 0.284422 0.307191 0.855322
O O3 0.165651 0.354166 0.513388
O O4 0.121212 0.388716 0.894950
O O5 0.165842 0.083813 0.688577
O O6 0.944302 0.097575 0.620538
O O7 0.910184 0.848747 0.707584
O O8 0.000000 0.000000 0.000000
O O9 0.039387 0.722585 0.749598
O O10 0.000000 0.500000 0.000000
O O11 0.150472 0.736874 0.124575
O O12 0.474052 0.172127 0.354695
O O13 0.388853 0.951037 0.227694
O O14 0.606974 0.189854 0.031099
O O15 0.343311 0.126657 0.995719
O O16 0.325973 0.705838 0.374706
O O17 0.562118 0.713916 0.387025
#
# Coordination Sequence:
#
# PCOD8014332 Si02
#       8
#     2   2   2   2   2   2   2   2
#     4  11  25  42  62  93 130 167 215 265 316 381
#     4  10  21  41  66  97 130 160 206 262 320 384
#     4  12  25  42  66  94 130 172 216 266 318 381
#     4  10  22  41  66  90 122 166 210 266 321 372
#     4  11  23  41  64  90 126 173 215 258 315 375
#     4  10  23  42  62  93 127 160 218 268 310 377
#     4  10  23  40  62  94 126 160 209 263 316 383
#     4  10  22  39  65  93 127 168 202 256 323 375
#
# _framework density 22.474716000000001
#
# number of rings (size 3 to 8) (size 9 to 14) (size 15 to 20)
#    0.000    1.500    0.000    4.500    0.000   10.500 
#    0.000    0.000    0.000    0.000    0.000    0.000 
#    0.000    0.000    0.000    0.000    0.000    0.000 
#
# Total GULP energy -198327.160644 kJ/mol
# GULP energy per Si atom -12395.447540 kJ/mol
# Density = 2.242356 g / cm^3
# Si number density = 22.474716 Si / 1000 Ang^3
#
#
#
# Elastic Constant Matrix: (Units=GPa)
#
#
# Indices 1 2 3 4 5 6 
#
# 1 95.4669 21.3634 28.3280 -6.7287 -2.3073 -16.0735
# 2 21.3634 90.3068 30.0436 -0.1589 -5.1972 -19.7908
# 3 28.3280 30.0436 108.8762 1.6476 -4.9161 -12.9969
# 4 -6.7287 -0.1589 1.6476 36.0413 -6.6503 3.0982
# 5 -2.3073 -5.1972 -4.9161 -6.6503 29.0681 1.8038
# 6 -16.0735 -19.7908 -12.9969 3.0982 1.8038 35.0193
#
#
#
# Elastic Compliance Matrix: (Units=1/GPa)
#
#
# Indices 1 2 3 4 5 6 
#
# 1 0.012275 -0.001227 -0.002404 0.002180 0.000610 0.003824
# 2 -0.001227 0.013672 -0.002652 -0.000308 0.001448 0.006132
# 3 -0.002404 -0.002652 0.010765 -0.000917 0.000857 0.001430
# 4 0.002180 -0.000308 -0.000917 0.029683 0.006909 -0.002496
# 5 0.000610 0.001448 0.000857 0.006909 0.036501 -0.001075
# 6 0.003824 0.006132 0.001430 -0.002496 -0.001075 0.034584
#
#
# Mechanical properties :
#
#
# Convention : Reuss Voigt Hill
#
# Bulk Modulus (GPa) = 41.41240 50.45776 45.93508
# Shear Modulus (GPa) = 31.62654 34.35339 32.98996
#
# Velocity S-wave (km/s) = 3.75534 3.91389 3.83544
# Velocity P-wave (km/s) = 6.10489 6.55167 6.33222
#
# Compressibility (1/GPa) = 0.02414736
#
# Stress axis : x y z
#
# Youngs Moduli (GPa) = 81.46604 73.14003 92.89124
#
# Poissons Ratio (x) = 0.08974 0.22333
# Poissons Ratio (y) = 0.09996 0.24630
# Poissons Ratio (z) = 0.19586 0.19393
#
# Static dielectric constant tensor:
#      x y z
#    x 4.137840 -0.033610 0.093800 
#    y -0.033610 4.191230 -0.101180 
#    z 0.093800 -0.101180 4.117380 
# 
# 
# High freq. dielectric constant tensor:
#      x y z
#    x 1.871860 -0.011990 0.008690 
#    y -0.011990 1.895520 -0.001850 
#    z 0.008690 -0.001850 1.895680 
# 
# From -- ./inp_files/69978.got.cif
#   From: 2010.06.25/outbox.cif.g09.slc.cpg/sg2_35_cif.got.tgz:69978.got - 2010.06.27 13:26:56.
