data_PCOD8014939
_publ_section_title
;
Structure prediction by ZEFSAII (Michael W. Deem and Ramdas Pophale) SiO2 
 PCOD8014939
Probable space group: P -1
;
_chemical_formula_sum "Si O2"
_cell_formula_units_Z 14
_cell_length_a 15.002569
_cell_length_b 7.447173
_cell_length_c 5.144108
_cell_angle_alpha 61.980928
_cell_angle_beta 91.888254
_cell_angle_gamma 85.746216
_cell_volume 504.470304
_symmetry_space_group_name_H-M "P -1"
_symmetry_group_IT_number 2
_symmetry_cell_setting 'triclinic'
loop_
_space_group_symop_operation_xyz
x,y,z
-x,-y,-z
loop_
_atom_site_type_symbol
_atom_site_label
_atom_site_fract_x
_atom_site_fract_y
_atom_site_fract_z
Si Si1 0.736033 0.694536 0.360955
Si Si2 0.917260 0.545625 0.278123
Si Si3 0.157725 0.036193 0.105720
Si Si4 0.485373 0.750188 0.915711
Si Si5 0.088579 0.862420 0.693142
Si Si6 0.642029 0.945942 0.596284
Si Si7 0.603077 0.362730 0.501520
O O1 0.829599 0.550332 0.455627
O O2 0.746287 0.866966 0.011566
O O3 0.726732 0.815385 0.552783
O O4 0.656310 0.555329 0.425087
O O5 0.919305 0.770442 0.996823
O O6 0.920218 0.379362 0.160596
O O7 0.000000 0.500000 0.500000
O O8 0.125641 0.907041 0.948777
O O9 0.164458 0.904393 0.456903
O O10 0.589393 0.795450 0.874339
O O11 0.454967 0.588968 0.802053
O O12 0.425661 0.967355 0.704247
O O13 0.467526 0.669624 0.256455
O O14 0.000000 0.000000 0.500000
O O15 0.668265 0.150468 0.613753
#
# Coordination Sequence:
#
# PCOD8014939 Si02
#       7
#     2   2   2   2   2   2   2
#     4  10  24  43  64  99 135 178 223 288 329 409
#     4  10  24  46  69 103 135 177 234 282 337 416
#     4  10  27  43  66 104 128 178 222 280 339 405
#     4   9  21  40  69  92 135 174 219 277 332 406
#     4  12  23  45  74  93 132 175 223 284 345 398
#     4   9  21  41  64  97 133 174 224 273 340 398
#     4  10  21  42  63  98 128 179 218 274 336 399
#
# _framework density 27.751881999999998
#
# number of rings (size 3 to 8) (size 9 to 14) (size 15 to 20)
#    1.714    0.286    1.429    0.857    2.000    5.143 
#    2.571    0.000    0.000    0.000    0.000    0.000 
#    0.000    0.000    0.000    0.000    0.000    0.000 
#
# Total GULP energy -173537.626389 kJ/mol
# GULP energy per Si atom -12395.544742 kJ/mol
# Density = 2.768872 g / cm^3
# Si number density = 27.751882 Si / 1000 Ang^3
#
#
#
# Elastic Constant Matrix: (Units=GPa)
#
#
# Indices 1 2 3 4 5 6 
#
# 1 69.6805 20.6247 15.1611 8.8944 0.8754 4.4117
# 2 20.6247 203.9788 29.3298 22.8940 -0.6076 8.5800
# 3 15.1611 29.3298 121.9790 3.9986 -19.3230 9.4187
# 4 8.8944 22.8940 3.9986 36.3567 -2.7313 -5.3379
# 5 0.8754 -0.6076 -19.3230 -2.7313 27.7382 -0.2855
# 6 4.4117 8.5800 9.4187 -5.3379 -0.2855 57.8076
#
#
#
# Elastic Compliance Matrix: (Units=1/GPa)
#
#
# Indices 1 2 3 4 5 6 
#
# 1 0.015543 -0.000888 -0.001867 -0.003357 -0.002152 -0.001071
# 2 -0.000888 0.005579 -0.001217 -0.003369 -0.001039 -0.000878
# 3 -0.001867 -0.001217 0.009904 0.000479 0.006967 -0.001212
# 4 -0.003357 -0.003369 0.000479 0.031181 0.003473 0.003575
# 5 -0.002152 -0.001039 0.006967 0.003473 0.041288 -0.000292
# 6 -0.001071 -0.000878 -0.001212 0.003575 -0.000292 0.018037
#
#
# Mechanical properties :
#
#
# Convention : Reuss Voigt Hill
#
# Bulk Modulus (GPa) = 43.32129 58.42993 50.87561
# Shear Modulus (GPa) = 36.45062 46.41536 41.43299
#
# Velocity S-wave (km/s) = 3.62808 4.09407 3.86810
# Velocity P-wave (km/s) = 5.76149 6.59156 6.19045
#
# Compressibility (1/GPa) = 0.02308334
#
# Stress axis : x y z
#
# Youngs Moduli (GPa) = 64.33563 179.23427 100.96605
#
# Poissons Ratio (x) = 0.15912 0.18846
# Poissons Ratio (y) = 0.05712 0.12292
# Poissons Ratio (z) = 0.12009 0.21821
#
# Static dielectric constant tensor:
#      x y z
#    x 5.205820 -0.245650 -0.306760 
#    y -0.245650 5.618730 -0.205690 
#    z -0.306760 -0.205690 4.987470 
# 
# 
# High freq. dielectric constant tensor:
#      x y z
#    x 2.126760 -0.006270 -0.004510 
#    y -0.006270 2.149430 -0.012070 
#    z -0.004510 -0.012070 2.124000 
# 
# From -- ./inp_files/89910.got.cif
#   From: 2010.06.25/outbox.cif.g09.slc.cpg/sg2_45_cif.got.tgz:89910.got - 2010.06.27 13:26:56.
