data_PCOD8014493
_publ_section_title
;
Structure prediction by ZEFSAII (Michael W. Deem and Ramdas Pophale) SiO2 
 PCOD8014493
Probable space group: P -1
;
_chemical_formula_sum "Si O2"
_cell_formula_units_Z 12
_cell_length_a 17.219838
_cell_length_b 5.364007
_cell_length_c 7.111340
_cell_angle_alpha 65.332050
_cell_angle_beta 112.166040
_cell_angle_gamma 130.109904
_cell_volume 450.936804
_symmetry_space_group_name_H-M "P -1"
_symmetry_group_IT_number 2
_symmetry_cell_setting 'triclinic'
loop_
_space_group_symop_operation_xyz
x,y,z
-x,-y,-z
loop_
_atom_site_type_symbol
_atom_site_label
_atom_site_fract_x
_atom_site_fract_y
_atom_site_fract_z
Si Si1 0.007840 0.857519 0.241639
Si Si2 0.877225 0.419813 0.740672
Si Si3 0.181473 0.784187 0.832428
Si Si4 0.725276 0.563250 0.505508
Si Si5 0.553926 0.323891 0.154279
Si Si6 0.346178 0.671948 0.098624
O O1 0.078993 0.718533 0.322852
O O2 0.891192 0.533254 0.275329
O O3 0.054104 0.166432 0.333349
O O4 0.000000 0.000000 0.000000
O O5 0.764286 0.318969 0.602995
O O6 0.873594 0.281640 0.992548
O O7 0.195200 0.094458 0.638865
O O8 0.292743 0.859407 0.940391
O O9 0.608509 0.386870 0.384632
O O10 0.719560 0.612732 0.711961
O O11 0.465275 0.927174 0.189008
O O12 0.500000 0.500000 0.000000
O O13 0.649152 0.483142 0.043330
#
# Coordination Sequence:
#
# PCOD8014493 Si02
#       6
#     2   2   2   2   2   2
#     4  10  21  43  71  99 143 190 233 289 347 416
#     4  10  24  43  68 105 141 188 239 286 349 421
#     4  10  21  41  67  99 137 183 231 288 352 412
#     4  11  24  43  70 104 138 181 233 293 352 421
#     4  11  23  46  71  94 136 182 229 290 357 421
#     4  10  24  45  66 102 134 178 236 288 352 423
#
# _framework density 26.611266000000001
#
# number of rings (size 3 to 8) (size 9 to 14) (size 15 to 20)
#    0.000    1.667    1.667    2.500    0.000    8.667 
#    3.000    0.000    0.000    0.000    0.000    0.000 
#    0.000    0.000    0.000    0.000    0.000    0.000 
#
# Total GULP energy -148663.579098 kJ/mol
# GULP energy per Si atom -12388.631591 kJ/mol
# Density = 2.655070 g / cm^3
# Si number density = 26.611266 Si / 1000 Ang^3
#
#
#
# Elastic Constant Matrix: (Units=GPa)
#
#
# Indices 1 2 3 4 5 6 
#
# 1 93.8750 12.0714 31.0910 -11.6907 1.5971 4.0014
# 2 12.0714 57.2485 17.6544 -17.4050 6.2901 9.8210
# 3 31.0910 17.6544 144.3427 -16.3951 6.6047 6.5100
# 4 -11.6907 -17.4050 -16.3951 37.0677 13.6909 5.8762
# 5 1.5971 6.2901 6.6047 13.6909 43.0024 -1.7460
# 6 4.0014 9.8210 6.5100 5.8762 -1.7460 38.0220
#
#
#
# Elastic Compliance Matrix: (Units=1/GPa)
#
#
# Indices 1 2 3 4 5 6 
#
# 1 0.011866 -0.000555 -0.002012 0.003216 -0.001127 -0.001310
# 2 -0.000555 0.025325 -0.000250 0.016530 -0.009291 -0.009421
# 3 -0.002012 -0.000250 0.008043 0.004011 -0.002475 -0.001834
# 4 0.003216 0.016530 0.004011 0.046469 -0.018489 -0.013326
# 5 -0.001127 -0.009291 -0.002475 -0.018489 0.031216 0.007233
# 6 -0.001310 -0.009421 -0.001834 -0.013326 0.007233 0.031578
#
#
# Mechanical properties :
#
#
# Convention : Reuss Voigt Hill
#
# Bulk Modulus (GPa) = 25.25344 46.34443 35.79893
# Shear Modulus (GPa) = 28.84664 39.26174 34.05419
#
# Velocity S-wave (km/s) = 3.29599 3.84523 3.58116
# Velocity P-wave (km/s) = 4.89848 6.09652 5.53004
#
# Compressibility (1/GPa) = 0.03959857
#
# Stress axis : x y z
#
# Youngs Moduli (GPa) = 84.27657 39.48734 124.32407
#
# Poissons Ratio (x) = 0.02193 0.25014
# Poissons Ratio (y) = 0.04681 0.03110
# Poissons Ratio (z) = 0.16957 0.00988
#
# Static dielectric constant tensor:
#      x y z
#    x 4.595950 -0.391700 0.051070 
#    y -0.391700 3.542840 -0.171250 
#    z 0.051070 -0.171250 4.985270 
# 
# 
# High freq. dielectric constant tensor:
#      x y z
#    x 2.059200 0.020470 0.009630 
#    y 0.020470 2.054810 0.006430 
#    z 0.009630 0.006430 2.088700 
# 
# From -- ./inp_files/322147.got.cif
#   From: 2010.06.25/outbox.cif.g09.slc.cpg/sg2_162_cif.got.tgz:322147.got - 2010.06.27 13:26:56.
