data_PCOD8014586
_publ_section_title
;
Structure prediction by ZEFSAII (Michael W. Deem and Ramdas Pophale) SiO2 
 PCOD8014586
Probable space group: P -1
;
_chemical_formula_sum "Si O2"
_cell_formula_units_Z 14
_cell_length_a 13.934378
_cell_length_b 10.783499
_cell_length_c 10.736087
_cell_angle_alpha 144.862253
_cell_angle_beta 42.634881
_cell_angle_gamma 121.348728
_cell_volume 615.026382
_symmetry_space_group_name_H-M "P -1"
_symmetry_group_IT_number 2
_symmetry_cell_setting 'triclinic'
loop_
_space_group_symop_operation_xyz
x,y,z
-x,-y,-z
loop_
_atom_site_type_symbol
_atom_site_label
_atom_site_fract_x
_atom_site_fract_y
_atom_site_fract_z
Si Si1 0.886055 0.204585 0.226653
Si Si2 0.340328 0.622631 0.213914
Si Si3 0.401200 0.799565 0.048848
Si Si4 0.697854 0.768092 0.641291
Si Si5 0.830299 0.395832 0.029740
Si Si6 0.917281 0.463125 0.742516
Si Si7 0.096609 0.004952 0.216222
O O1 0.740750 0.252470 0.486684
O O2 0.962716 0.415509 0.328299
O O3 0.839193 0.145499 0.085760
O O4 0.000000 0.000000 0.000000
O O5 0.361327 0.793360 0.226636
O O6 0.236651 0.465275 0.125136
O O7 0.500000 0.500000 0.000000
O O8 0.316856 0.658754 0.926649
O O9 0.366939 0.056615 0.258724
O O10 0.569034 0.690479 0.774498
O O11 0.784127 0.866074 0.745098
O O12 0.801331 0.561666 0.308698
O O13 0.905486 0.508415 0.939679
O O14 0.935614 0.166571 0.787578
O O15 0.957511 0.194033 0.466952
#
# Coordination Sequence:
#
# PCOD8014586 Si02
#       7
#     2   2   2   2   2   2   2
#     4  12  27  46  72  98 140 189 231 278 342 408
#     4  11  26  47  72  98 140 183 235 282 333 410
#     4   9  22  42  65  99 142 176 224 285 346 405
#     4  10  21  41  69 101 139 176 221 289 349 400
#     4  10  22  40  72 103 131 177 227 286 349 409
#     4  11  25  46  71 100 140 178 227 291 344 400
#     4  11  24  41  70 102 138 173 231 278 345 405
#
# _framework density 22.763249999999999
#
# number of rings (size 3 to 8) (size 9 to 14) (size 15 to 20)
#    0.000    1.429    1.429    2.143    6.000    3.429 
#    5.143    1.429    0.000    0.000    0.000    0.000 
#    0.000    0.000    0.000    0.000    0.000    0.000 
#
# Total GULP energy -173567.559811 kJ/mol
# GULP energy per Si atom -12397.682844 kJ/mol
# Density = 2.271144 g / cm^3
# Si number density = 22.763250 Si / 1000 Ang^3
#
#
#
# Elastic Constant Matrix: (Units=GPa)
#
#
# Indices 1 2 3 4 5 6 
#
# 1 122.9379 45.5902 56.1890 -3.7918 1.0473 3.8949
# 2 45.5902 99.9211 40.6362 -14.8029 2.5036 -0.3431
# 3 56.1890 40.6362 126.2887 -14.5755 4.8769 1.2517
# 4 -3.7918 -14.8029 -14.5755 36.8683 -2.2139 -0.3383
# 5 1.0473 2.5036 4.8769 -2.2139 37.8488 -1.9405
# 6 3.8949 -0.3431 1.2517 -0.3383 -1.9405 29.3493
#
#
#
# Elastic Compliance Matrix: (Units=1/GPa)
#
#
# Indices 1 2 3 4 5 6 
#
# 1 0.011398 -0.003856 -0.004056 -0.001975 0.000275 -0.001389
# 2 -0.003856 0.013221 -0.002066 0.004089 -0.000222 0.000787
# 3 -0.004056 -0.002066 0.010765 0.002952 -0.000964 0.000025
# 4 -0.001975 0.004089 0.002952 0.029805 0.001178 0.000605
# 5 0.000275 -0.000222 -0.000964 0.001178 0.026713 0.001782
# 6 -0.001389 0.000787 0.000025 0.000605 0.001782 0.034390
#
#
# Mechanical properties :
#
#
# Convention : Reuss Voigt Hill
#
# Bulk Modulus (GPa) = 64.80752 70.44208 67.62480
# Shear Modulus (GPa) = 33.02713 34.59544 33.81128
#
# Velocity S-wave (km/s) = 3.81320 3.90268 3.85820
# Velocity P-wave (km/s) = 6.92238 7.16384 7.04414
#
# Compressibility (1/GPa) = 0.01543031
#
# Stress axis : x y z
#
# Youngs Moduli (GPa) = 87.73174 75.63532 92.89120
#
# Poissons Ratio (x) = 0.29162 0.37673
# Poissons Ratio (y) = 0.33826 0.19192
# Poissons Ratio (z) = 0.35581 0.15627
#
# Static dielectric constant tensor:
#      x y z
#    x 4.443040 -0.253170 0.097020 
#    y -0.253170 4.266680 -0.143510 
#    z 0.097020 -0.143510 4.137280 
# 
# 
# High freq. dielectric constant tensor:
#      x y z
#    x 1.912100 -0.007970 0.003410 
#    y -0.007970 1.901800 -0.009880 
#    z 0.003410 -0.009880 1.885730 
# 
# From -- ./inp_files/451967.got.cif
#   From: 2010.06.25/outbox.cif.g09.slc.cpg/sg2_226_cif.got.tgz:451967.got - 2010.06.27 13:26:56.
