data_PCOD8014552
_publ_section_title
;
Structure prediction by ZEFSAII (Michael W. Deem and Ramdas Pophale) SiO2 
 PCOD8014552
Probable space group: P -1
;
_chemical_formula_sum "Si O2"
_cell_formula_units_Z 14
_cell_length_a 9.387567
_cell_length_b 9.316750
_cell_length_c 12.978622
_cell_angle_alpha 129.078189
_cell_angle_beta 92.064109
_cell_angle_gamma 117.587732
_cell_volume 686.568071
_symmetry_space_group_name_H-M "P -1"
_symmetry_group_IT_number 2
_symmetry_cell_setting 'triclinic'
loop_
_space_group_symop_operation_xyz
x,y,z
-x,-y,-z
loop_
_atom_site_type_symbol
_atom_site_label
_atom_site_fract_x
_atom_site_fract_y
_atom_site_fract_z
Si Si1 0.390255 0.988260 0.207875
Si Si2 0.604652 0.417923 0.020127
Si Si3 0.203373 0.812528 0.425538
Si Si4 0.030208 0.785136 0.203375
Si Si5 0.461055 0.721326 0.448767
Si Si6 0.546317 0.396443 0.250436
Si Si7 0.936791 0.827091 0.517185
O O1 0.487696 0.175736 0.388257
O O2 0.445160 0.130696 0.167136
O O3 0.168371 0.814589 0.134587
O O4 0.462060 0.835273 0.138511
O O5 0.560143 0.399757 0.130300
O O6 0.820072 0.597643 0.081791
O O7 0.500000 0.500000 0.000000
O O8 0.069028 0.705809 0.274961
O O9 0.272153 0.661911 0.381219
O O10 0.093203 0.796137 0.516193
O O11 0.375088 0.087902 0.536916
O O12 0.074337 0.041414 0.328151
O O13 0.430799 0.478754 0.325367
O O14 0.746423 0.569606 0.382842
O O15 0.000000 0.000000 0.500000
#
# Coordination Sequence:
#
# PCOD8014552 Si02
#       7
#     2   2   2   2   2   2   2
#     4  11  25  41  63  95 132 165 196 257 328 372
#     4  12  27  42  67  90 122 170 220 253 296 382
#     4   9  17  32  61  95 120 151 209 261 290 353
#     4  10  20  40  65  88 123 164 215 249 309 366
#     4  10  20  34  66  93 122 154 212 253 304 362
#     4  12  22  43  64  92 132 163 199 264 324 359
#     4  10  16  34  65  90 114 166 205 251 305 366
#
# _framework density 20.391276999999999
#
# number of rings (size 3 to 8) (size 9 to 14) (size 15 to 20)
#    0.000    1.429    7.143    1.286    8.000    0.000 
#    0.000    2.857    0.000    0.000    0.000    0.000 
#    0.000    0.000    0.000    0.000    0.000    0.000 
#
# Total GULP energy -173544.412643 kJ/mol
# GULP energy per Si atom -12396.029475 kJ/mol
# Density = 2.034487 g / cm^3
# Si number density = 20.391277 Si / 1000 Ang^3
#
#
#
# Elastic Constant Matrix: (Units=GPa)
#
#
# Indices 1 2 3 4 5 6 
#
# 1 161.0252 52.1378 44.2137 12.4731 -8.0760 -16.4734
# 2 52.1378 91.2685 31.0820 10.2310 -5.3545 -3.1927
# 3 44.2137 31.0820 65.5179 1.6550 -16.2976 -0.6460
# 4 12.4731 10.2310 1.6550 15.8137 -2.0461 -7.3685
# 5 -8.0760 -5.3545 -16.2976 -2.0461 41.3278 -1.3391
# 6 -16.4734 -3.1927 -0.6460 -7.3685 -1.3391 20.3066
#
#
#
# Elastic Compliance Matrix: (Units=1/GPa)
#
#
# Indices 1 2 3 4 5 6 
#
# 1 0.009342 -0.003327 -0.004705 -0.001880 -0.000353 0.006200
# 2 -0.003327 0.015393 -0.005185 -0.008663 -0.001248 -0.003670
# 3 -0.004705 -0.005185 0.022629 0.004909 0.007523 -0.001635
# 4 -0.001880 -0.008663 0.004909 0.083541 0.005488 0.027945
# 5 -0.000353 -0.001248 0.007523 0.005488 0.027319 0.003549
# 6 0.006200 -0.003670 -0.001635 0.027945 0.003549 0.064020
#
#
# Mechanical properties :
#
#
# Convention : Reuss Voigt Hill
#
# Bulk Modulus (GPa) = 47.78014 63.63094 55.70554
# Shear Modulus (GPa) = 19.55773 28.18151 23.86962
#
# Velocity S-wave (km/s) = 3.10033 3.72161 3.42509
# Velocity P-wave (km/s) = 6.02483 7.05265 6.55891
#
# Compressibility (1/GPa) = 0.02092920
#
# Stress axis : x y z
#
# Youngs Moduli (GPa) = 107.04886 64.96604 44.19154
#
# Poissons Ratio (x) = 0.21616 0.20791
# Poissons Ratio (y) = 0.35618 0.22913
# Poissons Ratio (z) = 0.50363 0.33684
#
# Static dielectric constant tensor:
#      x y z
#    x 4.416570 0.051030 -0.302300 
#    y 0.051030 3.404330 0.016490 
#    z -0.302300 0.016490 3.551190 
# 
# 
# High freq. dielectric constant tensor:
#      x y z
#    x 1.823240 0.007000 -0.017800 
#    y 0.007000 1.760730 0.004240 
#    z -0.017800 0.004240 1.774460 
# 
# From -- ./inp_files/495737.got.cif
#   From: 2010.06.25/outbox.cif.g09.slc.cpg/sg2_248_cif.got.tgz:495737.got - 2010.06.27 13:26:56.
