data_PCOD8014579
_publ_section_title
;
Structure prediction by ZEFSAII (Michael W. Deem and Ramdas Pophale) SiO2 
 PCOD8014579
Probable space group: P -1
;
_chemical_formula_sum "Si O2"
_cell_formula_units_Z 12
_cell_length_a 7.429185
_cell_length_b 9.195030
_cell_length_c 10.568475
_cell_angle_alpha 86.343815
_cell_angle_beta 137.590250
_cell_angle_gamma 111.973502
_cell_volume 424.671111
_symmetry_space_group_name_H-M "P -1"
_symmetry_group_IT_number 2
_symmetry_cell_setting 'triclinic'
loop_
_space_group_symop_operation_xyz
x,y,z
-x,-y,-z
loop_
_atom_site_type_symbol
_atom_site_label
_atom_site_fract_x
_atom_site_fract_y
_atom_site_fract_z
Si Si1 0.766281 0.277466 0.118369
Si Si2 0.355008 0.542146 0.303449
Si Si3 0.242017 0.999848 0.724063
Si Si4 0.150734 0.771586 0.286072
Si Si5 0.453825 0.382670 0.140385
Si Si6 0.569618 0.896876 0.713013
O O1 0.742822 0.387323 0.218453
O O2 0.994748 0.401036 0.123893
O O3 0.907590 0.161868 0.251328
O O4 0.421636 0.170143 0.889008
O O5 0.500000 0.500000 0.500000
O O6 0.367113 0.721149 0.316005
O O7 0.523192 0.539171 0.259856
O O8 0.513609 0.986394 0.796851
O O9 0.000000 0.000000 0.500000
O O10 0.247484 0.777355 0.481584
O O11 0.200932 0.956455 0.269426
O O12 0.795556 0.634733 0.093049
O O13 0.294215 0.219491 0.159905
#
# Coordination Sequence:
#
# PCOD8014579 Si02
#       6
#     2   2   2   2   2   2
#     4  10  25  44  67 102 136 174 227 277 334 400
#     4  12  26  46  67  99 143 181 220 277 339 401
#     4  10  21  41  69 100 134 175 222 283 335 392
#     4  11  23  41  67  99 134 178 225 273 340 397
#     4  11  23  45  69  95 132 176 225 284 328 393
#     4  10  22  40  66 100 129 177 228 271 333 400
#
# _framework density 28.257159999999999
#
# number of rings (size 3 to 8) (size 9 to 14) (size 15 to 20)
#    0.000    1.333    1.667    3.000    2.333    4.000 
#    0.000    0.000    0.000    0.000    0.000    0.000 
#    0.000    0.000    0.000    0.000    0.000    0.000 
#
# Total GULP energy -148761.196757 kJ/mol
# GULP energy per Si atom -12396.766396 kJ/mol
# Density = 2.819285 g / cm^3
# Si number density = 28.257160 Si / 1000 Ang^3
#
#
#
# Elastic Constant Matrix: (Units=GPa)
#
#
# Indices 1 2 3 4 5 6 
#
# 1 77.3720 0.1066 -7.2019 16.9329 -21.2498 -23.5530
# 2 0.1066 109.1758 -0.1261 -12.0873 -3.5688 -10.1559
# 3 -7.2019 -0.1261 112.7667 -15.5513 -11.5937 -2.6273
# 4 16.9329 -12.0873 -15.5513 34.7102 -8.8061 -3.6054
# 5 -21.2498 -3.5688 -11.5937 -8.8061 38.0072 5.5301
# 6 -23.5530 -10.1559 -2.6273 -3.6054 5.5301 43.9417
#
#
#
# Elastic Compliance Matrix: (Units=1/GPa)
#
#
# Indices 1 2 3 4 5 6 
#
# 1 0.019451 0.000520 0.001620 -0.005394 0.008846 0.009087
# 2 0.000520 0.009981 0.000947 0.004478 0.002156 0.002738
# 3 0.001620 0.000947 0.010325 0.005650 0.005234 0.001510
# 4 -0.005394 0.004478 0.005650 0.037558 0.007745 0.000589
# 5 0.008846 0.002156 0.005234 0.007745 0.034583 0.001836
# 6 0.009087 0.002738 0.001510 0.000589 0.001836 0.028169
#
#
# Mechanical properties :
#
#
# Convention : Reuss Voigt Hill
#
# Bulk Modulus (GPa) = 21.77115 31.65242 26.71178
# Shear Modulus (GPa) = 33.51175 43.76753 38.63964
#
# Velocity S-wave (km/s) = 3.44751 3.93988 3.70189
# Velocity P-wave (km/s) = 4.85473 5.65002 5.26741
#
# Compressibility (1/GPa) = 0.04593235
#
# Stress axis : x y z
#
# Youngs Moduli (GPa) = 51.41174 100.18929 96.85385
#
# Poissons Ratio (x) = -0.05212 -0.15692
# Poissons Ratio (y) = -0.02674 -0.09176
# Poissons Ratio (z) = -0.08330 -0.09492
#
# Static dielectric constant tensor:
#      x y z
#    x 4.736010 -0.242140 -0.323540 
#    y -0.242140 5.523000 -0.125670 
#    z -0.323540 -0.125670 5.017720 
# 
# 
# High freq. dielectric constant tensor:
#      x y z
#    x 2.118810 -0.017290 -0.023560 
#    y -0.017290 2.158290 -0.013630 
#    z -0.023560 -0.013630 2.139170 
# 
# From -- ./inp_files/157792.got.cif
#   From: 2010.06.25/outbox.cif.g09.slc.cpg/sg2_79_cif.got.tgz:157792.got - 2010.06.27 13:26:56.
