data_PCOD8014647
_publ_section_title
;
Structure prediction by ZEFSAII (Michael W. Deem and Ramdas Pophale) SiO2 
 PCOD8014647
Probable space group: P -1
;
_chemical_formula_sum "Si O2"
_cell_formula_units_Z 16
_cell_length_a 8.986716
_cell_length_b 8.650245
_cell_length_c 16.682525
_cell_angle_alpha 36.374331
_cell_angle_beta 102.533346
_cell_angle_gamma 107.223547
_cell_volume 734.096324
_symmetry_space_group_name_H-M "P -1"
_symmetry_group_IT_number 2
_symmetry_cell_setting 'triclinic'
loop_
_space_group_symop_operation_xyz
x,y,z
-x,-y,-z
loop_
_atom_site_type_symbol
_atom_site_label
_atom_site_fract_x
_atom_site_fract_y
_atom_site_fract_z
Si Si1 0.885704 0.111734 0.609896
Si Si2 0.840564 0.931284 0.960714
Si Si3 0.679715 0.963502 0.230326
Si Si4 0.990440 0.192429 0.119624
Si Si5 0.420051 0.195751 0.355868
Si Si6 0.202344 0.456069 0.476802
Si Si7 0.631911 0.329191 0.748282
Si Si8 0.592638 0.415380 0.123856
O O1 0.795062 0.259542 0.601396
O O2 0.021975 0.319139 0.493574
O O3 0.760501 0.953178 0.600197
O O4 0.968992 0.898983 0.749980
O O5 0.889329 0.895664 0.890045
O O6 0.764052 0.186633 0.858465
O O7 0.712365 0.661694 0.077855
O O8 0.000000 0.000000 0.000000
O O9 0.810841 0.046245 0.141497
O O10 0.694809 0.210193 0.190278
O O11 0.708355 0.702450 0.386732
O O12 0.510525 0.907890 0.194090
O O13 0.000000 0.500000 0.000000
O O14 0.434102 0.486460 0.274017
O O15 0.480379 0.255316 0.246699
O O16 0.500000 0.000000 0.500000
O O17 0.299236 0.486518 0.394518
O O18 0.500000 0.500000 0.000000
#
# Coordination Sequence:
#
# PCOD8014647 Si02
#       8
#     2   2   2   2   2   2   2   2
#     4  10  22  42  69  97 136 183 235 284 348 429
#     4  12  28  43  67 103 141 183 230 296 354 414
#     4  11  23  40  75  98 131 183 240 284 346 427
#     4  11  23  43  70  99 131 182 239 287 349 421
#     4  12  28  44  70 106 146 183 231 298 361 413
#     4  10  21  41  69  98 128 180 238 285 343 423
#     4  12  25  43  67 102 143 183 227 297 353 417
#     4  12  25  48  72 100 141 189 237 286 347 429
#
# _framework density 21.795506
#
# number of rings (size 3 to 8) (size 9 to 14) (size 15 to 20)
#    0.000    0.750    3.750    3.375    3.500    2.000 
#    0.000    0.000    0.000    0.000    0.000    0.000 
#    0.000    0.000    0.000    0.000    0.000    0.000 
#
# Total GULP energy -198365.190115 kJ/mol
# GULP energy per Si atom -12397.824382 kJ/mol
# Density = 2.174590 g / cm^3
# Si number density = 21.795506 Si / 1000 Ang^3
#
#
#
# Elastic Constant Matrix: (Units=GPa)
#
#
# Indices 1 2 3 4 5 6 
#
# 1 111.7233 30.6287 43.1080 -3.1637 6.6997 10.5745
# 2 30.6287 90.3159 32.7675 -16.1615 11.4039 12.9086
# 3 43.1080 32.7675 109.5019 -11.8906 10.9336 2.8520
# 4 -3.1637 -16.1615 -11.8906 31.6554 -5.7239 7.3248
# 5 6.6997 11.4039 10.9336 -5.7239 41.3370 -3.7682
# 6 10.5745 12.9086 2.8520 7.3248 -3.7682 54.0794
#
#
#
# Elastic Compliance Matrix: (Units=1/GPa)
#
#
# Indices 1 2 3 4 5 6 
#
# 1 0.011167 -0.002431 -0.003734 -0.001318 -0.000449 -0.001259
# 2 -0.002431 0.014908 -0.002393 0.006961 -0.002493 -0.004073
# 3 -0.003734 -0.002393 0.011729 0.002489 -0.001470 0.000243
# 4 -0.001318 0.006961 0.002489 0.037866 0.002285 -0.006505
# 5 -0.000449 -0.002493 -0.001470 0.002285 0.025863 0.002253
# 6 -0.001259 -0.004073 0.000243 -0.006505 0.002253 0.020735
#
#
# Mechanical properties :
#
#
# Convention : Reuss Voigt Hill
#
# Bulk Modulus (GPa) = 48.34011 58.28328 53.31170
# Shear Modulus (GPa) = 34.18134 39.08347 36.63241
#
# Velocity S-wave (km/s) = 3.96444 4.23920 4.10412
# Velocity P-wave (km/s) = 6.57136 7.12461 6.85357
#
# Compressibility (1/GPa) = 0.02068675
#
# Stress axis : x y z
#
# Youngs Moduli (GPa) = 89.55156 67.07997 85.25887
#
# Poissons Ratio (x) = 0.16310 0.31835
# Poissons Ratio (y) = 0.21774 0.20401
# Poissons Ratio (z) = 0.33438 0.16051
#
# Static dielectric constant tensor:
#      x y z
#    x 4.287940 0.012430 -0.064580 
#    y 0.012430 3.844440 -0.191740 
#    z -0.064580 -0.191740 3.856460 
# 
# 
# High freq. dielectric constant tensor:
#      x y z
#    x 1.880040 0.003930 0.003670 
#    y 0.003930 1.846820 -0.023780 
#    z 0.003670 -0.023780 1.856630 
# 
# From -- ./inp_files/278580.got.cif
#   From: 2010.06.25/outbox.cif.g09.slc.cpg/sg2_140_cif.got.tgz:278580.got - 2010.06.27 13:26:56.
