data_PCOD8014467
_publ_section_title
;
Structure prediction by ZEFSAII (Michael W. Deem and Ramdas Pophale) SiO2 
 PCOD8014467
Probable space group: P -1
;
_chemical_formula_sum "Si O2"
_cell_formula_units_Z 16
_cell_length_a 23.018219
_cell_length_b 7.936196
_cell_length_c 9.009774
_cell_angle_alpha 54.002286
_cell_angle_beta 32.052078
_cell_angle_gamma 53.134250
_cell_volume 686.513922
_symmetry_space_group_name_H-M "P -1"
_symmetry_group_IT_number 2
_symmetry_cell_setting 'triclinic'
loop_
_space_group_symop_operation_xyz
x,y,z
-x,-y,-z
loop_
_atom_site_type_symbol
_atom_site_label
_atom_site_fract_x
_atom_site_fract_y
_atom_site_fract_z
Si Si1 0.401811 0.146143 0.733086
Si Si2 0.892273 0.006420 0.423894
Si Si3 0.840796 0.775284 0.925946
Si Si4 0.331426 0.663540 0.280524
Si Si5 0.787543 0.699775 0.384655
Si Si6 0.604664 0.852606 0.924071
Si Si7 0.989945 0.665165 0.148972
Si Si8 0.505244 0.487062 0.241686
O O1 0.384502 0.057945 0.980351
O O2 0.445194 0.362730 0.552413
O O3 0.500000 0.000000 0.500000
O O4 0.282193 0.210548 0.880315
O O5 0.762945 0.118362 0.611564
O O6 0.902577 0.926986 0.616071
O O7 0.929039 0.793893 0.355528
O O8 0.966535 0.174788 0.139864
O O9 0.912203 0.527648 0.901586
O O10 0.822451 0.847133 0.101504
O O11 0.276284 0.462213 0.472451
O O12 0.406431 0.637318 0.279695
O O13 0.411628 0.685254 0.956614
O O14 0.899822 0.572975 0.294645
O O15 0.712678 0.854867 0.587295
O O16 0.582487 0.614810 0.096769
O O17 0.500000 0.000000 0.000000
#
# Coordination Sequence:
#
# PCOD8014467 Si02
#       8
#     2   2   2   2   2   2   2   2
#     4  12  24  43  69 102 135 176 226 276 336 412
#     4  11  24  42  69  98 128 182 232 273 339 398
#     4  12  24  43  71  97 135 176 228 278 335 400
#     4  10  21  41  67  97 133 181 219 278 340 396
#     4  11  23  45  66  96 137 179 221 281 339 392
#     4  11  26  41  67 100 135 176 221 279 340 406
#     4  11  25  45  67  96 139 177 227 285 335 395
#     4  10  22  40  67  95 139 176 221 277 343 396
#
# _framework density 23.306156999999999
#
# number of rings (size 3 to 8) (size 9 to 14) (size 15 to 20)
#    0.000    1.000    2.500    3.375    7.000    0.500 
#    0.000    0.000    0.000    0.000    0.000    0.000 
#    0.000    0.000    0.000    0.000    0.000    0.000 
#
# Total GULP energy -198311.197425 kJ/mol
# GULP energy per Si atom -12394.449839 kJ/mol
# Density = 2.325311 g / cm^3
# Si number density = 23.306157 Si / 1000 Ang^3
#
#
#
# Elastic Constant Matrix: (Units=GPa)
#
#
# Indices 1 2 3 4 5 6 
#
# 1 111.6206 35.1272 49.3821 30.9082 13.3639 -14.9028
# 2 35.1272 85.6182 56.4788 35.6010 16.7004 -19.8786
# 3 49.3821 56.4788 133.7435 14.9794 33.5576 -15.9447
# 4 30.9082 35.6010 14.9794 45.3306 -0.9012 -6.1844
# 5 13.3639 16.7004 33.5576 -0.9012 48.5719 1.5255
# 6 -14.9028 -19.8786 -15.9447 -6.1844 1.5255 35.5985
#
#
#
# Elastic Compliance Matrix: (Units=1/GPa)
#
#
# Indices 1 2 3 4 5 6 
#
# 1 0.013159 0.001953 -0.003798 -0.008819 -0.001940 0.003449
# 2 0.001953 0.026833 -0.007527 -0.018739 -0.005206 0.009398
# 3 -0.003798 -0.007527 0.013043 0.004223 -0.005332 0.001011
# 4 -0.008819 -0.018739 0.004223 0.040785 0.006881 -0.005474
# 5 -0.001940 -0.005206 -0.005332 0.006881 0.026914 -0.006065
# 6 0.003449 0.009398 0.001011 -0.005474 -0.006065 0.034545
#
#
# Mechanical properties :
#
#
# Convention : Reuss Voigt Hill
#
# Bulk Modulus (GPa) = 29.16152 68.10648 48.63400
# Shear Modulus (GPa) = 26.96084 38.56648 32.76366
#
# Velocity S-wave (km/s) = 3.40488 4.07231 3.75346
# Velocity P-wave (km/s) = 5.29124 7.16921 6.30058
#
# Compressibility (1/GPa) = 0.03429177
#
# Stress axis : x y z
#
# Youngs Moduli (GPa) = 75.99104 37.26713 76.66819
#
# Poissons Ratio (x) = -0.07276 0.29115
# Poissons Ratio (y) = -0.14837 0.57708
# Poissons Ratio (z) = 0.28858 0.28051
#
# Static dielectric constant tensor:
#      x y z
#    x 4.749810 0.476980 0.010880 
#    y 0.476980 4.516190 -0.056120 
#    z 0.010880 -0.056120 4.651680 
# 
# 
# High freq. dielectric constant tensor:
#      x y z
#    x 1.915330 -0.003220 -0.001920 
#    y -0.003220 1.914920 0.007280 
#    z -0.001920 0.007280 1.949040 
# 
# From -- ./inp_files/299464.got.cif
#   From: 2010.06.25/outbox.cif.g09.slc.cpg/sg2_150_cif.got.tgz:299464.got - 2010.06.27 13:26:56.
