data_PCOD8014408
_publ_section_title
;
Structure prediction by ZEFSAII (Michael W. Deem and Ramdas Pophale) SiO2 
 PCOD8014408
Probable space group: P -1
;
_chemical_formula_sum "Si O2"
_cell_formula_units_Z 12
_cell_length_a 13.098196
_cell_length_b 8.913495
_cell_length_c 12.912731
_cell_angle_alpha 71.350183
_cell_angle_beta 148.519347
_cell_angle_gamma 125.778185
_cell_volume 579.022972
_symmetry_space_group_name_H-M "P -1"
_symmetry_group_IT_number 2
_symmetry_cell_setting 'triclinic'
loop_
_space_group_symop_operation_xyz
x,y,z
-x,-y,-z
loop_
_atom_site_type_symbol
_atom_site_label
_atom_site_fract_x
_atom_site_fract_y
_atom_site_fract_z
Si Si1 0.384775 0.070993 0.185584
Si Si2 0.328176 0.404854 0.074477
Si Si3 0.058335 0.351527 0.055737
Si Si4 0.907551 0.169295 0.592473
Si Si5 0.123365 0.233755 0.554951
Si Si6 0.963185 0.835318 0.726831
O O1 0.392213 0.255538 0.188135
O O2 0.661778 0.143096 0.411340
O O3 0.201606 0.876131 0.146836
O O4 0.261172 0.000044 0.978492
O O5 0.576290 0.621317 0.200860
O O6 0.115291 0.319951 0.823457
O O7 0.247815 0.444192 0.103732
O O8 0.000000 0.500000 0.000000
O O9 0.181210 0.331844 0.268956
O O10 0.005475 0.271783 0.540198
O O11 0.844425 0.950169 0.588931
O O12 0.063623 0.275491 0.379921
O O13 0.000000 0.000000 0.500000
#
# Coordination Sequence:
#
# PCOD8014408 Si02
#       6
#     2   2   2   2   2   2
#     4   9  22  42  63  97 125 165 209 257 318 374
#     4  11  23  42  64  94 132 163 211 262 314 373
#     4  10  23  42  66  96 127 164 211 261 319 375
#     4  10  21  41  67  92 128 170 209 253 319 376
#     4  10  22  40  66  92 128 171 208 261 313 368
#     4   8  21  41  60  96 127 165 204 265 308 366
#
# _framework density 20.724567
#
# number of rings (size 3 to 8) (size 9 to 14) (size 15 to 20)
#    1.000    1.333    0.000    1.000    4.667    4.000 
#    0.000    1.667    0.000    0.000    0.000    0.000 
#    0.000    0.000    0.000    0.000    0.000    0.000 
#
# Total GULP energy -148701.015941 kJ/mol
# GULP energy per Si atom -12391.751328 kJ/mol
# Density = 2.067740 g / cm^3
# Si number density = 20.724567 Si / 1000 Ang^3
#
#
#
# Elastic Constant Matrix: (Units=GPa)
#
#
# Indices 1 2 3 4 5 6 
#
# 1 104.8265 44.3236 23.1841 -5.9612 6.4670 0.0147
# 2 44.3236 59.1102 26.8832 9.6263 2.5039 -13.5893
# 3 23.1841 26.8832 71.9858 -5.7205 7.9952 -9.3023
# 4 -5.9612 9.6263 -5.7205 27.2076 10.6208 4.0412
# 5 6.4670 2.5039 7.9952 10.6208 44.8989 -6.3406
# 6 0.0147 -13.5893 -9.3023 4.0412 -6.3406 31.2818
#
#
#
# Elastic Compliance Matrix: (Units=1/GPa)
#
#
# Indices 1 2 3 4 5 6 
#
# 1 0.019123 -0.020411 0.002083 0.016589 -0.007597 -0.011940
# 2 -0.020411 0.048327 -0.012491 -0.033188 0.013761 0.024366
# 3 0.002083 -0.012491 0.019173 0.011666 -0.006127 -0.002475
# 4 0.016589 -0.033188 0.011666 0.066642 -0.021766 -0.023977
# 5 -0.007597 0.013761 -0.006127 -0.021766 0.030702 0.013195
# 6 -0.011940 0.024366 -0.002475 -0.023977 0.013195 0.047594
#
#
# Mechanical properties :
#
#
# Convention : Reuss Voigt Hill
#
# Bulk Modulus (GPa) = 40.02433 47.18935 43.60684
# Shear Modulus (GPa) = 16.58211 30.11311 23.34761
#
# Velocity S-wave (km/s) = 2.83171 3.81598 3.36008
# Velocity P-wave (km/s) = 5.48141 6.49883 6.01168
#
# Compressibility (1/GPa) = 0.02498480
#
# Stress axis : x y z
#
# Youngs Moduli (GPa) = 52.29286 20.69221 52.15549
#
# Poissons Ratio (x) = 0.42235 -0.10863
# Poissons Ratio (y) = 1.06736 0.65148
# Poissons Ratio (z) = -0.10892 0.25847
#
# Static dielectric constant tensor:
#      x y z
#    x 3.779490 0.228100 -0.260780 
#    y 0.228100 3.733020 -0.083870 
#    z -0.260780 -0.083870 3.908580 
# 
# 
# High freq. dielectric constant tensor:
#      x y z
#    x 1.803310 0.008510 -0.010010 
#    y 0.008510 1.802290 0.005560 
#    z -0.010010 0.005560 1.810450 
# 
# From -- ./inp_files/172759.got.cif
#   From: 2010.06.25/outbox.cif.g09.slc.cpg/sg2_87_cif.got.tgz:172759.got - 2010.06.27 13:26:56.
