data_PCOD8014832
_publ_section_title
;
Structure prediction by ZEFSAII (Michael W. Deem and Ramdas Pophale) SiO2 
 PCOD8014832
Probable space group: P -1
;
_chemical_formula_sum "Si O2"
_cell_formula_units_Z 16
_cell_length_a 13.834637
_cell_length_b 11.980414
_cell_length_c 13.987689
_cell_angle_alpha 85.019304
_cell_angle_beta 150.002327
_cell_angle_gamma 115.822837
_cell_volume 797.041381
_symmetry_space_group_name_H-M "P -1"
_symmetry_group_IT_number 2
_symmetry_cell_setting 'triclinic'
loop_
_space_group_symop_operation_xyz
x,y,z
-x,-y,-z
loop_
_atom_site_type_symbol
_atom_site_label
_atom_site_fract_x
_atom_site_fract_y
_atom_site_fract_z
Si Si1 0.920402 0.700333 0.088520
Si Si2 0.825530 0.621565 0.279742
Si Si3 0.289907 0.444213 0.604275
Si Si4 0.999189 0.473541 0.721260
Si Si5 0.308639 0.722892 0.117598
Si Si6 0.175405 0.342314 0.211292
Si Si7 0.202814 0.206683 0.412478
Si Si8 0.141144 0.940016 0.415289
O O1 0.078977 0.649904 0.253413
O O2 0.096610 0.873718 0.274966
O O3 0.620291 0.564345 0.895498
O O4 0.882562 0.709291 0.944477
O O5 0.886443 0.627495 0.443308
O O6 0.925158 0.555973 0.310384
O O7 0.982504 0.800619 0.368507
O O8 0.500000 0.500000 0.000000
O O9 0.153762 0.289566 0.435332
O O10 0.259702 0.551743 0.517937
O O11 0.253456 0.656332 0.967072
O O12 0.462396 0.685237 0.310249
O O13 0.524803 0.918958 0.285263
O O14 0.017684 0.633706 0.925628
O O15 0.500000 0.500000 0.500000
O O16 0.096654 0.199875 0.217345
O O17 0.032521 0.024497 0.315264
#
# Coordination Sequence:
#
# PCOD8014832 Si02
#       8
#     2   2   2   2   2   2   2   2
#     4  11  22  41  62  94 132 164 211 261 316 364
#     4  11  21  42  70  92 125 167 213 256 322 375
#     4  12  21  41  66  96 126 161 221 263 300 387
#     4  11  21  40  63  94 125 164 210 263 311 368
#     4  10  21  42  61  88 139 156 207 264 310 371
#     4  12  22  39  71  96 119 176 216 253 313 377
#     4  10  22  42  60  94 132 165 210 256 322 367
#     4   9  23  43  60  92 132 170 196 268 327 362
#
# _framework density 20.074242000000002
#
# number of rings (size 3 to 8) (size 9 to 14) (size 15 to 20)
#    0.750    0.500    6.250    0.375    0.000    4.500 
#    4.500    0.625    0.000    0.000    0.000    0.000 
#    0.000    0.000    0.000    0.000    0.000    0.000 
#
# Total GULP energy -198265.529308 kJ/mol
# GULP energy per Si atom -12391.595582 kJ/mol
# Density = 2.002855 g / cm^3
# Si number density = 20.074242 Si / 1000 Ang^3
#
#
#
# Elastic Constant Matrix: (Units=GPa)
#
#
# Indices 1 2 3 4 5 6 
#
# 1 119.2205 63.1946 42.4042 0.4725 -15.5788 0.2336
# 2 63.1946 112.2651 50.1012 -7.5793 -13.3238 -18.0637
# 3 42.4042 50.1012 60.8826 -0.1807 -9.8104 -4.0813
# 4 0.4725 -7.5793 -0.1807 42.0617 -5.4444 -4.5440
# 5 -15.5788 -13.3238 -9.8104 -5.4444 29.7108 -6.1524
# 6 0.2336 -18.0637 -4.0813 -4.5440 -6.1524 32.9729
#
#
#
# Elastic Compliance Matrix: (Units=1/GPa)
#
#
# Indices 1 2 3 4 5 6 
#
# 1 0.013412 -0.006163 -0.004243 -0.001464 0.001800 -0.003862
# 2 -0.006163 0.019916 -0.010396 0.005590 0.005672 0.011496
# 3 -0.004243 -0.010396 0.028048 -0.001726 0.001617 -0.002129
# 4 -0.001464 0.005590 -0.001726 0.026649 0.007703 0.007969
# 5 0.001800 0.005672 0.001617 0.007703 0.041600 0.012119
# 6 -0.003862 0.011496 -0.002129 0.007969 0.012119 0.039749
#
#
# Mechanical properties :
#
#
# Convention : Reuss Voigt Hill
#
# Bulk Modulus (GPa) = 50.57456 67.08537 58.82996
# Shear Modulus (GPa) = 22.98112 30.06030 26.52071
#
# Velocity S-wave (km/s) = 3.38717 3.87390 3.63868
# Velocity P-wave (km/s) = 6.36755 7.31441 6.85734
#
# Compressibility (1/GPa) = 0.01977279
#
# Stress axis : x y z
#
# Youngs Moduli (GPa) = 74.55814 50.20991 35.65306
#
# Poissons Ratio (x) = 0.30944 0.15129
# Poissons Ratio (y) = 0.45949 0.37064
# Poissons Ratio (z) = 0.31637 0.52197
#
# Static dielectric constant tensor:
#      x y z
#    x 3.779050 -0.058720 -0.212930 
#    y -0.058720 3.989360 -0.069630 
#    z -0.212930 -0.069630 3.651020 
# 
# 
# High freq. dielectric constant tensor:
#      x y z
#    x 1.778300 -0.013370 -0.021100 
#    y -0.013370 1.781370 -0.019440 
#    z -0.021100 -0.019440 1.774100 
# 
# From -- ./inp_files/453984.got.cif
#   From: 2010.06.25/outbox.cif.g09.slc.cpg/sg2_227_cif.got.tgz:453984.got - 2010.06.27 13:26:56.
