data_PCOD8014534
_publ_section_title
;
Structure prediction by ZEFSAII (Michael W. Deem and Ramdas Pophale) SiO2 
 PCOD8014534
Probable space group: P -1
;
_chemical_formula_sum "Si O2"
_cell_formula_units_Z 16
_cell_length_a 14.689614
_cell_length_b 9.669268
_cell_length_c 15.193974
_cell_angle_alpha 88.832984
_cell_angle_beta 149.837145
_cell_angle_gamma 112.851107
_cell_volume 731.602998
_symmetry_space_group_name_H-M "P -1"
_symmetry_group_IT_number 2
_symmetry_cell_setting 'triclinic'
loop_
_space_group_symop_operation_xyz
x,y,z
-x,-y,-z
loop_
_atom_site_type_symbol
_atom_site_label
_atom_site_fract_x
_atom_site_fract_y
_atom_site_fract_z
Si Si1 0.746523 0.773193 0.442116
Si Si2 0.914829 0.660302 0.841737
Si Si3 0.636422 0.764830 0.541713
Si Si4 0.653199 0.432302 0.045028
Si Si5 0.512565 0.650896 0.740946
Si Si6 0.080073 0.558713 0.285291
Si Si7 0.946057 0.190671 0.860061
Si Si8 0.690746 0.775893 0.076304
O O1 0.618795 0.773738 0.421628
O O2 0.583386 0.726441 0.220580
O O3 0.722353 0.593623 0.433946
O O4 0.052296 0.992135 0.681751
O O5 0.866098 0.781146 0.754768
O O6 0.642110 0.435153 0.647733
O O7 0.045672 0.631644 0.879832
O O8 0.106081 0.783549 0.084932
O O9 0.712929 0.952240 0.647099
O O10 0.550489 0.328793 0.056469
O O11 0.753924 0.647883 0.128123
O O12 0.900233 0.473499 0.223857
O O13 0.383738 0.691757 0.567516
O O14 0.760207 0.715465 0.898305
O O15 0.606730 0.776702 0.908216
O O16 0.072473 0.698697 0.226894
#
# Coordination Sequence:
#
# PCOD8014534 Si02
#       8
#     2   2   2   2   2   2   2   2
#     4  11  18  40  66  92 124 170 211 261 317 382
#     4  11  23  40  63  95 132 170 213 270 318 378
#     4  11  21  40  68  92 127 176 216 256 329 379
#     4  10  22  40  65  98 127 166 214 267 320 384
#     4  11  22  40  67  92 134 167 212 265 320 382
#     4  12  23  42  66  97 134 172 213 268 324 375
#     4  12  23  44  65  94 129 178 216 262 319 385
#     4  10  21  41  68  93 126 170 214 262 326 380
#
# _framework density 21.869785
#
# number of rings (size 3 to 8) (size 9 to 14) (size 15 to 20)
#    0.000    1.000    6.250    1.875    0.000    1.000 
#    0.000    9.375    0.000    0.000    0.000    0.000 
#    0.000    0.000    0.000    0.000    0.000    0.000 
#
# Total GULP energy -198447.171326 kJ/mol
# GULP energy per Si atom -12402.948208 kJ/mol
# Density = 2.182001 g / cm^3
# Si number density = 21.869785 Si / 1000 Ang^3
#
#
#
# Elastic Constant Matrix: (Units=GPa)
#
#
# Indices 1 2 3 4 5 6 
#
# 1 93.5859 7.3387 1.0119 -12.3067 -13.7037 -7.7528
# 2 7.3387 41.1439 19.7349 7.7484 -5.7528 -17.9071
# 3 1.0119 19.7349 70.9739 -1.1292 -16.8968 -10.9860
# 4 -12.3067 7.7484 -1.1292 37.8177 -7.9834 -3.0183
# 5 -13.7037 -5.7528 -16.8968 -7.9834 26.9395 -2.0766
# 6 -7.7528 -17.9071 -10.9860 -3.0183 -2.0766 23.3694
#
#
#
# Elastic Compliance Matrix: (Units=1/GPa)
#
#
# Indices 1 2 3 4 5 6 
#
# 1 0.014486 -0.000784 0.004661 0.008518 0.013318 0.008680
# 2 -0.000784 0.041472 -0.005943 -0.005541 0.005283 0.028479
# 3 0.004661 -0.005943 0.021510 0.007882 0.017676 0.009693
# 4 0.008518 -0.005541 0.007882 0.035326 0.019221 0.008555
# 5 0.013318 0.005283 0.017676 0.019221 0.063727 0.024922
# 6 0.008680 0.028479 0.009693 0.008555 0.024922 0.075369
#
#
# Mechanical properties :
#
#
# Convention : Reuss Voigt Hill
#
# Bulk Modulus (GPa) = 13.63568 29.09719 21.36643
# Shear Modulus (GPa) = 17.82750 29.46653 23.64701
#
# Velocity S-wave (km/s) = 2.85821 3.67463 3.29183
# Velocity P-wave (km/s) = 4.14016 5.59799 4.92333
#
# Compressibility (1/GPa) = 0.07333701
#
# Stress axis : x y z
#
# Youngs Moduli (GPa) = 69.03321 24.11245 46.49107
#
# Poissons Ratio (x) = 0.01890 -0.21670
# Poissons Ratio (y) = 0.05410 0.27628
# Poissons Ratio (z) = -0.32177 0.14329
#
# Static dielectric constant tensor:
#      x y z
#    x 4.270620 -0.038680 -0.213280 
#    y -0.038680 3.878000 0.063210 
#    z -0.213280 0.063210 3.911860 
# 
# 
# High freq. dielectric constant tensor:
#      x y z
#    x 1.865450 0.002530 -0.023000 
#    y 0.002530 1.847780 0.010870 
#    z -0.023000 0.010870 1.850760 
# 
# From -- ./inp_files/507102.got.cif
#   From: 2010.06.25/outbox.cif.g09.slc.cpg/sg2_254_cif.got.tgz:507102.got - 2010.06.27 13:26:56.
