data_PCOD8014043
_publ_section_title
;
Structure prediction by ZEFSAII (Michael W. Deem and Ramdas Pophale) SiO2 
 PCOD8014043
Probable space group: P -1
;
_chemical_formula_sum "Si O2"
_cell_formula_units_Z 14
_cell_length_a 21.923156
_cell_length_b 12.377153
_cell_length_c 9.593720
_cell_angle_alpha 146.087409
_cell_angle_beta 145.908575
_cell_angle_gamma 28.273922
_cell_volume 639.698203
_symmetry_space_group_name_H-M "P -1"
_symmetry_group_IT_number 2
_symmetry_cell_setting 'triclinic'
loop_
_space_group_symop_operation_xyz
x,y,z
-x,-y,-z
loop_
_atom_site_type_symbol
_atom_site_label
_atom_site_fract_x
_atom_site_fract_y
_atom_site_fract_z
Si Si1 0.652925 0.704017 0.588154
Si Si2 0.105915 0.036389 0.562013
Si Si3 0.075893 0.388905 0.670088
Si Si4 0.639772 0.732941 0.004524
Si Si5 0.037160 0.698259 0.160578
Si Si6 0.598069 0.448795 0.412664
Si Si7 0.437490 0.260573 0.844219
O O1 0.807015 0.532696 0.754009
O O2 0.564650 0.639008 0.431961
O O3 0.656964 0.641934 0.367087
O O4 0.579307 0.988561 0.787635
O O5 0.077120 0.167556 0.496548
O O6 0.059597 0.225302 0.805458
O O7 0.022507 0.927926 0.309583
O O8 0.267000 0.824314 0.658010
O O9 0.000000 0.500000 0.500000
O O10 0.232254 0.298861 0.859211
O O11 0.987613 0.609485 0.850476
O O12 0.620237 0.537454 0.695960
O O13 0.659478 0.714147 0.188561
O O14 0.500000 0.000000 0.000000
O O15 0.471879 0.437759 0.155519
#
# Coordination Sequence:
#
# PCOD8014043 Si02
#       7
#     2   2   2   2   2   2   2
#     4  10  21  41  64  94 133 155 222 274 314 390
#     4  10  22  41  70  88 125 175 215 262 331 381
#     4  12  26  43  65 100 135 171 219 271 323 392
#     4  12  23  45  65  93 136 173 213 265 334 393
#     4  10  21  45  65  92 124 177 217 265 323 388
#     4  11  21  43  66  92 127 171 218 270 324 392
#     4  11  23  37  67  97 126 170 212 271 326 378
#
# _framework density 21.885318999999999
#
# number of rings (size 3 to 8) (size 9 to 14) (size 15 to 20)
#    0.000    1.143    4.286    3.000    2.000    0.571 
#    2.571    2.857    0.000    0.000    0.000    0.000 
#    0.000    0.000    0.000    0.000    0.000    0.000 
#
# Total GULP energy -173540.260696 kJ/mol
# GULP energy per Si atom -12395.732907 kJ/mol
# Density = 2.183551 g / cm^3
# Si number density = 21.885319 Si / 1000 Ang^3
#
#
#
# Elastic Constant Matrix: (Units=GPa)
#
#
# Indices 1 2 3 4 5 6 
#
# 1 114.5566 24.7878 46.3395 -3.8215 -28.1505 20.1135
# 2 24.7878 72.9657 36.4031 3.3440 -11.7734 8.4446
# 3 46.3395 36.4031 99.8444 -0.2044 -21.1086 9.7537
# 4 -3.8215 3.3440 -0.2044 19.5153 5.5248 -8.1656
# 5 -28.1505 -11.7734 -21.1086 5.5248 41.9586 -0.3796
# 6 20.1135 8.4446 9.7537 -8.1656 -0.3796 42.0056
#
#
#
# Elastic Compliance Matrix: (Units=1/GPa)
#
#
# Indices 1 2 3 4 5 6 
#
# 1 0.012987 -0.000722 -0.003810 -0.001556 0.006749 -0.005430
# 2 -0.000722 0.017547 -0.005272 -0.005119 0.002434 -0.002931
# 3 -0.003810 -0.005272 0.014475 -0.000903 0.003360 -0.000622
# 4 -0.001556 -0.005119 -0.000903 0.060575 -0.010787 0.013662
# 5 0.006749 0.002434 0.003360 -0.010787 0.032098 -0.006308
# 6 -0.005430 -0.002931 -0.000622 0.013662 -0.006308 0.029739
#
#
# Mechanical properties :
#
#
# Convention : Reuss Voigt Hill
#
# Bulk Modulus (GPa) = 39.36854 55.82529 47.59691
# Shear Modulus (GPa) = 25.57595 32.68500 29.13048
#
# Velocity S-wave (km/s) = 3.42224 3.86873 3.65232
# Velocity P-wave (km/s) = 5.80028 6.74682 6.29138
#
# Compressibility (1/GPa) = 0.02540100
#
# Stress axis : x y z
#
# Youngs Moduli (GPa) = 77.00135 56.98900 69.08341
#
# Poissons Ratio (x) = 0.04116 0.26320
# Poissons Ratio (y) = 0.05562 0.36421
# Poissons Ratio (z) = 0.29336 0.30045
#
# Static dielectric constant tensor:
#      x y z
#    x 4.527450 0.124850 -0.166630 
#    y 0.124850 3.867530 0.314510 
#    z -0.166630 0.314510 3.951600 
# 
# 
# High freq. dielectric constant tensor:
#      x y z
#    x 1.879220 0.007650 -0.010640 
#    y 0.007650 1.848110 0.021540 
#    z -0.010640 0.021540 1.851380 
# 
# From -- ./inp_files/255957.got.cif
#   From: 2010.06.25/outbox.cif.g09.slc.cpg/sg2_128_cif.got.tgz:255957.got - 2010.06.27 13:26:56.
