data_PCOD8014862
_publ_section_title
;
Structure prediction by ZEFSAII (Michael W. Deem and Ramdas Pophale) SiO2 
 PCOD8014862
Probable space group: P -1
;
_chemical_formula_sum "Si O2"
_cell_formula_units_Z 10
_cell_length_a 16.154726
_cell_length_b 5.412371
_cell_length_c 20.499906
_cell_angle_alpha 86.203540
_cell_angle_beta 18.443255
_cell_angle_gamma 76.522571
_cell_volume 476.468952
_symmetry_space_group_name_H-M "P -1"
_symmetry_group_IT_number 2
_symmetry_cell_setting 'triclinic'
loop_
_space_group_symop_operation_xyz
x,y,z
-x,-y,-z
loop_
_atom_site_type_symbol
_atom_site_label
_atom_site_fract_x
_atom_site_fract_y
_atom_site_fract_z
Si Si1 0.800973 0.135829 0.545094
Si Si2 0.167991 0.665238 0.018111
Si Si3 0.139285 0.684972 0.752047
Si Si4 0.257357 0.178655 0.291715
Si Si5 0.903601 0.064121 0.804625
O O1 0.115203 0.077899 0.343788
O O2 0.643933 0.015739 0.712650
O O3 0.532758 0.478721 0.728962
O O4 0.898014 0.964449 0.406749
O O5 0.132885 0.682734 0.123629
O O6 0.999638 0.508077 0.117331
O O7 0.019456 0.999512 0.096225
O O8 0.500000 0.500000 0.500000
O O9 0.078692 0.754007 0.718634
O O10 0.000000 0.500000 0.500000
O O11 0.561213 0.153332 0.036130
#
# Coordination Sequence:
#
# PCOD8014862 Si02
#       5
#     2   2   2   2   2
#     4  11  22  39  61  91 127 166 207 252 312 370
#     4  10  21  42  62  91 128 159 207 261 304 372
#     4  10  21  42  67  89 125 163 204 263 315 362
#     4  11  21  39  59  90 129 164 207 258 300 370
#     4  10  23  38  63  91 125 167 206 252 314 366
#
# _framework density 20.987727
#
# number of rings (size 3 to 8) (size 9 to 14) (size 15 to 20)
#    1.200    0.400    4.000    1.200    0.000    2.400 
#    0.000    2.000    0.000    0.000    0.000    0.000 
#    0.000    0.000    0.000    0.000    0.000    0.000 
#
# Total GULP energy -123915.636184 kJ/mol
# GULP energy per Si atom -12391.563618 kJ/mol
# Density = 2.093996 g / cm^3
# Si number density = 20.987727 Si / 1000 Ang^3
#
#
#
# Elastic Constant Matrix: (Units=GPa)
#
#
# Indices 1 2 3 4 5 6 
#
# 1 49.9518 14.2973 42.6982 4.1634 -1.7530 8.6513
# 2 14.2973 99.1480 36.0865 8.1133 -9.6266 19.3362
# 3 42.6982 36.0865 127.0267 20.0926 -4.1246 0.6965
# 4 4.1634 8.1133 20.0926 31.6280 1.9371 -7.1508
# 5 -1.7530 -9.6266 -4.1246 1.9371 40.8507 3.6502
# 6 8.6513 19.3362 0.6965 -7.1508 3.6502 23.9265
#
#
#
# Elastic Compliance Matrix: (Units=1/GPa)
#
#
# Indices 1 2 3 4 5 6 
#
# 1 0.031071 0.002354 -0.010818 -0.000983 0.002042 -0.013428
# 2 0.002354 0.015095 -0.003982 -0.005410 0.004879 -0.015296
# 3 -0.010818 -0.003982 0.013362 -0.004816 -0.000303 0.005347
# 4 -0.000983 -0.005410 -0.004816 0.040543 -0.005316 0.017795
# 5 0.002042 0.004879 -0.000303 -0.005316 0.026864 -0.010360
# 6 -0.013428 -0.015296 0.005347 0.017795 -0.010360 0.065754
#
#
# Mechanical properties :
#
#
# Convention : Reuss Voigt Hill
#
# Bulk Modulus (GPa) = 28.86957 51.36562 40.11759
# Shear Modulus (GPa) = 21.82201 31.48401 26.65301
#
# Velocity S-wave (km/s) = 3.22802 3.87733 3.56748
# Velocity P-wave (km/s) = 5.26106 6.67624 6.01045
#
# Compressibility (1/GPa) = 0.03463855
#
# Stress axis : x y z
#
# Youngs Moduli (GPa) = 32.18397 66.24681 74.83755
#
# Poissons Ratio (x) = -0.15595 0.80956
# Poissons Ratio (y) = -0.07576 0.29797
# Poissons Ratio (z) = 0.34815 0.26377
#
# Static dielectric constant tensor:
#      x y z
#    x 3.919160 0.384160 -0.585510 
#    y 0.384160 4.092450 -0.203880 
#    z -0.585510 -0.203880 4.033760 
# 
# 
# High freq. dielectric constant tensor:
#      x y z
#    x 1.794430 0.012290 -0.018190 
#    y 0.012290 1.811380 0.018800 
#    z -0.018190 0.018800 1.821740 
# 
# From -- ./inp_files/2462.got.cif
#   From: 2010.06.25/outbox.cif.g09.slc.cpg/sg2_2_cif.got.tgz:2462.got - 2010.06.27 13:26:56.
