data_PCOD8014785
_publ_section_title
;
Structure prediction by ZEFSAII (Michael W. Deem and Ramdas Pophale) SiO2 
 PCOD8014785
Probable space group: P -1
;
_chemical_formula_sum "Si O2"
_cell_formula_units_Z 14
_cell_length_a 11.762964
_cell_length_b 10.712164
_cell_length_c 14.808292
_cell_angle_alpha 153.629858
_cell_angle_beta 41.422333
_cell_angle_gamma 130.197092
_cell_volume 546.115112
_symmetry_space_group_name_H-M "P -1"
_symmetry_group_IT_number 2
_symmetry_cell_setting 'triclinic'
loop_
_space_group_symop_operation_xyz
x,y,z
-x,-y,-z
loop_
_atom_site_type_symbol
_atom_site_label
_atom_site_fract_x
_atom_site_fract_y
_atom_site_fract_z
Si Si1 0.323538 0.189826 0.242542
Si Si2 0.679386 0.350027 0.764697
Si Si3 0.902009 0.212864 0.964511
Si Si4 0.249018 0.381444 0.816632
Si Si5 0.631155 0.240028 0.514823
Si Si6 0.906595 0.795477 0.984592
Si Si7 0.800306 0.070041 0.677611
O O1 0.338325 0.511551 0.413426
O O2 0.175014 0.086434 0.197926
O O3 0.273838 0.155016 0.355408
O O4 0.500000 0.000000 0.000000
O O5 0.683114 0.307016 0.628202
O O6 0.710769 0.072523 0.632338
O O7 0.500000 0.500000 0.000000
O O8 0.842770 0.532798 0.800182
O O9 0.086420 0.193439 0.789809
O O10 0.938305 0.301209 0.101828
O O11 0.759846 0.448036 0.161614
O O12 0.428209 0.182671 0.591939
O O13 0.234344 0.610018 0.055346
O O14 0.741993 0.953460 0.236170
O O15 0.000000 0.000000 0.000000
O O16 0.000000 0.000000 0.500000
#
# Coordination Sequence:
#
# PCOD8014785 Si02
#       7
#     2   2   2   2   2   2   2
#     4  11  22  45  73 105 144 196 248 303 370 441
#     4  12  25  50  74 109 149 189 250 307 366 449
#     4  10  21  41  72  99 145 185 241 305 358 434
#     4  10  21  45  70 104 143 196 247 300 368 445
#     4  12  26  48  78 107 151 201 244 311 378 437
#     4  12  29  47  71 111 152 191 248 310 379 440
#     4  11  24  42  70 107 146 189 250 301 361 441
#
# _framework density 25.635619999999999
#
# number of rings (size 3 to 8) (size 9 to 14) (size 15 to 20)
#    0.000    0.857    5.714    0.857    6.000    3.429 
#    2.571    0.714    0.000    0.000    0.000    0.000 
#    0.000    0.000    0.000    0.000    0.000    0.000 
#
# Total GULP energy -173568.261857 kJ/mol
# GULP energy per Si atom -12397.732990 kJ/mol
# Density = 2.557727 g / cm^3
# Si number density = 25.635620 Si / 1000 Ang^3
#
#
#
# Elastic Constant Matrix: (Units=GPa)
#
#
# Indices 1 2 3 4 5 6 
#
# 1 188.4562 37.0694 29.1427 -11.9162 -3.1422 -17.7742
# 2 37.0694 113.7878 5.9361 -12.8367 20.2501 -5.6302
# 3 29.1427 5.9361 89.0788 -13.0070 -15.2148 -10.1430
# 4 -11.9162 -12.8367 -13.0070 41.9172 -0.4795 5.9442
# 5 -3.1422 20.2501 -15.2148 -0.4795 32.2986 -2.0745
# 6 -17.7742 -5.6302 -10.1430 5.9442 -2.0745 54.3759
#
#
#
# Elastic Compliance Matrix: (Units=1/GPa)
#
#
# Indices 1 2 3 4 5 6 
#
# 1 0.006117 -0.002023 -0.001398 0.000484 0.001310 0.001526
# 2 -0.002023 0.011128 -0.001059 0.002455 -0.007653 -0.000267
# 3 -0.001398 -0.001059 0.013676 0.003335 0.007141 0.001892
# 4 0.000484 0.002455 0.003335 0.026040 0.000350 -0.001799
# 5 0.001310 -0.007653 0.007141 0.000350 0.039412 0.002433
# 6 0.001526 -0.000267 0.001892 -0.001799 0.002433 0.019504
#
#
# Mechanical properties :
#
#
# Convention : Reuss Voigt Hill
#
# Bulk Modulus (GPa) = 45.53426 59.51324 52.52375
# Shear Modulus (GPa) = 37.83351 46.99664 42.41508
#
# Velocity S-wave (km/s) = 3.84581 4.28630 4.07201
# Velocity P-wave (km/s) = 6.12544 6.91100 6.53004
#
# Compressibility (1/GPa) = 0.02196149
#
# Stress axis : x y z
#
# Youngs Moduli (GPa) = 163.48553 89.86168 73.11946
#
# Poissons Ratio (x) = 0.18177 0.10223
# Poissons Ratio (y) = 0.33069 0.07743
# Poissons Ratio (z) = 0.22858 0.09516
#
# Static dielectric constant tensor:
#      x y z
#    x 5.137760 -0.167180 0.047850 
#    y -0.167180 5.369760 -0.101540 
#    z 0.047850 -0.101540 4.938620 
# 
# 
# High freq. dielectric constant tensor:
#      x y z
#    x 2.049830 -0.009310 -0.010000 
#    y -0.009310 2.038740 -0.000190 
#    z -0.010000 -0.000190 2.013050 
# 
# From -- ./inp_files/519322.got.cif
#   From: 2010.06.25/outbox.cif.g09.slc.cpg/sg2_260_cif.got.tgz:519322.got - 2010.06.27 13:26:56.
