data_PCOD8014199
_publ_section_title
;
Structure prediction by ZEFSAII (Michael W. Deem and Ramdas Pophale) SiO2 
 PCOD8014199
Probable space group: P -1
;
_chemical_formula_sum "Si O2"
_cell_formula_units_Z 16
_cell_length_a 21.253040
_cell_length_b 8.689068
_cell_length_c 12.392407
_cell_angle_alpha 115.605796
_cell_angle_beta 37.851724
_cell_angle_gamma 143.839983
_cell_volume 682.456380
_symmetry_space_group_name_H-M "P -1"
_symmetry_group_IT_number 2
_symmetry_cell_setting 'triclinic'
loop_
_space_group_symop_operation_xyz
x,y,z
-x,-y,-z
loop_
_atom_site_type_symbol
_atom_site_label
_atom_site_fract_x
_atom_site_fract_y
_atom_site_fract_z
Si Si1 0.706525 0.310411 0.083883
Si Si2 0.574518 0.528525 0.571462
Si Si3 0.892648 0.785177 0.685576
Si Si4 0.307803 0.818404 0.170210
Si Si5 0.394255 0.110650 0.497545
Si Si6 0.008773 0.012497 0.830189
Si Si7 0.502712 0.580670 0.900930
Si Si8 0.004514 0.374490 0.049039
O O1 0.486823 0.057183 0.326298
O O2 0.712702 0.205494 0.937933
O O3 0.796511 0.329937 0.066523
O O4 0.836922 0.660206 0.001616
O O5 0.446024 0.213432 0.584771
O O6 0.517731 0.630225 0.626710
O O7 0.793671 0.787148 0.333946
O O8 0.521828 0.457202 0.748784
O O9 0.863992 0.535888 0.651469
O O10 0.688857 0.585481 0.908618
O O11 0.000000 0.000000 0.500000
O O12 0.013480 0.017746 0.695156
O O13 0.320176 0.038477 0.247902
O O14 0.500000 0.000000 0.000000
O O15 0.168062 0.807199 0.694358
O O16 0.974692 0.149040 0.967697
O O17 0.500000 0.500000 0.000000
O O18 0.000000 0.500000 0.000000
#
# Coordination Sequence:
#
# PCOD8014199 Si02
#       8
#     2   2   2   2   2   2   2   2
#     4  11  22  44  72  95 133 176 226 278 334 404
#     4  11  21  39  71  99 124 178 226 272 336 405
#     4  10  21  41  65  95 129 180 226 282 338 391
#     4   9  21  42  68  95 131 180 227 276 336 408
#     4  11  22  40  70  99 129 173 223 274 340 405
#     4  11  21  43  67  94 133 170 224 279 331 407
#     4  11  23  42  65  98 134 177 232 277 336 411
#     4  12  26  43  60 102 138 171 224 278 342 404
#
# _framework density 23.44472
#
# number of rings (size 3 to 8) (size 9 to 14) (size 15 to 20)
#    0.000    1.250    2.500    5.625    0.000    2.500 
#    9.000    5.625    0.000    0.000    0.000    0.000 
#    0.000    0.000    0.000    0.000    0.000    0.000 
#
# Total GULP energy -198308.159019 kJ/mol
# GULP energy per Si atom -12394.259939 kJ/mol
# Density = 2.339136 g / cm^3
# Si number density = 23.444720 Si / 1000 Ang^3
#
#
#
# Elastic Constant Matrix: (Units=GPa)
#
#
# Indices 1 2 3 4 5 6 
#
# 1 129.2537 18.0165 24.0826 5.2878 7.3962 12.0855
# 2 18.0165 53.2449 9.5158 5.0414 5.5493 6.4895
# 3 24.0826 9.5158 97.0832 3.6488 -1.8909 -3.7086
# 4 5.2878 5.0414 3.6488 20.0123 6.6875 3.9711
# 5 7.3962 5.5493 -1.8909 6.6875 52.7377 0.7848
# 6 12.0855 6.4895 -3.7086 3.9711 0.7848 28.5653
#
#
#
# Elastic Compliance Matrix: (Units=1/GPa)
#
#
# Indices 1 2 3 4 5 6 
#
# 1 0.008813 -0.002039 -0.002122 -0.000410 -0.000994 -0.003457
# 2 -0.002039 0.020638 -0.001562 -0.003175 -0.001486 -0.003546
# 3 -0.002122 -0.001562 0.011190 -0.002033 0.001077 0.002959
# 4 -0.000410 -0.003175 -0.002033 0.054779 -0.006526 -0.006805
# 5 -0.000994 -0.001486 0.001077 -0.006526 0.020105 0.001253
# 6 -0.003457 -0.003546 0.002959 -0.006805 0.001253 0.038571
#
#
# Mechanical properties :
#
#
# Convention : Reuss Voigt Hill
#
# Bulk Modulus (GPa) = 34.25299 42.53463 38.39381
# Shear Modulus (GPa) = 28.52636 35.46086 31.99361
#
# Velocity S-wave (km/s) = 3.49198 3.89335 3.69811
# Velocity P-wave (km/s) = 5.55881 6.19619 5.88613
#
# Compressibility (1/GPa) = 0.02919453
#
# Stress axis : x y z
#
# Youngs Moduli (GPa) = 113.46536 48.45412 89.36193
#
# Poissons Ratio (x) = 0.09880 0.18966
# Poissons Ratio (y) = 0.23137 0.13960
# Poissons Ratio (z) = 0.24082 0.07569
#
# Static dielectric constant tensor:
#      x y z
#    x 4.630040 0.337560 -0.013730 
#    y 0.337560 4.223460 -0.059540 
#    z -0.013730 -0.059540 4.040990 
# 
# 
# High freq. dielectric constant tensor:
#      x y z
#    x 1.947610 0.016290 -0.004160 
#    y 0.016290 1.910340 0.003260 
#    z -0.004160 0.003260 1.916050 
# 
# From -- ./inp_files/470050.got.cif
#   From: 2010.06.25/outbox.cif.g09.slc.cpg/sg2_236_cif.got.tgz:470050.got - 2010.06.27 13:26:56.
