data_PCOD8014838
_publ_section_title
;
Structure prediction by ZEFSAII (Michael W. Deem and Ramdas Pophale) SiO2 
 PCOD8014838
Probable space group: P -1
;
_chemical_formula_sum "Si O2"
_cell_formula_units_Z 16
_cell_length_a 13.360908
_cell_length_b 11.085486
_cell_length_c 13.448920
_cell_angle_alpha 102.313648
_cell_angle_beta 54.642135
_cell_angle_gamma 145.122330
_cell_volume 769.209280
_symmetry_space_group_name_H-M "P -1"
_symmetry_group_IT_number 2
_symmetry_cell_setting 'triclinic'
loop_
_space_group_symop_operation_xyz
x,y,z
-x,-y,-z
loop_
_atom_site_type_symbol
_atom_site_label
_atom_site_fract_x
_atom_site_fract_y
_atom_site_fract_z
Si Si1 0.914462 0.876536 0.634946
Si Si2 0.952249 0.384241 0.406420
Si Si3 0.613555 0.869585 0.554088
Si Si4 0.775767 0.009186 0.808353
Si Si5 0.609760 0.369955 0.730479
Si Si6 0.207349 0.525215 0.567707
Si Si7 0.348485 0.711708 0.873633
Si Si8 0.191478 0.849481 0.973085
O O1 0.814019 0.895684 0.769094
O O2 0.672916 0.570728 0.716619
O O3 0.000000 0.000000 0.500000
O O4 0.161743 0.031539 0.568460
O O5 0.904616 0.433479 0.348471
O O6 0.000000 0.500000 0.500000
O O7 0.201024 0.518214 0.273973
O O8 0.703252 0.082752 0.505989
O O9 0.383640 0.631069 0.572670
O O10 0.511935 0.786821 0.709297
O O11 0.487493 0.795505 0.911125
O O12 0.963411 0.221894 0.650194
O O13 0.863562 0.151424 0.884530
O O14 0.643406 0.340626 0.597704
O O15 0.330239 0.084545 0.876975
O O16 0.352704 0.864106 0.885284
O O17 0.066953 0.408174 0.981829
#
# Coordination Sequence:
#
# PCOD8014838 Si02
#       8
#     2   2   2   2   2   2   2   2
#     4  11  22  42  69  88 124 168 222 267 312 370
#     4   9  18  33  59  89 125 160 202 265 321 365
#     4  11  21  38  64 101 123 164 217 271 316 376
#     4  12  23  43  67  92 125 177 214 257 320 378
#     4  10  21  42  61  92 128 168 211 265 315 376
#     4  11  20  36  65  97 124 163 214 269 321 372
#     4  11  22  42  66  93 134 168 208 261 323 389
#     4  11  25  42  63  96 133 166 209 261 324 391
#
# _framework density 20.800581000000001
#
# number of rings (size 3 to 8) (size 9 to 14) (size 15 to 20)
#    0.000    1.250    3.750    4.500    0.000    1.000 
#    6.750    0.625    0.000    0.000    0.000    0.000 
#    0.000    0.000    0.000    0.000    0.000    0.000 
#
# Total GULP energy -198325.562522 kJ/mol
# GULP energy per Si atom -12395.347658 kJ/mol
# Density = 2.075324 g / cm^3
# Si number density = 20.800581 Si / 1000 Ang^3
#
#
#
# Elastic Constant Matrix: (Units=GPa)
#
#
# Indices 1 2 3 4 5 6 
#
# 1 100.5551 54.0633 26.5767 -8.7922 -9.1282 -7.6492
# 2 54.0633 98.5855 37.8640 -16.5862 -7.2788 -7.9272
# 3 26.5767 37.8640 70.7418 -12.5809 -0.1308 -8.2309
# 4 -8.7922 -16.5862 -12.5809 35.7416 -6.8868 5.0032
# 5 -9.1282 -7.2788 -0.1308 -6.8868 29.7478 -3.2054
# 6 -7.6492 -7.9272 -8.2309 5.0032 -3.2054 39.6632
#
#
#
# Elastic Compliance Matrix: (Units=1/GPa)
#
#
# Indices 1 2 3 4 5 6 
#
# 1 0.014495 -0.007029 -0.001500 0.000153 0.002896 0.001294
# 2 -0.007029 0.017274 -0.005673 0.004832 0.003225 0.000571
# 3 -0.001500 -0.005673 0.018510 0.003076 -0.000844 0.001962
# 4 0.000153 0.004832 0.003076 0.033287 0.008748 -0.001858
# 5 0.002896 0.003225 -0.000844 0.008748 0.037635 0.002966
# 6 0.001294 0.000571 0.001962 -0.001858 0.002966 0.026457
#
#
# Mechanical properties :
#
#
# Convention : Reuss Voigt Hill
#
# Bulk Modulus (GPa) = 45.71750 56.32115 51.01933
# Shear Modulus (GPa) = 27.26942 31.12241 29.19592
#
# Velocity S-wave (km/s) = 3.62469 3.87231 3.75054
# Velocity P-wave (km/s) = 6.28844 6.86502 6.58305
#
# Compressibility (1/GPa) = 0.02187346
#
# Stress axis : x y z
#
# Youngs Moduli (GPa) = 68.98787 57.88996 54.02483
#
# Poissons Ratio (x) = 0.40693 0.08105
# Poissons Ratio (y) = 0.48494 0.30651
# Poissons Ratio (z) = 0.10350 0.32843
#
# Static dielectric constant tensor:
#      x y z
#    x 4.009810 -0.143380 -0.191810 
#    y -0.143380 3.810650 -0.121720 
#    z -0.191810 -0.121720 3.528660 
# 
# 
# High freq. dielectric constant tensor:
#      x y z
#    x 1.808320 -0.004350 -0.005580 
#    y -0.004350 1.819640 -0.014100 
#    z -0.005580 -0.014100 1.794310 
# 
# From -- ./inp_files/279567.got.cif
#   From: 2010.06.25/outbox.cif.g09.slc.cpg/sg2_140_cif.got.tgz:279567.got - 2010.06.27 13:26:56.
