data_PCOD8014163
_publ_section_title
;
Structure prediction by ZEFSAII (Michael W. Deem and Ramdas Pophale) SiO2 
 PCOD8014163
Probable space group: P -1
;
_chemical_formula_sum "Si O2"
_cell_formula_units_Z 16
_cell_length_a 8.018971
_cell_length_b 16.135543
_cell_length_c 16.483392
_cell_angle_alpha 148.125057
_cell_angle_beta 55.268291
_cell_angle_gamma 138.460453
_cell_volume 733.522000
_symmetry_space_group_name_H-M "P -1"
_symmetry_group_IT_number 2
_symmetry_cell_setting 'triclinic'
loop_
_space_group_symop_operation_xyz
x,y,z
-x,-y,-z
loop_
_atom_site_type_symbol
_atom_site_label
_atom_site_fract_x
_atom_site_fract_y
_atom_site_fract_z
Si Si1 0.539222 0.171157 0.363328
Si Si2 0.783626 0.909423 0.868883
Si Si3 0.009025 0.262102 0.224889
Si Si4 0.248350 0.644282 0.385449
Si Si5 0.914505 0.149000 0.875986
Si Si6 0.183035 0.259144 0.592012
Si Si7 0.253725 0.163795 0.670120
Si Si8 0.797422 0.408166 0.206155
O O1 0.793103 0.284437 0.332337
O O2 0.632717 0.173307 0.431715
O O3 0.405493 0.279132 0.493946
O O4 0.324994 0.951746 0.204731
O O5 0.477486 0.773759 0.836974
O O6 0.881183 0.785449 0.769079
O O7 0.878716 0.991753 0.820378
O O8 0.883020 0.088904 0.050721
O O9 0.232364 0.469398 0.293237
O O10 0.441844 0.724702 0.321793
O O11 0.966972 0.553469 0.355167
O O12 0.175908 0.237827 0.828582
O O13 0.943293 0.328979 0.061442
O O14 0.187653 0.220886 0.652932
O O15 0.223842 0.464061 0.746830
O O16 0.909011 0.074525 0.478063
#
# Coordination Sequence:
#
# PCOD8014163 Si02
#       8
#     2   2   2   2   2   2   2   2
#     4  10  21  41  65  93 125 166 207 257 316 372
#     4  11  23  40  65  96 133 158 207 270 321 369
#     4  11  22  41  66  96 126 166 208 264 321 373
#     4  11  23  40  66  93 133 165 210 262 312 370
#     4  11  22  42  68  92 130 171 208 257 315 379
#     4   9  21  42  67  91 128 168 210 261 314 370
#     4   9  21  43  62  88 129 172 210 258 311 370
#     4  12  23  40  67  97 128 165 211 263 318 371
#
# _framework density 21.812570000000001
#
# number of rings (size 3 to 8) (size 9 to 14) (size 15 to 20)
#    0.000    1.500    2.500    3.750    0.000    3.500 
#    0.000    8.125    0.000    0.000    0.000    0.000 
#    0.000    0.000    0.000    0.000    0.000    0.000 
#
# Total GULP energy -198315.202088 kJ/mol
# GULP energy per Si atom -12394.700131 kJ/mol
# Density = 2.176292 g / cm^3
# Si number density = 21.812570 Si / 1000 Ang^3
#
#
#
# Elastic Constant Matrix: (Units=GPa)
#
#
# Indices 1 2 3 4 5 6 
#
# 1 57.5259 13.9635 27.9639 -3.9977 17.9002 4.4144
# 2 13.9635 111.4117 40.3998 -21.7978 -13.5078 11.6200
# 3 27.9639 40.3998 43.7915 -4.6905 1.4539 -8.7209
# 4 -3.9977 -21.7978 -4.6905 31.5649 2.2204 -0.1403
# 5 17.9002 -13.5078 1.4539 2.2204 37.4469 8.4393
# 6 4.4144 11.6200 -8.7209 -0.1403 8.4393 34.3069
#
#
#
# Elastic Compliance Matrix: (Units=1/GPa)
#
#
# Indices 1 2 3 4 5 6 
#
# 1 0.035577 0.008686 -0.032362 0.006340 -0.010005 -0.013259
# 2 0.008686 0.025304 -0.031845 0.013050 0.009988 -0.020187
# 3 -0.032362 -0.031845 0.078902 -0.013745 -0.006504 0.036551
# 4 0.006340 0.013050 -0.013745 0.039278 0.001919 -0.009042
# 5 -0.010005 0.009988 -0.006504 0.001919 0.038189 -0.013135
# 6 -0.013259 -0.020187 0.036551 -0.009042 -0.013135 0.050178
#
#
# Mechanical properties :
#
#
# Convention : Reuss Voigt Hill
#
# Bulk Modulus (GPa) = 34.79123 41.93150 38.36136
# Shear Modulus (GPa) = 12.88489 29.35720 21.12104
#
# Velocity S-wave (km/s) = 2.43309 3.67261 3.11512
# Velocity P-wave (km/s) = 4.88650 6.10323 5.52844
#
# Compressibility (1/GPa) = 0.02874288
#
# Stress axis : x y z
#
# Youngs Moduli (GPa) = 28.10767 39.51869 12.67390
#
# Poissons Ratio (x) = -0.34327 0.41015
# Poissons Ratio (y) = -0.24415 0.40361
# Poissons Ratio (z) = 0.90961 1.25849
#
# Static dielectric constant tensor:
#      x y z
#    x 3.920840 0.112240 0.194160 
#    y 0.112240 4.034420 -0.006560 
#    z 0.194160 -0.006560 3.923010 
# 
# 
# High freq. dielectric constant tensor:
#      x y z
#    x 1.849730 0.012790 0.019300 
#    y 0.012790 1.858250 -0.001820 
#    z 0.019300 -0.001820 1.847600 
# 
# From -- ./inp_files/561808.got.cif
#   From: 2010.06.25/outbox.cif.g09.slc.cpg/sg2_281_cif.got.tgz:561808.got - 2010.06.27 13:26:56.
