data_PCOD8014894
_publ_section_title
;
Structure prediction by ZEFSAII (Michael W. Deem and Ramdas Pophale) SiO2 
 PCOD8014894
Probable space group: P -1
;
_chemical_formula_sum "Si O2"
_cell_formula_units_Z 14
_cell_length_a 20.481498
_cell_length_b 14.032381
_cell_length_c 10.840140
_cell_angle_alpha 34.130452
_cell_angle_beta 43.362313
_cell_angle_gamma 20.911097
_cell_volume 607.067943
_symmetry_space_group_name_H-M "P -1"
_symmetry_group_IT_number 2
_symmetry_cell_setting 'triclinic'
loop_
_space_group_symop_operation_xyz
x,y,z
-x,-y,-z
loop_
_atom_site_type_symbol
_atom_site_label
_atom_site_fract_x
_atom_site_fract_y
_atom_site_fract_z
Si Si1 0.660820 0.894966 0.386265
Si Si2 0.675528 0.118073 0.889586
Si Si3 0.947668 0.270513 0.249274
Si Si4 0.794666 0.605316 0.844593
Si Si5 0.564528 0.985833 0.056076
Si Si6 0.360235 0.842218 0.623354
Si Si7 0.006752 0.187999 0.772730
O O1 0.860041 0.487742 0.553619
O O2 0.500000 0.000000 0.500000
O O3 0.629620 0.071269 0.354756
O O4 0.670556 0.991500 0.145046
O O5 0.563772 0.460428 0.713320
O O6 0.880695 0.862135 0.837060
O O7 0.583720 0.161716 0.850489
O O8 0.771222 0.597017 0.228451
O O9 0.872075 0.391165 0.085542
O O10 0.000000 0.000000 0.500000
O O11 0.959411 0.351809 0.791010
O O12 0.603921 0.804610 0.843014
O O13 0.725980 0.905286 0.637340
O O14 0.500000 0.000000 0.000000
O O15 0.222359 0.894359 0.762139
O O16 0.000000 0.000000 0.000000
#
# Coordination Sequence:
#
# PCOD8014894 Si02
#       7
#     2   2   2   2   2   2   2
#     4  11  23  39  65 100 133 164 205 258 316 386
#     4  12  23  41  67  96 128 168 208 267 321 361
#     4  11  24  42  64  92 122 164 220 272 312 360
#     4  10  21  42  63  86 128 170 203 261 319 373
#     4  10  23  44  63  86 122 165 217 264 309 370
#     4  11  22  40  64  96 131 168 206 248 318 401
#     4  11  22  38  61  96 131 169 207 246 314 399
#
# _framework density 23.061671
#
# number of rings (size 3 to 8) (size 9 to 14) (size 15 to 20)
#    0.000    1.143    0.000    8.571    0.000    2.286 
#    0.000   17.143    0.000    0.000    0.000    0.000 
#    0.000    0.000    0.000    0.000    0.000    0.000 
#
# Total GULP energy -173435.364062 kJ/mol
# GULP energy per Si atom -12388.240290 kJ/mol
# Density = 2.300918 g / cm^3
# Si number density = 23.061671 Si / 1000 Ang^3
#
#
#
# Elastic Constant Matrix: (Units=GPa)
#
#
# Indices 1 2 3 4 5 6 
#
# 1 104.1086 30.7741 40.2775 -0.6499 -17.2660 -16.8132
# 2 30.7741 115.8833 18.2836 -4.2499 -11.4905 -30.1235
# 3 40.2775 18.2836 147.3451 -3.2620 -8.5283 -4.5906
# 4 -0.6499 -4.2499 -3.2620 41.6127 0.4254 -13.7259
# 5 -17.2660 -11.4905 -8.5283 0.4254 38.3292 8.7172
# 6 -16.8132 -30.1235 -4.5906 -13.7259 8.7172 35.7022
#
#
#
# Elastic Compliance Matrix: (Units=1/GPa)
#
#
# Indices 1 2 3 4 5 6 
#
# 1 0.012348 -0.001469 -0.002845 0.001006 0.003634 0.003710
# 2 -0.001469 0.012304 -0.000646 0.004961 0.000222 0.011460
# 3 -0.002845 -0.000646 0.007644 0.000174 0.000438 -0.000942
# 4 0.001006 0.004961 0.000174 0.030130 -0.002175 0.016797
# 5 0.003634 0.000222 0.000438 -0.002175 0.029287 -0.006032
# 6 0.003710 0.011460 -0.000942 0.016797 -0.006032 0.047235
#
#
# Mechanical properties :
#
#
# Convention : Reuss Voigt Hill
#
# Bulk Modulus (GPa) = 44.68638 60.66747 52.67692
# Shear Modulus (GPa) = 31.98435 41.66228 36.82332
#
# Velocity S-wave (km/s) = 3.72816 4.25498 4.00025
# Velocity P-wave (km/s) = 6.16045 7.10658 6.65036
#
# Compressibility (1/GPa) = 0.02237819
#
# Stress axis : x y z
#
# Youngs Moduli (GPa) = 80.98282 81.27314 130.81386
#
# Poissons Ratio (x) = 0.11937 0.37217
# Poissons Ratio (y) = 0.11895 0.08445
# Poissons Ratio (z) = 0.23040 0.05247
#
# Static dielectric constant tensor:
#      x y z
#    x 4.177830 -0.133340 -0.103670 
#    y -0.133340 5.055210 -0.082460 
#    z -0.103670 -0.082460 4.786330 
# 
# 
# High freq. dielectric constant tensor:
#      x y z
#    x 1.899850 -0.012730 -0.014330 
#    y -0.012730 1.937740 0.001760 
#    z -0.014330 0.001760 1.912070 
# 
# From -- ./inp_files/226191.got.cif
#   From: 2010.06.25/outbox.cif.g09.slc.cpg/sg2_114_cif.got.tgz:226191.got - 2010.06.27 13:26:56.
