data_PCOD8014775
_publ_section_title
;
Structure prediction by ZEFSAII (Michael W. Deem and Ramdas Pophale) SiO2 
 PCOD8014775
Probable space group: P -1
;
_chemical_formula_sum "Si O2"
_cell_formula_units_Z 16
_cell_length_a 12.048119
_cell_length_b 9.108053
_cell_length_c 18.098443
_cell_angle_alpha 32.881509
_cell_angle_beta 136.535292
_cell_angle_gamma 126.215412
_cell_volume 740.787594
_symmetry_space_group_name_H-M "P -1"
_symmetry_group_IT_number 2
_symmetry_cell_setting 'triclinic'
loop_
_space_group_symop_operation_xyz
x,y,z
-x,-y,-z
loop_
_atom_site_type_symbol
_atom_site_label
_atom_site_fract_x
_atom_site_fract_y
_atom_site_fract_z
Si Si1 0.510664 0.344385 0.494089
Si Si2 0.037119 0.224865 0.591172
Si Si3 0.888493 0.893591 0.055608
Si Si4 0.764921 0.986134 0.466061
Si Si5 0.155098 0.493739 0.399376
Si Si6 0.686241 0.428979 0.116115
Si Si7 0.321873 0.863366 0.908205
Si Si8 0.384612 0.776377 0.135399
O O1 0.500000 0.500000 0.500000
O O2 0.703730 0.303097 0.597739
O O3 0.441156 0.516143 0.319102
O O4 0.416464 0.065027 0.569797
O O5 0.876664 0.073427 0.551780
O O6 0.000000 0.500000 0.500000
O O7 0.143641 0.270278 0.551019
O O8 0.164850 0.052602 0.776381
O O9 0.754278 0.721758 0.026930
O O10 0.996517 0.689895 0.244443
O O11 0.790353 0.121031 0.960003
O O12 0.000000 0.000000 0.000000
O O13 0.754103 0.223736 0.299576
O O14 0.827473 0.689502 0.589532
O O15 0.741340 0.323799 0.107325
O O16 0.500000 0.500000 0.000000
O O17 0.478063 0.003471 0.890130
O O18 0.368320 0.694432 0.075943
#
# Coordination Sequence:
#
# PCOD8014775 Si02
#       8
#     2   2   2   2   2   2   2   2
#     4  10  21  41  72  95 128 179 220 274 335 397
#     4  12  23  40  65  98 130 175 220 277 339 394
#     4  12  25  40  65 103 138 172 228 284 333 401
#     4  11  23  42  69  96 131 171 234 277 325 406
#     4  11  21  41  66  93 132 170 224 273 325 392
#     4  12  24  41  69 101 130 178 234 275 334 403
#     4  11  23  42  70  95 141 177 224 278 337 412
#     4  11  23  43  66 102 139 181 219 273 351 399
#
# _framework density 21.598634000000001
#
# number of rings (size 3 to 8) (size 9 to 14) (size 15 to 20)
#    0.000    0.750    5.000    4.125    1.750    0.000 
#    0.000    4.375    0.000    0.000    0.000    0.000 
#    0.000    0.000    0.000    0.000    0.000    0.000 
#
# Total GULP energy -198250.972177 kJ/mol
# GULP energy per Si atom -12390.685761 kJ/mol
# Density = 2.154947 g / cm^3
# Si number density = 21.598634 Si / 1000 Ang^3
#
#
#
# Elastic Constant Matrix: (Units=GPa)
#
#
# Indices 1 2 3 4 5 6 
#
# 1 85.9127 48.2095 20.1073 -1.0292 -0.4417 16.8097
# 2 48.2095 108.4803 22.0661 10.3381 -4.5111 17.8634
# 3 20.1073 22.0661 63.8071 18.7024 1.7790 -12.5919
# 4 -1.0292 10.3381 18.7024 29.2664 2.2121 -0.3365
# 5 -0.4417 -4.5111 1.7790 2.2121 49.0847 1.4055
# 6 16.8097 17.8634 -12.5919 -0.3365 1.4055 40.1661
#
#
#
# Elastic Compliance Matrix: (Units=1/GPa)
#
#
# Indices 1 2 3 4 5 6 
#
# 1 0.018264 -0.006215 -0.007141 0.007341 -0.000277 -0.007047
# 2 -0.006215 0.013637 -0.002632 -0.003523 0.001577 -0.004374
# 3 -0.007141 -0.002632 0.025837 -0.015625 -0.000887 0.012159
# 4 0.007341 -0.003523 -0.015625 0.045707 -0.001581 -0.005965
# 5 -0.000277 0.001577 -0.000887 -0.001581 0.020665 -0.001600
# 6 -0.007047 -0.004374 0.012159 -0.005965 -0.001600 0.033609
#
#
# Mechanical properties :
#
#
# Convention : Reuss Voigt Hill
#
# Bulk Modulus (GPa) = 38.81603 48.77400 43.79502
# Shear Modulus (GPa) = 25.21680 34.89126 30.05403
#
# Velocity S-wave (km/s) = 3.42060 4.02361 3.73430
# Velocity P-wave (km/s) = 5.79752 6.64958 6.23812
#
# Compressibility (1/GPa) = 0.02576255
#
# Stress axis : x y z
#
# Youngs Moduli (GPa) = 54.75374 73.32953 38.70458
#
# Poissons Ratio (x) = 0.45572 0.27638
# Poissons Ratio (y) = 0.34028 0.10187
# Poissons Ratio (z) = 0.39098 0.19301
#
# Static dielectric constant tensor:
#      x y z
#    x 4.102660 0.291380 0.040510 
#    y 0.291380 3.991960 0.200450 
#    z 0.040510 0.200450 4.011120 
# 
# 
# High freq. dielectric constant tensor:
#      x y z
#    x 1.851360 0.015560 0.003410 
#    y 0.015560 1.842170 0.021530 
#    z 0.003410 0.021530 1.844850 
# 
# From -- ./inp_files/263513.got.cif
#   From: 2010.06.25/outbox.cif.g09.slc.cpg/sg2_132_cif.got.tgz:263513.got - 2010.06.27 13:26:56.
