data_PCOD8014353
_publ_section_title
;
Structure prediction by ZEFSAII (Michael W. Deem and Ramdas Pophale) SiO2 
 PCOD8014353
Probable space group: P -1
;
_chemical_formula_sum "Si O2"
_cell_formula_units_Z 16
_cell_length_a 9.276483
_cell_length_b 8.679641
_cell_length_c 11.965990
_cell_angle_alpha 129.191738
_cell_angle_beta 77.051687
_cell_angle_gamma 86.943033
_cell_volume 703.078924
_symmetry_space_group_name_H-M "P -1"
_symmetry_group_IT_number 2
_symmetry_cell_setting 'triclinic'
loop_
_space_group_symop_operation_xyz
x,y,z
-x,-y,-z
loop_
_atom_site_type_symbol
_atom_site_label
_atom_site_fract_x
_atom_site_fract_y
_atom_site_fract_z
Si Si1 0.199696 0.994268 0.060665
Si Si2 0.956825 0.704415 0.360546
Si Si3 0.781461 0.138111 0.542023
Si Si4 0.673718 0.221195 0.852427
Si Si5 0.614914 0.284737 0.417722
Si Si6 0.114386 0.699083 0.773059
Si Si7 0.150684 0.466704 0.029377
Si Si8 0.615824 0.906180 0.117561
O O1 0.062014 0.196521 0.170983
O O2 0.234089 0.969300 0.174909
O O3 0.347512 0.031444 0.985928
O O4 0.159021 0.789861 0.923853
O O5 0.859753 0.548200 0.347360
O O6 0.059738 0.791912 0.472622
O O7 0.095169 0.572126 0.203551
O O8 0.834999 0.889514 0.403207
O O9 0.707869 0.178231 0.696537
O O10 0.648844 0.250918 0.529133
O O11 0.720561 0.421923 0.983823
O O12 0.496912 0.244210 0.927008
O O13 0.500000 0.500000 0.500000
O O14 0.781307 0.249900 0.318831
O O15 0.544442 0.105326 0.298339
O O16 0.223099 0.223216 0.917116
O O17 0.000000 0.500000 0.000000
#
# Coordination Sequence:
#
# PCOD8014353 Si02
#       8
#     2   2   2   2   2   2   2   2
#     4  10  22  42  69 100 132 172 231 279 338 399
#     4  10  21  41  66  99 132 168 219 291 325 395
#     4  10  25  44  65  99 133 175 228 268 339 406
#     4  11  25  42  69 100 141 179 217 282 346 394
#     4  11  27  47  66  94 139 182 229 273 337 411
#     4  10  22  41  71  98 129 177 230 281 334 392
#     4  11  22  41  70 101 132 173 228 278 337 397
#     4  11  24  46  66 100 136 177 223 286 335 404
#
# _framework density 22.757047
#
# number of rings (size 3 to 8) (size 9 to 14) (size 15 to 20)
#    0.000    1.500    1.250    2.250   10.500    2.000 
#   15.750    0.000    0.000    0.000    0.000    0.000 
#    0.000    0.000    0.000    0.000    0.000    0.000 
#
# Total GULP energy -198252.036525 kJ/mol
# GULP energy per Si atom -12390.752283 kJ/mol
# Density = 2.270525 g / cm^3
# Si number density = 22.757047 Si / 1000 Ang^3
#
#
#
# Elastic Constant Matrix: (Units=GPa)
#
#
# Indices 1 2 3 4 5 6 
#
# 1 94.0122 52.9067 27.4367 -2.7462 4.9839 -5.3915
# 2 52.9067 131.7742 51.7201 3.4849 12.8352 -14.5740
# 3 27.4367 51.7201 78.8114 3.2407 -1.5529 -13.4620
# 4 -2.7462 3.4849 3.2407 49.6673 -2.5577 1.2655
# 5 4.9839 12.8352 -1.5529 -2.5577 25.7045 4.8419
# 6 -5.3915 -14.5740 -13.4620 1.2655 4.8419 51.1112
#
#
#
# Elastic Compliance Matrix: (Units=1/GPa)
#
#
# Indices 1 2 3 4 5 6 
#
# 1 0.013971 -0.005011 -0.001701 0.001240 -0.000106 -0.000424
# 2 -0.005011 0.013064 -0.006548 -0.001153 -0.006460 0.002112
# 3 -0.001701 -0.006548 0.018086 -0.000659 0.004186 0.002337
# 4 0.001240 -0.001153 -0.000659 0.020486 0.002545 -0.001120
# 5 -0.000106 -0.006460 0.004186 0.002545 0.043587 -0.004943
# 6 -0.000424 0.002112 0.002337 -0.001120 -0.004943 0.021234
#
#
# Mechanical properties :
#
#
# Convention : Reuss Voigt Hill
#
# Bulk Modulus (GPa) = 53.75727 63.19166 58.47446
# Shear Modulus (GPa) = 30.64699 36.79889 33.72294
#
# Velocity S-wave (km/s) = 3.67373 4.02560 3.85368
# Velocity P-wave (km/s) = 6.45512 7.03104 6.74922
#
# Compressibility (1/GPa) = 0.01860214
#
# Stress axis : x y z
#
# Youngs Moduli (GPa) = 71.57766 76.54661 55.29050
#
# Poissons Ratio (x) = 0.38358 0.09403
# Poissons Ratio (y) = 0.35868 0.36203
# Poissons Ratio (z) = 0.12173 0.50121
#
# Static dielectric constant tensor:
#      x y z
#    x 4.085670 0.227020 0.085380 
#    y 0.227020 4.168680 -0.092400 
#    z 0.085380 -0.092400 3.452440 
# 
# 
# High freq. dielectric constant tensor:
#      x y z
#    x 1.898100 0.008720 0.000320 
#    y 0.008720 1.906690 0.010370 
#    z 0.000320 0.010370 1.880600 
# 
# From -- ./inp_files/383504.got.cif
#   From: 2010.06.25/outbox.cif.g09.slc.cpg/sg2_192_cif.got.tgz:383504.got - 2010.06.27 13:26:56.
