data_PCOD8014117
_publ_section_title
;
Structure prediction by ZEFSAII (Michael W. Deem and Ramdas Pophale) SiO2 
 PCOD8014117
Probable space group: P -1
;
_chemical_formula_sum "Si O2"
_cell_formula_units_Z 14
_cell_length_a 13.560199
_cell_length_b 6.436132
_cell_length_c 13.949667
_cell_angle_alpha 93.175243
_cell_angle_beta 150.366070
_cell_angle_gamma 100.041693
_cell_volume 536.548818
_symmetry_space_group_name_H-M "P -1"
_symmetry_group_IT_number 2
_symmetry_cell_setting 'triclinic'
loop_
_space_group_symop_operation_xyz
x,y,z
-x,-y,-z
loop_
_atom_site_type_symbol
_atom_site_label
_atom_site_fract_x
_atom_site_fract_y
_atom_site_fract_z
Si Si1 0.646544 0.382647 0.659813
Si Si2 0.388664 0.424339 0.746714
Si Si3 0.427278 0.916078 0.578035
Si Si4 0.261691 0.297251 0.098396
Si Si5 0.924865 0.356942 0.335546
Si Si6 0.001731 0.213485 0.696824
Si Si7 0.363163 0.153308 0.896635
O O1 0.500000 0.500000 0.500000
O O2 0.729492 0.291477 0.635013
O O3 0.823556 0.590600 0.883310
O O4 0.503727 0.162007 0.599717
O O5 0.547668 0.482527 0.790953
O O6 0.414376 0.237541 0.832674
O O7 0.138013 0.313721 0.488571
O O8 0.457491 0.663291 0.873397
O O9 0.641227 0.879654 0.789308
O O10 0.269211 0.898091 0.535878
O O11 0.060943 0.159311 0.852327
O O12 0.889222 0.508549 0.225528
O O13 0.000000 0.500000 0.500000
O O14 0.683496 0.120838 0.137830
O O15 0.110173 0.115231 0.706479
#
# Coordination Sequence:
#
# PCOD8014117 Si02
#       7
#     2   2   2   2   2   2   2
#     4   9  21  41  65  93 121 160 206 254 319 388
#     4  10  21  42  60  89 133 169 211 272 317 364
#     4  10  21  41  65  89 125 163 201 258 323 377
#     4  10  22  40  61  91 126 159 212 260 311 380
#     4  12  24  40  63  94 129 175 222 262 324 377
#     4  11  24  40  62  96 124 165 220 257 317 386
#     4  10  24  41  59  94 132 166 224 267 312 389
#
# _framework density 26.092684999999999
#
# number of rings (size 3 to 8) (size 9 to 14) (size 15 to 20)
#    0.000    1.714    2.857    0.429    2.000    3.429 
#    0.000    6.429    0.000    0.000    0.000    0.000 
#    0.000    0.000    0.000    0.000    0.000    0.000 
#
# Total GULP energy -173449.791107 kJ/mol
# GULP energy per Si atom -12389.270793 kJ/mol
# Density = 2.603330 g / cm^3
# Si number density = 26.092685 Si / 1000 Ang^3
#
#
#
# Elastic Constant Matrix: (Units=GPa)
#
#
# Indices 1 2 3 4 5 6 
#
# 1 51.1554 14.6676 -4.0322 -13.3408 -1.3888 6.1862
# 2 14.6676 154.3793 25.7995 -16.0481 -4.7129 18.8244
# 3 -4.0322 25.7995 65.7153 1.6507 -5.7542 1.1372
# 4 -13.3408 -16.0481 1.6507 35.7063 9.1998 0.9113
# 5 -1.3888 -4.7129 -5.7542 9.1998 33.9044 -0.2198
# 6 6.1862 18.8244 1.1372 0.9113 -0.2198 30.8906
#
#
#
# Elastic Compliance Matrix: (Units=1/GPa)
#
#
# Indices 1 2 3 4 5 6 
#
# 1 0.022623 -0.001072 0.001564 0.008326 -0.001243 -0.004189
# 2 -0.001072 0.008061 -0.003284 0.003621 -0.000494 -0.004687
# 3 0.001564 -0.003284 0.016923 -0.002521 0.003171 0.001162
# 4 0.008326 0.003621 -0.002521 0.035359 -0.009210 -0.004890
# 5 -0.001243 -0.000494 0.003171 -0.009210 0.032418 0.000935
# 6 -0.004189 -0.004687 0.001162 -0.004890 0.000935 0.036176
#
#
# Mechanical properties :
#
#
# Convention : Reuss Voigt Hill
#
# Bulk Modulus (GPa) = 23.79679 38.23552 31.01615
# Shear Modulus (GPa) = 29.21380 35.75458 32.48419
#
# Velocity S-wave (km/s) = 3.34970 3.70576 3.53222
# Velocity P-wave (km/s) = 4.90923 5.74419 5.34305
#
# Compressibility (1/GPa) = 0.04202248
#
# Stress axis : x y z
#
# Youngs Moduli (GPa) = 44.20266 124.05351 59.09075
#
# Poissons Ratio (x) = 0.13304 -0.09240
# Poissons Ratio (y) = 0.04740 0.19403
# Poissons Ratio (z) = -0.06912 0.40734
#
# Static dielectric constant tensor:
#      x y z
#    x 5.315210 -0.227710 0.012560 
#    y -0.227710 4.871590 -0.324270 
#    z 0.012560 -0.324270 4.802370 
# 
# 
# High freq. dielectric constant tensor:
#      x y z
#    x 2.043890 -0.006020 0.003770 
#    y -0.006020 2.055170 -0.016420 
#    z 0.003770 -0.016420 2.036850 
# 
# From -- ./inp_files/98070.got.cif
#   From: 2010.06.25/outbox.cif.g09.slc.cpg/sg2_50_cif.got.tgz:98070.got - 2010.06.27 13:26:56.
