data_PCOD8014851
_publ_section_title
;
Structure prediction by ZEFSAII (Michael W. Deem and Ramdas Pophale) SiO2 
 PCOD8014851
Probable space group: P -1
;
_chemical_formula_sum "Si O2"
_cell_formula_units_Z 16
_cell_length_a 15.639838
_cell_length_b 11.712582
_cell_length_c 6.260888
_cell_angle_alpha 97.866178
_cell_angle_beta 100.700368
_cell_angle_gamma 43.562198
_cell_volume 776.620140
_symmetry_space_group_name_H-M "P -1"
_symmetry_group_IT_number 2
_symmetry_cell_setting 'triclinic'
loop_
_space_group_symop_operation_xyz
x,y,z
-x,-y,-z
loop_
_atom_site_type_symbol
_atom_site_label
_atom_site_fract_x
_atom_site_fract_y
_atom_site_fract_z
Si Si1 0.048247 0.536157 0.717809
Si Si2 0.179660 0.514840 0.410115
Si Si3 0.397692 0.738242 0.361269
Si Si4 0.373039 0.172274 0.574642
Si Si5 0.642929 0.479593 0.687486
Si Si6 0.697243 0.988103 0.301622
Si Si7 0.482693 0.250329 0.962253
Si Si8 0.925805 0.705434 0.097046
O O1 0.139169 0.543896 0.651139
O O2 0.113447 0.389471 0.885355
O O3 0.000000 0.500000 0.500000
O O4 0.937602 0.706154 0.843781
O O5 0.293510 0.312855 0.387371
O O6 0.234457 0.587076 0.391475
O O7 0.061672 0.605071 0.229758
O O8 0.529021 0.599950 0.503802
O O9 0.330269 0.679356 0.287768
O O10 0.306514 0.907247 0.498397
O O11 0.424379 0.764969 0.148425
O O12 0.403374 0.232694 0.792230
O O13 0.500000 0.000000 0.500000
O O14 0.286819 0.150337 0.611483
O O15 0.614686 0.572671 0.919079
O O16 0.819272 0.892481 0.184614
O O17 0.570219 0.103259 0.136482
#
# Coordination Sequence:
#
# PCOD8014851 Si02
#       8
#     2   2   2   2   2   2   2   2
#     4   9  20  36  56  83 119 159 199 242 289 348
#     4  11  22  38  60  87 122 162 198 250 300 349
#     4  10  21  42  62  88 119 159 203 250 308 349
#     4  12  22  37  58  93 129 155 189 245 313 362
#     4  10  22  39  64  89 118 156 210 251 290 369
#     4  11  23  39  60  90 125 158 195 250 304 371
#     4  11  22  37  61  91 122 160 195 248 310 357
#     4  10  22  37  58  89 118 162 209 237 295 369
#
# _framework density 20.602094000000001
#
# number of rings (size 3 to 8) (size 9 to 14) (size 15 to 20)
#    0.000    1.500    3.750    1.500    1.750    6.000 
#    0.000    0.625    0.000    1.500    0.000    0.000 
#    0.000    0.000    0.000    0.000    0.000    0.000 
#
# Total GULP energy -198311.368960 kJ/mol
# GULP energy per Si atom -12394.460560 kJ/mol
# Density = 2.055520 g / cm^3
# Si number density = 20.602094 Si / 1000 Ang^3
#
#
#
# Elastic Constant Matrix: (Units=GPa)
#
#
# Indices 1 2 3 4 5 6 
#
# 1 125.2769 54.2864 48.6398 28.3457 -13.6818 6.7781
# 2 54.2864 73.1405 33.2486 20.8608 4.7882 0.4545
# 3 48.6398 33.2486 98.4092 29.2437 -11.0285 -0.2508
# 4 28.3457 20.8608 29.2437 35.1932 -9.0025 -3.5893
# 5 -13.6818 4.7882 -11.0285 -9.0025 39.2972 4.4788
# 6 6.7781 0.4545 -0.2508 -3.5893 4.4788 36.3439
#
#
#
# Elastic Compliance Matrix: (Units=1/GPa)
#
#
# Indices 1 2 3 4 5 6 
#
# 1 0.014251 -0.008798 -0.002568 -0.003214 0.004975 -0.003496
# 2 -0.008798 0.023910 -0.002625 -0.006904 -0.008487 0.001688
# 3 -0.002568 -0.002625 0.015027 -0.008458 0.001755 -0.000436
# 4 -0.003214 -0.006904 -0.008458 0.044345 0.007036 0.004140
# 5 0.004975 -0.008487 0.001755 0.007036 0.030763 -0.003906
# 6 -0.003496 0.001688 -0.000436 0.004140 -0.003906 0.029033
#
#
# Mechanical properties :
#
#
# Convention : Reuss Voigt Hill
#
# Bulk Modulus (GPa) = 39.67187 63.24181 51.45684
# Shear Modulus (GPa) = 25.81150 32.87697 29.34423
#
# Velocity S-wave (km/s) = 3.54341 3.99909 3.77813
# Velocity P-wave (km/s) = 6.00326 7.21714 6.63800
#
# Compressibility (1/GPa) = 0.02520677
#
# Stress axis : x y z
#
# Youngs Moduli (GPa) = 70.16911 41.82395 66.54880
#
# Poissons Ratio (x) = 0.36795 0.17088
# Poissons Ratio (y) = 0.61733 0.17469
# Poissons Ratio (z) = 0.18018 0.10979
#
# Static dielectric constant tensor:
#      x y z
#    x 3.998140 0.051640 -0.448310 
#    y 0.051640 3.692680 0.169560 
#    z -0.448310 0.169560 4.021930 
# 
# 
# High freq. dielectric constant tensor:
#      x y z
#    x 1.796960 -0.009230 -0.018900 
#    y -0.009230 1.782560 0.007670 
#    z -0.018900 0.007670 1.812650 
# 
# From -- ./inp_files/109194.got.cif
#   From: 2010.06.25/outbox.cif.g09.slc.cpg/sg2_55_cif.got.tgz:109194.got - 2010.06.27 13:26:56.
