data_PCOD8014121
_publ_section_title
;
Structure prediction by ZEFSAII (Michael W. Deem and Ramdas Pophale) SiO2 
 PCOD8014121
Probable space group: P -1
;
_chemical_formula_sum "Si O2"
_cell_formula_units_Z 14
_cell_length_a 11.597918
_cell_length_b 4.840535
_cell_length_c 11.369416
_cell_angle_alpha 79.442916
_cell_angle_beta 48.631550
_cell_angle_gamma 87.010066
_cell_volume 468.845698
_symmetry_space_group_name_H-M "P -1"
_symmetry_group_IT_number 2
_symmetry_cell_setting 'triclinic'
loop_
_space_group_symop_operation_xyz
x,y,z
-x,-y,-z
loop_
_atom_site_type_symbol
_atom_site_label
_atom_site_fract_x
_atom_site_fract_y
_atom_site_fract_z
Si Si1 0.167153 0.060708 0.513984
Si Si2 0.702300 0.065149 0.784634
Si Si3 0.299485 0.495610 0.044801
Si Si4 0.143512 0.719747 0.898203
Si Si5 0.933129 0.976956 0.862271
Si Si6 0.441574 0.519412 0.298625
Si Si7 0.384642 0.743432 0.555811
O O1 0.275003 0.351942 0.409324
O O2 0.000392 0.100568 0.682237
O O3 0.147711 0.951884 0.400170
O O4 0.254644 0.835964 0.547203
O O5 0.748366 0.251434 0.855840
O O6 0.569768 0.177942 0.782181
O O7 0.636500 0.747973 0.896208
O O8 0.155845 0.333281 0.078640
O O9 0.423208 0.616093 0.853143
O O10 0.294509 0.612644 0.742625
O O11 0.177957 0.821638 0.004383
O O12 0.085450 0.982803 0.842493
O O13 0.000000 0.500000 0.000000
O O14 0.474004 0.538284 0.420081
O O15 0.500000 0.000000 0.500000
#
# Coordination Sequence:
#
# PCOD8014121 Si02
#       7
#     2   2   2   2   2   2   2
#     4  10  23  43  64  92 136 171 215 267 331 381
#     4  11  25  44  66  98 132 174 215 272 322 379
#     4  12  26  41  70  97 132 170 224 265 317 390
#     4  10  21  41  65  89 134 170 212 266 331 384
#     4  10  24  42  62  98 127 173 216 269 325 387
#     4  11  23  42  67  94 132 173 215 268 329 381
#     4  10  22  38  63  97 129 167 219 268 322 385
#
# _framework density 29.860571
#
# number of rings (size 3 to 8) (size 9 to 14) (size 15 to 20)
#    0.000    1.429    1.429    2.571    6.000    2.857 
#    0.000    0.000    0.000    0.000    0.000    0.000 
#    0.000    0.000    0.000    0.000    0.000    0.000 
#
# Total GULP energy -173502.051688 kJ/mol
# GULP energy per Si atom -12393.003692 kJ/mol
# Density = 2.979261 g / cm^3
# Si number density = 29.860571 Si / 1000 Ang^3
#
#
#
# Elastic Constant Matrix: (Units=GPa)
#
#
# Indices 1 2 3 4 5 6 
#
# 1 100.9350 10.2612 68.9613 35.5335 38.8301 16.4189
# 2 10.2612 162.2464 102.2927 33.9950 -1.9305 25.2412
# 3 68.9613 102.2927 291.7284 64.5629 9.5204 26.4774
# 4 35.5335 33.9950 64.5629 57.1045 11.1331 7.5502
# 5 38.8301 -1.9305 9.5204 11.1331 59.5969 14.4596
# 6 16.4189 25.2412 26.4774 7.5502 14.4596 48.0942
#
#
#
# Elastic Compliance Matrix: (Units=1/GPa)
#
#
# Indices 1 2 3 4 5 6 
#
# 1 0.018312 0.002502 -0.003124 -0.007247 -0.009552 -0.001835
# 2 0.002502 0.009012 -0.002642 -0.003566 0.000665 -0.003770
# 3 -0.003124 -0.002642 0.005845 -0.003344 0.001833 -0.000791
# 4 -0.007247 -0.003566 -0.003344 0.027766 -0.000528 0.001987
# 5 -0.009552 0.000665 0.001833 -0.000528 0.024107 -0.005262
# 6 -0.001835 -0.003770 -0.000791 0.001987 -0.005262 0.025103
#
#
# Mechanical properties :
#
#
# Convention : Reuss Voigt Hill
#
# Bulk Modulus (GPa) = 37.53597 101.99334 69.76466
# Shear Modulus (GPa) = 39.82396 57.85210 48.83803
#
# Velocity S-wave (km/s) = 3.65590 4.40637 4.04856
# Velocity P-wave (km/s) = 5.51530 7.75364 6.72820
#
# Compressibility (1/GPa) = 0.02664111
#
# Stress axis : x y z
#
# Youngs Moduli (GPa) = 54.60985 110.95768 171.09508
#
# Poissons Ratio (x) = -0.27758 0.53445
# Poissons Ratio (y) = -0.13661 0.45201
# Poissons Ratio (z) = 0.17058 0.29313
#
# Static dielectric constant tensor:
#      x y z
#    x 6.573750 -0.400310 0.741800 
#    y -0.400310 5.291280 0.604390 
#    z 0.741800 0.604390 6.484480 
# 
# 
# High freq. dielectric constant tensor:
#      x y z
#    x 2.278180 -0.017950 0.029920 
#    y -0.017950 2.201760 0.030160 
#    z 0.029920 0.030160 2.252790 
# 
# From -- ./inp_files/38550.got.cif
#   From: 2010.06.25/outbox.cif.g09.slc.cpg/sg2_20_cif.got.tgz:38550.got - 2010.06.27 13:26:56.
