data_PCOD8014666
_publ_section_title
;
Structure prediction by ZEFSAII (Michael W. Deem and Ramdas Pophale) SiO2 
 PCOD8014666
Probable space group: P -1
;
_chemical_formula_sum "Si O2"
_cell_formula_units_Z 16
_cell_length_a 20.675830
_cell_length_b 5.463226
_cell_length_c 17.977312
_cell_angle_alpha 96.677068
_cell_angle_beta 160.341312
_cell_angle_gamma 81.322886
_cell_volume 673.292371
_symmetry_space_group_name_H-M "P -1"
_symmetry_group_IT_number 2
_symmetry_cell_setting 'triclinic'
loop_
_space_group_symop_operation_xyz
x,y,z
-x,-y,-z
loop_
_atom_site_type_symbol
_atom_site_label
_atom_site_fract_x
_atom_site_fract_y
_atom_site_fract_z
Si Si1 0.299833 0.912305 0.691156
Si Si2 0.572777 0.502146 0.892566
Si Si3 0.452415 0.242352 0.372494
Si Si4 0.820791 0.567722 0.035414
Si Si5 0.372521 0.171748 0.551073
Si Si6 0.222596 0.438942 0.260022
Si Si7 0.948451 0.971429 0.705504
Si Si8 0.387276 0.728694 0.927881
O O1 0.386638 0.666897 0.731012
O O2 0.237557 0.856227 0.707529
O O3 0.112189 0.034492 0.447532
O O4 0.466016 0.087199 0.879586
O O5 0.495094 0.301412 0.747886
O O6 0.713097 0.650273 0.999898
O O7 0.702756 0.367149 0.096751
O O8 0.329237 0.219297 0.314227
O O9 0.663940 0.322382 0.622256
O O10 0.472772 0.986719 0.340218
O O11 0.334340 0.452667 0.199140
O O12 0.936263 0.295296 0.160211
O O13 0.945073 0.787737 0.155297
O O14 0.233858 0.361045 0.355821
O O15 0.241567 0.993653 0.446711
O O16 0.000000 0.500000 0.000000
O O17 0.500000 0.500000 0.000000
#
# Coordination Sequence:
#
# PCOD8014666 Si02
#       8
#     2   2   2   2   2   2   2   2
#     4  10  21  41  70 102 138 188 248 301 361 443
#     4  11  22  43  72 100 139 193 245 298 371 436
#     4  11  26  47  72 105 148 191 247 302 372 444
#     4  12  27  45  69 107 151 190 241 312 373 430
#     4  12  24  45  75 102 141 194 247 305 360 442
#     4  11  26  47  73 105 147 192 245 303 374 442
#     4  12  27  42  73 108 147 188 250 306 367 438
#     4   9  20  38  71 100 138 185 249 295 362 439
#
# _framework density 23.763819000000002
#
# number of rings (size 3 to 8) (size 9 to 14) (size 15 to 20)
#    0.000    1.000    2.500    3.375    7.000    0.500 
#    0.000    1.250    0.000    0.000    0.000    0.000 
#    0.000    0.000    0.000    0.000    0.000    0.000 
#
# Total GULP energy -198325.005931 kJ/mol
# GULP energy per Si atom -12395.312871 kJ/mol
# Density = 2.370973 g / cm^3
# Si number density = 23.763819 Si / 1000 Ang^3
#
#
#
# Elastic Constant Matrix: (Units=GPa)
#
#
# Indices 1 2 3 4 5 6 
#
# 1 128.6381 23.4085 34.2740 11.5372 -16.7901 10.2183
# 2 23.4085 109.1075 34.1231 10.1689 -3.1104 -8.2210
# 3 34.2740 34.1231 96.3568 -1.4678 -7.8182 -2.1342
# 4 11.5372 10.1689 -1.4678 31.8788 8.5948 -6.0797
# 5 -16.7901 -3.1104 -7.8182 8.5948 39.8680 0.2518
# 6 10.2183 -8.2210 -2.1342 -6.0797 0.2518 45.8964
#
#
#
# Elastic Compliance Matrix: (Units=1/GPa)
#
#
# Indices 1 2 3 4 5 6 
#
# 1 0.010119 -0.000810 -0.003080 -0.005466 0.004794 -0.003291
# 2 -0.000810 0.010871 -0.003536 -0.003175 0.000488 0.001540
# 3 -0.003080 -0.003536 0.012818 0.002950 0.000298 0.001037
# 4 -0.005466 -0.003175 0.002950 0.038400 -0.010287 0.005928
# 5 0.004794 0.000488 0.000298 -0.010287 0.029431 -0.002490
# 6 -0.003291 0.001540 0.001037 0.005928 -0.002490 0.023644
#
#
# Mechanical properties :
#
#
# Convention : Reuss Voigt Hill
#
# Bulk Modulus (GPa) = 52.75331 57.52375 55.13853
# Shear Modulus (GPa) = 34.14051 39.68176 36.91114
#
# Velocity S-wave (km/s) = 3.79444 4.09080 3.94540
# Velocity P-wave (km/s) = 6.43772 6.82436 6.63386
#
# Compressibility (1/GPa) = 0.01895616
#
# Stress axis : x y z
#
# Youngs Moduli (GPa) = 98.82401 91.98889 78.01517
#
# Poissons Ratio (x) = 0.07449 0.24027
# Poissons Ratio (y) = 0.08002 0.27589
# Poissons Ratio (z) = 0.30436 0.32531
#
# Static dielectric constant tensor:
#      x y z
#    x 5.022690 0.328980 -0.378910 
#    y 0.328980 4.136030 -0.139670 
#    z -0.378910 -0.139670 4.285330 
# 
# 
# High freq. dielectric constant tensor:
#      x y z
#    x 1.960860 0.008960 -0.028320 
#    y 0.008960 1.941210 0.000210 
#    z -0.028320 0.000210 1.925190 
# 
# From -- ./inp_files/576814.got.cif
#   From: 2010.06.25/outbox.cif.g09.slc.cpg/sg2_289_cif.got.tgz:576814.got - 2010.06.27 13:26:56.
