data_PCOD8014563
_publ_section_title
;
Structure prediction by ZEFSAII (Michael W. Deem and Ramdas Pophale) SiO2 
 PCOD8014563
Probable space group: P -1
;
_chemical_formula_sum "Si O2"
_cell_formula_units_Z 16
_cell_length_a 6.464623
_cell_length_b 11.445782
_cell_length_c 15.847391
_cell_angle_alpha 53.689981
_cell_angle_beta 61.830993
_cell_angle_gamma 96.803432
_cell_volume 689.973164
_symmetry_space_group_name_H-M "P -1"
_symmetry_group_IT_number 2
_symmetry_cell_setting 'triclinic'
loop_
_space_group_symop_operation_xyz
x,y,z
-x,-y,-z
loop_
_atom_site_type_symbol
_atom_site_label
_atom_site_fract_x
_atom_site_fract_y
_atom_site_fract_z
Si Si1 0.701982 0.153507 0.064204
Si Si2 0.270201 0.716455 0.758450
Si Si3 0.779634 0.734114 0.188856
Si Si4 0.758192 0.405963 0.372346
Si Si5 0.161544 0.622448 0.338479
Si Si6 0.666253 0.967972 0.315117
Si Si7 0.322530 0.558554 0.963146
Si Si8 0.865754 0.062156 0.815048
O O1 0.707574 0.320003 0.019462
O O2 0.593219 0.008273 0.220261
O O3 0.476157 0.073659 0.063767
O O4 0.024802 0.226976 0.946664
O O5 0.222462 0.656185 0.697528
O O6 0.449851 0.658940 0.804069
O O7 0.384915 0.921831 0.653132
O O8 0.984996 0.622765 0.910453
O O9 0.659812 0.539344 0.330218
O O10 0.502904 0.733412 0.224180
O O11 0.988795 0.900694 0.136981
O O12 0.542950 0.238295 0.541144
O O13 0.059670 0.511046 0.317965
O O14 0.060190 0.751958 0.309523
O O15 0.000000 0.500000 0.500000
O O16 0.982932 0.008402 0.242356
O O17 0.500000 0.500000 0.000000
#
# Coordination Sequence:
#
# PCOD8014563 Si02
#       8
#     2   2   2   2   2   2   2   2
#     4  11  23  42  65 101 133 171 226 276 343 399
#     4  10  22  42  64 102 130 174 225 273 338 402
#     4  11  24  42  66  97 133 177 225 284 327 399
#     4  11  23  43  66 101 134 177 229 273 335 403
#     4  11  24  43  68  96 138 182 227 274 335 401
#     4  11  24  41  69  93 140 177 216 282 335 397
#     4  10  21  41  68  96 136 176 217 277 340 399
#     4  11  23  40  64  97 132 176 225 272 343 395
#
# _framework density 23.189306999999999
#
# number of rings (size 3 to 8) (size 9 to 14) (size 15 to 20)
#    0.000    1.250    1.250    4.500    0.000    7.000 
#    0.000    0.000    0.000    6.750    0.000    0.000 
#    0.000    0.000    0.000    0.000    0.000    0.000 
#
# Total GULP energy -198257.365776 kJ/mol
# GULP energy per Si atom -12391.085361 kJ/mol
# Density = 2.313653 g / cm^3
# Si number density = 23.189307 Si / 1000 Ang^3
#
#
#
# Elastic Constant Matrix: (Units=GPa)
#
#
# Indices 1 2 3 4 5 6 
#
# 1 135.0181 58.9088 32.4797 11.7070 -2.9711 3.6775
# 2 58.9088 112.3735 20.3119 0.3526 10.5390 5.5595
# 3 32.4797 20.3119 77.6302 -3.2753 1.9300 -4.4260
# 4 11.7070 0.3526 -3.2753 34.1851 -0.4932 1.6615
# 5 -2.9711 10.5390 1.9300 -0.4932 35.1126 -3.5789
# 6 3.6775 5.5595 -4.4260 1.6615 -3.5789 36.2537
#
#
#
# Elastic Compliance Matrix: (Units=1/GPa)
#
#
# Indices 1 2 3 4 5 6 
#
# 1 0.010983 -0.005357 -0.003443 -0.003985 0.002643 -0.000269
# 2 -0.005357 0.012370 -0.000931 0.001652 -0.004292 -0.001967
# 3 -0.003443 -0.000931 0.014806 0.002495 -0.000574 0.002129
# 4 -0.003985 0.001652 0.002495 0.030880 -0.000641 -0.001023
# 5 0.002643 -0.004292 -0.000574 -0.000641 0.030355 0.003346
# 6 -0.000269 -0.001967 0.002129 -0.001023 0.003346 0.028549
#
#
# Mechanical properties :
#
#
# Convention : Reuss Voigt Hill
#
# Bulk Modulus (GPa) = 53.48193 60.93583 57.20888
# Shear Modulus (GPa) = 32.54396 35.33171 33.93784
#
# Velocity S-wave (km/s) = 3.75027 3.90759 3.82974
# Velocity P-wave (km/s) = 6.47039 6.83328 6.65431
#
# Compressibility (1/GPa) = 0.01869790
#
# Stress axis : x y z
#
# Youngs Moduli (GPa) = 91.05012 80.83902 67.53825
#
# Poissons Ratio (x) = 0.43308 0.23251
# Poissons Ratio (y) = 0.48778 0.06288
# Poissons Ratio (z) = 0.31345 0.07526
#
# Static dielectric constant tensor:
#      x y z
#    x 4.547590 0.118540 0.212880 
#    y 0.118540 4.702320 -0.042470 
#    z 0.212880 -0.042470 4.234310 
# 
# 
# High freq. dielectric constant tensor:
#      x y z
#    x 1.921020 0.001410 0.017250 
#    y 0.001410 1.927750 -0.024060 
#    z 0.017250 -0.024060 1.904270 
# 
# From -- ./inp_files/549417.got.cif
#   From: 2010.06.25/outbox.cif.g09.slc.cpg/sg2_275_cif.got.tgz:549417.got - 2010.06.27 13:26:56.
