data_PCOD8014198
_publ_section_title
;
Structure prediction by ZEFSAII (Michael W. Deem and Ramdas Pophale) SiO2 
 PCOD8014198
Probable space group: P -1
;
_chemical_formula_sum "Si O2"
_cell_formula_units_Z 16
_cell_length_a 18.953936
_cell_length_b 14.357931
_cell_length_c 12.413530
_cell_angle_alpha 29.780728
_cell_angle_beta 150.705324
_cell_angle_gamma 151.225095
_cell_volume 714.734151
_symmetry_space_group_name_H-M "P -1"
_symmetry_group_IT_number 2
_symmetry_cell_setting 'triclinic'
loop_
_space_group_symop_operation_xyz
x,y,z
-x,-y,-z
loop_
_atom_site_type_symbol
_atom_site_label
_atom_site_fract_x
_atom_site_fract_y
_atom_site_fract_z
Si Si1 0.241422 0.138099 0.604604
Si Si2 0.747721 0.612323 0.309560
Si Si3 0.036370 0.784590 0.373375
Si Si4 0.505022 0.671062 0.070657
Si Si5 0.995416 0.655993 0.212653
Si Si6 0.949078 0.668714 0.720153
Si Si7 0.362404 0.781338 0.582868
Si Si8 0.740016 0.765690 0.704489
O O1 0.391204 0.175136 0.846796
O O2 0.153877 0.275636 0.386179
O O3 0.321363 0.213897 0.516370
O O4 0.111289 0.885706 0.681258
O O5 0.633438 0.701004 0.116716
O O6 0.832273 0.551802 0.580252
O O7 0.634438 0.406195 0.293475
O O8 0.895904 0.792469 0.253039
O O9 0.954202 0.715515 0.215614
O O10 0.076669 0.597569 0.650662
O O11 0.202362 0.014904 0.370727
O O12 0.403524 0.427755 0.224471
O O13 0.386522 0.748055 0.776391
O O14 0.192263 0.783237 0.335387
O O15 0.897361 0.729198 0.928146
O O16 0.000000 0.500000 0.000000
O O17 0.500000 0.000000 0.500000
#
# Coordination Sequence:
#
# PCOD8014198 Si02
#       8
#     2   2   2   2   2   2   2   2
#     4  10  24  41  66  98 132 175 217 265 332 387
#     4  10  22  42  65  97 124 172 224 263 331 392
#     4  10  21  41  65  95 129 170 217 269 326 385
#     4  11  25  44  62  96 142 167 218 272 329 396
#     4  10  24  41  65  99 129 167 231 267 319 399
#     4  10  22  41  68  96 130 169 224 274 314 390
#     4  11  26  40  67  97 133 174 210 278 334 385
#     4  12  23  41  72  94 131 179 216 274 327 389
#
# _framework density 22.385946000000001
#
# number of rings (size 3 to 8) (size 9 to 14) (size 15 to 20)
#    0.000    1.500    1.250    3.375    8.750    0.000 
#    0.000    0.000    0.000    4.500    0.000    0.000 
#    0.000    0.000    0.000    0.000    0.000    0.000 
#
# Total GULP energy -198367.291857 kJ/mol
# GULP energy per Si atom -12397.955741 kJ/mol
# Density = 2.233499 g / cm^3
# Si number density = 22.385946 Si / 1000 Ang^3
#
#
#
# Elastic Constant Matrix: (Units=GPa)
#
#
# Indices 1 2 3 4 5 6 
#
# 1 83.9579 17.0113 11.3630 -3.1832 -10.6382 6.6362
# 2 17.0113 113.5854 40.1043 -3.7776 -8.6707 1.0124
# 3 11.3630 40.1043 80.2877 10.0527 -10.8907 -7.4661
# 4 -3.1832 -3.7776 10.0527 33.1783 4.2420 -5.4964
# 5 -10.6382 -8.6707 -10.8907 4.2420 29.9980 -0.7131
# 6 6.6362 1.0124 -7.4661 -5.4964 -0.7131 28.5512
#
#
#
# Elastic Compliance Matrix: (Units=1/GPa)
#
#
# Indices 1 2 3 4 5 6 
#
# 1 0.013042 -0.001253 -0.001053 0.000438 0.003745 -0.003085
# 2 -0.001253 0.011159 -0.005799 0.002691 0.000269 -0.001096
# 3 -0.001053 -0.005799 0.017325 -0.006019 0.005185 0.003952
# 4 0.000438 0.002691 -0.006019 0.033831 -0.005927 0.004594
# 5 0.003745 0.000269 0.005185 -0.005927 0.037469 0.000271
# 6 -0.003085 -0.001096 0.003952 0.004594 0.000271 0.037705
#
#
# Mechanical properties :
#
#
# Convention : Reuss Voigt Hill
#
# Bulk Modulus (GPa) = 39.50234 46.08758 42.79496
# Shear Modulus (GPa) = 28.54188 32.30234 30.42211
#
# Velocity S-wave (km/s) = 3.57458 3.80277 3.69044
# Velocity P-wave (km/s) = 5.89246 6.31774 6.10880
#
# Compressibility (1/GPa) = 0.02531495
#
# Stress axis : x y z
#
# Youngs Moduli (GPa) = 76.67408 89.61397 57.71865
#
# Poissons Ratio (x) = 0.11232 0.06080
# Poissons Ratio (y) = 0.09610 0.33471
# Poissons Ratio (z) = 0.08077 0.51967
#
# Static dielectric constant tensor:
#      x y z
#    x 4.018780 -0.086870 -0.080600 
#    y -0.086870 4.104430 0.160120 
#    z -0.080600 0.160120 4.045330 
# 
# 
# High freq. dielectric constant tensor:
#      x y z
#    x 1.877000 -0.000390 -0.010630 
#    y -0.000390 1.888980 0.009010 
#    z -0.010630 0.009010 1.873310 
# 
# From -- ./inp_files/471693.got.cif
#   From: 2010.06.25/outbox.cif.g09.slc.cpg/sg2_236_cif.got.tgz:471693.got - 2010.06.27 13:26:56.
