data_PCOD8014814
_publ_section_title
;
Structure prediction by ZEFSAII (Michael W. Deem and Ramdas Pophale) SiO2 
 PCOD8014814
Probable space group: P -1
;
_chemical_formula_sum "Si O2"
_cell_formula_units_Z 14
_cell_length_a 17.669273
_cell_length_b 12.253727
_cell_length_c 6.627572
_cell_angle_alpha 45.814888
_cell_angle_beta 120.432918
_cell_angle_gamma 140.390116
_cell_volume 654.592706
_symmetry_space_group_name_H-M "P -1"
_symmetry_group_IT_number 2
_symmetry_cell_setting 'triclinic'
loop_
_space_group_symop_operation_xyz
x,y,z
-x,-y,-z
loop_
_atom_site_type_symbol
_atom_site_label
_atom_site_fract_x
_atom_site_fract_y
_atom_site_fract_z
Si Si1 0.335421 0.749759 0.281343
Si Si2 0.105870 0.969691 0.254111
Si Si3 0.635332 0.778040 0.695396
Si Si4 0.572169 0.371748 0.151514
Si Si5 0.068217 0.421137 0.199425
Si Si6 0.511749 0.787976 0.175011
Si Si7 0.031975 0.146175 0.171853
O O1 0.345092 0.671125 0.608743
O O2 0.200100 0.605533 0.217972
O O3 0.411489 0.745186 0.230782
O O4 0.390925 0.981414 0.078236
O O5 0.997803 0.763427 0.490983
O O6 0.226174 0.012806 0.385518
O O7 0.125244 0.161893 0.133702
O O8 0.078790 0.947985 0.005947
O O9 0.560773 0.802682 0.708908
O O10 0.582294 0.736876 0.452074
O O11 0.626697 0.596779 0.004662
O O12 0.563735 0.370024 0.903575
O O13 0.076073 0.354020 0.071155
O O14 0.000000 0.500000 0.000000
O O15 0.000000 0.000000 0.500000
#
# Coordination Sequence:
#
# PCOD8014814 Si02
#       7
#     2   2   2   2   2   2   2
#     4  10  23  38  62  87 123 157 208 245 299 374
#     4  10  22  40  63  90 126 160 206 252 312 365
#     4  10  22  37  61  93 120 151 205 253 296 368
#     4  10  22  38  61  91 119 156 203 253 302 353
#     4  11  24  41  61  94 126 163 209 253 308 374
#     4  10  21  42  60  87 121 166 195 250 311 351
#     4   9  22  40  60  89 120 165 204 250 307 363
#
# _framework density 21.387346000000001
#
# number of rings (size 3 to 8) (size 9 to 14) (size 15 to 20)
#    0.000    2.000    0.000    1.714    8.000    4.000 
#    0.000    0.000    0.000    0.000    0.000    0.000 
#    0.000    0.000    0.000    0.000    0.000    0.000 
#
# Total GULP energy -173518.457520 kJ/mol
# GULP energy per Si atom -12394.175537 kJ/mol
# Density = 2.133867 g / cm^3
# Si number density = 21.387346 Si / 1000 Ang^3
#
#
#
# Elastic Constant Matrix: (Units=GPa)
#
#
# Indices 1 2 3 4 5 6 
#
# 1 64.0730 38.6317 25.5565 9.9843 17.5473 9.5471
# 2 38.6317 72.9515 28.2371 18.1153 4.6741 13.4237
# 3 25.5565 28.2371 117.1170 22.1737 11.8235 2.4784
# 4 9.9843 18.1153 22.1737 41.7925 -2.5906 0.6150
# 5 17.5473 4.6741 11.8235 -2.5906 32.9439 6.9702
# 6 9.5471 13.4237 2.4784 0.6150 6.9702 40.8215
#
#
#
# Elastic Compliance Matrix: (Units=1/GPa)
#
#
# Indices 1 2 3 4 5 6 
#
# 1 0.027572 -0.013021 -0.001447 -0.000945 -0.012405 0.000054
# 2 -0.013021 0.023468 -0.002173 -0.005516 0.005078 -0.005324
# 3 -0.001447 -0.002173 0.010544 -0.004526 -0.003281 0.001041
# 4 -0.000945 -0.005516 -0.004526 0.029240 0.004994 0.001016
# 5 -0.012405 0.005078 -0.003281 0.004994 0.038932 -0.005292
# 6 0.000054 -0.005324 0.001041 0.001016 -0.005292 0.027060
#
#
# Mechanical properties :
#
#
# Convention : Reuss Voigt Hill
#
# Bulk Modulus (GPa) = 35.33250 48.77690 42.05470
# Shear Modulus (GPa) = 25.05879 33.89266 29.47572
#
# Velocity S-wave (km/s) = 3.42667 3.98516 3.71642
# Velocity P-wave (km/s) = 5.67558 6.63560 6.17428
#
# Compressibility (1/GPa) = 0.02830255
#
# Stress axis : x y z
#
# Youngs Moduli (GPa) = 36.26921 42.61135 94.83952
#
# Poissons Ratio (x) = 0.55484 0.13724
# Poissons Ratio (y) = 0.47226 0.20604
# Poissons Ratio (z) = 0.05248 0.09257
#
# Static dielectric constant tensor:
#      x y z
#    x 3.962740 -0.134950 0.062260 
#    y -0.134950 3.788640 0.096410 
#    z 0.062260 0.096410 3.990490 
# 
# 
# High freq. dielectric constant tensor:
#      x y z
#    x 1.833410 0.001980 0.005910 
#    y 0.001980 1.825550 0.010510 
#    z 0.005910 0.010510 1.850080 
# 
# From -- ./inp_files/27252.got.cif
#   From: 2010.06.25/outbox.cif.g09.slc.cpg/sg2_14_cif.got.tgz:27252.got - 2010.06.27 13:26:56.
