data_PCOD8014879
_publ_section_title
;
Structure prediction by ZEFSAII (Michael W. Deem and Ramdas Pophale) SiO2 
 PCOD8014879
Probable space group: P -1
;
_chemical_formula_sum "Si O2"
_cell_formula_units_Z 14
_cell_length_a 16.846449
_cell_length_b 16.227323
_cell_length_c 8.278496
_cell_angle_alpha 122.499579
_cell_angle_beta 74.828082
_cell_angle_gamma 154.986406
_cell_volume 625.812855
_symmetry_space_group_name_H-M "P -1"
_symmetry_group_IT_number 2
_symmetry_cell_setting 'triclinic'
loop_
_space_group_symop_operation_xyz
x,y,z
-x,-y,-z
loop_
_atom_site_type_symbol
_atom_site_label
_atom_site_fract_x
_atom_site_fract_y
_atom_site_fract_z
Si Si1 0.836348 0.694965 0.353224
Si Si2 0.675799 0.160474 0.714900
Si Si3 0.236982 0.320968 0.266871
Si Si4 0.041096 0.618204 0.750664
Si Si5 0.699488 0.392468 0.552748
Si Si6 0.603221 0.246399 0.093856
Si Si7 0.356413 0.336936 0.740158
O O1 0.767107 0.660201 0.525212
O O2 0.712003 0.451430 0.135032
O O3 0.732948 0.652634 0.229835
O O4 0.125673 0.007239 0.518542
O O5 0.944721 0.462512 0.809568
O O6 0.500000 0.000000 0.500000
O O7 0.573230 0.939443 0.589322
O O8 0.649354 0.196087 0.927748
O O9 0.265465 0.452224 0.285490
O O10 0.465781 0.505721 0.323829
O O11 0.000000 0.000000 0.000000
O O12 0.000000 0.500000 0.500000
O O13 0.901646 0.564076 0.734442
O O14 0.322732 0.954951 0.972174
O O15 0.739859 0.400720 0.355452
O O16 0.500000 0.500000 0.000000
#
# Coordination Sequence:
#
# PCOD8014879 Si02
#       7
#     2   2   2   2   2   2   2
#     4  10  25  43  66 100 129 172 221 270 328 391
#     4  10  21  42  62  94 127 166 216 261 321 392
#     4  11  23  44  66  97 133 174 217 271 328 387
#     4  11  23  42  65  94 128 174 214 263 331 382
#     4  10  24  43  63  96 131 166 223 264 325 392
#     4  11  23  42  66  95 131 165 215 274 322 388
#     4  11  23  44  67  95 133 173 221 270 326 387
#
# _framework density 22.370903999999999
#
# number of rings (size 3 to 8) (size 9 to 14) (size 15 to 20)
#    0.000    1.429    4.286    0.857    2.000    5.143 
#    5.143    0.000    0.000    0.000    0.000    0.000 
#    0.000    0.000    0.000    0.000    0.000    0.000 
#
# Total GULP energy -173603.223201 kJ/mol
# GULP energy per Si atom -12400.230229 kJ/mol
# Density = 2.231999 g / cm^3
# Si number density = 22.370904 Si / 1000 Ang^3
#
#
#
# Elastic Constant Matrix: (Units=GPa)
#
#
# Indices 1 2 3 4 5 6 
#
# 1 83.0738 36.2835 36.2396 27.9353 -2.9086 -9.8804
# 2 36.2835 138.2177 35.9287 37.4870 -3.8674 1.7244
# 3 36.2396 35.9287 84.2794 26.7178 -11.1053 -5.4552
# 4 27.9353 37.4870 26.7178 49.5522 -7.1401 -3.2608
# 5 -2.9086 -3.8674 -11.1053 -7.1401 31.3697 10.1589
# 6 -9.8804 1.7244 -5.4552 -3.2608 10.1589 42.7551
#
#
#
# Elastic Compliance Matrix: (Units=1/GPa)
#
#
# Indices 1 2 3 4 5 6 
#
# 1 0.017298 -0.001777 -0.004950 -0.005915 -0.002905 0.003676
# 2 -0.001777 0.009655 -0.001747 -0.005508 -0.000411 -0.001345
# 3 -0.004950 -0.001747 0.016640 -0.004254 0.004348 -0.000308
# 4 -0.005915 -0.005508 -0.004254 0.030577 0.004353 -0.000390
# 5 -0.002905 -0.000411 0.004348 0.004353 0.036848 -0.008523
# 6 0.003676 -0.001345 -0.000308 -0.000390 -0.008523 0.026249
#
#
# Mechanical properties :
#
#
# Convention : Reuss Voigt Hill
#
# Bulk Modulus (GPa) = 37.53111 58.05271 47.79191
# Shear Modulus (GPa) = 30.65690 37.87668 34.26679
#
# Velocity S-wave (km/s) = 3.70590 4.11922 3.91801
# Velocity P-wave (km/s) = 5.92661 6.97355 6.47129
#
# Compressibility (1/GPa) = 0.02664456
#
# Stress axis : x y z
#
# Youngs Moduli (GPa) = 57.81176 103.57689 60.09660
#
# Poissons Ratio (x) = 0.18405 0.29747
# Poissons Ratio (y) = 0.10273 0.10498
# Poissons Ratio (z) = 0.28616 0.18093
#
# Static dielectric constant tensor:
#      x y z
#    x 4.241510 -0.130470 -0.100500 
#    y -0.130470 4.695590 0.151310 
#    z -0.100500 0.151310 3.980420 
# 
# 
# High freq. dielectric constant tensor:
#      x y z
#    x 1.874590 -0.011910 0.006260 
#    y -0.011910 1.897820 0.006970 
#    z 0.006260 0.006970 1.880880 
# 
# From -- ./inp_files/315854.got.cif
#   From: 2010.06.25/outbox.cif.g09.slc.cpg/sg2_158_cif.got.tgz:315854.got - 2010.06.27 13:26:56.
