data_PCOD8014848
_publ_section_title
;
Structure prediction by ZEFSAII (Michael W. Deem and Ramdas Pophale) SiO2 
 PCOD8014848
Probable space group: P -1
;
_chemical_formula_sum "Si O2"
_cell_formula_units_Z 16
_cell_length_a 15.597153
_cell_length_b 16.138468
_cell_length_c 8.788845
_cell_angle_alpha 107.050399
_cell_angle_beta 88.802081
_cell_angle_gamma 154.550524
_cell_volume 731.439131
_symmetry_space_group_name_H-M "P -1"
_symmetry_group_IT_number 2
_symmetry_cell_setting 'triclinic'
loop_
_space_group_symop_operation_xyz
x,y,z
-x,-y,-z
loop_
_atom_site_type_symbol
_atom_site_label
_atom_site_fract_x
_atom_site_fract_y
_atom_site_fract_z
Si Si1 0.489503 0.051421 0.710580
Si Si2 0.612496 0.314321 0.330488
Si Si3 0.815739 0.384556 0.599553
Si Si4 0.708075 0.408628 0.039743
Si Si5 0.327754 0.211952 0.339730
Si Si6 0.770219 0.653692 0.071451
Si Si7 0.171986 0.766045 0.046793
Si Si8 0.507250 0.510315 0.254357
O O1 0.570775 0.157541 0.594809
O O2 0.712792 0.203929 0.848936
O O3 0.224418 0.747580 0.556378
O O4 0.475449 0.124221 0.855048
O O5 0.797964 0.446621 0.515293
O O6 0.756406 0.463547 0.246967
O O7 0.535086 0.334181 0.410028
O O8 0.375565 0.031178 0.149277
O O9 0.071554 0.633554 0.817024
O O10 0.641577 0.439095 0.989176
O O11 0.951984 0.599876 0.059616
O O12 0.355570 0.289635 0.222031
O O13 0.344744 0.293877 0.522719
O O14 0.062397 0.914920 0.194646
O O15 0.705875 0.659849 0.210587
O O16 0.684202 0.609307 0.889447
#
# Coordination Sequence:
#
# PCOD8014848 Si02
#       8
#     2   2   2   2   2   2   2   2
#     4   9  20  39  62  86 118 160 201 246 292 347
#     4  11  23  37  59  91 121 156 198 246 291 352
#     4   9  19  37  60  85 117 155 203 239 292 348
#     4  11  21  38  61  87 124 155 196 247 292 347
#     4  11  22  41  63  89 121 155 195 243 300 350
#     4  11  22  42  64  89 119 158 196 241 299 354
#     4  10  21  42  62  83 120 163 199 243 300 341
#     4  10  24  41  65  90 118 153 199 245 295 355
#
# _framework density 21.874683999999998
#
# number of rings (size 3 to 8) (size 9 to 14) (size 15 to 20)
#    0.000    1.750    2.500    2.250    3.500    2.000 
#    0.000   11.875    0.000    0.000    0.000    0.000 
#    0.000    0.000    0.000    0.000    0.000    0.000 
#
# Total GULP energy -198432.419900 kJ/mol
# GULP energy per Si atom -12402.026244 kJ/mol
# Density = 2.182490 g / cm^3
# Si number density = 21.874684 Si / 1000 Ang^3
#
#
#
# Elastic Constant Matrix: (Units=GPa)
#
#
# Indices 1 2 3 4 5 6 
#
# 1 105.5745 22.9776 35.5406 -10.8989 1.6793 -21.2294
# 2 22.9776 49.2155 30.1374 -12.9177 5.6730 -16.6715
# 3 35.5406 30.1374 101.8883 -7.2595 9.9990 -9.1565
# 4 -10.8989 -12.9177 -7.2595 36.4149 -7.4338 3.6659
# 5 1.6793 5.6730 9.9990 -7.4338 20.4951 -3.4077
# 6 -21.2294 -16.6715 -9.1565 3.6659 -3.4077 34.4106
#
#
#
# Elastic Compliance Matrix: (Units=1/GPa)
#
#
# Indices 1 2 3 4 5 6 
#
# 1 0.012370 -0.001219 -0.003514 0.002562 0.002986 0.006128
# 2 -0.001219 0.031415 -0.007222 0.008128 -0.000185 0.011662
# 3 -0.003514 -0.007222 0.013347 -0.001784 -0.005279 -0.002448
# 4 0.002562 0.008128 -0.001784 0.032676 0.010698 0.002622
# 5 0.002986 -0.000185 -0.005279 0.010698 0.055843 0.004738
# 6 0.006128 0.011662 -0.002448 0.002622 0.004738 0.038031
#
#
# Mechanical properties :
#
#
# Convention : Reuss Voigt Hill
#
# Bulk Modulus (GPa) = 30.09968 48.22107 39.16037
# Shear Modulus (GPa) = 22.86602 29.46564 26.16583
#
# Velocity S-wave (km/s) = 3.23665 3.67416 3.46232
# Velocity P-wave (km/s) = 5.26856 6.33177 5.82448
#
# Compressibility (1/GPa) = 0.03322295
#
# Stress axis : x y z
#
# Youngs Moduli (GPa) = 80.84364 31.83148 74.92040
#
# Poissons Ratio (x) = 0.03881 0.26327
# Poissons Ratio (y) = 0.09856 0.54105
# Poissons Ratio (z) = 0.28408 0.22988
#
# Static dielectric constant tensor:
#      x y z
#    x 3.930830 -0.256300 -0.228050 
#    y -0.256300 3.905120 -0.123970 
#    z -0.228050 -0.123970 4.030770 
# 
# 
# High freq. dielectric constant tensor:
#      x y z
#    x 1.857900 -0.013650 -0.011410 
#    y -0.013650 1.863210 -0.014440 
#    z -0.011410 -0.014440 1.859230 
# 
# From -- ./inp_files/315463.got.cif
#   From: 2010.06.25/outbox.cif.g09.slc.cpg/sg2_158_cif.got.tgz:315463.got - 2010.06.27 13:26:56.
