data_PCOD8014432
_publ_section_title
;
Structure prediction by ZEFSAII (Michael W. Deem and Ramdas Pophale) SiO2 
 PCOD8014432
Probable space group: P -1
;
_chemical_formula_sum "Si O2"
_cell_formula_units_Z 16
_cell_length_a 15.104302
_cell_length_b 12.215921
_cell_length_c 8.571633
_cell_angle_alpha 92.049286
_cell_angle_beta 59.915489
_cell_angle_gamma 139.373917
_cell_volume 704.839711
_symmetry_space_group_name_H-M "P -1"
_symmetry_group_IT_number 2
_symmetry_cell_setting 'triclinic'
loop_
_space_group_symop_operation_xyz
x,y,z
-x,-y,-z
loop_
_atom_site_type_symbol
_atom_site_label
_atom_site_fract_x
_atom_site_fract_y
_atom_site_fract_z
Si Si1 0.093803 0.562341 0.663254
Si Si2 0.730260 0.851396 0.170900
Si Si3 0.553061 0.559042 0.779109
Si Si4 0.134180 0.194932 0.698857
Si Si5 0.808932 0.115915 0.310184
Si Si6 0.185767 0.461748 0.814486
Si Si7 0.313992 0.748726 0.157836
Si Si8 0.495933 0.239582 0.223998
O O1 0.197188 0.757315 0.676605
O O2 0.082342 0.450339 0.785299
O O3 0.232052 0.657911 0.399548
O O4 0.868531 0.382558 0.799445
O O5 0.540650 0.623040 0.250614
O O6 0.808947 0.858127 0.251544
O O7 0.685718 0.935892 0.273752
O O8 0.899626 0.003850 0.894320
O O9 0.787909 0.760483 0.543491
O O10 0.475471 0.604869 0.794953
O O11 0.500000 0.500000 0.000000
O O12 0.247097 0.406070 0.673171
O O13 0.730888 0.005815 0.546274
O O14 0.036561 0.292638 0.080818
O O15 0.378899 0.692259 0.735311
O O16 0.413696 0.726168 0.013082
O O17 0.500000 0.000000 0.000000
#
# Coordination Sequence:
#
# PCOD8014432 Si02
#       8
#     2   2   2   2   2   2   2   2
#     4  11  25  45  68 100 136 177 226 275 329 396
#     4  10  21  42  70  94 126 173 225 272 327 390
#     4  12  26  43  64 101 140 172 218 273 341 408
#     4  10  21  41  67  95 126 172 222 275 327 383
#     4  11  22  41  69 100 128 175 229 278 324 388
#     4  11  24  42  69  99 132 172 230 280 321 387
#     4  11  25  46  66  96 138 180 216 269 339 401
#     4  12  24  42  69  95 133 181 222 275 339 391
#
# _framework density 22.700198
#
# number of rings (size 3 to 8) (size 9 to 14) (size 15 to 20)
#    0.000    1.000    5.000    1.500    1.750    2.000 
#    4.500    0.000    0.000    0.000    0.000    0.000 
#    0.000    0.000    0.000    0.000    0.000    0.000 
#
# Total GULP energy -198223.445582 kJ/mol
# GULP energy per Si atom -12388.965349 kJ/mol
# Density = 2.264853 g / cm^3
# Si number density = 22.700198 Si / 1000 Ang^3
#
#
#
# Elastic Constant Matrix: (Units=GPa)
#
#
# Indices 1 2 3 4 5 6 
#
# 1 58.5425 36.2217 41.6990 2.3604 4.5030 -7.0081
# 2 36.2217 126.1665 48.1533 1.5712 -7.5628 -26.8063
# 3 41.6990 48.1533 203.5907 22.7291 -10.2300 -9.7311
# 4 2.3604 1.5712 22.7291 35.8291 -10.4975 -5.0551
# 5 4.5030 -7.5628 -10.2300 -10.4975 23.5583 3.3055
# 6 -7.0081 -26.8063 -9.7311 -5.0551 3.3055 18.4687
#
#
#
# Elastic Compliance Matrix: (Units=1/GPa)
#
#
# Indices 1 2 3 4 5 6 
#
# 1 0.024287 -0.006150 -0.003816 -0.001599 -0.008907 -0.000565
# 2 -0.006150 0.014362 -0.001560 0.004687 0.004652 0.018140
# 3 -0.003816 -0.001560 0.006464 -0.003506 0.001693 -0.001569
# 4 -0.001599 0.004687 -0.003506 0.035971 0.014694 0.011565
# 5 -0.008907 0.004652 0.001693 0.014694 0.053097 -0.001217
# 6 -0.000565 0.018140 -0.001569 0.011565 -0.001217 0.082817
#
#
# Mechanical properties :
#
#
# Convention : Reuss Voigt Hill
#
# Bulk Modulus (GPa) = 45.32910 71.16084 58.24497
# Shear Modulus (GPa) = 20.20997 33.05294 26.63145
#
# Velocity S-wave (km/s) = 2.98703 3.81998 3.42889
# Velocity P-wave (km/s) = 5.64875 7.13250 6.43354
#
# Compressibility (1/GPa) = 0.02206088
#
# Stress axis : x y z
#
# Youngs Moduli (GPa) = 41.17469 69.62993 154.70933
#
# Poissons Ratio (x) = 0.42824 0.59033
# Poissons Ratio (y) = 0.25324 0.24128
# Poissons Ratio (z) = 0.15711 0.10859
#
# Static dielectric constant tensor:
#      x y z
#    x 3.515550 -0.184910 -0.216800 
#    y -0.184910 4.224630 0.142400 
#    z -0.216800 0.142400 4.567290 
# 
# 
# High freq. dielectric constant tensor:
#      x y z
#    x 1.838890 -0.026830 -0.018280 
#    y -0.026830 1.902660 0.002560 
#    z -0.018280 0.002560 1.934460 
# 
# From -- ./inp_files/333369.got.cif
#   From: 2010.06.25/outbox.cif.g09.slc.cpg/sg2_167_cif.got.tgz:333369.got - 2010.06.27 13:26:56.
