data_PCOD8014728
_publ_section_title
;
Structure prediction by ZEFSAII (Michael W. Deem and Ramdas Pophale) SiO2 
 PCOD8014728
Probable space group: P -1
;
_chemical_formula_sum "Si O2"
_cell_formula_units_Z 16
_cell_length_a 23.108961
_cell_length_b 9.000523
_cell_length_c 21.681150
_cell_angle_alpha 28.560010
_cell_angle_beta 160.264163
_cell_angle_gamma 150.936668
_cell_volume 695.985401
_symmetry_space_group_name_H-M "P -1"
_symmetry_group_IT_number 2
_symmetry_cell_setting 'triclinic'
loop_
_space_group_symop_operation_xyz
x,y,z
-x,-y,-z
loop_
_atom_site_type_symbol
_atom_site_label
_atom_site_fract_x
_atom_site_fract_y
_atom_site_fract_z
Si Si1 0.747167 0.347886 0.167967
Si Si2 0.364060 0.697975 0.285389
Si Si3 0.909900 0.342814 0.529827
Si Si4 0.897731 0.633367 0.963150
Si Si5 0.753437 0.628487 0.460545
Si Si6 0.209712 0.379571 0.364392
Si Si7 0.422627 0.579261 0.765277
Si Si8 0.909828 0.637841 0.109221
O O1 0.748509 0.434863 0.065078
O O2 0.921027 0.624894 0.267584
O O3 0.782911 0.008794 0.340425
O O4 0.550215 0.351139 0.994064
O O5 0.500000 0.500000 0.500000
O O6 0.244680 0.527931 0.171319
O O7 0.271594 0.665256 0.271572
O O8 0.453759 0.066021 0.223174
O O9 0.763801 0.513133 0.348825
O O10 0.000000 0.500000 0.500000
O O11 0.795896 0.968958 0.542114
O O12 0.819581 0.656394 0.944975
O O13 0.004512 0.993205 0.915711
O O14 0.010805 0.381866 0.179438
O O15 0.678496 0.546857 0.485589
O O16 0.617828 0.429461 0.345368
O O17 0.940039 0.549653 0.669684
#
# Coordination Sequence:
#
# PCOD8014728 Si02
#       8
#     2   2   2   2   2   2   2   2
#     4  12  24  44  73 101 141 187 233 291 344 414
#     4  12  23  41  67  99 145 177 222 297 344 412
#     4  12  25  47  71 101 142 183 232 285 345 419
#     4  10  22  40  69 104 136 183 238 286 351 422
#     4  11  24  45  68 101 142 186 237 283 345 420
#     4  11  23  44  71 102 136 185 233 284 355 406
#     4  12  27  44  70 106 139 188 235 284 353 414
#     4  10  21  41  71 102 138 185 237 289 350 413
#
# _framework density 22.988987999999999
#
# number of rings (size 3 to 8) (size 9 to 14) (size 15 to 20)
#    0.000    0.750    3.750    4.125    0.000    2.000 
#    0.000    0.000    0.000    0.000    0.000    0.000 
#    0.000    0.000    0.000    0.000    0.000    0.000 
#
# Total GULP energy -198271.589644 kJ/mol
# GULP energy per Si atom -12391.974353 kJ/mol
# Density = 2.293666 g / cm^3
# Si number density = 22.988988 Si / 1000 Ang^3
#
#
#
# Elastic Constant Matrix: (Units=GPa)
#
#
# Indices 1 2 3 4 5 6 
#
# 1 116.2552 45.3554 57.6909 21.7225 -12.9824 -7.0831
# 2 45.3554 81.7994 33.9009 -0.1907 -10.1622 -14.1463
# 3 57.6909 33.9009 110.2290 -0.8888 6.2485 -7.6790
# 4 21.7225 -0.1907 -0.8888 38.4025 -6.3377 -2.6107
# 5 -12.9824 -10.1622 6.2485 -6.3377 43.4945 -0.4898
# 6 -7.0831 -14.1463 -7.6790 -2.6107 -0.4898 33.1882
#
#
#
# Elastic Compliance Matrix: (Units=1/GPa)
#
#
# Indices 1 2 3 4 5 6 
#
# 1 0.016447 -0.006041 -0.007099 -0.009066 0.003181 -0.001373
# 2 -0.006041 0.017958 -0.002081 0.004448 0.003411 0.006284
# 3 -0.007099 -0.002081 0.013757 0.003728 -0.004027 0.001015
# 4 -0.009066 0.004448 0.003728 0.031916 0.002486 0.003371
# 5 0.003181 0.003411 -0.004027 0.002486 0.025699 0.001776
# 6 -0.001373 0.006284 0.001015 0.003371 0.001776 0.033043
#
#
# Mechanical properties :
#
#
# Convention : Reuss Voigt Hill
#
# Bulk Modulus (GPa) = 56.43536 64.68645 60.56091
# Shear Modulus (GPa) = 28.54424 34.43947 31.49185
#
# Velocity S-wave (km/s) = 3.52753 3.87471 3.70519
# Velocity P-wave (km/s) = 6.41821 6.94384 6.68619
#
# Compressibility (1/GPa) = 0.01771939
#
# Stress axis : x y z
#
# Youngs Moduli (GPa) = 60.80163 55.68652 72.69237
#
# Poissons Ratio (x) = 0.33638 0.51606
# Poissons Ratio (y) = 0.36728 0.15128
# Poissons Ratio (z) = 0.43164 0.11589
#
# Static dielectric constant tensor:
#      x y z
#    x 4.293030 -0.277240 0.040270 
#    y -0.277240 3.998560 -0.048110 
#    z 0.040270 -0.048110 4.245030 
# 
# 
# High freq. dielectric constant tensor:
#      x y z
#    x 1.918740 -0.018810 -0.005600 
#    y -0.018810 1.897070 -0.009000 
#    z -0.005600 -0.009000 1.914940 
# 
# From -- ./inp_files/601925.got.cif
#   From: 2010.06.25/outbox.cif.g09.slc.cpg/sg2_301_cif.got.tgz:601925.got - 2010.06.27 13:26:56.
