data_PCOD8014071
_publ_section_title
;
Structure prediction by ZEFSAII (Michael W. Deem and Ramdas Pophale) SiO2 
 PCOD8014071
Probable space group: P -1
;
_chemical_formula_sum "Si O2"
_cell_formula_units_Z 16
_cell_length_a 12.548952
_cell_length_b 11.949822
_cell_length_c 11.552705
_cell_angle_alpha 43.564522
_cell_angle_beta 97.828214
_cell_angle_gamma 65.393145
_cell_volume 776.377638
_symmetry_space_group_name_H-M "P -1"
_symmetry_group_IT_number 2
_symmetry_cell_setting 'triclinic'
loop_
_space_group_symop_operation_xyz
x,y,z
-x,-y,-z
loop_
_atom_site_type_symbol
_atom_site_label
_atom_site_fract_x
_atom_site_fract_y
_atom_site_fract_z
Si Si1 0.542278 0.852610 0.916891
Si Si2 0.890133 0.945215 0.406142
Si Si3 0.602524 0.792945 0.575176
Si Si4 0.550185 0.346695 0.420510
Si Si5 0.240612 0.686023 0.694958
Si Si6 0.239900 0.103297 0.044861
Si Si7 0.301762 0.904421 0.967994
Si Si8 0.943295 0.540697 0.831010
O O1 0.632122 0.605110 0.045343
O O2 0.679496 0.811329 0.025281
O O3 0.423041 0.914634 0.948895
O O4 0.429524 0.086030 0.642233
O O5 0.884687 0.778226 0.593217
O O6 0.073271 0.804084 0.530137
O O7 0.781896 0.195569 0.275817
O O8 0.815421 0.012659 0.216847
O O9 0.545800 0.672233 0.659050
O O10 0.795325 0.581793 0.786107
O O11 0.500000 0.000000 0.500000
O O12 0.691524 0.268561 0.424539
O O13 0.632204 0.166147 0.676999
O O14 0.414748 0.627281 0.234078
O O15 0.081049 0.300774 0.952967
O O16 0.191536 0.087400 0.923570
O O17 0.000000 0.500000 0.000000
#
# Coordination Sequence:
#
# PCOD8014071 Si02
#       8
#     2   2   2   2   2   2   2   2
#     4  10  21  41  64  96 125 175 216 269 313 383
#     4  11  23  40  64 100 130 168 215 267 335 376
#     4  11  23  39  66  97 128 166 219 267 321 381
#     4  10  24  42  64  94 127 175 216 266 322 376
#     4  10  22  41  65  93 133 166 213 274 324 380
#     4  11  23  44  65  95 130 175 218 262 326 388
#     4  11  24  41  66  94 135 172 219 263 322 393
#     4  12  24  43  67  96 132 168 215 273 326 382
#
# _framework density 20.608526999999999
#
# number of rings (size 3 to 8) (size 9 to 14) (size 15 to 20)
#    0.000    1.250    2.500    3.750    1.750    3.500 
#    0.000    3.750    0.000    0.000    0.000    0.000 
#    0.000    0.000    0.000    0.000    0.000    0.000 
#
# Total GULP energy -198440.839777 kJ/mol
# GULP energy per Si atom -12402.552486 kJ/mol
# Density = 2.056162 g / cm^3
# Si number density = 20.608527 Si / 1000 Ang^3
#
#
#
# Elastic Constant Matrix: (Units=GPa)
#
#
# Indices 1 2 3 4 5 6 
#
# 1 110.3803 34.6137 13.3239 2.2875 11.1064 3.8760
# 2 34.6137 146.5821 26.0781 7.6491 16.4170 -7.0719
# 3 13.3239 26.0781 60.3012 5.6026 5.8521 -2.3690
# 4 2.2875 7.6491 5.6026 25.8577 3.4147 9.2378
# 5 11.1064 16.4170 5.8521 3.4147 36.9748 -3.1401
# 6 3.8760 -7.0719 -2.3690 9.2378 -3.1401 23.0918
#
#
#
# Elastic Compliance Matrix: (Units=1/GPa)
#
#
# Indices 1 2 3 4 5 6 
#
# 1 0.010227 -0.002157 -0.001383 0.001581 -0.002336 -0.003469
# 2 -0.002157 0.008324 -0.002536 -0.002670 -0.002108 0.003432
# 3 -0.001383 -0.002536 0.018553 -0.004076 -0.000774 0.002884
# 4 0.001581 -0.002670 -0.004076 0.048583 -0.004966 -0.021612
# 5 -0.002336 -0.002108 -0.000774 -0.004966 0.029748 0.005699
# 6 -0.003469 0.003432 0.002884 -0.021612 0.005699 0.054656
#
#
# Mechanical properties :
#
#
# Convention : Reuss Voigt Hill
#
# Bulk Modulus (GPa) = 40.07791 51.69945 45.88868
# Shear Modulus (GPa) = 26.23852 33.40140 29.81996
#
# Velocity S-wave (km/s) = 3.57205 4.03023 3.80804
# Velocity P-wave (km/s) = 6.04170 6.84090 6.45368
#
# Compressibility (1/GPa) = 0.02495140
#
# Stress axis : x y z
#
# Youngs Moduli (GPa) = 97.77927 120.13951 53.90058
#
# Poissons Ratio (x) = 0.25916 0.07456
# Poissons Ratio (y) = 0.21093 0.13667
# Poissons Ratio (z) = 0.13526 0.30462
#
# Static dielectric constant tensor:
#      x y z
#    x 3.990070 0.124690 -0.041130 
#    y 0.124690 3.659260 -0.078030 
#    z -0.041130 -0.078030 3.543320 
# 
# 
# High freq. dielectric constant tensor:
#      x y z
#    x 1.819760 0.004470 -0.005030 
#    y 0.004470 1.803240 -0.006540 
#    z -0.005030 -0.006540 1.807390 
# 
# From -- ./inp_files/215531.got.cif
#   From: 2010.06.25/outbox.cif.g09.slc.cpg/sg2_108_cif.got.tgz:215531.got - 2010.06.27 13:26:56.
