data_PCOD8014677
_publ_section_title
;
Structure prediction by ZEFSAII (Michael W. Deem and Ramdas Pophale) SiO2 
 PCOD8014677
Probable space group: P -1
;
_chemical_formula_sum "Si O2"
_cell_formula_units_Z 16
_cell_length_a 15.741475
_cell_length_b 7.870545
_cell_length_c 9.236610
_cell_angle_alpha 83.125577
_cell_angle_beta 46.952084
_cell_angle_gamma 110.215871
_cell_volume 671.028532
_symmetry_space_group_name_H-M "P -1"
_symmetry_group_IT_number 2
_symmetry_cell_setting 'triclinic'
loop_
_space_group_symop_operation_xyz
x,y,z
-x,-y,-z
loop_
_atom_site_type_symbol
_atom_site_label
_atom_site_fract_x
_atom_site_fract_y
_atom_site_fract_z
Si Si1 0.177814 0.052951 0.426151
Si Si2 0.873740 0.493741 0.220831
Si Si3 0.864743 0.373905 0.567064
Si Si4 0.250059 0.440540 0.132538
Si Si5 0.890985 0.777734 0.948951
Si Si6 0.551962 0.106293 0.584049
Si Si7 0.563732 0.768688 0.697139
Si Si8 0.381546 0.253129 0.681476
O O1 0.179053 0.863000 0.375581
O O2 0.051204 0.971054 0.698728
O O3 0.166198 0.197430 0.310535
O O4 0.329245 0.216351 0.312084
O O5 0.892859 0.492568 0.369985
O O6 0.719146 0.297799 0.367859
O O7 0.891156 0.702953 0.119761
O O8 0.000000 0.500000 0.000000
O O9 0.747453 0.394024 0.780072
O O10 0.000000 0.500000 0.500000
O O11 0.165089 0.412330 0.084995
O O12 0.415367 0.533481 0.896550
O O13 0.775012 0.830275 0.068680
O O14 0.449156 0.179791 0.728127
O O15 0.500000 0.000000 0.500000
O O16 0.527942 0.939236 0.750609
O O17 0.641300 0.840890 0.443384
O O18 0.500000 0.500000 0.500000
#
# Coordination Sequence:
#
# PCOD8014677 Si02
#       8
#     2   2   2   2   2   2   2   2
#     4  12  27  50  73 112 155 197 261 317 380 457
#     4  12  22  45  77 108 148 194 252 321 373 456
#     4  12  27  49  77 110 155 204 253 311 395 455
#     4  12  27  49  75 107 156 206 252 314 382 456
#     4  12  24  47  76 110 154 195 256 316 375 463
#     4  10  21  41  70 109 150 184 248 311 379 451
#     4  11  24  48  71 109 150 197 258 314 374 460
#     4  11  22  41  75 110 148 196 246 315 393 442
#
# _framework density 23.843995
#
# number of rings (size 3 to 8) (size 9 to 14) (size 15 to 20)
#    0.000    0.500    6.250    1.500    1.750    2.000 
#    6.750    0.000    0.000    0.000    0.000    0.000 
#    0.000    0.000    0.000    0.000    0.000    0.000 
#
# Total GULP energy -198290.461143 kJ/mol
# GULP energy per Si atom -12393.153821 kJ/mol
# Density = 2.378972 g / cm^3
# Si number density = 23.843995 Si / 1000 Ang^3
#
#
#
# Elastic Constant Matrix: (Units=GPa)
#
#
# Indices 1 2 3 4 5 6 
#
# 1 127.9146 23.7538 41.3996 -0.8492 -10.7506 -0.6382
# 2 23.7538 64.5849 31.5628 0.3842 -0.3085 -19.6909
# 3 41.3996 31.5628 113.2434 -2.7071 -7.4613 -3.4092
# 4 -0.8492 0.3842 -2.7071 41.6500 1.0722 -2.2802
# 5 -10.7506 -0.3085 -7.4613 1.0722 39.8002 -1.7758
# 6 -0.6382 -19.6909 -3.4092 -2.2802 -1.7758 46.1867
#
#
#
# Elastic Compliance Matrix: (Units=1/GPa)
#
#
# Indices 1 2 3 4 5 6 
#
# 1 0.009275 -0.002438 -0.002615 -0.000065 0.001952 -0.001033
# 2 -0.002438 0.021413 -0.004884 -0.000063 -0.001019 0.008692
# 3 -0.002615 -0.004884 0.011211 0.000621 0.001287 -0.001210
# 4 -0.000065 -0.000063 0.000621 0.024127 -0.000499 0.001190
# 5 0.001952 -0.001019 0.001287 -0.000499 0.025929 0.000660
# 6 -0.001033 0.008692 -0.001210 0.001190 0.000660 0.025338
#
#
# Mechanical properties :
#
#
# Convention : Reuss Voigt Hill
#
# Bulk Modulus (GPa) = 45.40411 55.46392 50.43401
# Shear Modulus (GPa) = 34.59993 39.46249 37.03121
#
# Velocity S-wave (km/s) = 3.81346 4.07262 3.94517
# Velocity P-wave (km/s) = 6.20270 6.73993 6.47688
#
# Compressibility (1/GPa) = 0.02202444
#
# Stress axis : x y z
#
# Youngs Moduli (GPa) = 107.81143 46.70137 89.19853
#
# Poissons Ratio (x) = 0.11388 0.23328
# Poissons Ratio (y) = 0.26289 0.43560
# Poissons Ratio (z) = 0.28196 0.22807
#
# Static dielectric constant tensor:
#      x y z
#    x 4.622960 -0.420640 -0.029450 
#    y -0.420640 4.517660 0.300260 
#    z -0.029450 0.300260 4.366330 
# 
# 
# High freq. dielectric constant tensor:
#      x y z
#    x 1.965400 -0.004590 -0.010670 
#    y -0.004590 1.933870 0.000210 
#    z -0.010670 0.000210 1.940520 
# 
# From -- ./inp_files/298147.got.cif
#   From: 2010.06.25/outbox.cif.g09.slc.cpg/sg2_150_cif.got.tgz:298147.got - 2010.06.27 13:26:56.
