data_PCOD8014246
_publ_section_title
;
Structure prediction by ZEFSAII (Michael W. Deem and Ramdas Pophale) SiO2 
 PCOD8014246
Probable space group: P -1
;
_chemical_formula_sum "Si O2"
_cell_formula_units_Z 16
_cell_length_a 20.511146
_cell_length_b 20.988568
_cell_length_c 8.430842
_cell_angle_alpha 49.510915
_cell_angle_beta 138.263935
_cell_angle_gamma 160.149488
_cell_volume 797.941733
_symmetry_space_group_name_H-M "P -1"
_symmetry_group_IT_number 2
_symmetry_cell_setting 'triclinic'
loop_
_space_group_symop_operation_xyz
x,y,z
-x,-y,-z
loop_
_atom_site_type_symbol
_atom_site_label
_atom_site_fract_x
_atom_site_fract_y
_atom_site_fract_z
Si Si1 0.672484 0.032617 0.347287
Si Si2 0.953078 0.166184 0.917621
Si Si3 0.185209 0.713484 0.020925
Si Si4 0.606271 0.470274 0.367946
Si Si5 0.786304 0.894441 0.263249
Si Si6 0.418932 0.503322 0.071145
Si Si7 0.915415 0.617485 0.907622
Si Si8 0.429406 0.195503 0.686498
O O1 0.826511 0.109715 0.633318
O O2 0.789990 0.208509 0.215694
O O3 0.644497 0.950883 0.277018
O O4 0.428035 0.860197 0.261105
O O5 0.187443 0.307576 0.056621
O O6 0.987935 0.264010 0.953936
O O7 0.813865 0.981042 0.030860
O O8 0.109353 0.706633 0.048913
O O9 0.000000 0.500000 0.000000
O O10 0.541642 0.511688 0.243547
O O11 0.847506 0.632957 0.622464
O O12 0.418592 0.257874 0.426801
O O13 0.626644 0.480902 0.198726
O O14 0.569618 0.671701 0.193523
O O15 0.745995 0.914681 0.318068
O O16 0.000000 0.000000 0.500000
O O17 0.687847 0.389774 0.907350
#
# Coordination Sequence:
#
# PCOD8014246 Si02
#       8
#     2   2   2   2   2   2   2   2
#     4  11  25  41  70  99 123 165 222 265 317 397
#     4  12  25  40  64  99 131 172 212 269 316 380
#     4  11  22  45  71  94 125 167 211 266 335 382
#     4   9  20  36  66  85 123 175 214 256 319 379
#     4  12  25  38  65  94 135 176 222 260 315 377
#     4  11  21  40  59  93 130 170 218 267 317 377
#     4  10  21  41  66  87 129 173 202 264 328 377
#     4  10  21  43  63  90 128 171 213 256 322 382
#
# _framework density 20.051589
#
# number of rings (size 3 to 8) (size 9 to 14) (size 15 to 20)
#    0.750    0.500    2.500    3.750    0.000    5.000 
#    0.000    5.000    0.000    0.000    0.000    0.000 
#    0.000    0.000    0.000    0.000    0.000    0.000 
#
# Total GULP energy -198419.596645 kJ/mol
# GULP energy per Si atom -12401.224790 kJ/mol
# Density = 2.000595 g / cm^3
# Si number density = 20.051589 Si / 1000 Ang^3
#
#
#
# Elastic Constant Matrix: (Units=GPa)
#
#
# Indices 1 2 3 4 5 6 
#
# 1 125.9788 18.7021 23.7490 12.9124 19.4116 7.4187
# 2 18.7021 99.8497 23.9213 -4.3496 8.6564 1.2825
# 3 23.7490 23.9213 51.6879 8.7264 13.0468 -7.9940
# 4 12.9124 -4.3496 8.7264 31.7507 5.0303 0.4645
# 5 19.4116 8.6564 13.0468 5.0303 21.8352 3.6831
# 6 7.4187 1.2825 -7.9940 0.4645 3.6831 35.0534
#
#
#
# Elastic Compliance Matrix: (Units=1/GPa)
#
#
# Indices 1 2 3 4 5 6 
#
# 1 0.009823 -0.000795 -0.002518 -0.002429 -0.006023 -0.001959
# 2 -0.000795 0.011801 -0.005646 0.003704 -0.001203 -0.001474
# 3 -0.002518 -0.005646 0.028658 -0.005726 -0.012794 0.008695
# 4 -0.002429 0.003704 -0.005726 0.035185 -0.003826 -0.000991
# 5 -0.006023 -0.001203 -0.012794 -0.003826 0.061506 -0.008011
# 6 -0.001959 -0.001474 0.008695 -0.000991 -0.008011 0.031834
#
#
# Mechanical properties :
#
#
# Convention : Reuss Voigt Hill
#
# Bulk Modulus (GPa) = 30.89881 45.58457 38.24169
# Shear Modulus (GPa) = 24.09484 31.80412 27.94948
#
# Velocity S-wave (km/s) = 3.47023 3.98693 3.73752
# Velocity P-wave (km/s) = 5.61247 6.63152 6.14316
#
# Compressibility (1/GPa) = 0.03236371
#
# Stress axis : x y z
#
# Youngs Moduli (GPa) = 101.80274 84.73763 34.89462
#
# Poissons Ratio (x) = 0.06737 0.08787
# Poissons Ratio (y) = 0.08094 0.19701
# Poissons Ratio (z) = 0.25634 0.47842
#
# Static dielectric constant tensor:
#      x y z
#    x 3.721460 0.077490 0.094290 
#    y 0.077490 3.716450 -0.048110 
#    z 0.094290 -0.048110 3.535910 
# 
# 
# High freq. dielectric constant tensor:
#      x y z
#    x 1.794890 0.004140 0.007930 
#    y 0.004140 1.790950 -0.000570 
#    z 0.007930 -0.000570 1.767250 
# 
# From -- ./inp_files/349490.got.cif
#   From: 2010.06.25/outbox.cif.g09.slc.cpg/sg2_175_cif.got.tgz:349490.got - 2010.06.27 13:26:56.
