data_PCOD8014919
_publ_section_title
;
Structure prediction by ZEFSAII (Michael W. Deem and Ramdas Pophale) SiO2 
 PCOD8014919
Probable space group: P -1
;
_chemical_formula_sum "Si O2"
_cell_formula_units_Z 16
_cell_length_a 14.394922
_cell_length_b 11.950266
_cell_length_c 10.721684
_cell_angle_alpha 144.779707
_cell_angle_beta 114.731763
_cell_angle_gamma 47.396687
_cell_volume 742.519740
_symmetry_space_group_name_H-M "P -1"
_symmetry_group_IT_number 2
_symmetry_cell_setting 'triclinic'
loop_
_space_group_symop_operation_xyz
x,y,z
-x,-y,-z
loop_
_atom_site_type_symbol
_atom_site_label
_atom_site_fract_x
_atom_site_fract_y
_atom_site_fract_z
Si Si1 0.606103 0.087565 0.229016
Si Si2 0.329769 0.562768 0.453332
Si Si3 0.846556 0.531161 0.841594
Si Si4 0.209050 0.749610 0.826603
Si Si5 0.386828 0.079515 0.657500
Si Si6 0.420101 0.406316 0.836115
Si Si7 0.100172 0.428630 0.812837
Si Si8 0.007207 0.694219 0.751045
O O1 0.465728 0.270223 0.240611
O O2 0.650869 0.253379 0.434091
O O3 0.568555 0.011439 0.260083
O O4 0.733441 0.824262 1.000000
O O5 0.204607 0.616979 0.364158
O O6 0.299249 0.628960 0.643417
O O7 0.982709 0.413285 0.738214
O O8 0.880674 0.483158 0.963986
O O9 0.295801 0.619280 0.879248
O O10 0.094786 0.724520 0.737635
O O11 0.140631 0.042726 0.070438
O O12 0.376580 0.327445 0.858755
O O13 0.242644 0.155399 0.618209
O O14 0.491296 0.851371 0.422487
O O15 0.500000 0.500000 0.000000
O O16 0.072345 0.606749 0.845261
O O17 0.000000 0.500000 0.500000
#
# Coordination Sequence:
#
# PCOD8014919 Si02
#       8
#     2   2   2   2   2   2   2   2
#     4  10  22  41  63  95 131 169 221 268 312 396
#     4  11  22  42  64  96 133 171 217 269 328 375
#     4  10  22  41  65  92 128 176 214 268 329 372
#     4  11  24  43  63 100 131 161 225 265 315 407
#     4  10  22  43  64  91 136 166 219 271 312 389
#     4  11  24  42  66  94 130 174 214 268 328 378
#     4  10  21  42  63  94 130 167 224 259 314 398
#     4  11  24  42  67  93 131 173 206 269 334 381
#
# _framework density 21.548248999999998
#
# number of rings (size 3 to 8) (size 9 to 14) (size 15 to 20)
#    0.000    1.500    2.500    1.875    1.750    2.000 
#    4.500   10.000    0.000    0.000    0.000    0.000 
#    0.000    0.000    0.000    0.000    0.000    0.000 
#
# Total GULP energy -198304.450000 kJ/mol
# GULP energy per Si atom -12394.028125 kJ/mol
# Density = 2.149920 g / cm^3
# Si number density = 21.548249 Si / 1000 Ang^3
#
#
#
# Elastic Constant Matrix: (Units=GPa)
#
#
# Indices 1 2 3 4 5 6 
#
# 1 62.3078 20.9354 -19.8310 5.8911 18.1291 -14.9462
# 2 20.9354 98.0686 25.2680 7.5674 12.5880 0.3440
# 3 -19.8310 25.2680 19.0504 16.4717 24.1130 -17.9460
# 4 5.8911 7.5674 16.4717 24.1942 -14.0840 2.9539
# 5 18.1291 12.5880 24.1130 -14.0840 30.1279 3.5521
# 6 -14.9462 0.3440 -17.9460 2.9539 3.5521 40.1358
#
#
#
# Elastic Compliance Matrix: (Units=1/GPa)
#
#
# Indices 1 2 3 4 5 6 
#
# 1 0.009263 -0.001155 -0.010211 0.010084 0.008098 -0.002565
# 2 -0.001155 0.012143 -0.000478 -0.007711 -0.007660 0.000498
# 3 -0.010211 -0.000478 -0.004016 0.017253 0.018627 -0.008512
# 4 0.010084 -0.007711 0.017253 0.024572 -0.006381 0.010292
# 5 0.008098 -0.007660 0.018627 -0.006381 0.012356 0.010786
# 6 -0.002565 0.000498 -0.008512 0.010292 0.010786 0.018438
#
#
# Mechanical properties :
#
#
# Convention : Reuss Voigt Hill
#
# Bulk Modulus (GPa) = -158.78912 25.79686 -66.49613
# Shear Modulus (GPa) = 52.99809 29.09521 41.04665
#
# Velocity S-wave (km/s) = 4.96472 3.67854 4.36922
# Velocity P-wave (km/s) = 6.40198 5.48087 2.33939
#
# Compressibility (1/GPa) = -0.00629766
#
# Stress axis : x y z
#
# Youngs Moduli (GPa) = 107.95832 82.35136 -248.97844
#
# Poissons Ratio (x) = 0.09513 -2.54224
# Poissons Ratio (y) = 0.12471 -0.11896
# Poissons Ratio (z) = 1.10233 0.03935
#
# Static dielectric constant tensor:
#      x y z
#    x 4.389330 0.028630 -0.014680 
#    y 0.028630 3.996500 0.253940 
#    z -0.014680 0.253940 3.573970 
# 
# 
# High freq. dielectric constant tensor:
#      x y z
#    x 1.867990 -0.004110 -0.002360 
#    y -0.004110 1.852430 0.015000 
#    z -0.002360 0.015000 1.819830 
# 
# From -- ./inp_files/451994.got.cif
#   From: 2010.06.25/outbox.cif.g09.slc.cpg/sg2_226_cif.got.tgz:451994.got - 2010.06.27 13:26:56.
