data_PCOD8014069
_publ_section_title
;
Structure prediction by ZEFSAII (Michael W. Deem and Ramdas Pophale) SiO2 
 PCOD8014069
Probable space group: P -1
;
_chemical_formula_sum "Si O2"
_cell_formula_units_Z 10
_cell_length_a 22.620786
_cell_length_b 11.474023
_cell_length_c 6.188935
_cell_angle_alpha 128.719507
_cell_angle_beta 52.091666
_cell_angle_gamma 159.787663
_cell_volume 430.770898
_symmetry_space_group_name_H-M "P -1"
_symmetry_group_IT_number 2
_symmetry_cell_setting 'triclinic'
loop_
_space_group_symop_operation_xyz
x,y,z
-x,-y,-z
loop_
_atom_site_type_symbol
_atom_site_label
_atom_site_fract_x
_atom_site_fract_y
_atom_site_fract_z
Si Si1 0.100125 0.287185 0.334678
Si Si2 0.726747 0.546810 0.229995
Si Si3 0.317732 0.806529 0.818926
Si Si4 0.844056 0.325962 0.599774
Si Si5 0.533077 0.716446 0.289791
O O1 0.167596 0.468101 0.617857
O O2 0.079471 0.381097 0.313850
O O3 0.232361 0.404752 0.061558
O O4 0.909852 0.881161 0.331569
O O5 0.617432 0.209890 0.185587
O O6 0.617487 0.503207 0.459478
O O7 0.463735 0.142972 0.731095
O O8 0.249173 0.819859 0.131418
O O9 0.000000 0.500000 0.500000
O O10 0.713087 0.022893 0.366101
O O11 0.500000 0.500000 0.000000
#
# Coordination Sequence:
#
# PCOD8014069 Si02
#       5
#     2   2   2   2   2
#     4   9  21  40  68  93 123 168 207 261 305 374
#     4  10  21  41  64  96 125 160 215 256 308 373
#     4  10  22  41  65  90 123 172 204 255 319 364
#     4  10  24  42  63  92 129 168 209 253 314 376
#     4  11  26  41  62  97 129 164 206 263 309 370
#
# _framework density 23.214195
#
# number of rings (size 3 to 8) (size 9 to 14) (size 15 to 20)
#    0.000    2.000    0.000    1.200    5.600   11.200 
#    0.000    0.000    0.000    0.000    0.000    0.000 
#    0.000    0.000    0.000    0.000    0.000    0.000 
#
# Total GULP energy -123957.309385 kJ/mol
# GULP energy per Si atom -12395.730938 kJ/mol
# Density = 2.316136 g / cm^3
# Si number density = 23.214195 Si / 1000 Ang^3
#
#
#
# Elastic Constant Matrix: (Units=GPa)
#
#
# Indices 1 2 3 4 5 6 
#
# 1 62.0418 28.9267 39.8674 -10.9459 -8.9347 10.8679
# 2 28.9267 89.9152 43.8684 -0.3944 -10.7884 -1.3555
# 3 39.8674 43.8684 147.1519 4.1868 -20.3036 12.8455
# 4 -10.9459 -0.3944 4.1868 41.3339 9.7821 -4.5191
# 5 -8.9347 -10.7884 -20.3036 9.7821 41.8793 -6.1993
# 6 10.8679 -1.3555 12.8455 -4.5191 -6.1993 27.6858
#
#
#
# Elastic Compliance Matrix: (Units=1/GPa)
#
#
# Indices 1 2 3 4 5 6 
#
# 1 0.023761 -0.005654 -0.004478 0.006192 -0.001002 -0.006740
# 2 -0.005654 0.014684 -0.002930 -0.001051 0.002081 0.004592
# 3 -0.004478 -0.002930 0.009670 -0.003277 0.003350 -0.002657
# 4 0.006192 -0.001051 -0.003277 0.027985 -0.006765 0.002091
# 5 -0.001002 0.002081 0.003350 -0.006765 0.028013 0.004109
# 6 -0.006740 0.004592 -0.002657 0.002091 0.004109 0.041484
#
#
# Mechanical properties :
#
#
# Convention : Reuss Voigt Hill
#
# Bulk Modulus (GPa) = 45.47243 58.27044 51.87143
# Shear Modulus (GPa) = 27.92517 34.60955 31.26736
#
# Velocity S-wave (km/s) = 3.47210 3.86538 3.67400
# Velocity P-wave (km/s) = 5.97534 6.71396 6.35539
#
# Compressibility (1/GPa) = 0.02199135
#
# Stress axis : x y z
#
# Youngs Moduli (GPa) = 42.08653 68.10042 103.41685
#
# Poissons Ratio (x) = 0.38504 0.46309
# Poissons Ratio (y) = 0.23796 0.30296
# Poissons Ratio (z) = 0.18846 0.19950
#
# Static dielectric constant tensor:
#      x y z
#    x 3.844330 -0.255280 0.080700 
#    y -0.255280 4.187570 -0.097500 
#    z 0.080700 -0.097500 4.468490 
# 
# 
# High freq. dielectric constant tensor:
#      x y z
#    x 1.893150 -0.007750 0.006970 
#    y -0.007750 1.916040 -0.001560 
#    z 0.006970 -0.001560 1.938420 
# 
# From -- ./inp_files/15302.got.cif
#   From: 2010.06.25/outbox.cif.g09.slc.cpg/sg2_8_cif.got.tgz:15302.got - 2010.06.27 13:26:56.
