data_PCOD8014567
_publ_section_title
;
Structure prediction by ZEFSAII (Michael W. Deem and Ramdas Pophale) SiO2 
 PCOD8014567
Probable space group: P -1
;
_chemical_formula_sum "Si O2"
_cell_formula_units_Z 16
_cell_length_a 9.734872
_cell_length_b 5.213246
_cell_length_c 20.080059
_cell_angle_alpha 48.175817
_cell_angle_beta 58.194264
_cell_angle_gamma 80.505157
_cell_volume 616.753736
_symmetry_space_group_name_H-M "P -1"
_symmetry_group_IT_number 2
_symmetry_cell_setting 'triclinic'
loop_
_space_group_symop_operation_xyz
x,y,z
-x,-y,-z
loop_
_atom_site_type_symbol
_atom_site_label
_atom_site_fract_x
_atom_site_fract_y
_atom_site_fract_z
Si Si1 0.546644 0.999256 0.692991
Si Si2 0.198010 0.134300 0.431195
Si Si3 0.754178 0.813077 0.309876
Si Si4 0.355988 0.884779 0.206382
Si Si5 0.989528 0.558207 0.069892
Si Si6 0.321806 0.236101 0.904032
Si Si7 0.314810 0.396705 0.033759
Si Si8 0.307501 0.974715 0.563670
O O1 0.423801 0.252224 0.674283
O O2 0.630011 0.968831 0.748032
O O3 0.699563 0.133291 0.576725
O O4 0.419884 0.605090 0.777789
O O5 0.265364 0.463047 0.305571
O O6 0.250454 0.220977 0.479698
O O7 0.000000 0.000000 0.500000
O O8 0.803951 0.445622 0.346659
O O9 0.901390 0.158614 0.188486
O O10 0.724361 0.868229 0.385391
O O11 0.556675 0.009528 0.106928
O O12 0.236294 0.042601 0.161861
O O13 0.872241 0.832763 0.065536
O O14 0.186369 0.658484 0.032377
O O15 0.000000 0.500000 0.000000
O O16 0.317670 0.281348 0.976712
O O17 0.500000 0.500000 0.000000
O O18 0.500000 0.000000 0.500000
#
# Coordination Sequence:
#
# PCOD8014567 Si02
#       8
#     2   2   2   2   2   2   2   2
#     4  10  21  41  68  97 133 176 227 284 354 415
#     4  11  27  43  64  98 137 181 231 290 352 418
#     4  11  25  44  76 103 142 182 245 295 356 422
#     4  11  23  40  72  93 136 183 228 285 359 424
#     4   9  22  44  68 101 142 178 232 292 358 422
#     4   9  20  42  64  96 132 174 228 277 345 422
#     4  11  21  41  68  99 137 178 227 285 356 433
#     4  12  25  47  72 104 138 190 241 297 350 422
#
# _framework density 25.942284000000001
#
# number of rings (size 3 to 8) (size 9 to 14) (size 15 to 20)
#    0.000    1.500    2.500    1.500    7.000    1.500 
#    0.000    3.750    0.000    0.000    0.000    0.000 
#    0.000    0.000    0.000    0.000    0.000    0.000 
#
# Total GULP energy -198236.579446 kJ/mol
# GULP energy per Si atom -12389.786215 kJ/mol
# Density = 2.588324 g / cm^3
# Si number density = 25.942284 Si / 1000 Ang^3
#
#
#
# Elastic Constant Matrix: (Units=GPa)
#
#
# Indices 1 2 3 4 5 6 
#
# 1 168.9670 41.5486 65.4485 4.7951 -9.5702 -11.9650
# 2 41.5486 98.3517 24.7642 2.1301 6.4093 -13.1743
# 3 65.4485 24.7642 121.8552 8.9677 1.8951 -13.0811
# 4 4.7951 2.1301 8.9677 35.9658 0.1554 15.3447
# 5 -9.5702 6.4093 1.8951 0.1554 52.5814 -0.3639
# 6 -11.9650 -13.1743 -13.0811 15.3447 -0.3639 41.4307
#
#
#
# Elastic Compliance Matrix: (Units=1/GPa)
#
#
# Indices 1 2 3 4 5 6 
#
# 1 0.008181 -0.002555 -0.003849 -0.000164 0.001943 0.000413
# 2 -0.002555 0.012016 -0.000532 -0.001742 -0.001881 0.003544
# 3 -0.003849 -0.000532 0.011057 -0.003738 -0.000998 0.003586
# 4 -0.000164 -0.001742 -0.003738 0.035180 0.000111 -0.014810
# 5 0.001943 -0.001881 -0.000998 0.000111 0.019635 -0.000221
# 6 0.000413 0.003544 0.003586 -0.014810 -0.000221 0.031999
#
#
# Mechanical properties :
#
#
# Convention : Reuss Voigt Hill
#
# Bulk Modulus (GPa) = 57.52529 72.52182 65.02356
# Shear Modulus (GPa) = 36.30216 43.15643 39.72929
#
# Velocity S-wave (km/s) = 3.74484 4.08310 3.91762
# Velocity P-wave (km/s) = 6.39694 7.08835 6.75150
#
# Compressibility (1/GPa) = 0.01738366
#
# Stress axis : x y z
#
# Youngs Moduli (GPa) = 122.23068 83.22397 90.43790
#
# Poissons Ratio (x) = 0.21262 0.34807
# Poissons Ratio (y) = 0.31227 0.04810
# Poissons Ratio (z) = 0.47043 0.04426
#
# Static dielectric constant tensor:
#      x y z
#    x 3.991730 1.290170 0.183750 
#    y 1.290170 3.921880 0.696500 
#    z 0.183750 0.696500 6.144570 
# 
# 
# High freq. dielectric constant tensor:
#      x y z
#    x 2.047180 -0.014780 0.000880 
#    y -0.014780 2.039400 -0.025620 
#    z 0.000880 -0.025620 2.073040 
# 
# From -- ./inp_files/585475.got.cif
#   From: 2010.06.25/outbox.cif.g09.slc.cpg/sg2_293_cif.got.tgz:585475.got - 2010.06.27 13:26:56.
