data_PCOD8014979
_publ_section_title
;
Structure prediction by ZEFSAII (Michael W. Deem and Ramdas Pophale) SiO2 
 PCOD8014979
Probable space group: P -1
;
_chemical_formula_sum "Si O2"
_cell_formula_units_Z 16
_cell_length_a 8.540886
_cell_length_b 19.497399
_cell_length_c 11.257157
_cell_angle_alpha 41.285952
_cell_angle_beta 38.908522
_cell_angle_gamma 59.077888
_cell_volume 765.428976
_symmetry_space_group_name_H-M "P -1"
_symmetry_group_IT_number 2
_symmetry_cell_setting 'triclinic'
loop_
_space_group_symop_operation_xyz
x,y,z
-x,-y,-z
loop_
_atom_site_type_symbol
_atom_site_label
_atom_site_fract_x
_atom_site_fract_y
_atom_site_fract_z
Si Si1 0.895903 0.578932 0.049299
Si Si2 0.059016 0.455307 0.318236
Si Si3 0.383608 0.049175 0.893559
Si Si4 0.852108 0.088282 0.241322
Si Si5 0.465020 0.912391 0.807476
Si Si6 0.568188 0.318271 0.874918
Si Si7 0.727309 0.237135 0.320441
Si Si8 0.478678 0.630381 0.914222
O O1 0.073872 0.693132 0.800382
O O2 0.613103 0.599543 0.163571
O O3 0.000000 0.500000 0.000000
O O4 0.896393 0.526173 0.246852
O O5 0.242223 0.399261 0.200084
O O6 0.860224 0.367224 0.615461
O O7 0.254643 0.528468 0.195478
O O8 0.567625 0.153511 0.608882
O O9 0.333233 0.969284 0.915928
O O10 0.130707 0.081906 0.046434
O O11 0.500000 0.000000 0.000000
O O12 0.707683 0.104248 0.185024
O O13 0.860969 0.185809 0.199788
O O14 0.731924 0.982047 0.521535
O O15 0.503886 0.798859 0.986379
O O16 0.542597 0.293854 0.061844
O O17 0.545478 0.311205 0.272347
#
# Coordination Sequence:
#
# PCOD8014979 Si02
#       8
#     2   2   2   2   2   2   2   2
#     4  11  24  44  61  94 138 172 207 270 319 378
#     4  10  23  41  63  90 128 169 213 265 316 376
#     4  11  26  42  66  97 130 168 211 263 325 389
#     4  10  22  46  66  92 131 161 216 268 317 378
#     4  10  24  41  67  97 124 167 210 270 318 377
#     4  12  23  39  68  94 124 169 218 256 324 379
#     4  10  24  43  67  93 129 175 212 259 324 378
#     4  10  21  42  64  92 126 164 217 267 312 371
#
# _framework density 20.903313000000001
#
# number of rings (size 3 to 8) (size 9 to 14) (size 15 to 20)
#    0.000    1.500    2.500    1.125    5.250    3.000 
#    4.500    0.000    0.000    0.000    0.000    0.000 
#    0.000    0.000    0.000    0.000    0.000    0.000 
#
# Total GULP energy -198357.108180 kJ/mol
# GULP energy per Si atom -12397.319261 kJ/mol
# Density = 2.085574 g / cm^3
# Si number density = 20.903313 Si / 1000 Ang^3
#
#
#
# Elastic Constant Matrix: (Units=GPa)
#
#
# Indices 1 2 3 4 5 6 
#
# 1 73.3665 36.4143 48.5421 3.7426 -4.4508 9.5954
# 2 36.4143 132.6996 69.2551 -0.4687 -11.5179 13.2113
# 3 48.5421 69.2551 105.6387 2.2085 -3.6197 0.3019
# 4 3.7426 -0.4687 2.2085 34.5166 -3.6306 0.8078
# 5 -4.4508 -11.5179 -3.6197 -3.6306 23.6776 -5.0333
# 6 9.5954 13.2113 0.3019 0.8078 -5.0333 33.0551
#
#
#
# Elastic Compliance Matrix: (Units=1/GPa)
#
#
# Indices 1 2 3 4 5 6 
#
# 1 0.020784 -0.000174 -0.009357 -0.001423 0.000962 -0.005697
# 2 -0.000174 0.012565 -0.008029 0.001238 0.004128 -0.004300
# 3 -0.009357 -0.008029 0.018969 -0.000615 -0.001688 0.005510
# 4 -0.001423 0.001238 -0.000615 0.029686 0.004777 -0.000074
# 5 0.000962 0.004128 -0.001688 0.004777 0.045953 0.004967
# 6 -0.005697 -0.004300 0.005510 -0.000074 0.004967 0.034332
#
#
# Mechanical properties :
#
#
# Convention : Reuss Voigt Hill
#
# Bulk Modulus (GPa) = 58.15228 68.90307 63.52768
# Shear Modulus (GPa) = 24.61319 28.74942 26.68130
#
# Velocity S-wave (km/s) = 3.43516 3.71260 3.57657
# Velocity P-wave (km/s) = 6.60408 7.17023 6.89297
#
# Compressibility (1/GPa) = 0.01719623
#
# Stress axis : x y z
#
# Youngs Moduli (GPa) = 48.11448 79.58718 52.71707
#
# Poissons Ratio (x) = 0.01386 0.49328
# Poissons Ratio (y) = 0.00838 0.42329
# Poissons Ratio (z) = 0.45022 0.63904
#
# Static dielectric constant tensor:
#      x y z
#    x 3.614620 0.121070 -0.002250 
#    y 0.121070 3.902760 -0.066450 
#    z -0.002250 -0.066450 3.718290 
# 
# 
# High freq. dielectric constant tensor:
#      x y z
#    x 1.818480 0.001680 0.001020 
#    y 0.001680 1.831610 -0.004650 
#    z 0.001020 -0.004650 1.812760 
# 
# From -- ./inp_files/107196.got.cif
#   From: 2010.06.25/outbox.cif.g09.slc.cpg/sg2_54_cif.got.tgz:107196.got - 2010.06.27 13:26:56.
