data_PCOD8014019
_publ_section_title
;
Structure prediction by ZEFSAII (Michael W. Deem and Ramdas Pophale) SiO2 
 PCOD8014019
Probable space group: P -1
;
_chemical_formula_sum "Si O2"
_cell_formula_units_Z 16
_cell_length_a 16.208871
_cell_length_b 8.501983
_cell_length_c 16.624924
_cell_angle_alpha 114.502788
_cell_angle_beta 154.528934
_cell_angle_gamma 82.551542
_cell_volume 699.469771
_symmetry_space_group_name_H-M "P -1"
_symmetry_group_IT_number 2
_symmetry_cell_setting 'triclinic'
loop_
_space_group_symop_operation_xyz
x,y,z
-x,-y,-z
loop_
_atom_site_type_symbol
_atom_site_label
_atom_site_fract_x
_atom_site_fract_y
_atom_site_fract_z
Si Si1 0.517882 0.645685 0.473235
Si Si2 0.618999 0.400693 0.826502
Si Si3 0.517365 0.063487 0.401848
Si Si4 0.856280 0.025892 0.310904
Si Si5 0.845141 0.748268 0.529457
Si Si6 0.981604 0.827479 0.841334
Si Si7 0.700749 0.295039 0.295459
Si Si8 0.156516 0.641834 0.389620
O O1 0.500000 0.500000 0.500000
O O2 0.391283 0.501766 0.247715
O O3 0.384724 0.754534 0.402333
O O4 0.804116 0.844900 0.743828
O O5 0.442501 0.369355 0.735515
O O6 0.533365 0.162577 0.670157
O O7 0.881378 0.563119 0.134308
O O8 0.699614 0.169693 0.510243
O O9 0.260861 0.014543 0.148680
O O10 0.842596 0.222475 0.358811
O O11 0.020440 0.077448 0.387662
O O12 0.000000 0.000000 0.500000
O O13 0.571404 0.812338 0.000922
O O14 0.978942 0.878133 0.756365
O O15 0.870256 0.559037 0.492091
O O16 0.868714 0.572492 0.700192
O O17 0.692121 0.239744 0.370367
#
# Coordination Sequence:
#
# PCOD8014019 Si02
#       8
#     2   2   2   2   2   2   2   2
#     4  11  21  41  60  89 126 169 212 267 325 372
#     4  10  25  40  61  94 123 165 222 258 314 386
#     4  11  21  38  63  87 126 164 208 273 314 367
#     4  11  25  43  67 103 129 162 216 257 321 385
#     4  10  22  44  65  90 130 170 208 261 318 377
#     4   9  20  40  61  91 119 165 220 254 314 385
#     4  10  24  44  67  95 132 168 209 261 318 385
#     4  10  21  41  64  92 124 167 214 263 316 374
#
# _framework density 22.874469999999999
#
# number of rings (size 3 to 8) (size 9 to 14) (size 15 to 20)
#    0.000    1.750    1.250    1.875    3.500    1.000 
#   11.250    0.000    0.000    0.000    0.000    0.000 
#    0.000    0.000    0.000    0.000    0.000    0.000 
#
# Total GULP energy -198259.780837 kJ/mol
# GULP energy per Si atom -12391.236302 kJ/mol
# Density = 2.282241 g / cm^3
# Si number density = 22.874470 Si / 1000 Ang^3
#
#
#
# Elastic Constant Matrix: (Units=GPa)
#
#
# Indices 1 2 3 4 5 6 
#
# 1 124.1946 34.9944 22.0779 -7.1623 9.2655 17.7049
# 2 34.9944 62.0644 17.4223 -11.9926 2.3720 11.6575
# 3 22.0779 17.4223 84.5559 -27.3864 4.7491 9.7724
# 4 -7.1623 -11.9926 -27.3864 33.1770 -5.0742 -3.0098
# 5 9.2655 2.3720 4.7491 -5.0742 21.7350 -3.1651
# 6 17.7049 11.6575 9.7724 -3.0098 -3.1651 42.8456
#
#
#
# Elastic Compliance Matrix: (Units=1/GPa)
#
#
# Indices 1 2 3 4 5 6 
#
# 1 0.010421 -0.005035 -0.001714 -0.001932 -0.004407 -0.003007
# 2 -0.005035 0.020787 -0.000876 0.005584 0.000949 -0.002913
# 3 -0.001714 -0.000876 0.016933 0.013092 -0.000109 -0.002004
# 4 -0.001932 0.005584 0.013092 0.043696 0.007543 -0.000080
# 5 -0.004407 0.000949 -0.000109 0.007543 0.050419 0.005842
# 6 -0.003007 -0.002913 -0.002004 -0.000080 0.005842 0.026258
#
#
# Mechanical properties :
#
#
# Convention : Reuss Voigt Hill
#
# Bulk Modulus (GPa) = 30.40453 46.64491 38.52472
# Shear Modulus (GPa) = 25.67670 32.63955 29.15812
#
# Velocity S-wave (km/s) = 3.35401 3.78153 3.57417
# Velocity P-wave (km/s) = 5.32165 6.28511 5.82334
#
# Compressibility (1/GPa) = 0.03288984
#
# Stress axis : x y z
#
# Youngs Moduli (GPa) = 95.95684 48.10666 59.05739
#
# Poissons Ratio (x) = 0.24221 0.10125
# Poissons Ratio (y) = 0.48313 0.05176
# Poissons Ratio (z) = 0.16451 0.04216
#
# Static dielectric constant tensor:
#      x y z
#    x 4.187420 -0.117720 -0.011130 
#    y -0.117720 3.937430 -0.200610 
#    z -0.011130 -0.200610 3.988790 
# 
# 
# High freq. dielectric constant tensor:
#      x y z
#    x 1.917720 -0.007120 0.000610 
#    y -0.007120 1.893210 -0.008860 
#    z 0.000610 -0.008860 1.893690 
# 
# From -- ./inp_files/45197.got.cif
#   From: 2010.06.25/outbox.cif.g09.slc.cpg/sg2_23_cif.got.tgz:45197.got - 2010.06.27 13:26:56.
