data_PCOD8014810
_publ_section_title
;
Structure prediction by ZEFSAII (Michael W. Deem and Ramdas Pophale) SiO2 
 PCOD8014810
Probable space group: P -1
;
_chemical_formula_sum "Si O2"
_cell_formula_units_Z 16
_cell_length_a 23.579920
_cell_length_b 9.528220
_cell_length_c 9.570759
_cell_angle_alpha 128.319887
_cell_angle_beta 31.405113
_cell_angle_gamma 140.852612
_cell_volume 701.636952
_symmetry_space_group_name_H-M "P -1"
_symmetry_group_IT_number 2
_symmetry_cell_setting 'triclinic'
loop_
_space_group_symop_operation_xyz
x,y,z
-x,-y,-z
loop_
_atom_site_type_symbol
_atom_site_label
_atom_site_fract_x
_atom_site_fract_y
_atom_site_fract_z
Si Si1 0.128540 0.681923 0.930861
Si Si2 0.591853 0.689043 0.095495
Si Si3 0.434073 0.980617 0.775360
Si Si4 0.896139 0.009609 0.636293
Si Si5 0.382356 0.097208 0.535487
Si Si6 0.939359 0.095963 0.282121
Si Si7 0.338572 0.270483 0.461878
Si Si8 0.801853 0.484559 0.085778
O O1 0.195617 0.569938 0.788614
O O2 0.226645 0.879640 0.738657
O O3 0.101454 0.786173 0.183718
O O4 0.000000 0.500000 0.000000
O O5 0.530601 0.578072 0.824326
O O6 0.746154 0.767490 0.811410
O O7 0.568453 0.750089 0.335943
O O8 0.577113 0.815699 0.076397
O O9 0.523391 0.989417 0.721583
O O10 0.282726 0.747681 0.964767
O O11 0.500000 0.000000 0.500000
O O12 0.950739 0.053642 0.392414
O O13 0.000000 0.000000 0.500000
O O14 0.397795 0.239672 0.458253
O O15 0.779770 0.974978 0.505243
O O16 0.041369 0.363486 0.205608
O O17 0.000000 0.000000 0.000000
O O18 0.271187 0.397302 0.707861
#
# Coordination Sequence:
#
# PCOD8014810 Si02
#       8
#     2   2   2   2   2   2   2   2
#     4  11  23  40  68  96 132 177 222 268 332 400
#     4  10  20  37  63  90 131 171 218 272 329 386
#     4  10  16  35  57  93 124 167 216 266 321 395
#     4  11  26  44  65  98 137 172 226 275 330 395
#     4  10  19  33  60 100 128 166 221 267 321 396
#     4  10  26  41  64  96 137 176 218 274 334 386
#     4  11  21  35  64  97 133 172 217 270 330 394
#     4  11  20  37  64  93 133 172 219 268 330 393
#
# _framework density 22.803815
#
# number of rings (size 3 to 8) (size 9 to 14) (size 15 to 20)
#    0.000    1.500    6.250    1.125   10.500    1.000 
#    0.000    0.000    0.000    0.750    0.000    0.000 
#    0.000    0.000    0.000    0.000    0.000    0.000 
#
# Total GULP energy -198267.322712 kJ/mol
# GULP energy per Si atom -12391.707670 kJ/mol
# Density = 2.275191 g / cm^3
# Si number density = 22.803815 Si / 1000 Ang^3
#
#
#
# Elastic Constant Matrix: (Units=GPa)
#
#
# Indices 1 2 3 4 5 6 
#
# 1 135.7614 55.7689 37.2042 5.8814 -22.3637 -20.2498
# 2 55.7689 137.3929 52.1465 -44.5124 -5.5806 1.2616
# 3 37.2042 52.1465 69.6896 -24.3445 -8.0221 4.5187
# 4 5.8814 -44.5124 -24.3445 31.9634 4.4404 -7.2344
# 5 -22.3637 -5.5806 -8.0221 4.4404 35.9103 0.4128
# 6 -20.2498 1.2616 4.5187 -7.2344 0.4128 48.8892
#
#
#
# Elastic Compliance Matrix: (Units=1/GPa)
#
#
# Indices 1 2 3 4 5 6 
#
# 1 0.019854 -0.013944 -0.010046 -0.031275 0.011765 0.004784
# 2 -0.013944 0.024674 0.001704 0.039371 -0.009330 -0.000665
# 3 -0.010046 0.001704 0.026801 0.024357 -0.002981 -0.003053
# 4 -0.031275 0.039371 0.024357 0.113650 -0.021980 0.000782
# 5 0.011765 -0.009330 -0.002981 -0.021980 0.035755 0.001835
# 6 0.004784 -0.000665 -0.003053 0.000782 0.001835 0.022836
#
#
# Mechanical properties :
#
#
# Convention : Reuss Voigt Hill
#
# Bulk Modulus (GPa) = 37.37551 70.34257 53.85904
# Shear Modulus (GPa) = 16.83151 36.53419 26.68285
#
# Velocity S-wave (km/s) = 2.71975 4.00698 3.42439
# Velocity P-wave (km/s) = 5.12721 7.23337 6.26937
#
# Compressibility (1/GPa) = 0.02675549
#
# Stress axis : x y z
#
# Youngs Moduli (GPa) = 50.36854 40.52787 37.31208
#
# Poissons Ratio (x) = 0.56514 0.37484
# Poissons Ratio (y) = 0.70236 -0.06357
# Poissons Ratio (z) = 0.50600 -0.06905
#
# Static dielectric constant tensor:
#      x y z
#    x 4.197050 -0.021090 -0.387500 
#    y -0.021090 4.826670 -0.327570 
#    z -0.387500 -0.327570 4.188360 
# 
# 
# High freq. dielectric constant tensor:
#      x y z
#    x 1.904300 0.002890 -0.018810 
#    y 0.002890 1.908480 -0.029170 
#    z -0.018810 -0.029170 1.869350 
# 
# From -- ./inp_files/342910.got.cif
#   From: 2010.06.25/outbox.cif.g09.slc.cpg/sg2_172_cif.got.tgz:342910.got - 2010.06.27 13:26:56.
