data_PCOD8014166
_publ_section_title
;
Structure prediction by ZEFSAII (Michael W. Deem and Ramdas Pophale) SiO2 
 PCOD8014166
Probable space group: P -1
;
_chemical_formula_sum "Si O2"
_cell_formula_units_Z 14
_cell_length_a 10.362837
_cell_length_b 8.556999
_cell_length_c 8.811083
_cell_angle_alpha 128.507994
_cell_angle_beta 69.777216
_cell_angle_gamma 102.836374
_cell_volume 573.685207
_symmetry_space_group_name_H-M "P -1"
_symmetry_group_IT_number 2
_symmetry_cell_setting 'triclinic'
loop_
_space_group_symop_operation_xyz
x,y,z
-x,-y,-z
loop_
_atom_site_type_symbol
_atom_site_label
_atom_site_fract_x
_atom_site_fract_y
_atom_site_fract_z
Si Si1 0.479419 0.951716 0.205981
Si Si2 0.274042 0.072567 0.113470
Si Si3 0.232042 0.501590 0.511830
Si Si4 0.637923 0.386467 0.750001
Si Si5 0.204786 0.414015 0.932051
Si Si6 0.077926 0.717779 0.954214
Si Si7 0.572025 0.625268 0.405163
O O1 0.424175 0.818782 0.286987
O O2 0.365124 0.946016 0.117496
O O3 0.503101 0.174426 0.392225
O O4 0.628049 0.876534 0.039902
O O5 0.210864 0.270708 0.333535
O O6 0.144785 0.935237 0.033567
O O7 0.240033 0.640436 0.441075
O O8 0.108070 0.577085 0.711134
O O9 0.379398 0.515904 0.557019
O O10 0.684701 0.535723 0.952019
O O11 0.519571 0.493087 0.756812
O O12 0.087371 0.264636 0.954857
O O13 0.134856 0.619023 0.026365
O O14 0.283523 0.311919 0.697913
#
# Coordination Sequence:
#
# PCOD8014166 Si02
#       7
#     2   2   2   2   2   2   2
#     4  10  22  38  63  97 125 159 209 253 321 364
#     4  10  21  41  65  93 127 164 203 261 309 373
#     4  10  24  39  65  93 126 167 205 250 323 365
#     4  12  22  39  64  95 127 156 209 268 301 371
#     4  10  23  39  67  90 122 167 213 252 309 366
#     4  10  21  47  62  89 127 170 208 253 308 372
#     4  10  22  40  60  96 126 163 202 258 318 370
#
# _framework density 24.403627
#
# number of rings (size 3 to 8) (size 9 to 14) (size 15 to 20)
#    0.000    1.714    1.429    2.143    4.000    2.857 
#    2.571    3.571    0.000    0.000    0.000    0.000 
#    0.000    0.000    0.000    0.000    0.000    0.000 
#
# Total GULP energy -173567.885546 kJ/mol
# GULP energy per Si atom -12397.706110 kJ/mol
# Density = 2.434808 g / cm^3
# Si number density = 24.403627 Si / 1000 Ang^3
#
#
#
# Elastic Constant Matrix: (Units=GPa)
#
#
# Indices 1 2 3 4 5 6 
#
# 1 50.4685 33.2252 45.0795 5.6845 6.9130 20.5528
# 2 33.2252 149.7735 54.7090 -17.9230 10.1681 19.3154
# 3 45.0795 54.7090 128.7597 -6.8253 5.9020 13.6791
# 4 5.6845 -17.9230 -6.8253 40.7168 0.2245 10.5414
# 5 6.9130 10.1681 5.9020 0.2245 25.1730 -1.0143
# 6 20.5528 19.3154 13.6791 10.5414 -1.0143 32.5252
#
#
#
# Elastic Compliance Matrix: (Units=1/GPa)
#
#
# Indices 1 2 3 4 5 6 
#
# 1 0.040205 -0.002448 -0.010899 -0.003702 -0.008207 -0.018425
# 2 -0.002448 0.009543 -0.002237 0.005491 -0.002910 -0.005050
# 3 -0.010899 -0.002237 0.012329 0.001970 0.001086 0.002425
# 4 -0.003702 0.005491 0.001970 0.030903 -0.002416 -0.011841
# 5 -0.008207 -0.002910 0.001086 -0.002416 0.043267 0.008590
# 6 -0.018425 -0.005050 0.002425 -0.011841 0.008590 0.048472
#
#
# Mechanical properties :
#
#
# Convention : Reuss Voigt Hill
#
# Bulk Modulus (GPa) = 32.35099 66.11434 49.23267
# Shear Modulus (GPa) = 22.10537 32.74887 27.42712
#
# Velocity S-wave (km/s) = 3.01295 3.66726 3.35609
# Velocity P-wave (km/s) = 5.03878 6.71436 5.93599
#
# Compressibility (1/GPa) = 0.03091095
#
# Stress axis : x y z
#
# Youngs Moduli (GPa) = 24.87255 104.79254 81.10658
#
# Poissons Ratio (x) = 0.25650 0.88396
# Poissons Ratio (y) = 0.06088 0.18141
# Poissons Ratio (z) = 0.27108 0.23439
#
# Static dielectric constant tensor:
#      x y z
#    x 4.268430 0.109410 0.121230 
#    y 0.109410 4.425770 -0.572650 
#    z 0.121230 -0.572650 4.335520 
# 
# 
# High freq. dielectric constant tensor:
#      x y z
#    x 1.949610 0.013210 0.009780 
#    y 0.013210 1.978310 -0.032040 
#    z 0.009780 -0.032040 1.968080 
# 
# From -- ./inp_files/241289.got.cif
#   From: 2010.06.25/outbox.cif.g09.slc.cpg/sg2_121_cif.got.tgz:241289.got - 2010.06.27 13:26:56.
