data_PCOD8014613
_publ_section_title
;
Structure prediction by ZEFSAII (Michael W. Deem and Ramdas Pophale) SiO2 
 PCOD8014613
Probable space group: P -1
;
_chemical_formula_sum "Si O2"
_cell_formula_units_Z 16
_cell_length_a 14.613722
_cell_length_b 15.254809
_cell_length_c 8.217091
_cell_angle_alpha 99.433046
_cell_angle_beta 42.016668
_cell_angle_gamma 131.956762
_cell_volume 678.015596
_symmetry_space_group_name_H-M "P -1"
_symmetry_group_IT_number 2
_symmetry_cell_setting 'triclinic'
loop_
_space_group_symop_operation_xyz
x,y,z
-x,-y,-z
loop_
_atom_site_type_symbol
_atom_site_label
_atom_site_fract_x
_atom_site_fract_y
_atom_site_fract_z
Si Si1 0.807969 0.068052 0.091553
Si Si2 0.883799 0.474549 0.478673
Si Si3 0.408740 0.214573 0.869821
Si Si4 0.216757 0.356499 0.844245
Si Si5 0.565755 0.876596 0.674274
Si Si6 0.839359 0.209654 0.820331
Si Si7 0.024069 0.156861 0.342277
Si Si8 0.744764 0.422407 0.178175
O O1 0.766201 0.962468 0.992439
O O2 0.629785 0.959544 0.445254
O O3 0.760932 0.137011 0.084153
O O4 0.085260 0.223946 0.842150
O O5 0.592707 0.294970 0.803901
O O6 0.000000 0.500000 0.500000
O O7 0.917646 0.599119 0.454269
O O8 0.014912 0.508591 0.149233
O O9 0.599199 0.340379 0.513844
O O10 0.229510 0.199415 0.146273
O O11 0.500000 0.500000 0.500000
O O12 0.149392 0.423116 0.941829
O O13 0.139968 0.286650 0.102696
O O14 0.443128 0.714735 0.754271
O O15 0.376644 0.847014 0.993502
O O16 0.800710 0.982212 0.504371
O O17 0.902836 0.149692 0.639844
#
# Coordination Sequence:
#
# PCOD8014613 Si02
#       8
#     2   2   2   2   2   2   2   2
#     4  10  24  40  66  95 127 170 216 264 314 379
#     4  11  25  45  65  93 128 171 214 266 323 382
#     4  11  24  43  64  96 130 168 216 264 322 377
#     4  11  22  40  66  97 130 167 213 261 314 382
#     4   9  22  41  67  95 132 171 212 262 318 382
#     4  11  23  43  64  94 128 174 215 263 317 380
#     4  11  24  40  64  98 134 169 211 267 321 381
#     4  10  21  41  69  93 126 172 215 259 313 382
#
# _framework density 23.598279000000002
#
# number of rings (size 3 to 8) (size 9 to 14) (size 15 to 20)
#    0.000    1.500    1.250    2.625    1.750    9.500 
#    2.250    0.000    0.000    0.000    0.000    0.000 
#    0.000    0.000    0.000    0.000    0.000    0.000 
#
# Total GULP energy -198232.715088 kJ/mol
# GULP energy per Si atom -12389.544693 kJ/mol
# Density = 2.354457 g / cm^3
# Si number density = 23.598279 Si / 1000 Ang^3
#
#
#
# Elastic Constant Matrix: (Units=GPa)
#
#
# Indices 1 2 3 4 5 6 
#
# 1 83.7084 46.2596 25.6083 -6.2668 -23.1520 2.9174
# 2 46.2596 140.5048 40.1936 -19.7411 -12.7059 0.0912
# 3 25.6083 40.1936 86.3997 -9.5742 -25.1328 8.4116
# 4 -6.2668 -19.7411 -9.5742 44.2216 -2.5361 0.9028
# 5 -23.1520 -12.7059 -25.1328 -2.5361 38.1713 -11.8939
# 6 2.9174 0.0912 8.4116 0.9028 -11.8939 31.3738
#
#
#
# Elastic Compliance Matrix: (Units=1/GPa)
#
#
# Indices 1 2 3 4 5 6 
#
# 1 0.017164 -0.004598 -0.000340 0.000801 0.009341 0.002026
# 2 -0.004598 0.009888 -0.003355 0.002948 -0.001284 0.000727
# 3 -0.000340 -0.003355 0.016311 0.002538 0.009313 -0.000874
# 4 0.000801 0.002948 0.002538 0.024866 0.004909 0.000382
# 5 0.009341 -0.001284 0.009313 0.004909 0.041732 0.012318
# 6 0.002026 0.000727 -0.000874 0.000382 0.012318 0.036576
#
#
# Mechanical properties :
#
#
# Convention : Reuss Voigt Hill
#
# Bulk Modulus (GPa) = 37.34414 59.41510 48.37962
# Shear Modulus (GPa) = 29.06165 35.99009 32.52587
#
# Velocity S-wave (km/s) = 3.51310 3.90951 3.71659
# Velocity P-wave (km/s) = 5.68464 6.75362 6.24206
#
# Compressibility (1/GPa) = 0.02677796
#
# Stress axis : x y z
#
# Youngs Moduli (GPa) = 58.26177 101.12916 61.30904
#
# Poissons Ratio (x) = 0.46499 0.02083
# Poissons Ratio (y) = 0.26789 0.20568
# Poissons Ratio (z) = 0.01979 0.33927
#
# Static dielectric constant tensor:
#      x y z
#    x 4.081860 0.111800 0.011790 
#    y 0.111800 4.603370 -0.177650 
#    z 0.011790 -0.177650 4.213330 
# 
# 
# High freq. dielectric constant tensor:
#      x y z
#    x 1.923960 -0.002230 0.007580 
#    y -0.002230 1.938280 -0.019000 
#    z 0.007580 -0.019000 1.939520 
# 
# From -- ./inp_files/315372.got.cif
#   From: 2010.06.25/outbox.cif.g09.slc.cpg/sg2_158_cif.got.tgz:315372.got - 2010.06.27 13:26:56.
