data_PCOD8014511
_publ_section_title
;
Structure prediction by ZEFSAII (Michael W. Deem and Ramdas Pophale) SiO2 
 PCOD8014511
Probable space group: P -1
;
_chemical_formula_sum "Si O2"
_cell_formula_units_Z 16
_cell_length_a 11.156191
_cell_length_b 6.643132
_cell_length_c 14.263140
_cell_angle_alpha 83.483482
_cell_angle_beta 55.769947
_cell_angle_gamma 113.643682
_cell_volume 715.887161
_symmetry_space_group_name_H-M "P -1"
_symmetry_group_IT_number 2
_symmetry_cell_setting 'triclinic'
loop_
_space_group_symop_operation_xyz
x,y,z
-x,-y,-z
loop_
_atom_site_type_symbol
_atom_site_label
_atom_site_fract_x
_atom_site_fract_y
_atom_site_fract_z
Si Si1 0.087024 0.043484 0.357663
Si Si2 0.256388 0.242547 0.686616
Si Si3 0.498963 0.289893 0.735275
Si Si4 0.093763 0.756970 0.680303
Si Si5 0.967483 0.629765 0.130905
Si Si6 0.798455 0.520570 0.461214
Si Si7 0.292984 0.742853 0.881620
Si Si8 0.483549 0.415888 0.119028
O O1 0.296145 0.176373 0.249354
O O2 0.051305 0.216382 0.304158
O O3 0.000000 0.000000 0.500000
O O4 0.992170 0.773198 0.367809
O O5 0.395532 0.344981 0.703162
O O6 0.070931 0.184416 0.813209
O O7 0.316548 0.449620 0.568733
O O8 0.229929 0.999340 0.667489
O O9 0.704002 0.463873 0.606454
O O10 0.473483 0.356034 0.847220
O O11 0.445238 0.012986 0.766181
O O12 0.999151 0.521616 0.801132
O O13 0.194344 0.710311 0.557597
O O14 0.794453 0.445523 0.155448
O O15 0.146263 0.780458 0.985976
O O16 0.371991 0.645049 0.925688
O O17 0.500000 0.500000 0.000000
#
# Coordination Sequence:
#
# PCOD8014511 Si02
#       8
#     2   2   2   2   2   2   2   2
#     4  11  24  45  71  99 137 190 235 278 341 413
#     4  10  21  41  68 102 141 173 223 286 355 414
#     4  12  24  42  67 105 138 181 224 290 346 404
#     4  10  22  41  70 101 131 178 226 284 344 406
#     4  10  21  43  65 102 134 174 224 283 350 417
#     4  10  24  41  70 102 139 180 228 286 342 415
#     4  11  25  40  70  97 133 180 230 277 348 414
#     4  12  28  48  69 100 143 185 234 286 339 413
#
# _framework density 22.349893000000002
#
# number of rings (size 3 to 8) (size 9 to 14) (size 15 to 20)
#    0.000    1.250    3.750    1.125    1.750    7.000 
#    0.000    0.000    0.000    0.000    0.000    0.000 
#    0.000    0.000    0.000    0.000    0.000    0.000 
#
# Total GULP energy -198361.213520 kJ/mol
# GULP energy per Si atom -12397.575845 kJ/mol
# Density = 2.229902 g / cm^3
# Si number density = 22.349893 Si / 1000 Ang^3
#
#
#
# Elastic Constant Matrix: (Units=GPa)
#
#
# Indices 1 2 3 4 5 6 
#
# 1 94.0917 37.9807 20.4185 3.6716 6.5140 6.9989
# 2 37.9807 122.2217 38.8268 16.0417 -10.9871 -3.5791
# 3 20.4185 38.8268 98.2014 13.9733 2.7301 7.6306
# 4 3.6716 16.0417 13.9733 36.0481 3.6526 -0.5173
# 5 6.5140 -10.9871 2.7301 3.6526 28.1683 5.5816
# 6 6.9989 -3.5791 7.6306 -0.5173 5.5816 29.6903
#
#
#
# Elastic Compliance Matrix: (Units=1/GPa)
#
#
# Indices 1 2 3 4 5 6 
#
# 1 0.013033 -0.004429 -0.000835 0.001369 -0.004332 -0.002553
# 2 -0.004429 0.011811 -0.003512 -0.004027 0.006066 0.002160
# 3 -0.000835 -0.003512 0.012475 -0.003098 -0.001343 -0.003234
# 4 0.001369 -0.004027 -0.003098 0.031222 -0.005963 0.001653
# 5 -0.004332 0.006066 -0.001343 -0.005963 0.040901 -0.005695
# 6 -0.002553 0.002160 -0.003234 0.001653 -0.005695 0.036474
#
#
# Mechanical properties :
#
#
# Convention : Reuss Voigt Hill
#
# Bulk Modulus (GPa) = 50.58952 56.55188 53.57070
# Shear Modulus (GPa) = 29.40186 33.26726 31.33456
#
# Velocity S-wave (km/s) = 3.63095 3.86226 3.74839
# Velocity P-wave (km/s) = 6.34530 6.72661 6.53874
#
# Compressibility (1/GPa) = 0.01976694
#
# Stress axis : x y z
#
# Youngs Moduli (GPa) = 76.72688 84.66676 80.16072
#
# Poissons Ratio (x) = 0.37497 0.06692
# Poissons Ratio (y) = 0.33981 0.28156
# Poissons Ratio (z) = 0.06406 0.29739
#
# Static dielectric constant tensor:
#      x y z
#    x 4.039010 -0.006710 0.104950 
#    y -0.006710 3.914310 0.216870 
#    z 0.104950 0.216870 3.964920 
# 
# 
# High freq. dielectric constant tensor:
#      x y z
#    x 1.881450 -0.003160 0.009490 
#    y -0.003160 1.879280 0.012160 
#    z 0.009490 0.012160 1.878930 
# 
# From -- ./inp_files/510937.got.cif
#   From: 2010.06.25/outbox.cif.g09.slc.cpg/sg2_256_cif.got.tgz:510937.got - 2010.06.27 13:26:56.
