data_PCOD8014281
_publ_section_title
;
Structure prediction by ZEFSAII (Michael W. Deem and Ramdas Pophale) SiO2 
 PCOD8014281
Probable space group: P -1
;
_chemical_formula_sum "Si O2"
_cell_formula_units_Z 14
_cell_length_a 7.679475
_cell_length_b 7.934593
_cell_length_c 15.264924
_cell_angle_alpha 90.619835
_cell_angle_beta 63.140733
_cell_angle_gamma 53.779435
_cell_volume 617.567435
_symmetry_space_group_name_H-M "P -1"
_symmetry_group_IT_number 2
_symmetry_cell_setting 'triclinic'
loop_
_space_group_symop_operation_xyz
x,y,z
-x,-y,-z
loop_
_atom_site_type_symbol
_atom_site_label
_atom_site_fract_x
_atom_site_fract_y
_atom_site_fract_z
Si Si1 0.634650 0.058327 0.591401
Si Si2 0.311545 0.375604 0.002581
Si Si3 0.697870 0.656716 0.553961
Si Si4 0.763756 0.577878 0.176474
Si Si5 0.253726 0.768278 0.745847
Si Si6 0.839708 0.153541 0.954460
Si Si7 0.818563 0.256128 0.436446
O O1 0.383773 0.238771 0.711140
O O2 0.669553 0.180016 0.510580
O O3 0.592255 0.902133 0.550561
O O4 0.890117 0.899891 0.593043
O O5 0.333252 0.299419 0.896123
O O6 0.583113 0.185813 0.991944
O O7 0.251893 0.606070 0.010007
O O8 0.078573 0.420730 0.109687
O O9 0.538474 0.694688 0.677665
O O10 0.654881 0.523816 0.495722
O O11 0.000000 0.500000 0.500000
O O12 0.713871 0.407495 0.197324
O O13 0.154414 0.772453 0.673076
O O14 0.039913 0.026086 0.827622
O O15 0.000000 0.000000 0.000000
#
# Coordination Sequence:
#
# PCOD8014281 Si02
#       7
#     2   2   2   2   2   2   2
#     4  10  21  41  66  92 132 177 217 274 330 406
#     4  10  24  45  67  97 137 171 227 283 333 407
#     4  10  22  41  62  94 130 171 220 270 327 398
#     4  11  22  42  67  99 132 177 222 276 340 394
#     4  12  23  41  65  95 132 174 221 280 331 403
#     4  11  23  46  67  96 129 177 226 282 337 397
#     4  10  22  41  62  93 133 173 223 270 332 398
#
# _framework density 22.669589999999999
#
# number of rings (size 3 to 8) (size 9 to 14) (size 15 to 20)
#    0.000    1.429    2.857    2.143    0.000    1.143 
#   10.286    0.000    0.000    0.000    0.000    0.000 
#    0.000    0.000    0.000    0.000    0.000    0.000 
#
# Total GULP energy -173526.084850 kJ/mol
# GULP energy per Si atom -12394.720346 kJ/mol
# Density = 2.261799 g / cm^3
# Si number density = 22.669590 Si / 1000 Ang^3
#
#
#
# Elastic Constant Matrix: (Units=GPa)
#
#
# Indices 1 2 3 4 5 6 
#
# 1 113.4763 47.9605 47.9653 -3.0888 -24.2792 5.1166
# 2 47.9605 85.8017 41.3576 0.4098 -4.3451 -9.3353
# 3 47.9653 41.3576 138.5817 9.5786 -15.0902 -0.0256
# 4 -3.0888 0.4098 9.5786 36.1268 4.0316 2.3707
# 5 -24.2792 -4.3451 -15.0902 4.0316 48.2701 6.9391
# 6 5.1166 -9.3353 -0.0256 2.3707 6.9391 45.6906
#
#
#
# Elastic Compliance Matrix: (Units=1/GPa)
#
#
# Indices 1 2 3 4 5 6 
#
# 1 0.014327 -0.007045 -0.002270 0.001468 0.006327 -0.004082
# 2 -0.007045 0.017476 -0.003186 0.000133 -0.003684 0.004910
# 3 -0.002270 -0.003186 0.009342 -0.002802 0.001801 -0.000520
# 4 0.001468 0.000133 -0.002802 0.028894 -0.002355 -0.001280
# 5 0.006327 -0.003684 0.001801 -0.002355 0.025067 -0.005145
# 6 -0.004082 0.004910 -0.000520 -0.001280 -0.005145 0.024194
#
#
# Mechanical properties :
#
#
# Convention : Reuss Voigt Hill
#
# Bulk Modulus (GPa) = 61.94775 68.04740 64.99757
# Shear Modulus (GPa) = 33.40397 39.38926 36.39661
#
# Velocity S-wave (km/s) = 3.84280 4.17290 4.01125
# Velocity P-wave (km/s) = 6.86114 7.30066 7.08431
#
# Compressibility (1/GPa) = 0.01614264
#
# Stress axis : x y z
#
# Youngs Moduli (GPa) = 69.79788 57.22222 107.04262
#
# Poissons Ratio (x) = 0.40314 0.24295
# Poissons Ratio (y) = 0.49174 0.34107
# Poissons Ratio (z) = 0.15842 0.18233
#
# Static dielectric constant tensor:
#      x y z
#    x 4.606340 0.154260 -0.145600 
#    y 0.154260 4.363370 0.419650 
#    z -0.145600 0.419650 4.340610 
# 
# 
# High freq. dielectric constant tensor:
#      x y z
#    x 1.905010 0.001220 -0.008760 
#    y 0.001220 1.897280 0.015550 
#    z -0.008760 0.015550 1.902030 
# 
# From -- ./inp_files/492908.got.cif
#   From: 2010.06.25/outbox.cif.g09.slc.cpg/sg2_247_cif.got.tgz:492908.got - 2010.06.27 13:26:56.
