data_PCOD8014890
_publ_section_title
;
Structure prediction by ZEFSAII (Michael W. Deem and Ramdas Pophale) SiO2 
 PCOD8014890
Probable space group: P -1
;
_chemical_formula_sum "Si O2"
_cell_formula_units_Z 14
_cell_length_a 12.791254
_cell_length_b 12.239919
_cell_length_c 9.420966
_cell_angle_alpha 145.447452
_cell_angle_beta 57.038465
_cell_angle_gamma 131.920426
_cell_volume 622.391153
_symmetry_space_group_name_H-M "P -1"
_symmetry_group_IT_number 2
_symmetry_cell_setting 'triclinic'
loop_
_space_group_symop_operation_xyz
x,y,z
-x,-y,-z
loop_
_atom_site_type_symbol
_atom_site_label
_atom_site_fract_x
_atom_site_fract_y
_atom_site_fract_z
Si Si1 0.231703 0.302913 0.115758
Si Si2 0.317481 0.052547 0.275257
Si Si3 0.298531 0.753400 0.450319
Si Si4 0.844400 0.050704 0.427844
Si Si5 0.518769 0.776732 0.090258
Si Si6 0.602022 0.314089 0.224866
Si Si7 0.153646 0.218528 0.389940
O O1 0.225402 0.531819 0.358152
O O2 0.144408 0.171334 0.177724
O O3 0.390670 0.341547 0.055345
O O4 0.165210 0.161408 0.872203
O O5 0.470511 0.264404 0.374350
O O6 0.197097 0.060585 0.275759
O O7 0.271821 0.022128 0.440428
O O8 0.337514 0.855725 0.986575
O O9 0.182448 0.793744 0.494623
O O10 0.397489 0.712830 0.225129
O O11 0.387267 0.960681 0.707299
O O12 0.000893 0.180568 0.515651
O O13 0.451151 0.682369 0.889524
O O14 0.730291 0.539521 0.409212
#
# Coordination Sequence:
#
# PCOD8014890 Si02
#       7
#     2   2   2   2   2   2   2
#     4  11  25  41  70  94 130 177 222 271 324 385
#     4  11  25  45  68  98 133 171 221 274 322 391
#     4  10  23  40  67  96 134 170 225 268 329 382
#     4  11  26  46  66  97 136 175 221 266 326 397
#     4  10  21  42  63 102 130 170 220 279 320 388
#     4  11  25  41  72  97 134 169 220 273 335 380
#     4  12  27  43  67 100 135 176 216 268 333 394
#
# _framework density 22.493893
#
# number of rings (size 3 to 8) (size 9 to 14) (size 15 to 20)
#    0.000    1.143    2.857    1.714    6.000    2.286 
#    0.000    0.000    0.000    0.000    0.000    0.000 
#    0.000    0.000    0.000    0.000    0.000    0.000 
#
# Total GULP energy -173641.415870 kJ/mol
# GULP energy per Si atom -12402.958276 kJ/mol
# Density = 2.244270 g / cm^3
# Si number density = 22.493893 Si / 1000 Ang^3
#
#
#
# Elastic Constant Matrix: (Units=GPa)
#
#
# Indices 1 2 3 4 5 6 
#
# 1 117.4201 40.5177 29.0889 13.1450 -6.1886 14.1351
# 2 40.5177 73.4327 30.3402 -5.5757 5.4987 5.7910
# 3 29.0889 30.3402 75.6958 -5.2100 1.3164 5.7888
# 4 13.1450 -5.5757 -5.2100 30.5632 -11.9428 -6.4056
# 5 -6.1886 5.4987 1.3164 -11.9428 22.8077 -0.1726
# 6 14.1351 5.7910 5.7888 -6.4056 -0.1726 44.3675
#
#
#
# Elastic Compliance Matrix: (Units=1/GPa)
#
#
# Indices 1 2 3 4 5 6 
#
# 1 0.012690 -0.006272 -0.002591 -0.007403 0.001198 -0.003950
# 2 -0.006272 0.019795 -0.005231 0.003952 -0.004098 0.000652
# 3 -0.002591 -0.005231 0.016530 0.003513 0.001443 -0.000136
# 4 -0.007403 0.003952 0.003513 0.047468 0.021754 0.008322
# 5 0.001198 -0.004098 0.001443 0.021754 0.056491 0.003325
# 6 -0.003950 0.000652 -0.000136 0.008322 0.003325 0.024945
#
#
# Mechanical properties :
#
#
# Convention : Reuss Voigt Hill
#
# Bulk Modulus (GPa) = 48.01130 51.82689 49.91909
# Shear Modulus (GPa) = 23.46878 30.65446 27.06162
#
# Velocity S-wave (km/s) = 3.23358 3.69560 3.47229
# Velocity P-wave (km/s) = 5.94406 6.42654 6.19000
#
# Compressibility (1/GPa) = 0.02082843
#
# Stress axis : x y z
#
# Youngs Moduli (GPa) = 78.80222 50.51754 60.49559
#
# Poissons Ratio (x) = 0.31683 0.15675
# Poissons Ratio (y) = 0.49422 0.31643
# Poissons Ratio (z) = 0.20418 0.26424
#
# Static dielectric constant tensor:
#      x y z
#    x 4.282240 -0.067030 -0.086450 
#    y -0.067030 3.982590 -0.067500 
#    z -0.086450 -0.067500 4.064200 
# 
# 
# High freq. dielectric constant tensor:
#      x y z
#    x 1.896930 -0.008540 -0.008530 
#    y -0.008540 1.877250 -0.006390 
#    z -0.008530 -0.006390 1.887090 
# 
# From -- ./inp_files/263723.got.cif
#   From: 2010.06.25/outbox.cif.g09.slc.cpg/sg2_132_cif.got.tgz:263723.got - 2010.06.27 13:26:56.
