data_PCOD8014577
_publ_section_title
;
Structure prediction by ZEFSAII (Michael W. Deem and Ramdas Pophale) SiO2 
 PCOD8014577
Probable space group: P -1
;
_chemical_formula_sum "Si O2"
_cell_formula_units_Z 14
_cell_length_a 8.269064
_cell_length_b 13.974584
_cell_length_c 14.597723
_cell_angle_alpha 147.904577
_cell_angle_beta 43.379799
_cell_angle_gamma 133.931249
_cell_volume 601.347325
_symmetry_space_group_name_H-M "P -1"
_symmetry_group_IT_number 2
_symmetry_cell_setting 'triclinic'
loop_
_space_group_symop_operation_xyz
x,y,z
-x,-y,-z
loop_
_atom_site_type_symbol
_atom_site_label
_atom_site_fract_x
_atom_site_fract_y
_atom_site_fract_z
Si Si1 0.108790 0.534755 0.083772
Si Si2 0.630510 0.918740 0.759569
Si Si3 0.844195 0.114129 0.540221
Si Si4 0.554393 0.554298 0.819461
Si Si5 0.746256 0.948571 0.107799
Si Si6 0.332022 0.711473 0.863612
Si Si7 0.614059 0.174205 0.497927
O O1 0.167240 0.752845 0.260341
O O2 0.935680 0.420951 0.141288
O O3 0.358595 0.471081 0.911812
O O4 0.000000 0.500000 0.000000
O O5 0.487118 0.734822 0.724148
O O6 0.874666 0.883507 0.586187
O O7 0.459468 0.973750 0.797449
O O8 0.709969 0.085977 0.932910
O O9 0.717448 0.194378 0.573573
O O10 0.675177 0.911537 0.463209
O O11 0.469445 0.627794 0.818781
O O12 0.675947 0.384200 0.604236
O O13 0.712185 0.728358 0.947859
O O14 0.761078 0.042374 0.277492
O O15 0.000000 0.000000 0.000000
#
# Coordination Sequence:
#
# PCOD8014577 Si02
#       7
#     2   2   2   2   2   2   2
#     4  10  21  41  68  99 137 174 239 291 332 422
#     4  10  23  43  70  96 140 182 228 289 344 415
#     4  11  25  45  69 106 138 183 239 284 355 411
#     4  10  22  45  68  99 138 186 235 280 356 402
#     4  11  26  46  71 103 141 186 234 286 355 414
#     4   9  21  40  65 101 131 181 227 288 338 410
#     4  11  26  46  71 103 146 183 231 296 339 422
#
# _framework density 23.281053
#
# number of rings (size 3 to 8) (size 9 to 14) (size 15 to 20)
#    0.000    1.714    1.429    0.857   10.000    4.571 
#    0.000    0.000    0.000    0.000    0.000    0.000 
#    0.000    0.000    0.000    0.000    0.000    0.000 
#
# Total GULP energy -173439.734455 kJ/mol
# GULP energy per Si atom -12388.552461 kJ/mol
# Density = 2.322806 g / cm^3
# Si number density = 23.281053 Si / 1000 Ang^3
#
#
#
# Elastic Constant Matrix: (Units=GPa)
#
#
# Indices 1 2 3 4 5 6 
#
# 1 64.7761 28.4180 35.6864 6.2696 6.3302 10.6891
# 2 28.4180 127.3967 48.0511 9.1473 -6.1964 6.8787
# 3 35.6864 48.0511 100.9254 20.9084 17.2975 3.7665
# 4 6.2696 9.1473 20.9084 49.1287 4.1341 -6.8494
# 5 6.3302 -6.1964 17.2975 4.1341 27.5711 -1.5509
# 6 10.6891 6.8787 3.7665 -6.8494 -1.5509 32.2750
#
#
#
# Elastic Compliance Matrix: (Units=1/GPa)
#
#
# Indices 1 2 3 4 5 6 
#
# 1 0.020731 -0.002261 -0.005580 -0.000507 -0.002025 -0.005938
# 2 -0.002261 0.010707 -0.005336 -0.000046 0.006245 -0.000620
# 3 -0.005580 -0.005336 0.017152 -0.004827 -0.009985 -0.000521
# 4 -0.000507 -0.000046 -0.004827 0.023277 -0.000037 0.005679
# 5 -0.002025 0.006245 -0.009985 -0.000037 0.044556 0.002638
# 6 -0.005938 -0.000620 -0.000521 0.005679 0.002638 0.034475
#
#
# Mechanical properties :
#
#
# Convention : Reuss Voigt Hill
#
# Bulk Modulus (GPa) = 44.97158 57.48991 51.23075
# Shear Modulus (GPa) = 27.07622 33.85782 30.46702
#
# Velocity S-wave (km/s) = 3.41400 3.81768 3.62147
# Velocity P-wave (km/s) = 5.90756 6.64683 6.28807
#
# Compressibility (1/GPa) = 0.02223626
#
# Stress axis : x y z
#
# Youngs Moduli (GPa) = 48.23769 93.39726 58.30144
#
# Poissons Ratio (x) = 0.21119 0.32531
# Poissons Ratio (y) = 0.10908 0.31108
# Poissons Ratio (z) = 0.26916 0.49834
#
# Static dielectric constant tensor:
#      x y z
#    x 3.538640 0.172750 0.348780 
#    y 0.172750 4.650630 -0.080950 
#    z 0.348780 -0.080950 4.077910 
# 
# 
# High freq. dielectric constant tensor:
#      x y z
#    x 1.898980 0.008710 0.008550 
#    y 0.008710 1.932410 0.000770 
#    z 0.008550 0.000770 1.921680 
# 
# From -- ./inp_files/505656.got.cif
#   From: 2010.06.25/outbox.cif.g09.slc.cpg/sg2_253_cif.got.tgz:505656.got - 2010.06.27 13:26:56.
