data_PCOD8014961
_publ_section_title
;
Structure prediction by ZEFSAII (Michael W. Deem and Ramdas Pophale) SiO2 
 PCOD8014961
Probable space group: P -1
;
_chemical_formula_sum "Si O2"
_cell_formula_units_Z 16
_cell_length_a 12.566987
_cell_length_b 16.727606
_cell_length_c 11.016153
_cell_angle_alpha 94.633819
_cell_angle_beta 66.036891
_cell_angle_gamma 151.217760
_cell_volume 795.012518
_symmetry_space_group_name_H-M "P -1"
_symmetry_group_IT_number 2
_symmetry_cell_setting 'triclinic'
loop_
_space_group_symop_operation_xyz
x,y,z
-x,-y,-z
loop_
_atom_site_type_symbol
_atom_site_label
_atom_site_fract_x
_atom_site_fract_y
_atom_site_fract_z
Si Si1 0.145854 0.179803 0.972857
Si Si2 0.214167 0.427010 0.622969
Si Si3 0.168506 0.388241 0.355556
Si Si4 0.335574 0.825221 0.131129
Si Si5 0.183317 0.970024 0.661310
Si Si6 0.769419 0.278638 0.561405
Si Si7 0.856346 0.053074 0.854070
Si Si8 0.853923 0.889351 0.426825
O O1 0.513026 0.405036 0.840012
O O2 0.030197 0.162018 0.915091
O O3 0.047137 0.161454 0.137818
O O4 0.000000 0.000000 0.000000
O O5 0.257841 0.450120 0.462064
O O6 0.551591 0.640688 0.553768
O O7 0.031049 0.392180 0.744572
O O8 0.021324 0.226764 0.722675
O O9 0.983057 0.189868 0.382741
O O10 0.959585 0.331136 0.409812
O O11 0.378056 0.851391 0.261466
O O12 0.500000 0.000000 0.000000
O O13 0.488907 0.839780 0.014022
O O14 0.496630 0.129523 0.580235
O O15 0.269429 0.109312 0.578542
O O16 0.000000 0.500000 0.500000
O O17 0.887275 0.988690 0.761381
O O18 0.000000 0.000000 0.500000
#
# Coordination Sequence:
#
# PCOD8014961 Si02
#       8
#     2   2   2   2   2   2   2   2
#     4  12  22  40  61  91 125 166 208 259 319 376
#     4  10  21  42  64  90 120 166 212 255 321 378
#     4  11  24  40  64  93 128 163 208 265 314 378
#     4   9  20  38  63  92 119 163 206 251 309 381
#     4  12  24  41  60  96 130 163 213 260 318 379
#     4  11  22  40  68  92 126 170 214 259 313 381
#     4  11  21  38  67  86 123 163 210 254 317 377
#     4  12  25  40  63  92 126 163 212 265 313 381
#
# _framework density 20.125468999999999
#
# number of rings (size 3 to 8) (size 9 to 14) (size 15 to 20)
#    0.000    1.000    3.750    4.125    1.750    0.000 
#    0.000    0.625    0.000    0.000    0.000    0.000 
#    0.000    0.000    0.000    0.000    0.000    0.000 
#
# Total GULP energy -198324.677857 kJ/mol
# GULP energy per Si atom -12395.292366 kJ/mol
# Density = 2.007966 g / cm^3
# Si number density = 20.125469 Si / 1000 Ang^3
#
#
#
# Elastic Constant Matrix: (Units=GPa)
#
#
# Indices 1 2 3 4 5 6 
#
# 1 96.1446 15.7289 35.9075 3.7357 -15.8210 8.3566
# 2 15.7289 96.4089 34.3974 2.1336 -13.0564 6.4109
# 3 35.9075 34.3974 102.8015 2.5383 -22.5113 10.2684
# 4 3.7357 2.1336 2.5383 26.1857 -1.3647 -1.0645
# 5 -15.8210 -13.0564 -22.5113 -1.3647 43.1740 3.1900
# 6 8.3566 6.4109 10.2684 -1.0645 3.1900 32.8217
#
#
#
# Elastic Compliance Matrix: (Units=1/GPa)
#
#
# Indices 1 2 3 4 5 6 
#
# 1 0.012428 -0.000253 -0.003358 -0.001375 0.002860 -0.002387
# 2 -0.000253 0.011970 -0.003351 -0.000575 0.001867 -0.001425
# 3 -0.003358 -0.003351 0.013444 -0.000421 0.004988 -0.003195
# 4 -0.001375 -0.000575 -0.000421 0.038557 0.000187 0.001826
# 5 0.002860 0.001867 0.004988 0.000187 0.027777 -0.005347
# 6 -0.002387 -0.001425 -0.003195 0.001826 -0.005347 0.032932
#
#
# Mechanical properties :
#
#
# Convention : Reuss Voigt Hill
#
# Bulk Modulus (GPa) = 41.81142 51.93585 46.87363
# Shear Modulus (GPa) = 31.44592 34.39101 32.91847
#
# Velocity S-wave (km/s) = 3.95713 4.13828 4.04872
# Velocity P-wave (km/s) = 6.45747 6.97825 6.72290
#
# Compressibility (1/GPa) = 0.02391691
#
# Stress axis : x y z
#
# Youngs Moduli (GPa) = 80.46430 83.54354 74.38535
#
# Poissons Ratio (x) = 0.02115 0.24976
# Poissons Ratio (y) = 0.02037 0.24929
# Poissons Ratio (z) = 0.27017 0.27998
#
# Static dielectric constant tensor:
#      x y z
#    x 4.269740 0.093240 -0.238070 
#    y 0.093240 3.462520 -0.021040 
#    z -0.238070 -0.021040 4.171010 
# 
# 
# High freq. dielectric constant tensor:
#      x y z
#    x 1.809980 0.000040 -0.012170 
#    y 0.000040 1.749780 0.000160 
#    z -0.012170 0.000160 1.804760 
# 
# From -- ./inp_files/405134.got.cif
#   From: 2010.06.25/outbox.cif.g09.slc.cpg/sg2_203_cif.got.tgz:405134.got - 2010.06.27 13:26:56.
