data_PCOD8014337
_publ_section_title
;
Structure prediction by ZEFSAII (Michael W. Deem and Ramdas Pophale) SiO2 
 PCOD8014337
Probable space group: P -1
;
_chemical_formula_sum "Si O2"
_cell_formula_units_Z 16
_cell_length_a 8.465568
_cell_length_b 15.085221
_cell_length_c 11.634984
_cell_angle_alpha 30.312529
_cell_angle_beta 71.472130
_cell_angle_gamma 65.416277
_cell_volume 679.175158
_symmetry_space_group_name_H-M "P -1"
_symmetry_group_IT_number 2
_symmetry_cell_setting 'triclinic'
loop_
_space_group_symop_operation_xyz
x,y,z
-x,-y,-z
loop_
_atom_site_type_symbol
_atom_site_label
_atom_site_fract_x
_atom_site_fract_y
_atom_site_fract_z
Si Si1 0.341857 0.680146 0.859153
Si Si2 0.021602 0.397205 0.990474
Si Si3 0.268418 0.505578 0.656293
Si Si4 0.779997 0.914149 0.199686
Si Si5 0.126712 0.911902 0.235084
Si Si6 0.831880 0.001622 0.608371
Si Si7 0.393030 0.726029 0.048530
Si Si8 0.795569 0.547207 0.516285
O O1 0.328168 0.832457 0.590795
O O2 0.500000 0.500000 0.000000
O O3 0.379419 0.771286 0.866233
O O4 0.162705 0.628394 0.972739
O O5 0.082031 0.513642 0.747744
O O6 0.000000 0.500000 0.000000
O O7 0.180894 0.204398 0.176568
O O8 0.267078 0.714877 0.401369
O O9 0.421225 0.416149 0.809077
O O10 0.299884 0.404398 0.639374
O O11 0.727222 0.724549 0.417786
O O12 0.934637 0.895933 0.274682
O O13 0.834930 0.943386 0.023972
O O14 0.622644 0.085912 0.088396
O O15 0.140583 0.975205 0.289856
O O16 0.000000 0.000000 0.500000
O O17 0.242579 0.632190 0.220813
O O18 0.000000 0.500000 0.500000
#
# Coordination Sequence:
#
# PCOD8014337 Si02
#       8
#     2   2   2   2   2   2   2   2
#     4  11  24  47  71  98 138 180 229 290 347 404
#     4  11  23  42  69 100 130 183 235 277 344 415
#     4  12  24  44  68  98 143 178 223 285 345 415
#     4  11  23  41  70 101 137 178 230 283 343 411
#     4  11  21  41  68  97 136 181 223 283 346 403
#     4  10  21  41  66  97 136 180 228 281 343 410
#     4  12  26  46  66 103 143 176 228 291 344 404
#     4  12  23  44  70 103 135 181 231 274 349 413
#
# _framework density 23.557988999999999
#
# number of rings (size 3 to 8) (size 9 to 14) (size 15 to 20)
#    0.000    0.750    2.500    7.125    0.000    0.500 
#    4.500    1.250    0.000    0.000    0.000    0.000 
#    0.000    0.000    0.000    0.000    0.000    0.000 
#
# Total GULP energy -198407.380434 kJ/mol
# GULP energy per Si atom -12400.461277 kJ/mol
# Density = 2.350437 g / cm^3
# Si number density = 23.557989 Si / 1000 Ang^3
#
#
#
# Elastic Constant Matrix: (Units=GPa)
#
#
# Indices 1 2 3 4 5 6 
#
# 1 58.9156 21.0824 22.1730 -4.2146 19.9353 6.9586
# 2 21.0824 148.1151 54.1044 -7.2639 10.4487 30.1662
# 3 22.1730 54.1044 106.6774 -15.2734 19.3235 12.4283
# 4 -4.2146 -7.2639 -15.2734 52.5129 5.6981 6.9337
# 5 19.9353 10.4487 19.3235 5.6981 42.5689 1.2623
# 6 6.9586 30.1662 12.4283 6.9337 1.2623 40.6040
#
#
#
# Elastic Compliance Matrix: (Units=1/GPa)
#
#
# Indices 1 2 3 4 5 6 
#
# 1 0.021635 -0.001239 -0.001530 0.002462 -0.009390 -0.002448
# 2 -0.001239 0.009547 -0.003771 0.000900 0.000002 -0.005880
# 3 -0.001530 -0.003771 0.013218 0.003923 -0.004839 -0.001502
# 4 0.002462 0.000900 0.003923 0.021921 -0.005916 -0.005851
# 5 -0.009390 0.000002 -0.004839 -0.005916 0.030783 0.003142
# 6 -0.002448 -0.005880 -0.001502 -0.005851 0.003142 0.030777
#
#
# Mechanical properties :
#
#
# Convention : Reuss Voigt Hill
#
# Bulk Modulus (GPa) = 31.92838 56.49199 44.21019
# Shear Modulus (GPa) = 33.02499 41.56038 37.29268
#
# Velocity S-wave (km/s) = 3.74820 4.20476 3.98303
# Velocity P-wave (km/s) = 5.68459 6.89967 6.32139
#
# Compressibility (1/GPa) = 0.03132009
#
# Stress axis : x y z
#
# Youngs Moduli (GPa) = 46.22102 104.74631 75.65638
#
# Poissons Ratio (x) = 0.12978 0.11575
# Poissons Ratio (y) = 0.05727 0.28529
# Poissons Ratio (z) = 0.07071 0.39499
#
# Static dielectric constant tensor:
#      x y z
#    x 4.121160 0.160810 -0.006530 
#    y 0.160810 4.276710 -0.056470 
#    z -0.006530 -0.056470 4.911860 
# 
# 
# High freq. dielectric constant tensor:
#      x y z
#    x 1.912020 0.011130 0.010850 
#    y 0.011130 1.943070 -0.004000 
#    z 0.010850 -0.004000 1.945300 
# 
# From -- ./inp_files/307541.got.cif
#   From: 2010.06.25/outbox.cif.g09.slc.cpg/sg2_154_cif.got.tgz:307541.got - 2010.06.27 13:26:56.
