data_PCOD8014222
_publ_section_title
;
Structure prediction by ZEFSAII (Michael W. Deem and Ramdas Pophale) SiO2 
 PCOD8014222
Probable space group: P -1
;
_chemical_formula_sum "Si O2"
_cell_formula_units_Z 14
_cell_length_a 10.129880
_cell_length_b 9.464874
_cell_length_c 21.960961
_cell_angle_alpha 152.207703
_cell_angle_beta 139.033210
_cell_angle_gamma 44.379690
_cell_volume 636.097027
_symmetry_space_group_name_H-M "P -1"
_symmetry_group_IT_number 2
_symmetry_cell_setting 'triclinic'
loop_
_space_group_symop_operation_xyz
x,y,z
-x,-y,-z
loop_
_atom_site_type_symbol
_atom_site_label
_atom_site_fract_x
_atom_site_fract_y
_atom_site_fract_z
Si Si1 0.769120 0.399295 0.548945
Si Si2 0.785544 0.711338 0.302309
Si Si3 0.363915 0.745542 0.839268
Si Si4 0.957757 0.756245 0.135220
Si Si5 0.470473 0.356545 0.335636
Si Si6 0.328536 0.292742 0.871336
Si Si7 0.620813 0.270057 0.662538
O O1 0.676251 0.476298 0.478461
O O2 0.671816 0.666012 0.663196
O O3 0.008679 0.380523 0.622975
O O4 0.703989 0.070635 0.422784
O O5 0.643300 0.476012 0.189047
O O6 0.816291 0.667638 0.223704
O O7 0.463749 0.529727 0.738902
O O8 0.145570 0.924012 0.808918
O O9 0.500000 0.000000 0.000000
O O10 0.812269 0.638993 0.091730
O O11 0.170413 0.823941 0.263640
O O12 0.000000 0.500000 0.000000
O O13 0.330154 0.586529 0.330137
O O14 0.539462 0.041269 0.204698
O O15 0.500000 0.500000 0.000000
O O16 0.500000 0.000000 0.500000
#
# Coordination Sequence:
#
# PCOD8014222 Si02
#       7
#     2   2   2   2   2   2   2
#     4   9  20  41  66  99 134 179 232 294 368 425
#     4  10  22  40  70  97 136 181 240 292 357 432
#     4  12  25  47  71 102 147 193 240 302 367 435
#     4  12  27  48  74 105 147 194 244 299 371 439
#     4  10  21  41  65  97 140 175 228 296 352 422
#     4  11  24  43  71 100 141 187 242 293 356 433
#     4  12  27  44  73 105 147 190 246 297 367 436
#
# _framework density 22.009219999999999
#
# number of rings (size 3 to 8) (size 9 to 14) (size 15 to 20)
#    0.000    1.143    2.857    2.571    2.000    4.000 
#    0.000    2.143    0.000    0.000    0.000    0.000 
#    0.000    0.000    0.000    0.000    0.000    0.000 
#
# Total GULP energy -173486.168233 kJ/mol
# GULP energy per Si atom -12391.869160 kJ/mol
# Density = 2.195913 g / cm^3
# Si number density = 22.009220 Si / 1000 Ang^3
#
#
#
# Elastic Constant Matrix: (Units=GPa)
#
#
# Indices 1 2 3 4 5 6 
#
# 1 102.0002 20.3154 51.3200 10.5845 -12.6206 3.3562
# 2 20.3154 123.5359 34.7368 -17.0710 -0.0718 -7.1389
# 3 51.3200 34.7368 129.7157 -3.7306 -4.1126 -6.7778
# 4 10.5845 -17.0710 -3.7306 31.2674 -1.8009 0.5466
# 5 -12.6206 -0.0718 -4.1126 -1.8009 38.9036 4.7966
# 6 3.3562 -7.1389 -6.7778 0.5466 4.7966 41.8081
#
#
#
# Elastic Compliance Matrix: (Units=1/GPa)
#
#
# Indices 1 2 3 4 5 6 
#
# 1 0.014028 -0.001825 -0.005248 -0.006092 0.004040 -0.002672
# 2 -0.001825 0.009734 -0.001663 0.005668 -0.000678 0.001543
# 3 -0.005248 -0.001663 0.010363 0.002029 -0.000747 0.001877
# 4 -0.006092 0.005668 0.002029 0.037347 -0.000185 0.001319
# 5 0.004040 -0.000678 -0.000747 -0.000185 0.027383 -0.003700
# 6 -0.002672 0.001543 0.001877 0.001319 -0.003700 0.025108
#
#
# Mechanical properties :
#
#
# Convention : Reuss Voigt Hill
#
# Bulk Modulus (GPa) = 60.04397 63.11071 61.57734
# Shear Modulus (GPa) = 34.01673 38.98781 36.50227
#
# Velocity S-wave (km/s) = 3.93564 4.21340 4.07689
# Velocity P-wave (km/s) = 6.92768 7.23929 7.08520
#
# Compressibility (1/GPa) = 0.01665446
#
# Stress axis : x y z
#
# Youngs Moduli (GPa) = 71.28731 102.72759 96.49385
#
# Poissons Ratio (x) = 0.18749 0.50639
# Poissons Ratio (y) = 0.13011 0.16043
# Poissons Ratio (z) = 0.37411 0.17079
#
# Static dielectric constant tensor:
#      x y z
#    x 3.869720 0.127050 -0.075380 
#    y 0.127050 4.521880 0.021640 
#    z -0.075380 0.021640 4.119860 
# 
# 
# High freq. dielectric constant tensor:
#      x y z
#    x 1.853350 0.001000 -0.016150 
#    y 0.001000 1.886220 -0.008520 
#    z -0.016150 -0.008520 1.865370 
# 
# From -- ./inp_files/343346.got.cif
#   From: 2010.06.25/outbox.cif.g09.slc.cpg/sg2_172_cif.got.tgz:343346.got - 2010.06.27 13:26:56.
