data_PCOD8014282
_publ_section_title
;
Structure prediction by ZEFSAII (Michael W. Deem and Ramdas Pophale) SiO2 
 PCOD8014282
Probable space group: P -1
;
_chemical_formula_sum "Si O2"
_cell_formula_units_Z 16
_cell_length_a 5.329792
_cell_length_b 9.460054
_cell_length_c 19.240092
_cell_angle_alpha 96.076558
_cell_angle_beta 134.999425
_cell_angle_gamma 90.809918
_cell_volume 676.623779
_symmetry_space_group_name_H-M "P -1"
_symmetry_group_IT_number 2
_symmetry_cell_setting 'triclinic'
loop_
_space_group_symop_operation_xyz
x,y,z
-x,-y,-z
loop_
_atom_site_type_symbol
_atom_site_label
_atom_site_fract_x
_atom_site_fract_y
_atom_site_fract_z
Si Si1 0.625598 0.363508 0.051485
Si Si2 0.571490 0.394679 0.448816
Si Si3 0.652053 0.559438 0.344828
Si Si4 0.726263 0.918305 0.091004
Si Si5 0.555948 0.083415 0.445287
Si Si6 0.680451 0.874153 0.356750
Si Si7 0.523498 0.019635 0.205936
Si Si8 0.455076 0.342210 0.180382
O O1 0.546574 0.360904 0.118191
O O2 0.038864 0.349847 0.115612
O O3 0.500000 0.500000 0.000000
O O4 0.366842 0.246506 0.953184
O O5 0.500000 0.500000 0.500000
O O6 0.425393 0.452522 0.349969
O O7 0.373406 0.230958 0.411345
O O8 0.993704 0.392533 0.538813
O O9 0.491032 0.708436 0.302109
O O10 0.688772 0.469365 0.276455
O O11 0.593739 0.951075 0.143052
O O12 0.141504 0.961375 0.160768
O O13 0.500000 0.000000 0.000000
O O14 0.982053 0.131771 0.527327
O O15 0.500000 0.000000 0.500000
O O16 0.421263 0.975265 0.350202
O O17 0.794308 0.955948 0.310090
O O18 0.567174 0.191186 0.220099
#
# Coordination Sequence:
#
# PCOD8014282 Si02
#       8
#     2   2   2   2   2   2   2   2
#     4  12  28  46  72  99 137 178 225 276 348 396
#     4  10  21  41  66  92 132 178 214 269 335 394
#     4  10  24  41  63  95 132 172 221 272 333 393
#     4  12  24  48  72  97 135 177 226 279 336 406
#     4  10  21  41  66  92 135 170 222 270 327 397
#     4  10  24  41  63  98 128 173 221 276 328 390
#     4  12  25  43  73 102 134 176 227 280 335 399
#     4  12  25  46  69 103 137 175 226 279 332 413
#
# _framework density 23.646819000000001
#
# number of rings (size 3 to 8) (size 9 to 14) (size 15 to 20)
#    0.000    1.000    2.500    3.000    7.000    3.000 
#    0.000    0.000    0.000    0.000    0.000    0.000 
#    0.000    0.000    0.000    0.000    0.000    0.000 
#
# Total GULP energy -198221.449208 kJ/mol
# GULP energy per Si atom -12388.840576 kJ/mol
# Density = 2.359300 g / cm^3
# Si number density = 23.646819 Si / 1000 Ang^3
#
#
#
# Elastic Constant Matrix: (Units=GPa)
#
#
# Indices 1 2 3 4 5 6 
#
# 1 106.9405 48.8495 39.0781 -2.9369 -46.1440 0.4471
# 2 48.8495 264.4352 64.7094 8.2059 -51.3954 0.1926
# 3 39.0781 64.7094 98.6087 1.8645 -35.9584 -9.0100
# 4 -2.9369 8.2059 1.8645 42.9442 -5.2258 -12.1190
# 5 -46.1440 -51.3954 -35.9584 -5.2258 54.8928 4.8170
# 6 0.4471 0.1926 -9.0100 -12.1190 4.8170 28.8453
#
#
#
# Elastic Compliance Matrix: (Units=1/GPa)
#
#
# Indices 1 2 3 4 5 6 
#
# 1 0.015273 -0.000121 -0.001860 0.002046 0.011872 -0.001940
# 2 -0.000121 0.004992 -0.002198 -0.000944 0.003187 -0.001647
# 3 -0.001860 -0.002198 0.014826 0.001594 0.005859 0.004366
# 4 0.002046 -0.000944 0.001594 0.027148 0.003473 0.011298
# 5 0.011872 0.003187 0.005859 0.003473 0.035601 -0.002861
# 6 -0.001940 -0.001647 0.004366 0.011298 -0.002861 0.041297
#
#
# Mechanical properties :
#
#
# Convention : Reuss Voigt Hill
#
# Bulk Modulus (GPa) = 37.40776 86.13983 61.77380
# Shear Modulus (GPa) = 31.96809 46.49294 39.23052
#
# Velocity S-wave (km/s) = 3.68081 4.43893 4.07752
# Velocity P-wave (km/s) = 5.82393 7.92331 6.95331
#
# Compressibility (1/GPa) = 0.02673242
#
# Stress axis : x y z
#
# Youngs Moduli (GPa) = 65.47549 200.32907 67.44876
#
# Poissons Ratio (x) = 0.02421 0.12545
# Poissons Ratio (y) = 0.00791 0.14828
# Poissons Ratio (z) = 0.12178 0.44040
#
# Static dielectric constant tensor:
#      x y z
#    x 4.265820 -0.022960 -0.126920 
#    y -0.022960 5.161980 -0.185030 
#    z -0.126920 -0.185030 4.454210 
# 
# 
# High freq. dielectric constant tensor:
#      x y z
#    x 1.932000 -0.002030 -0.013910 
#    y -0.002030 1.965190 0.000630 
#    z -0.013910 0.000630 1.939030 
# 
# From -- ./inp_files/90337.got.cif
#   From: 2010.06.25/outbox.cif.g09.slc.cpg/sg2_46_cif.got.tgz:90337.got - 2010.06.27 13:26:56.
