data_PCOD8014389
_publ_section_title
;
Structure prediction by ZEFSAII (Michael W. Deem and Ramdas Pophale) SiO2 
 PCOD8014389
Probable space group: P -1
;
_chemical_formula_sum "Si O2"
_cell_formula_units_Z 14
_cell_length_a 12.249552
_cell_length_b 11.346801
_cell_length_c 6.674847
_cell_angle_alpha 67.367491
_cell_angle_beta 47.446269
_cell_angle_gamma 83.015090
_cell_volume 617.545319
_symmetry_space_group_name_H-M "P -1"
_symmetry_group_IT_number 2
_symmetry_cell_setting 'triclinic'
loop_
_space_group_symop_operation_xyz
x,y,z
-x,-y,-z
loop_
_atom_site_type_symbol
_atom_site_label
_atom_site_fract_x
_atom_site_fract_y
_atom_site_fract_z
Si Si1 0.440216 0.616357 0.603514
Si Si2 0.360260 0.115044 0.886619
Si Si3 0.634685 0.991819 0.641638
Si Si4 0.784843 0.269260 0.443565
Si Si5 0.783479 0.385707 0.771861
Si Si6 0.857243 0.903547 0.148919
Si Si7 0.964876 0.647326 0.208636
O O1 0.500000 0.500000 0.500000
O O2 0.574914 0.741484 0.376104
O O3 0.314367 0.639714 0.592068
O O4 0.363016 0.589073 0.939328
O O5 0.469494 0.013023 0.767083
O O6 0.185263 0.077687 0.045816
O O7 0.365957 0.119966 0.117261
O O8 0.741565 0.122841 0.509771
O O9 0.703452 0.937087 0.401055
O O10 0.752925 0.269086 0.722236
O O11 0.959949 0.329787 0.122311
O O12 0.849985 0.511076 0.469849
O O13 0.901280 0.342004 0.804251
O O14 0.870256 0.759033 0.287996
O O15 0.000000 0.000000 0.000000
#
# Coordination Sequence:
#
# PCOD8014389 Si02
#       7
#     2   2   2   2   2   2   2
#     4  10  24  42  63  98 127 165 226 271 314 389
#     4  10  25  43  66  93 135 174 213 272 324 388
#     4  10  23  44  66  97 128 179 215 263 331 387
#     4  10  21  41  67  89 130 170 217 267 326 386
#     4  10  23  42  68  88 132 176 211 268 329 383
#     4  12  25  41  68  99 135 165 221 274 324 387
#     4  10  23  42  61 100 126 172 217 267 326 387
#
# _framework density 22.670400000000001
#
# number of rings (size 3 to 8) (size 9 to 14) (size 15 to 20)
#    0.000    1.714    1.429    0.857    6.000    5.714 
#    0.000    0.000    0.000    0.000    0.000    0.000 
#    0.000    0.000    0.000    0.000    0.000    0.000 
#
# Total GULP energy -173460.792829 kJ/mol
# GULP energy per Si atom -12390.056631 kJ/mol
# Density = 2.261880 g / cm^3
# Si number density = 22.670400 Si / 1000 Ang^3
#
#
#
# Elastic Constant Matrix: (Units=GPa)
#
#
# Indices 1 2 3 4 5 6 
#
# 1 100.9937 35.7616 14.7279 -8.6929 -4.0288 -3.7958
# 2 35.7616 102.8003 29.6020 11.7006 6.4187 -14.5664
# 3 14.7279 29.6020 105.7579 6.2061 4.8456 1.5100
# 4 -8.6929 11.7006 6.2061 35.7769 6.3351 4.8832
# 5 -4.0288 6.4187 4.8456 6.3351 22.9194 -0.3018
# 6 -3.7958 -14.5664 1.5100 4.8832 -0.3018 22.3701
#
#
#
# Elastic Compliance Matrix: (Units=1/GPa)
#
#
# Indices 1 2 3 4 5 6 
#
# 1 0.012185 -0.005028 -0.000637 0.004583 0.002390 -0.002132
# 2 -0.005028 0.014713 -0.003074 -0.006478 -0.002428 0.010316
# 3 -0.000637 -0.003074 0.010530 -0.000348 -0.001418 -0.002764
# 4 0.004583 -0.006478 -0.000348 0.033944 -0.006833 -0.010919
# 5 0.002390 -0.002428 -0.001418 -0.006833 0.046933 0.001045
# 6 -0.002132 0.010316 -0.002764 -0.010919 0.001045 0.053642
#
#
# Mechanical properties :
#
#
# Convention : Reuss Voigt Hill
#
# Bulk Modulus (GPa) = 50.13032 52.19276 51.16154
# Shear Modulus (GPa) = 25.50054 31.51064 28.50559
#
# Velocity S-wave (km/s) = 3.35750 3.73224 3.54982
# Velocity P-wave (km/s) = 6.09845 6.45331 6.27839
#
# Compressibility (1/GPa) = 0.01994801
#
# Stress axis : x y z
#
# Youngs Moduli (GPa) = 82.06971 67.96919 94.97114
#
# Poissons Ratio (x) = 0.34176 0.06054
# Poissons Ratio (y) = 0.41266 0.29192
# Poissons Ratio (z) = 0.05232 0.20892
#
# Static dielectric constant tensor:
#      x y z
#    x 3.969480 -0.082900 -0.031060 
#    y -0.082900 4.028470 0.068250 
#    z -0.031060 0.068250 4.469870 
# 
# 
# High freq. dielectric constant tensor:
#      x y z
#    x 1.893680 -0.003960 0.003720 
#    y -0.003960 1.891950 0.002520 
#    z 0.003720 0.002520 1.894520 
# 
# From -- ./inp_files/68136.got.cif
#   From: 2010.06.25/outbox.cif.g09.slc.cpg/sg2_35_cif.got.tgz:68136.got - 2010.06.27 13:26:56.
