data_PCOD8014818
_publ_section_title
;
Structure prediction by ZEFSAII (Michael W. Deem and Ramdas Pophale) SiO2 
 PCOD8014818
Probable space group: P -1
;
_chemical_formula_sum "Si O2"
_cell_formula_units_Z 10
_cell_length_a 11.533770
_cell_length_b 7.360925
_cell_length_c 11.196911
_cell_angle_alpha 40.281409
_cell_angle_beta 79.495182
_cell_angle_gamma 103.244693
_cell_volume 492.625686
_symmetry_space_group_name_H-M "P -1"
_symmetry_group_IT_number 2
_symmetry_cell_setting 'triclinic'
loop_
_space_group_symop_operation_xyz
x,y,z
-x,-y,-z
loop_
_atom_site_type_symbol
_atom_site_label
_atom_site_fract_x
_atom_site_fract_y
_atom_site_fract_z
Si Si1 0.773319 0.277755 0.200560
Si Si2 0.139137 0.685164 0.298645
Si Si3 0.822821 0.852300 0.554464
Si Si4 0.339680 0.353369 0.067326
Si Si5 0.950093 0.383344 0.897474
O O1 0.920527 0.613765 0.064973
O O2 0.719923 0.948459 0.460430
O O3 0.657908 0.367036 0.159152
O O4 0.814165 0.205866 0.099881
O O5 0.185785 0.435262 0.380743
O O6 0.102372 0.813202 0.120783
O O7 0.000000 0.500000 0.500000
O O8 0.274573 0.003563 0.182255
O O9 0.759005 0.710641 0.768245
O O10 0.987088 0.210905 0.347815
O O11 0.500000 0.500000 0.000000
#
# Coordination Sequence:
#
# PCOD8014818 Si02
#       5
#     2   2   2   2   2
#     4   9  20  40  63  89 130 156 195 264 315 344
#     4  12  21  37  70  95 116 162 209 251 316 357
#     4  10  21  42  60  90 129 156 198 265 298 357
#     4  12  26  42  60  90 130 169 204 246 304 371
#     4   9  18  36  67  91 120 151 201 264 306 348
#
# _framework density 20.299389999999999
#
# number of rings (size 3 to 8) (size 9 to 14) (size 15 to 20)
#    1.200    0.400    4.000    1.800    0.000    2.400 
#    3.600    1.000    0.000    0.000    0.000    0.000 
#    0.000    0.000    0.000    0.000    0.000    0.000 
#
# Total GULP energy -123910.063787 kJ/mol
# GULP energy per Si atom -12391.006379 kJ/mol
# Density = 2.025319 g / cm^3
# Si number density = 20.299390 Si / 1000 Ang^3
#
#
#
# Elastic Constant Matrix: (Units=GPa)
#
#
# Indices 1 2 3 4 5 6 
#
# 1 108.0724 45.5588 13.4367 -17.6682 4.2320 11.7472
# 2 45.5588 135.4137 35.2019 -13.1175 -2.2234 11.5445
# 3 13.4367 35.2019 32.0720 1.9925 6.5570 8.1094
# 4 -17.6682 -13.1175 1.9925 22.6023 4.8264 4.1201
# 5 4.2320 -2.2234 6.5570 4.8264 32.9113 -3.5340
# 6 11.7472 11.5445 8.1094 4.1201 -3.5340 31.6051
#
#
#
# Elastic Compliance Matrix: (Units=1/GPa)
#
#
# Indices 1 2 3 4 5 6 
#
# 1 0.012943 -0.002692 -0.000996 0.010419 -0.003750 -0.005350
# 2 -0.002692 0.012397 -0.013300 0.005734 0.002935 -0.000534
# 3 -0.000996 -0.013300 0.050858 -0.009353 -0.010365 -0.007761
# 4 0.010419 0.005734 -0.009353 0.060824 -0.009356 -0.012543
# 5 -0.003750 0.002935 -0.010365 -0.009356 0.035378 0.008157
# 6 -0.005350 -0.000534 -0.007761 -0.012543 0.008157 0.038362
#
#
# Mechanical properties :
#
#
# Convention : Reuss Voigt Hill
#
# Bulk Modulus (GPa) = 23.68443 51.55032 37.61737
# Shear Modulus (GPa) = 19.31888 29.51446 24.41667
#
# Velocity S-wave (km/s) = 3.08831 3.81722 3.47194
# Velocity P-wave (km/s) = 4.94062 6.69913 5.88592
#
# Compressibility (1/GPa) = 0.04222184
#
# Stress axis : x y z
#
# Youngs Moduli (GPa) = 77.25895 80.66325 19.66262
#
# Poissons Ratio (x) = 0.21715 0.01958
# Poissons Ratio (y) = 0.20798 0.26152
# Poissons Ratio (z) = 0.07694 1.07286
#
# Static dielectric constant tensor:
#      x y z
#    x 3.619800 0.215540 0.402080 
#    y 0.215540 3.705550 0.179270 
#    z 0.402080 0.179270 3.480060 
# 
# 
# High freq. dielectric constant tensor:
#      x y z
#    x 1.788610 0.009880 0.034750 
#    y 0.009880 1.794350 0.021820 
#    z 0.034750 0.021820 1.761740 
# 
# From -- ./inp_files/16354.got.cif
#   From: 2010.06.25/outbox.cif.g09.slc.cpg/sg2_9_cif.got.tgz:16354.got - 2010.06.27 13:26:56.
