data_PCOD8014285
_publ_section_title
;
Structure prediction by ZEFSAII (Michael W. Deem and Ramdas Pophale) SiO2 
 PCOD8014285
Probable space group: P -1
;
_chemical_formula_sum "Si O2"
_cell_formula_units_Z 16
_cell_length_a 19.946033
_cell_length_b 11.879172
_cell_length_c 9.288774
_cell_angle_alpha 59.483136
_cell_angle_beta 135.769972
_cell_angle_gamma 153.037373
_cell_volume 633.698152
_symmetry_space_group_name_H-M "P -1"
_symmetry_group_IT_number 2
_symmetry_cell_setting 'triclinic'
loop_
_space_group_symop_operation_xyz
x,y,z
-x,-y,-z
loop_
_atom_site_type_symbol
_atom_site_label
_atom_site_fract_x
_atom_site_fract_y
_atom_site_fract_z
Si Si1 0.667367 0.663483 0.812690
Si Si2 0.302457 0.370188 0.586534
Si Si3 0.940611 0.427182 0.122226
Si Si4 0.042750 0.781600 0.228443
Si Si5 0.828234 0.060068 0.352830
Si Si6 0.376876 0.576705 0.875002
Si Si7 0.506815 0.997316 0.841513
Si Si8 0.653050 0.427330 0.739813
O O1 0.510616 0.566992 0.714879
O O2 0.567615 0.458823 0.660949
O O3 0.844257 0.959667 0.829813
O O4 0.764205 0.674671 0.069787
O O5 0.351898 0.490382 0.735899
O O6 0.237674 0.407034 0.351237
O O7 0.140253 0.058291 0.552191
O O8 0.969032 0.312485 0.298976
O O9 0.082491 0.697929 0.250639
O O10 0.711229 0.191049 0.955136
O O11 0.000000 0.500000 0.000000
O O12 0.108951 0.829236 0.460883
O O13 0.808848 0.542378 0.013062
O O14 0.596133 0.815668 0.127450
O O15 0.337303 0.686568 0.739322
O O16 0.473443 0.104921 0.655527
O O17 0.500000 0.000000 0.000000
#
# Coordination Sequence:
#
# PCOD8014285 Si02
#       8
#     2   2   2   2   2   2   2   2
#     4  11  21  38  67  94 126 172 225 270 321 398
#     4  11  24  39  66  97 130 172 220 279 328 387
#     4  10  24  41  67 100 134 172 223 278 334 393
#     4  11  24  39  67  96 133 178 215 276 330 400
#     4  10  21  41  66  93 129 171 225 269 326 398
#     4  10  23  40  66  93 127 169 229 273 326 383
#     4  10  21  42  69  90 132 178 218 273 326 397
#     4  11  23  42  62  97 135 166 225 268 335 395
#
# _framework density 25.248612999999999
#
# number of rings (size 3 to 8) (size 9 to 14) (size 15 to 20)
#    0.000    1.500    2.500    2.625    7.000    0.500 
#    0.000    3.125   11.000    0.000    0.000    0.000 
#    0.000    0.000    0.000    0.000    0.000    0.000 
#
# Total GULP energy -198224.493551 kJ/mol
# GULP energy per Si atom -12389.030847 kJ/mol
# Density = 2.519115 g / cm^3
# Si number density = 25.248613 Si / 1000 Ang^3
#
#
#
# Elastic Constant Matrix: (Units=GPa)
#
#
# Indices 1 2 3 4 5 6 
#
# 1 115.0316 58.6006 44.6105 -14.1523 -46.5943 -20.5234
# 2 58.6006 152.8587 61.0711 -70.6562 -23.5738 -38.1969
# 3 44.6105 61.0711 109.8442 -20.3777 -45.5567 -12.5155
# 4 -14.1523 -70.6562 -20.3777 50.9729 10.6469 3.6192
# 5 -46.5943 -23.5738 -45.5567 10.6469 50.6778 4.9969
# 6 -20.5234 -38.1969 -12.5155 3.6192 4.9969 53.7997
#
#
#
# Elastic Compliance Matrix: (Units=1/GPa)
#
#
# Indices 1 2 3 4 5 6 
#
# 1 0.020065 -0.016080 0.005238 -0.018555 0.019885 -0.003143
# 2 -0.016080 0.049963 -0.015962 0.061141 -0.021052 0.023467
# 3 0.005238 -0.015962 0.020379 -0.016251 0.019650 -0.005326
# 4 -0.018555 0.061141 -0.016251 0.096178 -0.026246 0.028518
# 5 0.019885 -0.021052 0.019650 -0.026246 0.051978 -0.005852
# 6 -0.003143 0.023467 -0.005326 0.028518 -0.005852 0.031436
#
#
# Mechanical properties :
#
#
# Convention : Reuss Voigt Hill
#
# Bulk Modulus (GPa) = 27.17525 78.47763 52.82644
# Shear Modulus (GPa) = 14.88656 45.32023 30.10340
#
# Velocity S-wave (km/s) = 2.43080 4.24129 3.45669
# Velocity P-wave (km/s) = 4.32028 7.42524 6.07450
#
# Compressibility (1/GPa) = 0.03679819
#
# Stress axis : x y z
#
# Youngs Moduli (GPa) = 49.83915 20.01485 49.06958
#
# Poissons Ratio (x) = 0.32184 -0.25704
# Poissons Ratio (y) = 0.80143 0.78326
# Poissons Ratio (z) = -0.26107 0.31948
#
# Static dielectric constant tensor:
#      x y z
#    x 4.464700 -0.495840 0.043350 
#    y -0.495840 6.043950 -0.926350 
#    z 0.043350 -0.926350 4.812720 
# 
# 
# High freq. dielectric constant tensor:
#      x y z
#    x 1.997580 -0.019270 -0.008720 
#    y -0.019270 2.032640 -0.030830 
#    z -0.008720 -0.030830 1.995410 
# 
# From -- ./inp_files/346043.got.cif
#   From: 2010.06.25/outbox.cif.g09.slc.cpg/sg2_174_cif.got.tgz:346043.got - 2010.06.27 13:26:56.
