data_PCOD8014823
_publ_section_title
;
Structure prediction by ZEFSAII (Michael W. Deem and Ramdas Pophale) SiO2 
 PCOD8014823
Probable space group: P -1
;
_chemical_formula_sum "Si O2"
_cell_formula_units_Z 14
_cell_length_a 14.595730
_cell_length_b 13.146560
_cell_length_c 14.247162
_cell_angle_alpha 148.666289
_cell_angle_beta 28.562077
_cell_angle_gamma 151.976582
_cell_volume 575.043415
_symmetry_space_group_name_H-M "P -1"
_symmetry_group_IT_number 2
_symmetry_cell_setting 'triclinic'
loop_
_space_group_symop_operation_xyz
x,y,z
-x,-y,-z
loop_
_atom_site_type_symbol
_atom_site_label
_atom_site_fract_x
_atom_site_fract_y
_atom_site_fract_z
Si Si1 0.525300 0.884915 0.243022
Si Si2 0.189641 0.619035 0.171188
Si Si3 0.505123 0.732886 0.336121
Si Si4 0.430146 0.363145 0.254285
Si Si5 0.979090 0.871129 0.055250
Si Si6 0.174087 0.461046 0.695536
Si Si7 0.926189 0.166097 0.860668
O O1 0.356270 0.804560 0.243693
O O2 0.417318 0.705339 0.285928
O O3 0.582873 0.136987 0.419540
O O4 0.765325 0.915259 0.023563
O O5 0.009475 0.670474 0.328344
O O6 0.327100 0.611641 0.949914
O O7 0.057449 0.367806 0.141659
O O8 0.414552 0.481081 0.263612
O O9 0.782244 0.900738 0.212924
O O10 0.404752 0.491181 0.469182
O O11 0.251395 0.093273 0.213911
O O12 0.931062 0.840631 0.186252
O O13 0.097263 0.298644 0.726812
O O14 0.205363 0.707070 0.886602
#
# Coordination Sequence:
#
# PCOD8014823 Si02
#       7
#     2   2   2   2   2   2   2
#     4  11  22  44  63  93 130 167 212 270 309 382
#     4  10  23  39  67  95 126 168 220 250 328 379
#     4  10  24  40  64  93 126 169 217 254 329 376
#     4  11  22  41  64  96 127 168 216 262 311 387
#     4  10  21  42  60  92 129 164 209 265 313 378
#     4  10  23  43  65  96 134 166 211 269 312 382
#     4  10  21  42  67  93 133 169 209 265 320 372
#
# _framework density 24.345987999999998
#
# number of rings (size 3 to 8) (size 9 to 14) (size 15 to 20)
#    0.000    1.714    1.429    2.571    2.000    2.857 
#    2.571   13.571    0.000    0.000    0.000    0.000 
#    0.000    0.000    0.000    0.000    0.000    0.000 
#
# Total GULP energy -173495.158925 kJ/mol
# GULP energy per Si atom -12392.511352 kJ/mol
# Density = 2.429058 g / cm^3
# Si number density = 24.345988 Si / 1000 Ang^3
#
#
#
# Elastic Constant Matrix: (Units=GPa)
#
#
# Indices 1 2 3 4 5 6 
#
# 1 78.0935 11.0767 17.0220 -1.4741 19.5481 -7.8267
# 2 11.0767 61.5195 19.9840 1.9292 8.0286 -9.1377
# 3 17.0220 19.9840 81.6416 -7.9437 15.8894 -4.0522
# 4 -1.4741 1.9292 -7.9437 21.8316 -4.6468 -3.0081
# 5 19.5481 8.0286 15.8894 -4.6468 30.1685 1.9381
# 6 -7.8267 -9.1377 -4.0522 -3.0081 1.9381 31.5947
#
#
#
# Elastic Compliance Matrix: (Units=1/GPa)
#
#
# Indices 1 2 3 4 5 6 
#
# 1 0.016054 -0.000561 -0.001125 -0.000837 -0.010060 0.004208
# 2 -0.000561 0.018874 -0.003920 -0.003204 -0.003391 0.004720
# 3 -0.001125 -0.003920 0.015041 0.004752 -0.005502 0.001307
# 4 -0.000837 -0.003204 0.004752 0.049625 0.006291 0.003814
# 5 -0.010060 -0.003391 -0.005502 0.006291 0.044842 -0.006330
# 6 0.004208 0.004720 0.001307 0.003814 -0.006330 0.034977
#
#
# Mechanical properties :
#
#
# Convention : Reuss Voigt Hill
#
# Bulk Modulus (GPa) = 25.80221 35.26891 30.53556
# Shear Modulus (GPa) = 24.56481 28.26375 26.41428
#
# Velocity S-wave (km/s) = 3.17990 3.41092 3.29744
# Velocity P-wave (km/s) = 4.90953 5.48001 5.20260
#
# Compressibility (1/GPa) = 0.03875636
#
# Stress axis : x y z
#
# Youngs Moduli (GPa) = 62.28989 52.98416 66.48608
#
# Poissons Ratio (x) = 0.02973 0.07477
# Poissons Ratio (y) = 0.03495 0.26065
# Poissons Ratio (z) = 0.07005 0.20771
#
# Static dielectric constant tensor:
#      x y z
#    x 4.281620 -0.064500 0.031920 
#    y -0.064500 4.355900 -0.082080 
#    z 0.031920 -0.082080 4.399110 
# 
# 
# High freq. dielectric constant tensor:
#      x y z
#    x 1.959690 -0.010010 0.004870 
#    y -0.010010 1.954180 -0.005550 
#    z 0.004870 -0.005550 1.964690 
# 
# From -- ./inp_files/534525.got.cif
#   From: 2010.06.25/outbox.cif.g09.slc.cpg/sg2_268_cif.got.tgz:534525.got - 2010.06.27 13:26:56.
