data_PCOD8014600
_publ_section_title
;
Structure prediction by ZEFSAII (Michael W. Deem and Ramdas Pophale) SiO2 
 PCOD8014600
Probable space group: P -1
;
_chemical_formula_sum "Si O2"
_cell_formula_units_Z 14
_cell_length_a 13.445692
_cell_length_b 6.832971
_cell_length_c 7.515454
_cell_angle_alpha 90.652153
_cell_angle_beta 104.023222
_cell_angle_gamma 90.842332
_cell_volume 669.745307
_symmetry_space_group_name_H-M "P -1"
_symmetry_group_IT_number 2
_symmetry_cell_setting 'triclinic'
loop_
_space_group_symop_operation_xyz
x,y,z
-x,-y,-z
loop_
_atom_site_type_symbol
_atom_site_label
_atom_site_fract_x
_atom_site_fract_y
_atom_site_fract_z
Si Si1 0.694817 0.025546 0.300535
Si Si2 0.254473 0.875503 0.049048
Si Si3 0.621148 0.684959 0.446032
Si Si4 0.093991 0.938454 0.419322
Si Si5 0.389486 0.738244 0.437873
Si Si6 0.792933 0.774387 0.769748
Si Si7 0.097455 0.611752 0.124189
O O1 0.669971 0.788863 0.288972
O O2 0.610049 0.101207 0.404323
O O3 0.808188 0.092158 0.412304
O O4 0.678832 0.126546 0.102163
O O5 0.313273 0.793759 0.245980
O O6 0.148950 0.747354 0.993946
O O7 0.220118 0.102200 0.053461
O O8 0.500516 0.716850 0.402052
O O9 0.646442 0.457065 0.472660
O O10 0.681124 0.795039 0.632725
O O11 0.071279 0.741285 0.290046
O O12 0.116773 0.121071 0.302653
O O13 0.000000 0.000000 0.500000
O O14 0.818561 0.549732 0.798877
O O15 0.000000 0.500000 0.000000
#
# Coordination Sequence:
#
# PCOD8014600 Si02
#       7
#     2   2   2   2   2   2   2
#     4  11  23  41  63  93 130 165 210 265 319 378
#     4  11  24  40  65  95 128 166 215 268 309 389
#     4  10  21  41  69  88 128 172 203 266 322 375
#     4  10  23  41  62  91 127 167 216 265 316 384
#     4  11  21  44  64  93 129 165 214 260 320 381
#     4  10  21  42  63  88 131 166 213 259 323 375
#     4  11  24  42  64  91 129 173 212 264 325 376
#
# _framework density 20.903466000000002
#
# number of rings (size 3 to 8) (size 9 to 14) (size 15 to 20)
#    0.000    1.429    5.714    0.429    4.000    3.429 
#    2.571    1.429    0.000    0.000    0.000    0.000 
#    0.000    0.000    0.000    0.000    0.000    0.000 
#
# Total GULP energy -173437.114093 kJ/mol
# GULP energy per Si atom -12388.365292 kJ/mol
# Density = 2.085589 g / cm^3
# Si number density = 20.903466 Si / 1000 Ang^3
#
#
#
# Elastic Constant Matrix: (Units=GPa)
#
#
# Indices 1 2 3 4 5 6 
#
# 1 70.1587 33.5796 30.6298 0.5533 -3.7547 1.2908
# 2 33.5796 131.1123 47.5462 -3.4082 -5.3882 6.6257
# 3 30.6298 47.5462 86.0039 -12.9960 -25.2761 4.5694
# 4 0.5533 -3.4082 -12.9960 23.5467 6.1379 1.0414
# 5 -3.7547 -5.3882 -25.2761 6.1379 25.7307 1.0997
# 6 1.2908 6.6257 4.5694 1.0414 1.0997 36.4777
#
#
#
# Elastic Compliance Matrix: (Units=1/GPa)
#
#
# Indices 1 2 3 4 5 6 
#
# 1 0.018228 -0.002494 -0.006797 -0.003611 -0.003715 0.000875
# 2 -0.002494 0.010317 -0.006026 -0.000714 -0.003915 -0.000892
# 3 -0.006797 -0.006026 0.024620 0.007725 0.020199 -0.002578
# 4 -0.003611 -0.000714 0.007725 0.047958 -0.004445 -0.001945
# 5 -0.003715 -0.003915 0.020199 -0.004445 0.058547 -0.003326
# 6 0.000875 -0.000892 -0.002578 -0.001945 -0.003326 0.028024
#
#
# Mechanical properties :
#
#
# Convention : Reuss Voigt Hill
#
# Bulk Modulus (GPa) = 44.38475 56.75401 50.56938
# Shear Modulus (GPa) = 22.13957 28.85229 25.49593
#
# Velocity S-wave (km/s) = 3.25796 3.71922 3.49621
# Velocity P-wave (km/s) = 5.95246 6.75670 6.36729
#
# Compressibility (1/GPa) = 0.02253026
#
# Stress axis : x y z
#
# Youngs Moduli (GPa) = 54.85996 96.92833 40.61699
#
# Poissons Ratio (x) = 0.24178 0.27607
# Poissons Ratio (y) = 0.13684 0.24477
# Poissons Ratio (z) = 0.37288 0.58411
#
# Static dielectric constant tensor:
#      x y z
#    x 3.685270 0.122430 0.002160 
#    y 0.122430 4.283100 -0.145260 
#    z 0.002160 -0.145260 3.618470 
# 
# 
# High freq. dielectric constant tensor:
#      x y z
#    x 1.814940 0.011220 0.008220 
#    y 0.011220 1.840610 -0.007840 
#    z 0.008220 -0.007840 1.794650 
# 
# From -- ./inp_files/288696.got.cif
#   From: 2010.06.25/outbox.cif.g09.slc.cpg/sg2_145_cif.got.tgz:288696.got - 2010.06.27 13:26:56.
