data_PCOD8014123
_publ_section_title
;
Structure prediction by ZEFSAII (Michael W. Deem and Ramdas Pophale) SiO2 
 PCOD8014123
Probable space group: P -1
;
_chemical_formula_sum "Si O2"
_cell_formula_units_Z 16
_cell_length_a 16.131100
_cell_length_b 12.316956
_cell_length_c 9.499073
_cell_angle_alpha 106.871952
_cell_angle_beta 73.370561
_cell_angle_gamma 155.058194
_cell_volume 760.385908
_symmetry_space_group_name_H-M "P -1"
_symmetry_group_IT_number 2
_symmetry_cell_setting 'triclinic'
loop_
_space_group_symop_operation_xyz
x,y,z
-x,-y,-z
loop_
_atom_site_type_symbol
_atom_site_label
_atom_site_fract_x
_atom_site_fract_y
_atom_site_fract_z
Si Si1 0.820681 0.673015 0.248642
Si Si2 0.822930 0.699272 0.937727
Si Si3 0.693264 0.786312 0.066295
Si Si4 0.390451 0.870634 0.653376
Si Si5 0.024061 0.737788 0.367957
Si Si6 0.874185 0.990088 0.322451
Si Si7 0.411378 0.109487 0.916848
Si Si8 0.578038 0.912685 0.778125
O O1 0.590762 0.378166 0.287726
O O2 0.975332 0.776026 0.292212
O O3 0.866341 0.855440 0.342512
O O4 0.853129 0.685462 0.074040
O O5 0.603729 0.406031 0.888665
O O6 0.951153 0.787920 0.791808
O O7 0.856967 0.879143 0.988118
O O8 0.745442 0.969015 0.036729
O O9 0.679586 0.783267 0.242984
O O10 0.500000 0.500000 0.000000
O O11 0.525502 0.963398 0.735531
O O12 0.172447 0.565027 0.621610
O O13 0.500000 0.000000 0.500000
O O14 0.359990 0.960319 0.763734
O O15 0.101741 0.886752 0.527346
O O16 0.202086 0.868289 0.281188
O O17 0.422228 0.061099 0.044528
#
# Coordination Sequence:
#
# PCOD8014123 Si02
#       8
#     2   2   2   2   2   2   2   2
#     4   9  20  41  60  90 129 167 198 257 309 365
#     4   9  19  37  64  93 126 159 208 255 302 367
#     4   9  19  35  60  93 120 156 206 249 297 367
#     4  11  25  46  65  88 126 161 210 269 314 360
#     4  11  25  41  62  95 127 165 210 251 313 377
#     4  11  21  37  61  96 130 164 203 252 310 369
#     4  10  21  41  65  90 122 169 205 258 314 357
#     4  10  24  42  64  90 125 162 214 258 304 378
#
# _framework density 21.041945999999999
#
# number of rings (size 3 to 8) (size 9 to 14) (size 15 to 20)
#    0.000    2.000    0.000    3.750    5.250    1.500 
#    4.500    0.000    0.000    0.000    0.000    0.000 
#    0.000    0.000    0.000    0.000    0.000    0.000 
#
# Total GULP energy -198275.596571 kJ/mol
# GULP energy per Si atom -12392.224786 kJ/mol
# Density = 2.099405 g / cm^3
# Si number density = 21.041946 Si / 1000 Ang^3
#
#
#
# Elastic Constant Matrix: (Units=GPa)
#
#
# Indices 1 2 3 4 5 6 
#
# 1 125.7282 44.9897 43.7003 6.1314 9.7300 -0.0463
# 2 44.9897 98.0577 42.2036 1.3950 -3.6526 3.4325
# 3 43.7003 42.2036 112.3517 14.0872 -4.0944 -5.5798
# 4 6.1314 1.3950 14.0872 38.5558 -1.6082 -1.2584
# 5 9.7300 -3.6526 -4.0944 -1.6082 29.8424 2.0590
# 6 -0.0463 3.4325 -5.5798 -1.2584 2.0590 36.3770
#
#
#
# Elastic Compliance Matrix: (Units=1/GPa)
#
#
# Indices 1 2 3 4 5 6 
#
# 1 0.010671 -0.003868 -0.002757 -0.000727 -0.004382 0.000179
# 2 -0.003868 0.013786 -0.003875 0.001577 0.002640 -0.001995
# 3 -0.002757 -0.003875 0.012053 -0.003688 0.001743 0.001985
# 4 -0.000727 0.001577 -0.003688 0.027405 0.001390 0.000154
# 5 -0.004382 0.002640 0.001743 0.001390 0.035711 -0.001961
# 6 0.000179 -0.001995 0.001985 0.000154 -0.001961 0.028099
#
#
# Mechanical properties :
#
#
# Convention : Reuss Voigt Hill
#
# Bulk Modulus (GPa) = 64.47547 66.43608 65.45577
# Shear Modulus (GPa) = 32.48960 34.63798 33.56379
#
# Velocity S-wave (km/s) = 3.93369 4.06167 3.99819
# Velocity P-wave (km/s) = 7.16518 7.32379 7.24492
#
# Compressibility (1/GPa) = 0.01550977
#
# Stress axis : x y z
#
# Youngs Moduli (GPa) = 93.71298 72.53598 82.96708
#
# Poissons Ratio (x) = 0.28060 0.22875
# Poissons Ratio (y) = 0.36252 0.32147
# Poissons Ratio (z) = 0.25838 0.28105
#
# Static dielectric constant tensor:
#      x y z
#    x 4.433180 0.270660 0.200100 
#    y 0.270660 4.050880 0.085830 
#    z 0.200100 0.085830 3.729230 
# 
# 
# High freq. dielectric constant tensor:
#      x y z
#    x 1.831670 0.007530 0.012400 
#    y 0.007530 1.832110 0.010640 
#    z 0.012400 0.010640 1.815480 
# 
# From -- ./inp_files/307986.got.cif
#   From: 2010.06.25/outbox.cif.g09.slc.cpg/sg2_154_cif.got.tgz:307986.got - 2010.06.27 13:26:56.
