data_PCOD8014169
_publ_section_title
;
Structure prediction by ZEFSAII (Michael W. Deem and Ramdas Pophale) SiO2 
 PCOD8014169
Probable space group: P -1
;
_chemical_formula_sum "Si O2"
_cell_formula_units_Z 16
_cell_length_a 10.479833
_cell_length_b 13.443268
_cell_length_c 19.703097
_cell_angle_alpha 30.083771
_cell_angle_beta 52.540729
_cell_angle_gamma 34.196596
_cell_volume 722.863464
_symmetry_space_group_name_H-M "P -1"
_symmetry_group_IT_number 2
_symmetry_cell_setting 'triclinic'
loop_
_space_group_symop_operation_xyz
x,y,z
-x,-y,-z
loop_
_atom_site_type_symbol
_atom_site_label
_atom_site_fract_x
_atom_site_fract_y
_atom_site_fract_z
Si Si1 0.240535 0.256555 0.396261
Si Si2 0.147892 0.946414 0.198772
Si Si3 0.178639 0.142270 0.343429
Si Si4 0.164006 0.913215 0.672236
Si Si5 0.827670 0.594847 0.938008
Si Si6 0.416297 0.684319 0.047549
Si Si7 0.692080 0.394651 0.334504
Si Si8 0.030914 0.862315 0.157592
O O1 0.264629 0.215809 0.330739
O O2 0.094661 0.588597 0.267720
O O3 0.500000 0.000000 0.500000
O O4 0.095250 0.199614 0.504408
O O5 0.430983 0.744268 0.221528
O O6 0.084159 0.818179 0.246617
O O7 0.079434 0.951153 0.295201
O O8 0.980021 0.287570 0.028093
O O9 0.235134 0.173974 0.231614
O O10 0.890698 0.362336 0.318818
O O11 0.321411 0.799816 0.505155
O O12 0.395772 0.677756 0.789303
O O13 0.242726 0.705932 0.705507
O O14 0.574237 0.740589 0.964222
O O15 0.000000 0.500000 0.000000
O O16 0.206284 0.870526 0.064006
O O17 0.257348 0.819311 0.949794
#
# Coordination Sequence:
#
# PCOD8014169 Si02
#       8
#     2   2   2   2   2   2   2   2
#     4  11  22  39  64  94 131 170 218 272 315 387
#     4  11  24  40  69  94 128 181 209 266 341 377
#     4  10  23  40  68  94 130 178 211 273 335 370
#     4  10  21  41  65  93 130 169 213 274 323 379
#     4  11  26  44  66 100 131 167 222 277 321 391
#     4  10  22  40  61  88 137 164 215 273 317 381
#     4  10  21  45  66  94 132 166 221 265 325 401
#     4  11  23  39  62  96 128 179 219 261 330 390
#
# _framework density 22.134193
#
# number of rings (size 3 to 8) (size 9 to 14) (size 15 to 20)
#    0.000    1.500    2.500    2.250    3.500    6.000 
#    0.000    8.750    0.000    0.000    0.000    0.000 
#    0.000    0.000    0.000    0.000    0.000    0.000 
#
# Total GULP energy -198322.972147 kJ/mol
# GULP energy per Si atom -12395.185759 kJ/mol
# Density = 2.208381 g / cm^3
# Si number density = 22.134193 Si / 1000 Ang^3
#
#
#
# Elastic Constant Matrix: (Units=GPa)
#
#
# Indices 1 2 3 4 5 6 
#
# 1 112.4815 44.9413 32.3599 0.8501 15.7921 -8.3801
# 2 44.9413 106.0817 33.6302 6.6829 5.1715 -10.6287
# 3 32.3599 33.6302 94.1430 17.2909 8.6865 3.8667
# 4 0.8501 6.6829 17.2909 36.2189 -2.4737 5.3665
# 5 15.7921 5.1715 8.6865 -2.4737 33.7348 -2.3538
# 6 -8.3801 -10.6287 3.8667 5.3665 -2.3538 28.6233
#
#
#
# Elastic Compliance Matrix: (Units=1/GPa)
#
#
# Indices 1 2 3 4 5 6 
#
# 1 0.011902 -0.003905 -0.002602 0.001132 -0.004092 0.001837
# 2 -0.003905 0.012547 -0.003165 -0.001281 0.000923 0.004259
# 3 -0.002602 -0.003165 0.014071 -0.005808 -0.002552 -0.002959
# 4 0.001132 -0.001281 -0.005808 0.031550 0.003126 -0.005018
# 5 -0.004092 0.000923 -0.002552 0.003126 0.032413 0.001569
# 6 0.001837 0.004259 -0.002959 -0.005018 0.001569 0.038525
#
#
# Mechanical properties :
#
#
# Convention : Reuss Voigt Hill
#
# Bulk Modulus (GPa) = 52.14735 59.39657 55.77196
# Shear Modulus (GPa) = 29.98636 33.16705 31.57671
#
# Velocity S-wave (km/s) = 3.68469 3.87519 3.78114
# Velocity P-wave (km/s) = 6.45859 6.84951 6.65692
#
# Compressibility (1/GPa) = 0.01917643
#
# Stress axis : x y z
#
# Youngs Moduli (GPa) = 84.01979 79.70183 71.06942
#
# Poissons Ratio (x) = 0.31125 0.18491
# Poissons Ratio (y) = 0.32811 0.22490
# Poissons Ratio (z) = 0.21861 0.25222
#
# Static dielectric constant tensor:
#      x y z
#    x 4.082890 -0.160730 0.097870 
#    y -0.160730 3.807340 0.085990 
#    z 0.097870 0.085990 4.266490 
# 
# 
# High freq. dielectric constant tensor:
#      x y z
#    x 1.869880 -0.011020 0.014450 
#    y -0.011020 1.853120 0.009260 
#    z 0.014450 0.009260 1.874750 
# 
# From -- ./inp_files/595467.got.cif
#   From: 2010.06.25/outbox.cif.g09.slc.cpg/sg2_298_cif.got.tgz:595467.got - 2010.06.27 13:26:56.
