data_PCOD8014599
_publ_section_title
;
Structure prediction by ZEFSAII (Michael W. Deem and Ramdas Pophale) SiO2 
 PCOD8014599
Probable space group: P -1
;
_chemical_formula_sum "Si O2"
_cell_formula_units_Z 14
_cell_length_a 8.886973
_cell_length_b 9.360263
_cell_length_c 15.401516
_cell_angle_alpha 142.354388
_cell_angle_beta 66.450960
_cell_angle_gamma 104.681135
_cell_volume 712.794078
_symmetry_space_group_name_H-M "P -1"
_symmetry_group_IT_number 2
_symmetry_cell_setting 'triclinic'
loop_
_space_group_symop_operation_xyz
x,y,z
-x,-y,-z
loop_
_atom_site_type_symbol
_atom_site_label
_atom_site_fract_x
_atom_site_fract_y
_atom_site_fract_z
Si Si1 0.945326 0.862605 0.030063
Si Si2 0.637930 0.767119 0.144960
Si Si3 0.894583 0.376784 0.579209
Si Si4 0.685425 0.982144 0.419178
Si Si5 0.707579 0.228486 0.847326
Si Si6 0.019794 0.338503 0.725171
Si Si7 0.113065 0.144091 0.264655
O O1 0.747916 0.839175 0.071675
O O2 0.990358 0.993646 0.169509
O O3 0.037464 0.599179 0.881619
O O4 0.000000 0.000000 0.000000
O O5 0.700933 0.896064 0.275688
O O6 0.444583 0.843264 0.209476
O O7 0.664363 0.487443 0.021723
O O8 0.831221 0.653019 0.713133
O O9 0.983928 0.342992 0.634148
O O10 0.027499 0.273722 0.429280
O O11 0.732473 0.245592 0.545047
O O12 0.805546 0.811817 0.370649
O O13 0.500000 0.000000 0.500000
O O14 0.875325 0.215398 0.746522
O O15 0.732238 0.036998 0.826823
#
# Coordination Sequence:
#
# PCOD8014599 Si02
#       7
#     2   2   2   2   2   2   2
#     4  11  21  42  66  89 123 162 209 257 303 366
#     4  10  22  40  63  97 120 162 213 259 299 363
#     4  11  23  39  60  94 126 162 203 245 317 373
#     4  12  24  39  63  94 129 159 210 256 305 371
#     4  10  21  41  69  88 125 162 211 257 306 361
#     4  11  22  40  68  90 119 170 210 248 309 370
#     4  11  22  40  63  89 126 165 198 256 311 366
#
# _framework density 19.641017999999999
#
# number of rings (size 3 to 8) (size 9 to 14) (size 15 to 20)
#    0.000    1.143    4.286    2.143    2.000    2.286 
#    2.571    1.429    0.000    0.000    0.000    0.000 
#    0.000    0.000    0.000    0.000    0.000    0.000 
#
# Total GULP energy -173593.869045 kJ/mol
# GULP energy per Si atom -12399.562075 kJ/mol
# Density = 1.959631 g / cm^3
# Si number density = 19.641018 Si / 1000 Ang^3
#
#
#
# Elastic Constant Matrix: (Units=GPa)
#
#
# Indices 1 2 3 4 5 6 
#
# 1 138.9242 79.6315 53.3136 16.7262 -7.5625 -6.3818
# 2 79.6315 117.0831 41.6143 18.8420 -5.4258 -4.6918
# 3 53.3136 41.6143 83.3439 10.1244 11.5712 -0.5097
# 4 16.7262 18.8420 10.1244 35.7985 0.9399 4.0035
# 5 -7.5625 -5.4258 11.5712 0.9399 40.2920 -0.5564
# 6 -6.3818 -4.6918 -0.5097 4.0035 -0.5564 30.9643
#
#
#
# Elastic Compliance Matrix: (Units=1/GPa)
#
#
# Indices 1 2 3 4 5 6 
#
# 1 0.013756 -0.006876 -0.005632 -0.001522 0.003336 0.001957
# 2 -0.006876 0.015009 -0.002821 -0.004086 0.001655 0.001369
# 3 -0.005632 -0.002821 0.017999 -0.000652 -0.006609 -0.001326
# 4 -0.001522 -0.004086 -0.000652 0.031583 -0.001455 -0.005053
# 5 0.003336 0.001655 -0.006609 -0.001455 0.027621 0.001514
# 6 0.001957 0.001369 -0.001326 -0.005053 0.001514 0.033565
#
#
# Mechanical properties :
#
#
# Convention : Reuss Voigt Hill
#
# Bulk Modulus (GPa) = 62.09214 76.49666 69.29440
# Shear Modulus (GPa) = 28.48055 32.39707 30.43881
#
# Velocity S-wave (km/s) = 3.81209 4.06576 3.94097
# Velocity P-wave (km/s) = 7.14550 7.81489 7.48768
#
# Compressibility (1/GPa) = 0.01610510
#
# Stress axis : x y z
#
# Youngs Moduli (GPa) = 72.69794 66.62657 55.55989
#
# Poissons Ratio (x) = 0.45811 0.31294
# Poissons Ratio (y) = 0.49985 0.15673
# Poissons Ratio (z) = 0.40946 0.18795
#
# Static dielectric constant tensor:
#      x y z
#    x 3.554150 0.038590 0.203140 
#    y 0.038590 4.214940 0.550580 
#    z 0.203140 0.550580 4.061000 
# 
# 
# High freq. dielectric constant tensor:
#      x y z
#    x 1.759420 -0.000090 0.015330 
#    y -0.000090 1.766960 0.007420 
#    z 0.015330 0.007420 1.776770 
# 
# From -- ./inp_files/153719.got.cif
#   From: 2010.06.25/outbox.cif.g09.slc.cpg/sg2_77_cif.got.tgz:153719.got - 2010.06.27 13:26:56.
