data_PCOD8014434
_publ_section_title
;
Structure prediction by ZEFSAII (Michael W. Deem and Ramdas Pophale) SiO2 
 PCOD8014434
Probable space group: P -1
;
_chemical_formula_sum "Si O2"
_cell_formula_units_Z 14
_cell_length_a 8.764984
_cell_length_b 24.859980
_cell_length_c 8.947453
_cell_angle_alpha 139.826712
_cell_angle_beta 48.547737
_cell_angle_gamma 150.021436
_cell_volume 628.445789
_symmetry_space_group_name_H-M "P -1"
_symmetry_group_IT_number 2
_symmetry_cell_setting 'triclinic'
loop_
_space_group_symop_operation_xyz
x,y,z
-x,-y,-z
loop_
_atom_site_type_symbol
_atom_site_label
_atom_site_fract_x
_atom_site_fract_y
_atom_site_fract_z
Si Si1 0.780756 0.238688 0.023010
Si Si2 0.441704 0.402332 0.932569
Si Si3 0.310974 0.565469 0.863635
Si Si4 0.538860 0.125536 0.388603
Si Si5 0.412965 0.182945 0.876585
Si Si6 0.147325 0.630557 0.469955
Si Si7 0.767518 0.021110 0.013248
O O1 0.865558 0.342664 0.294610
O O2 0.700598 0.250710 0.938677
O O3 0.078779 0.270970 0.882621
O O4 0.495720 0.099793 0.973336
O O5 0.634938 0.383718 0.705730
O O6 0.500000 0.500000 0.000000
O O7 0.528467 0.446742 0.145305
O O8 0.202103 0.490959 0.619406
O O9 0.542838 0.712228 0.999270
O O10 0.000000 0.500000 0.000000
O O11 0.385364 0.104884 0.600041
O O12 0.717973 0.258000 0.487943
O O13 0.775684 0.122285 0.255452
O O14 0.282501 0.012819 0.202349
O O15 0.102116 0.086687 0.972092
#
# Coordination Sequence:
#
# PCOD8014434 Si02
#       7
#     2   2   2   2   2   2   2
#     4  11  26  43  65 101 138 168 220 273 324 388
#     4  11  24  41  68  98 133 170 216 271 329 387
#     4  10  21  41  67  95 127 171 222 257 326 394
#     4  10  22  41  71  92 130 171 229 266 322 388
#     4  12  23  42  70  94 134 177 214 273 327 386
#     4  10  23  45  66  97 136 173 214 272 331 382
#     4  10  25  42  65 101 129 171 227 267 324 388
#
# _framework density 22.277180000000001
#
# number of rings (size 3 to 8) (size 9 to 14) (size 15 to 20)
#    0.000    1.429    2.857    2.571    6.000    6.857 
#    0.000    0.000    0.000    0.000    0.000    0.000 
#    0.000    0.000    0.000    0.000    0.000    0.000 
#
# Total GULP energy -173574.286698 kJ/mol
# GULP energy per Si atom -12398.163336 kJ/mol
# Density = 2.222648 g / cm^3
# Si number density = 22.277180 Si / 1000 Ang^3
#
#
#
# Elastic Constant Matrix: (Units=GPa)
#
#
# Indices 1 2 3 4 5 6 
#
# 1 142.9140 43.1014 45.1788 2.6040 -2.4036 0.3679
# 2 43.1014 99.9253 27.7280 2.9971 -1.9864 7.1297
# 3 45.1788 27.7280 103.1147 9.7320 -13.1331 -11.9684
# 4 2.6040 2.9971 9.7320 24.4613 -1.7144 0.2058
# 5 -2.4036 -1.9864 -13.1331 -1.7144 26.9605 -1.8832
# 6 0.3679 7.1297 -11.9684 0.2058 -1.8832 37.0068
#
#
#
# Elastic Compliance Matrix: (Units=1/GPa)
#
#
# Indices 1 2 3 4 5 6 
#
# 1 0.008920 -0.002893 -0.003415 0.000693 -0.001086 -0.000695
# 2 -0.002893 0.012148 -0.002441 -0.000238 -0.000787 -0.003140
# 3 -0.003415 -0.002441 0.013674 -0.004383 0.006266 0.005270
# 4 0.000693 -0.000238 -0.004383 0.042629 0.000509 -0.001590
# 5 -0.001086 -0.000787 0.006266 0.000509 0.040317 0.004238
# 6 -0.000695 -0.003140 0.005270 -0.001590 0.004238 0.029563
#
#
# Mechanical properties :
#
#
# Convention : Reuss Voigt Hill
#
# Bulk Modulus (GPa) = 57.99001 64.21892 61.10447
# Shear Modulus (GPa) = 29.32598 33.01543 31.17070
#
# Velocity S-wave (km/s) = 3.63218 3.85389 3.74467
# Velocity P-wave (km/s) = 6.60893 6.97804 6.79599
#
# Compressibility (1/GPa) = 0.01724435
#
# Stress axis : x y z
#
# Youngs Moduli (GPa) = 112.10732 82.31635 73.13171
#
# Poissons Ratio (x) = 0.23812 0.24972
# Poissons Ratio (y) = 0.32430 0.17855
# Poissons Ratio (z) = 0.38281 0.20097
#
# Static dielectric constant tensor:
#      x y z
#    x 4.375590 0.247890 0.279500 
#    y 0.247890 3.986080 0.114750 
#    z 0.279500 0.114750 4.367240 
# 
# 
# High freq. dielectric constant tensor:
#      x y z
#    x 1.884710 0.003600 0.003980 
#    y 0.003600 1.873940 -0.000270 
#    z 0.003980 -0.000270 1.872120 
# 
# From -- ./inp_files/199965.got.cif
#   From: 2010.06.25/outbox.cif.g09.slc.cpg/sg2_100_cif.got.tgz:199965.got - 2010.06.27 13:26:56.
