data_PCOD8014825
_publ_section_title
;
Structure prediction by ZEFSAII (Michael W. Deem and Ramdas Pophale) SiO2 
 PCOD8014825
Probable space group: P -1
;
_chemical_formula_sum "Si O2"
_cell_formula_units_Z 16
_cell_length_a 17.690117
_cell_length_b 12.794648
_cell_length_c 23.595185
_cell_angle_alpha 24.067940
_cell_angle_beta 21.822146
_cell_angle_gamma 24.398531
_cell_volume 736.239646
_symmetry_space_group_name_H-M "P -1"
_symmetry_group_IT_number 2
_symmetry_cell_setting 'triclinic'
loop_
_space_group_symop_operation_xyz
x,y,z
-x,-y,-z
loop_
_atom_site_type_symbol
_atom_site_label
_atom_site_fract_x
_atom_site_fract_y
_atom_site_fract_z
Si Si1 0.145604 0.790428 0.653700
Si Si2 0.669561 0.901392 0.701577
Si Si3 0.691917 0.792685 0.119427
Si Si4 0.192053 0.188856 0.518640
Si Si5 0.627454 0.079605 0.208146
Si Si6 0.964934 0.296174 0.829437
Si Si7 0.890949 0.116058 0.170636
Si Si8 0.288522 0.264347 0.998676
O O1 0.310550 0.480457 0.712497
O O2 0.908699 0.786889 0.808710
O O3 0.231846 0.871979 0.495013
O O4 0.126334 0.020733 0.599904
O O5 0.481026 0.926609 0.774001
O O6 0.879917 0.596835 0.708665
O O7 0.549215 0.964657 0.815515
O O8 0.731395 0.725141 0.059936
O O9 0.884997 0.882805 0.959726
O O10 0.431430 0.193025 0.335486
O O11 0.000000 0.500000 0.500000
O O12 0.213885 0.041211 0.637125
O O13 0.751824 0.289007 0.014504
O O14 0.821802 0.769597 0.244328
O O15 0.053705 0.041612 0.849064
O O16 0.712084 0.440653 0.125671
O O17 0.500000 0.000000 0.000000
#
# Coordination Sequence:
#
# PCOD8014825 Si02
#       8
#     2   2   2   2   2   2   2   2
#     4  10  21  42  60  93 125 162 219 259 318 387
#     4  11  23  41  70  92 127 174 216 262 328 388
#     4  11  21  42  67  87 124 176 209 261 323 383
#     4  11  22  37  68  94 125 171 215 264 326 385
#     4  10  24  41  61  97 134 164 216 266 324 382
#     4  11  24  42  64  98 130 172 215 270 323 385
#     4  11  21  41  63  90 128 163 215 262 319 383
#     4  11  24  41  64  95 127 170 213 266 322 387
#
# _framework density 21.732053000000001
#
# number of rings (size 3 to 8) (size 9 to 14) (size 15 to 20)
#    0.000    1.250    3.750    3.000    1.750    4.500 
#    0.000    0.625    0.000    0.000    0.000    0.000 
#    0.000    0.000    0.000    0.000    0.000    0.000 
#
# Total GULP energy -198358.506604 kJ/mol
# GULP energy per Si atom -12397.406663 kJ/mol
# Density = 2.168259 g / cm^3
# Si number density = 21.732053 Si / 1000 Ang^3
#
#
#
# Elastic Constant Matrix: (Units=GPa)
#
#
# Indices 1 2 3 4 5 6 
#
# 1 15.1915 11.1873 0.3931 -1.5398 -1.7150 -12.4892
# 2 11.1873 132.9768 39.7829 0.0548 -2.6798 -16.6212
# 3 0.3931 39.7829 120.0949 12.1649 15.9006 -10.4622
# 4 -1.5398 0.0548 12.1649 31.6193 3.5834 5.5480
# 5 -1.7150 -2.6798 15.9006 3.5834 19.1764 0.3291
# 6 -12.4892 -16.6212 -10.4622 5.5480 0.3291 40.9056
#
#
#
# Elastic Compliance Matrix: (Units=1/GPa)
#
#
# Indices 1 2 3 4 5 6 
#
# 1 0.092257 -0.005300 0.003421 -0.002097 0.004600 0.027137
# 2 -0.005300 0.009215 -0.003453 0.000447 0.003574 0.001154
# 3 0.003421 -0.003453 0.011282 -0.003704 -0.008893 0.003101
# 4 -0.002097 0.000447 -0.003704 0.034392 -0.003376 -0.006043
# 5 0.004600 0.003574 -0.008893 -0.003376 0.061053 0.000549
# 6 0.027137 0.001154 0.003101 -0.006043 0.000549 0.034809
#
#
# Mechanical properties :
#
#
# Convention : Reuss Voigt Hill
#
# Bulk Modulus (GPa) = 9.79522 41.22107 25.50814
# Shear Modulus (GPa) = 17.37913 32.80026 25.08969
#
# Velocity S-wave (km/s) = 2.83096 3.88919 3.40148
# Velocity P-wave (km/s) = 3.89909 6.25914 5.21439
#
# Compressibility (1/GPa) = 0.10209064
#
# Stress axis : x y z
#
# Youngs Moduli (GPa) = 10.83932 108.51743 88.63510
#
# Poissons Ratio (x) = 0.57509 -0.30323
# Poissons Ratio (y) = 0.05744 0.30608
# Poissons Ratio (z) = -0.03708 0.37473
#
# Static dielectric constant tensor:
#      x y z
#    x 2.567910 -0.004390 0.222480 
#    y -0.004390 4.099310 0.034780 
#    z 0.222480 0.034780 4.217480 
# 
# 
# High freq. dielectric constant tensor:
#      x y z
#    x 1.833080 0.002190 0.016600 
#    y 0.002190 1.862290 0.004830 
#    z 0.016600 0.004830 1.865250 
# 
# From -- ./inp_files/620830.got.cif
#   From: 2010.06.25/outbox.cif.g09.slc.cpg/sg2_311_cif.got.tgz:620830.got - 2010.06.27 13:26:56.
