data_PCOD8014911
_publ_section_title
;
Structure prediction by ZEFSAII (Michael W. Deem and Ramdas Pophale) SiO2 
 PCOD8014911
Probable space group: P -1
;
_chemical_formula_sum "Si O2"
_cell_formula_units_Z 16
_cell_length_a 8.098925
_cell_length_b 14.388506
_cell_length_c 9.172302
_cell_angle_alpha 95.974498
_cell_angle_beta 132.144422
_cell_angle_gamma 98.253961
_cell_volume 754.482973
_symmetry_space_group_name_H-M "P -1"
_symmetry_group_IT_number 2
_symmetry_cell_setting 'triclinic'
loop_
_space_group_symop_operation_xyz
x,y,z
-x,-y,-z
loop_
_atom_site_type_symbol
_atom_site_label
_atom_site_fract_x
_atom_site_fract_y
_atom_site_fract_z
Si Si1 0.487041 0.769428 0.683774
Si Si2 0.673054 0.083537 0.526366
Si Si3 0.112613 0.056487 0.929595
Si Si4 0.241984 0.431068 0.852685
Si Si5 0.619920 0.584227 0.757908
Si Si6 0.007192 0.717469 0.542157
Si Si7 0.136852 0.938079 0.655682
Si Si8 0.857369 0.541887 0.619342
O O1 0.405494 0.816952 0.497311
O O2 0.593787 0.683447 0.685511
O O3 0.268036 0.723221 0.650036
O O4 0.677402 0.850805 0.897083
O O5 0.654341 0.060117 0.335059
O O6 0.928343 0.099266 0.742508
O O7 0.500000 0.000000 0.500000
O O8 0.205593 0.985684 0.863961
O O9 0.000000 0.000000 0.000000
O O10 0.182922 0.335409 0.700374
O O11 0.054537 0.487926 0.714735
O O12 0.500000 0.500000 0.000000
O O13 0.225059 0.392269 0.001592
O O14 0.761585 0.534727 0.725135
O O15 0.361117 0.510966 0.623613
O O16 0.983344 0.825786 0.572624
O O17 0.959763 0.654600 0.651700
O O18 0.000000 0.000000 0.500000
#
# Coordination Sequence:
#
# PCOD8014911 Si02
#       8
#     2   2   2   2   2   2   2   2
#     4  11  24  41  68  96 131 180 225 275 340 404
#     4  10  21  42  63  92 130 174 222 280 335 396
#     4  11  23  42  68  92 132 180 228 280 341 401
#     4  12  23  43  71  98 132 178 225 276 337 411
#     4  11  25  41  71  97 137 171 225 283 341 405
#     4  11  23  43  67  95 136 176 224 271 342 402
#     4   9  23  41  64  95 132 173 223 276 331 401
#     4  11  24  46  65 101 136 173 221 287 341 403
#
# _framework density 21.206575999999998
#
# number of rings (size 3 to 8) (size 9 to 14) (size 15 to 20)
#    0.000    1.250    3.750    1.500    7.000    2.000 
#    0.000    0.000    2.750    0.000    0.000    0.000 
#    0.000    0.000    0.000    0.000    0.000    0.000 
#
# Total GULP energy -198312.768011 kJ/mol
# GULP energy per Si atom -12394.548001 kJ/mol
# Density = 2.115831 g / cm^3
# Si number density = 21.206576 Si / 1000 Ang^3
#
#
#
# Elastic Constant Matrix: (Units=GPa)
#
#
# Indices 1 2 3 4 5 6 
#
# 1 72.1937 21.2450 28.4044 6.9231 4.1118 16.2896
# 2 21.2450 135.6127 23.8147 2.9277 2.9748 6.6491
# 3 28.4044 23.8147 102.7168 10.0161 5.8504 4.8025
# 4 6.9231 2.9277 10.0161 44.1311 3.6703 1.1422
# 5 4.1118 2.9748 5.8504 3.6703 32.1127 1.8826
# 6 16.2896 6.6491 4.8025 1.1422 1.8826 35.2899
#
#
#
# Elastic Compliance Matrix: (Units=1/GPa)
#
#
# Indices 1 2 3 4 5 6 
#
# 1 0.017735 -0.001674 -0.003985 -0.001513 -0.000792 -0.007238
# 2 -0.001674 0.007901 -0.001338 0.000076 -0.000252 -0.000523
# 3 -0.003985 -0.001338 0.011362 -0.001776 -0.001272 0.000671
# 4 -0.001513 0.000076 -0.001776 0.023470 -0.002189 0.000283
# 5 -0.000792 -0.000252 -0.001272 -0.002189 0.031808 -0.001040
# 6 -0.007238 -0.000523 0.000671 0.000283 -0.001040 0.031731
#
#
# Mechanical properties :
#
#
# Convention : Reuss Voigt Hill
#
# Bulk Modulus (GPa) = 43.46876 50.82793 47.14834
# Shear Modulus (GPa) = 34.32452 38.11068 36.21760
#
# Velocity S-wave (km/s) = 4.02752 4.24384 4.13709
# Velocity P-wave (km/s) = 6.49386 6.93063 6.71579
#
# Compressibility (1/GPa) = 0.02300503
#
# Stress axis : x y z
#
# Youngs Moduli (GPa) = 56.38412 126.57365 88.01285
#
# Poissons Ratio (x) = 0.21184 0.35076
# Poissons Ratio (y) = 0.09437 0.11772
# Poissons Ratio (z) = 0.22471 0.16930
#
# Static dielectric constant tensor:
#      x y z
#    x 4.087350 -0.144410 0.057000 
#    y -0.144410 3.993480 -0.183750 
#    z 0.057000 -0.183750 4.014420 
# 
# 
# High freq. dielectric constant tensor:
#      x y z
#    x 1.829710 0.003630 0.004340 
#    y 0.003630 1.844190 -0.006770 
#    z 0.004340 -0.006770 1.826710 
# 
# From -- ./inp_files/202715.got.cif
#   From: 2010.06.25/outbox.cif.g09.slc.cpg/sg2_102_cif.got.tgz:202715.got - 2010.06.27 13:26:56.
