data_PCOD8014533
_publ_section_title
;
Structure prediction by ZEFSAII (Michael W. Deem and Ramdas Pophale) SiO2 
 PCOD8014533
Probable space group: P -1
;
_chemical_formula_sum "Si O2"
_cell_formula_units_Z 14
_cell_length_a 14.429509
_cell_length_b 7.810636
_cell_length_c 9.142384
_cell_angle_alpha 98.911866
_cell_angle_beta 135.479180
_cell_angle_gamma 62.549256
_cell_volume 615.617060
_symmetry_space_group_name_H-M "P -1"
_symmetry_group_IT_number 2
_symmetry_cell_setting 'triclinic'
loop_
_space_group_symop_operation_xyz
x,y,z
-x,-y,-z
loop_
_atom_site_type_symbol
_atom_site_label
_atom_site_fract_x
_atom_site_fract_y
_atom_site_fract_z
Si Si1 0.106007 0.763835 0.823861
Si Si2 0.662320 0.853499 0.730651
Si Si3 0.448783 0.813153 0.833299
Si Si4 0.223327 0.009991 0.855832
Si Si5 0.213888 0.347674 0.732821
Si Si6 0.797468 0.825190 0.579064
Si Si7 0.395594 0.483353 0.259647
O O1 0.100447 0.940421 0.742177
O O2 0.144716 0.567873 0.746295
O O3 0.944329 0.854069 0.735017
O O4 0.244409 0.698428 0.088046
O O5 0.785221 0.775917 0.726621
O O6 0.667161 0.664079 0.786874
O O7 0.500000 0.000000 0.500000
O O8 0.700224 0.975773 0.906537
O O9 0.349999 0.837961 0.868888
O O10 0.504072 0.598641 0.787606
O O11 0.355818 0.978580 0.625483
O O12 0.605132 0.809141 0.055187
O O13 0.136835 0.226183 0.704074
O O14 0.178352 0.361046 0.521098
O O15 0.500000 0.500000 0.500000
#
# Coordination Sequence:
#
# PCOD8014533 Si02
#       7
#     2   2   2   2   2   2   2
#     4  11  25  41  63  98 133 167 215 270 315 383
#     4  12  21  40  68  92 122 176 209 262 324 374
#     4  10  21  41  68  93 125 172 216 264 317 382
#     4  11  22  40  67  90 131 171 211 257 328 373
#     4  10  21  44  65  94 130 167 218 271 308 386
#     4  11  23  39  68  95 128 172 217 260 327 375
#     4  11  24  42  63  99 134 159 220 270 314 387
#
# _framework density 22.741408
#
# number of rings (size 3 to 8) (size 9 to 14) (size 15 to 20)
#    0.000    1.143    4.286    3.857    0.000    6.857 
#    0.000    0.000    0.000    0.000    0.000    0.000 
#    0.000    0.000    0.000    0.000    0.000    0.000 
#
# Total GULP energy -173557.409236 kJ/mol
# GULP energy per Si atom -12396.957803 kJ/mol
# Density = 2.268965 g / cm^3
# Si number density = 22.741408 Si / 1000 Ang^3
#
#
#
# Elastic Constant Matrix: (Units=GPa)
#
#
# Indices 1 2 3 4 5 6 
#
# 1 142.1339 42.7350 36.6643 29.8221 -7.1691 -5.0922
# 2 42.7350 70.4213 21.5511 18.9208 0.1983 12.9727
# 3 36.6643 21.5511 82.9793 12.1350 -7.3688 -23.6958
# 4 29.8221 18.9208 12.1350 26.6244 -7.7127 -2.8868
# 5 -7.1691 0.1983 -7.3688 -7.7127 38.4074 7.2048
# 6 -5.0922 12.9727 -23.6958 -2.8868 7.2048 27.9640
#
#
#
# Elastic Compliance Matrix: (Units=1/GPa)
#
#
# Indices 1 2 3 4 5 6 
#
# 1 0.010414 -0.003651 -0.002236 -0.008023 -0.000252 0.000932
# 2 -0.003651 0.027510 -0.010279 -0.013636 -0.001174 -0.023242
# 3 -0.002236 -0.010279 0.022014 0.002285 -0.000046 0.023262
# 4 -0.008023 -0.013636 0.002285 0.058909 0.008852 0.010602
# 5 -0.000252 -0.001174 -0.000046 0.008852 0.028904 -0.006073
# 6 0.000932 -0.023242 0.023262 0.010602 -0.006073 0.069083
#
#
# Mechanical properties :
#
#
# Convention : Reuss Voigt Hill
#
# Bulk Modulus (GPa) = 36.22417 55.27061 45.74739
# Shear Modulus (GPa) = 19.35227 31.57144 25.46185
#
# Velocity S-wave (km/s) = 2.92030 3.73000 3.34971
# Velocity P-wave (km/s) = 5.22821 6.55037 5.92628
#
# Compressibility (1/GPa) = 0.02760587
#
# Stress axis : x y z
#
# Youngs Moduli (GPa) = 96.02228 36.35063 45.42651
#
# Poissons Ratio (x) = 0.13270 0.10159
# Poissons Ratio (y) = 0.35054 0.46693
# Poissons Ratio (z) = 0.21474 0.37364
#
# Static dielectric constant tensor:
#      x y z
#    x 4.389480 -0.126210 -0.138500 
#    y -0.126210 4.004320 0.133220 
#    z -0.138500 0.133220 4.336770 
# 
# 
# High freq. dielectric constant tensor:
#      x y z
#    x 1.894010 -0.009700 -0.003140 
#    y -0.009700 1.883780 0.009590 
#    z -0.003140 0.009590 1.908700 
# 
# From -- ./inp_files/234935.got.cif
#   From: 2010.06.25/outbox.cif.g09.slc.cpg/sg2_118_cif.got.tgz:234935.got - 2010.06.27 13:26:56.
