data_PCOD8014679
_publ_section_title
;
Structure prediction by ZEFSAII (Michael W. Deem and Ramdas Pophale) SiO2 
 PCOD8014679
Probable space group: P -1
;
_chemical_formula_sum "Si O2"
_cell_formula_units_Z 14
_cell_length_a 8.165685
_cell_length_b 6.400683
_cell_length_c 17.290299
_cell_angle_alpha 62.989791
_cell_angle_beta 56.016252
_cell_angle_gamma 59.088699
_cell_volume 624.940443
_symmetry_space_group_name_H-M "P -1"
_symmetry_group_IT_number 2
_symmetry_cell_setting 'triclinic'
loop_
_space_group_symop_operation_xyz
x,y,z
-x,-y,-z
loop_
_atom_site_type_symbol
_atom_site_label
_atom_site_fract_x
_atom_site_fract_y
_atom_site_fract_z
Si Si1 0.411390 0.098163 0.904226
Si Si2 0.501290 0.237112 0.394073
Si Si3 0.716770 0.692307 0.412201
Si Si4 0.105300 0.204652 0.415792
Si Si5 0.190562 0.289866 0.211871
Si Si6 0.612617 0.324363 0.930459
Si Si7 0.268666 0.428197 0.747599
O O1 0.445094 0.316598 0.910155
O O2 0.283188 0.210250 0.841508
O O3 0.641671 0.897589 0.857551
O O4 0.283910 0.955818 0.012260
O O5 0.463352 0.334733 0.477403
O O6 0.291957 0.193636 0.426613
O O7 0.561669 0.442612 0.294849
O O8 0.703688 0.978807 0.382110
O O9 0.671276 0.678376 0.336234
O O10 0.938629 0.487754 0.413171
O O11 0.203477 0.147738 0.313695
O O12 0.000000 0.000000 0.500000
O O13 0.224310 0.558247 0.169534
O O14 0.960961 0.359210 0.223294
O O15 0.500000 0.500000 0.000000
#
# Coordination Sequence:
#
# PCOD8014679 Si02
#       7
#     2   2   2   2   2   2   2
#     4  10  21  41  70  89 122 166 200 259 317 371
#     4  11  24  40  62  86 127 177 212 262 312 363
#     4  10  25  41  59  89 128 169 213 266 303 367
#     4  11  25  41  65  92 127 174 218 259 309 367
#     4  10  23  40  60  95 128 159 210 259 306 374
#     4   9  20  43  67  92 123 158 205 256 316 378
#     4  11  24  39  63  95 126 164 211 256 314 373
#
# _framework density 22.402134
#
# number of rings (size 3 to 8) (size 9 to 14) (size 15 to 20)
#    0.000    1.714    0.000    2.571   12.000    5.143 
#    0.000    6.429    0.000    0.000    0.000    0.000 
#    0.000    0.000    0.000    0.000    0.000    0.000 
#
# Total GULP energy -173480.664004 kJ/mol
# GULP energy per Si atom -12391.476000 kJ/mol
# Density = 2.235115 g / cm^3
# Si number density = 22.402134 Si / 1000 Ang^3
#
#
#
# Elastic Constant Matrix: (Units=GPa)
#
#
# Indices 1 2 3 4 5 6 
#
# 1 100.7240 35.8063 44.1496 -13.3722 13.8085 3.6360
# 2 35.8063 84.3663 25.6341 5.5116 8.1051 -1.7617
# 3 44.1496 25.6341 122.9769 -27.7312 13.3427 7.6497
# 4 -13.3722 5.5116 -27.7312 41.2226 1.6253 -1.3732
# 5 13.8085 8.1051 13.3427 1.6253 36.6007 -10.4102
# 6 3.6360 -1.7617 7.6497 -1.3732 -10.4102 26.1076
#
#
#
# Elastic Compliance Matrix: (Units=1/GPa)
#
#
# Indices 1 2 3 4 5 6 
#
# 1 0.014005 -0.005072 -0.002501 0.003605 -0.004284 -0.003078
# 2 -0.005072 0.015219 -0.002801 -0.005502 0.000511 0.002468
# 3 -0.002501 -0.002801 0.012162 0.007765 -0.004587 -0.004825
# 4 0.003605 -0.005502 0.007765 0.031479 -0.005408 -0.003649
# 5 -0.004284 0.000511 -0.004587 -0.005408 0.035212 0.015731
# 6 -0.003078 0.002468 -0.004825 -0.003649 0.015731 0.046393
#
#
# Mechanical properties :
#
#
# Convention : Reuss Voigt Hill
#
# Bulk Modulus (GPa) = 48.45737 57.69411 53.07574
# Shear Modulus (GPa) = 27.45795 34.28466 30.87130
#
# Velocity S-wave (km/s) = 3.50478 3.91630 3.71624
# Velocity P-wave (km/s) = 6.16892 6.80144 6.49289
#
# Compressibility (1/GPa) = 0.02063669
#
# Stress axis : x y z
#
# Youngs Moduli (GPa) = 71.40537 65.70857 82.22122
#
# Poissons Ratio (x) = 0.33327 0.20566
# Poissons Ratio (y) = 0.36216 0.23032
# Poissons Ratio (z) = 0.17861 0.18406
#
# Static dielectric constant tensor:
#      x y z
#    x 3.710530 0.125650 0.019140 
#    y 0.125650 4.154900 -0.246720 
#    z 0.019140 -0.246720 4.519090 
# 
# 
# High freq. dielectric constant tensor:
#      x y z
#    x 1.858450 0.007500 0.014590 
#    y 0.007500 1.884150 -0.009490 
#    z 0.014590 -0.009490 1.900730 
# 
# From -- ./inp_files/48104.got.cif
#   From: 2010.06.25/outbox.cif.g09.slc.cpg/sg2_25_cif.got.tgz:48104.got - 2010.06.27 13:26:56.
