data_PCOD8014712
_publ_section_title
;
Structure prediction by ZEFSAII (Michael W. Deem and Ramdas Pophale) SiO2 
 PCOD8014712
Probable space group: P -1
;
_chemical_formula_sum "Si O2"
_cell_formula_units_Z 16
_cell_length_a 9.930159
_cell_length_b 13.467021
_cell_length_c 6.762094
_cell_angle_alpha 58.403990
_cell_angle_beta 87.105117
_cell_angle_gamma 106.664090
_cell_volume 715.216745
_symmetry_space_group_name_H-M "P -1"
_symmetry_group_IT_number 2
_symmetry_cell_setting 'triclinic'
loop_
_space_group_symop_operation_xyz
x,y,z
-x,-y,-z
loop_
_atom_site_type_symbol
_atom_site_label
_atom_site_fract_x
_atom_site_fract_y
_atom_site_fract_z
Si Si1 0.080605 0.343817 0.635739
Si Si2 0.913094 0.465892 0.245061
Si Si3 0.343866 0.982447 0.317490
Si Si4 0.838879 0.105129 0.971478
Si Si5 0.846066 0.926295 0.489569
Si Si6 0.634590 0.177849 0.166533
Si Si7 0.692497 0.649562 0.681929
Si Si8 0.378792 0.607142 0.832899
O O1 0.086185 0.409205 0.777007
O O2 0.242946 0.376976 0.502832
O O3 0.982960 0.386578 0.449068
O O4 0.004418 0.193177 0.819661
O O5 0.744843 0.379062 0.313990
O O6 0.000000 0.500000 0.000000
O O7 0.252616 0.936035 0.176760
O O8 0.356682 0.868145 0.561671
O O9 0.276608 0.060824 0.376452
O O10 0.504545 0.079107 0.152609
O O11 0.778904 0.192524 0.019526
O O12 0.838482 0.983034 0.214758
O O13 0.810583 0.778055 0.626425
O O14 0.000000 0.000000 0.500000
O O15 0.614311 0.310610 0.054728
O O16 0.533696 0.657063 0.655478
O O17 0.672334 0.538644 0.953778
#
# Coordination Sequence:
#
# PCOD8014712 Si02
#       8
#     2   2   2   2   2   2   2   2
#     4  11  25  42  68 103 133 173 237 276 340 413
#     4  11  23  44  71  98 135 179 226 285 338 403
#     4  10  21  42  68  97 132 175 227 286 338 400
#     4  11  24  41  69 101 130 176 231 292 329 403
#     4  11  25  44  68  96 140 185 226 280 343 412
#     4  10  21  41  70  99 131 175 226 283 350 394
#     4  11  25  45  66 102 138 182 231 268 350 418
#     4  11  23  44  73  95 141 184 219 287 343 411
#
# _framework density 22.370840000000001
#
# number of rings (size 3 to 8) (size 9 to 14) (size 15 to 20)
#    0.000    1.250    2.500    2.625    3.500    4.500 
#    2.250    0.000    0.000    0.000    0.000    0.000 
#    0.000    0.000    0.000    0.000    0.000    0.000 
#
# Total GULP energy -198421.981831 kJ/mol
# GULP energy per Si atom -12401.373864 kJ/mol
# Density = 2.231992 g / cm^3
# Si number density = 22.370840 Si / 1000 Ang^3
#
#
#
# Elastic Constant Matrix: (Units=GPa)
#
#
# Indices 1 2 3 4 5 6 
#
# 1 108.3286 31.5771 27.9404 8.4191 -21.1735 7.1754
# 2 31.5771 127.9335 47.7847 -1.9092 -4.2459 5.9151
# 3 27.9404 47.7847 77.7086 7.5655 -12.8500 8.6372
# 4 8.4191 -1.9092 7.5655 32.1620 3.8555 2.9957
# 5 -21.1735 -4.2459 -12.8500 3.8555 28.5199 0.9245
# 6 7.1754 5.9151 8.6372 2.9957 0.9245 38.9126
#
#
#
# Elastic Compliance Matrix: (Units=1/GPa)
#
#
# Indices 1 2 3 4 5 6 
#
# 1 0.012349 -0.002401 -0.000895 -0.004095 0.009013 -0.001612
# 2 -0.002401 0.010852 -0.006748 0.003287 -0.003656 0.000125
# 3 -0.000895 -0.006748 0.019507 -0.005437 0.007949 -0.002909
# 4 -0.004095 0.003287 -0.005437 0.034892 -0.009685 -0.000994
# 5 0.009013 -0.003656 0.007949 -0.009685 0.046205 -0.003223
# 6 -0.001612 0.000125 -0.002909 -0.000994 -0.003223 0.026776
#
#
# Mechanical properties :
#
#
# Convention : Reuss Voigt Hill
#
# Bulk Modulus (GPa) = 44.21116 58.73056 51.47086
# Shear Modulus (GPa) = 28.05701 33.69681 30.87691
#
# Velocity S-wave (km/s) = 3.54528 3.88530 3.71918
# Velocity P-wave (km/s) = 6.04685 6.81451 6.44213
#
# Compressibility (1/GPa) = 0.02261872
#
# Stress axis : x y z
#
# Youngs Moduli (GPa) = 80.98105 92.15266 51.26327
#
# Poissons Ratio (x) = 0.22125 0.04590
# Poissons Ratio (y) = 0.19443 0.34592
# Poissons Ratio (z) = 0.07251 0.62184
#
# Static dielectric constant tensor:
#      x y z
#    x 4.400280 -0.072950 -0.083530 
#    y -0.072950 4.050170 -0.017940 
#    z -0.083530 -0.017940 4.009510 
# 
# 
# High freq. dielectric constant tensor:
#      x y z
#    x 1.893710 -0.002050 -0.013730 
#    y -0.002050 1.891000 -0.003320 
#    z -0.013730 -0.003320 1.864470 
# 
# From -- ./inp_files/69215.got.cif
#   From: 2010.06.25/outbox.cif.g09.slc.cpg/sg2_35_cif.got.tgz:69215.got - 2010.06.27 13:26:56.
