data_PCOD8014376
_publ_section_title
;
Structure prediction by ZEFSAII (Michael W. Deem and Ramdas Pophale) SiO2 
 PCOD8014376
Probable space group: P -1
;
_chemical_formula_sum "Si O2"
_cell_formula_units_Z 16
_cell_length_a 9.652672
_cell_length_b 14.220495
_cell_length_c 11.216667
_cell_angle_alpha 148.990260
_cell_angle_beta 81.428092
_cell_angle_gamma 107.617540
_cell_volume 736.666530
_symmetry_space_group_name_H-M "P -1"
_symmetry_group_IT_number 2
_symmetry_cell_setting 'triclinic'
loop_
_space_group_symop_operation_xyz
x,y,z
-x,-y,-z
loop_
_atom_site_type_symbol
_atom_site_label
_atom_site_fract_x
_atom_site_fract_y
_atom_site_fract_z
Si Si1 0.251817 0.406658 0.163695
Si Si2 0.214649 0.168608 0.418750
Si Si3 0.812255 0.249505 0.765470
Si Si4 0.927020 0.969291 0.103213
Si Si5 0.282254 0.829712 0.572478
Si Si6 0.387996 0.907838 0.160488
Si Si7 0.139003 0.313934 0.820857
Si Si8 0.450503 0.538213 0.678779
O O1 0.223764 0.610260 0.390991
O O2 0.418781 0.431386 0.208529
O O3 0.130747 0.259249 0.105651
O O4 0.226739 0.320053 0.939163
O O5 0.213690 0.207595 0.602742
O O6 0.307087 0.359032 0.540418
O O7 0.280072 0.996379 0.198212
O O8 0.044540 0.100094 0.324331
O O9 0.767346 0.155998 0.540537
O O10 0.676251 0.157892 0.772279
O O11 0.960324 0.206415 0.743667
O O12 0.840020 0.476766 0.008198
O O13 0.786040 0.041694 0.197679
O O14 0.000000 0.000000 0.000000
O O15 0.458945 0.914690 0.651491
O O16 0.405159 0.730629 0.890021
O O17 0.500000 0.500000 0.500000
#
# Coordination Sequence:
#
# PCOD8014376 Si02
#       8
#     2   2   2   2   2   2   2   2
#     4  11  25  46  70 102 141 183 228 295 351 404
#     4  12  26  44  73 109 136 186 238 287 355 412
#     4  10  21  41  67 104 146 180 225 285 360 416
#     4  12  27  46  71 102 141 187 237 284 351 421
#     4  11  24  44  71 103 142 182 233 289 347 417
#     4  12  25  42  73 104 134 190 236 283 350 425
#     4  10  22  41  71 103 146 176 227 295 354 417
#     4  12  27  48  69  99 147 187 232 294 344 413
#
# _framework density 21.719460000000002
#
# number of rings (size 3 to 8) (size 9 to 14) (size 15 to 20)
#    0.000    0.750    5.000    1.875    1.750    5.500 
#    0.000    0.000    0.000    0.000    0.000    0.000 
#    0.000    0.000    0.000    0.000    0.000    0.000 
#
# Total GULP energy -198500.767695 kJ/mol
# GULP energy per Si atom -12406.297981 kJ/mol
# Density = 2.167003 g / cm^3
# Si number density = 21.719460 Si / 1000 Ang^3
#
#
#
# Elastic Constant Matrix: (Units=GPa)
#
#
# Indices 1 2 3 4 5 6 
#
# 1 96.3899 31.5917 28.1668 -1.3485 -4.0391 7.5034
# 2 31.5917 122.8549 56.2682 7.3978 -6.2745 21.4525
# 3 28.1668 56.2682 94.4262 4.7394 -21.7186 7.9592
# 4 -1.3485 7.3978 4.7394 39.0570 9.9888 2.9677
# 5 -4.0391 -6.2745 -21.7186 9.9888 35.3016 4.0312
# 6 7.5034 21.4525 7.9592 2.9677 4.0312 36.4100
#
#
#
# Elastic Compliance Matrix: (Units=1/GPa)
#
#
# Indices 1 2 3 4 5 6 
#
# 1 0.011783 -0.001807 -0.002645 0.001359 -0.000894 -0.000797
# 2 -0.001807 0.012641 -0.006787 -0.000901 -0.001266 -0.005379
# 3 -0.002645 -0.006787 0.018099 -0.003719 0.010712 -0.000296
# 4 0.001359 -0.000901 -0.003719 0.028961 -0.010472 -0.000137
# 5 -0.000894 -0.001266 0.010712 -0.010472 0.038099 -0.004776
# 6 -0.000797 -0.005379 -0.000296 -0.000137 -0.004776 0.031403
#
#
# Mechanical properties :
#
#
# Convention : Reuss Voigt Hill
#
# Bulk Modulus (GPa) = 49.88282 60.63605 55.25943
# Shear Modulus (GPa) = 29.38664 35.32999 32.35832
#
# Velocity S-wave (km/s) = 3.68232 4.03755 3.86402
# Velocity P-wave (km/s) = 6.41062 7.05083 6.73833
#
# Compressibility (1/GPa) = 0.02004698
#
# Stress axis : x y z
#
# Youngs Moduli (GPa) = 84.86643 79.10495 55.25250
#
# Poissons Ratio (x) = 0.14294 0.14612
# Poissons Ratio (y) = 0.15336 0.37498
# Poissons Ratio (z) = 0.22444 0.53685
#
# Static dielectric constant tensor:
#      x y z
#    x 4.015930 0.034360 0.081310 
#    y 0.034360 3.887950 0.199260 
#    z 0.081310 0.199260 3.996870 
# 
# 
# High freq. dielectric constant tensor:
#      x y z
#    x 1.858870 0.005830 0.000770 
#    y 0.005830 1.856740 0.015300 
#    z 0.000770 0.015300 1.860680 
# 
# From -- ./inp_files/273418.got.cif
#   From: 2010.06.25/outbox.cif.g09.slc.cpg/sg2_137_cif.got.tgz:273418.got - 2010.06.27 13:26:56.
