data_PCOD8014604
_publ_section_title
;
Structure prediction by ZEFSAII (Michael W. Deem and Ramdas Pophale) SiO2 
 PCOD8014604
Probable space group: P -1
;
_chemical_formula_sum "Si O2"
_cell_formula_units_Z 16
_cell_length_a 17.014049
_cell_length_b 18.880082
_cell_length_c 26.216766
_cell_angle_alpha 161.469424
_cell_angle_beta 16.274011
_cell_angle_gamma 155.474920
_cell_volume 750.018187
_symmetry_space_group_name_H-M "P -1"
_symmetry_group_IT_number 2
_symmetry_cell_setting 'triclinic'
loop_
_space_group_symop_operation_xyz
x,y,z
-x,-y,-z
loop_
_atom_site_type_symbol
_atom_site_label
_atom_site_fract_x
_atom_site_fract_y
_atom_site_fract_z
Si Si1 0.996998 0.939044 0.546388
Si Si2 0.174290 0.783086 0.582818
Si Si3 0.303001 0.507106 0.962159
Si Si4 0.993821 0.772732 0.967552
Si Si5 0.594736 0.986519 0.739205
Si Si6 0.861568 0.560399 0.543297
Si Si7 0.168554 0.514762 0.214801
Si Si8 0.786673 0.381451 0.015189
O O1 0.277233 0.046108 0.419583
O O2 0.063951 0.728611 0.395331
O O3 0.797377 0.877121 0.580751
O O4 0.848857 0.118029 0.797763
O O5 0.463558 0.684916 0.314343
O O6 0.072677 0.649258 0.604566
O O7 0.951037 0.773216 0.667858
O O8 0.211259 0.035116 0.751462
O O9 0.446644 0.747404 0.045562
O O10 0.147646 0.514148 0.009631
O O11 0.073197 0.449202 0.108888
O O12 0.936957 0.709766 0.901069
O O13 0.308569 0.855013 0.833089
O O14 0.052834 0.528014 0.352813
O O15 0.537951 0.579297 0.740666
O O16 0.500000 0.500000 0.000000
O O17 0.000000 0.500000 0.000000
#
# Coordination Sequence:
#
# PCOD8014604 Si02
#       8
#     2   2   2   2   2   2   2   2
#     4  10  23  45  65  93 142 176 215 290 334 386
#     4  10  21  41  69  91 132 178 232 272 324 404
#     4  10  21  43  65  99 132 170 228 286 327 392
#     4  12  24  39  72 102 127 184 230 270 336 413
#     4  10  22  43  69  95 130 177 226 277 337 394
#     4  10  23  43  66  96 133 181 220 281 343 394
#     4  12  28  43  65 104 147 173 220 283 342 407
#     4  10  23  40  66  95 133 176 223 281 335 399
#
# _framework density 21.332816000000001
#
# number of rings (size 3 to 8) (size 9 to 14) (size 15 to 20)
#    0.000    1.500    1.250    4.125    3.500    5.500 
#    0.000    0.000    0.000    0.000    0.000    0.000 
#    0.000    0.000    0.000    0.000    0.000    0.000 
#
# Total GULP energy -198357.274197 kJ/mol
# GULP energy per Si atom -12397.329637 kJ/mol
# Density = 2.128426 g / cm^3
# Si number density = 21.332816 Si / 1000 Ang^3
#
#
#
# Elastic Constant Matrix: (Units=GPa)
#
#
# Indices 1 2 3 4 5 6 
#
# 1 137.4052 69.4317 57.3571 -7.3360 16.1692 6.5559
# 2 69.4317 119.0787 46.2362 -15.2233 5.6894 1.7393
# 3 57.3571 46.2362 114.3357 -10.8723 3.3104 5.5571
# 4 -7.3360 -15.2233 -10.8723 32.1605 -2.5233 6.5638
# 5 16.1692 5.6894 3.3104 -2.5233 33.5340 -6.4756
# 6 6.5559 1.7393 5.5571 6.5638 -6.4756 36.3132
#
#
#
# Elastic Compliance Matrix: (Units=1/GPa)
#
#
# Indices 1 2 3 4 5 6 
#
# 1 0.012316 -0.005579 -0.003775 -0.001081 -0.005105 -0.002093
# 2 -0.005579 0.012941 -0.002071 0.004208 0.001040 0.000129
# 3 -0.003775 -0.002071 0.011748 0.002469 0.000948 -0.001294
# 4 -0.001081 0.004208 0.002469 0.035086 0.000937 -0.006559
# 5 -0.005105 0.001040 0.000948 0.000937 0.033338 0.006502
# 6 -0.002093 0.000129 -0.001294 -0.006559 0.006502 0.030453
#
#
# Mechanical properties :
#
#
# Convention : Reuss Voigt Hill
#
# Bulk Modulus (GPa) = 70.64945 79.65218 75.15082
# Shear Modulus (GPa) = 30.59044 33.58783 32.08914
#
# Velocity S-wave (km/s) = 3.79088 3.97226 3.88263
# Velocity P-wave (km/s) = 7.23537 7.64574 7.44339
#
# Compressibility (1/GPa) = 0.01415439
#
# Stress axis : x y z
#
# Youngs Moduli (GPa) = 81.19845 77.27325 85.12235
#
# Poissons Ratio (x) = 0.43108 0.32138
# Poissons Ratio (y) = 0.45298 0.17628
# Poissons Ratio (z) = 0.30656 0.16003
#
# Static dielectric constant tensor:
#      x y z
#    x 4.021340 -0.014360 0.222370 
#    y -0.014360 3.725170 0.007350 
#    z 0.222370 0.007350 4.128380 
# 
# 
# High freq. dielectric constant tensor:
#      x y z
#    x 1.835240 -0.001880 0.007410 
#    y -0.001880 1.826350 -0.004500 
#    z 0.007410 -0.004500 1.852000 
# 
# From -- ./inp_files/612199.got.cif
#   From: 2010.06.25/outbox.cif.g09.slc.cpg/sg2_307_cif.got.tgz:612199.got - 2010.06.27 13:26:56.
