data_PCOD8014945
_publ_section_title
;
Structure prediction by ZEFSAII (Michael W. Deem and Ramdas Pophale) SiO2 
 PCOD8014945
Probable space group: P -1
;
_chemical_formula_sum "Si O2"
_cell_formula_units_Z 16
_cell_length_a 7.819647
_cell_length_b 14.345939
_cell_length_c 12.142621
_cell_angle_alpha 50.896783
_cell_angle_beta 70.482539
_cell_angle_gamma 43.615557
_cell_volume 709.810312
_symmetry_space_group_name_H-M "P -1"
_symmetry_group_IT_number 2
_symmetry_cell_setting 'triclinic'
loop_
_space_group_symop_operation_xyz
x,y,z
-x,-y,-z
loop_
_atom_site_type_symbol
_atom_site_label
_atom_site_fract_x
_atom_site_fract_y
_atom_site_fract_z
Si Si1 0.767365 0.612849 0.549005
Si Si2 0.122233 0.986867 0.194568
Si Si3 0.033646 0.436553 0.849101
Si Si4 0.994710 0.714780 0.708888
Si Si5 0.464400 0.977369 0.298065
Si Si6 0.780348 0.331379 0.088937
Si Si7 0.666974 0.337868 0.507596
Si Si8 0.446601 0.912345 0.001036
O O1 0.681936 0.792056 0.441787
O O2 0.528273 0.642631 0.543064
O O3 0.000000 0.500000 0.500000
O O4 0.864212 0.520441 0.713637
O O5 0.840032 0.173512 0.138038
O O6 0.303723 0.978067 0.243259
O O7 0.153861 0.833054 0.331699
O O8 0.189419 0.972846 0.061013
O O9 0.978455 0.578791 0.829048
O O10 0.335562 0.288812 0.872785
O O11 0.975893 0.340930 0.997001
O O12 0.184834 0.690693 0.771438
O O13 0.120066 0.684512 0.586518
O O14 0.710318 0.897808 0.655023
O O15 0.585091 0.034459 0.160590
O O16 0.500000 0.500000 0.000000
O O17 0.500000 0.500000 0.500000
O O18 0.500000 0.000000 0.000000
#
# Coordination Sequence:
#
# PCOD8014945 Si02
#       8
#     2   2   2   2   2   2   2   2
#     4  11  23  38  62  99 124 166 213 256 315 368
#     4   9  19  36  63  89 120 170 208 248 318 375
#     4  12  22  38  66  91 127 163 210 262 306 378
#     4  11  23  41  63  92 126 170 211 252 323 373
#     4   9  20  36  60  92 124 166 207 258 307 378
#     4  11  23  39  62  95 127 165 210 263 313 373
#     4  11  23  42  65  91 130 165 208 264 317 382
#     4  10  16  35  62  87 117 164 210 247 304 373
#
# _framework density 22.541232000000001
#
# number of rings (size 3 to 8) (size 9 to 14) (size 15 to 20)
#    0.000    1.500    3.750    4.875    0.000    6.000 
#    0.000    1.250    2.750    2.250    0.000    0.000 
#    0.000    0.000    0.000    0.000    0.000    0.000 
#
# Total GULP energy -198325.584619 kJ/mol
# GULP energy per Si atom -12395.349039 kJ/mol
# Density = 2.248993 g / cm^3
# Si number density = 22.541232 Si / 1000 Ang^3
#
#
#
# Elastic Constant Matrix: (Units=GPa)
#
#
# Indices 1 2 3 4 5 6 
#
# 1 25.1899 20.5104 11.3286 -6.0820 -4.6425 4.7055
# 2 20.5104 192.8235 65.5900 -22.8085 -12.9675 3.4756
# 3 11.3286 65.5900 117.2100 -14.0433 -17.2684 2.6305
# 4 -6.0820 -22.8085 -14.0433 52.1589 -3.1874 -6.5172
# 5 -4.6425 -12.9675 -17.2684 -3.1874 27.0575 -4.9669
# 6 4.7055 3.4756 2.6305 -6.5172 -4.9669 21.6436
#
#
#
# Elastic Compliance Matrix: (Units=1/GPa)
#
#
# Indices 1 2 3 4 5 6 
#
# 1 0.046149 -0.003740 -0.001240 0.002740 0.004285 -0.007474
# 2 -0.003740 0.006940 -0.003155 0.001928 0.001065 0.000907
# 3 -0.001240 -0.003155 0.011549 0.002141 0.006161 0.001431
# 4 0.002740 0.001928 0.002141 0.022199 0.006669 0.007050
# 5 0.004285 0.001065 0.006161 0.006669 0.044839 0.010447
# 6 -0.007474 0.000907 0.001431 0.007050 0.010447 0.052028
#
#
# Mechanical properties :
#
#
# Convention : Reuss Voigt Hill
#
# Bulk Modulus (GPa) = 20.67473 58.89792 39.78633
# Shear Modulus (GPa) = 23.13769 36.02496 29.58132
#
# Velocity S-wave (km/s) = 3.20732 4.00206 3.62653
# Velocity P-wave (km/s) = 4.78620 6.89500 5.93501
#
# Compressibility (1/GPa) = 0.04836823
#
# Stress axis : x y z
#
# Youngs Moduli (GPa) = 21.66901 144.08575 86.58771
#
# Poissons Ratio (x) = 0.53887 0.10739
# Poissons Ratio (y) = 0.08104 0.27317
# Poissons Ratio (z) = 0.02687 0.45456
#
# Static dielectric constant tensor:
#      x y z
#    x 3.717330 -0.160230 -0.208070 
#    y -0.160230 4.546860 -0.131110 
#    z -0.208070 -0.131110 4.370660 
# 
# 
# High freq. dielectric constant tensor:
#      x y z
#    x 1.847790 -0.001370 -0.010970 
#    y -0.001370 1.910520 -0.008270 
#    z -0.010970 -0.008270 1.896780 
# 
# From -- ./inp_files/398559.got.cif
#   From: 2010.06.25/outbox.cif.g09.slc.cpg/sg2_200_cif.got.tgz:398559.got - 2010.06.27 13:26:56.
