data_PCOD8014628
_publ_section_title
;
Structure prediction by ZEFSAII (Michael W. Deem and Ramdas Pophale) SiO2 
 PCOD8014628
Probable space group: P -1
;
_chemical_formula_sum "Si O2"
_cell_formula_units_Z 16
_cell_length_a 19.495537
_cell_length_b 6.734648
_cell_length_c 8.360844
_cell_angle_alpha 98.905601
_cell_angle_beta 93.859907
_cell_angle_gamma 46.186193
_cell_volume 781.349922
_symmetry_space_group_name_H-M "P -1"
_symmetry_group_IT_number 2
_symmetry_cell_setting 'triclinic'
loop_
_space_group_symop_operation_xyz
x,y,z
-x,-y,-z
loop_
_atom_site_type_symbol
_atom_site_label
_atom_site_fract_x
_atom_site_fract_y
_atom_site_fract_z
Si Si1 0.236057 0.628377 0.236321
Si Si2 0.826060 0.629058 0.325429
Si Si3 0.047767 0.324479 0.825994
Si Si4 0.681778 0.183003 0.533299
Si Si5 0.388388 0.057926 0.350577
Si Si6 0.600238 0.644543 0.352426
Si Si7 0.779386 0.309277 0.127615
Si Si8 0.079324 0.710934 0.391039
O O1 0.247989 0.803587 0.365745
O O2 0.320666 0.296775 0.238011
O O3 0.134593 0.736155 0.275559
O O4 0.234884 0.696565 0.061908
O O5 0.916433 0.557539 0.254581
O O6 0.799538 0.501522 0.188330
O O7 0.845794 0.513929 0.493702
O O8 0.738448 0.958166 0.371566
O O9 0.965901 0.385686 0.717798
O O10 0.133147 0.998421 0.832990
O O11 0.000000 0.500000 0.000000
O O12 0.598439 0.476311 0.468723
O O13 0.638468 0.120584 0.650588
O O14 0.378261 0.185859 0.537776
O O15 0.496937 0.855356 0.278653
O O16 0.681904 0.435710 0.210923
O O17 0.000000 0.000000 0.500000
#
# Coordination Sequence:
#
# PCOD8014628 Si02
#       8
#     2   2   2   2   2   2   2   2
#     4  11  26  40  62  94 132 164 205 263 317 370
#     4  12  23  43  69  89 123 169 215 261 307 370
#     4  12  28  42  63  96 128 167 211 260 318 372
#     4  11  20  41  68  95 120 164 215 259 306 368
#     4  10  21  42  68  96 125 164 211 258 311 373
#     4  10  21  41  69  96 125 163 210 260 311 374
#     4  12  25  44  61  94 134 165 203 262 320 374
#     4  12  24  44  66  90 125 170 216 262 307 369
#
# _framework density 20.477378999999999
#
# number of rings (size 3 to 8) (size 9 to 14) (size 15 to 20)
#    0.000    0.750    5.000    3.000    3.500    2.500 
#    0.000    0.625    0.000    0.000    0.000    0.000 
#    0.000    0.000    0.000    0.000    0.000    0.000 
#
# Total GULP energy -198490.805744 kJ/mol
# GULP energy per Si atom -12405.675359 kJ/mol
# Density = 2.043077 g / cm^3
# Si number density = 20.477379 Si / 1000 Ang^3
#
#
#
# Elastic Constant Matrix: (Units=GPa)
#
#
# Indices 1 2 3 4 5 6 
#
# 1 92.1495 23.0174 10.0346 5.6082 -4.9102 3.5685
# 2 23.0174 82.0876 13.2779 7.7116 1.6855 -2.1593
# 3 10.0346 13.2779 65.8288 7.6071 -4.8522 -1.4011
# 4 5.6082 7.7116 7.6071 33.7900 3.3389 -1.1802
# 5 -4.9102 1.6855 -4.8522 3.3389 29.2055 1.7895
# 6 3.5685 -2.1593 -1.4011 -1.1802 1.7895 39.6237
#
#
#
# Elastic Compliance Matrix: (Units=1/GPa)
#
#
# Indices 1 2 3 4 5 6 
#
# 1 0.012003 -0.003180 -0.000895 -0.001342 0.002294 -0.001429
# 2 -0.003180 0.013657 -0.002139 -0.001924 -0.001517 0.000966
# 3 -0.000895 -0.002139 0.016377 -0.003342 0.003057 0.000306
# 4 -0.001342 -0.001924 -0.003342 0.031473 -0.004331 0.001031
# 5 0.002294 -0.001517 0.003057 -0.004331 0.035835 -0.001929
# 6 -0.001429 0.000966 0.000306 0.001031 -0.001929 0.025547
#
#
# Mechanical properties :
#
#
# Convention : Reuss Voigt Hill
#
# Bulk Modulus (GPa) = 33.77206 36.96951 35.37078
# Shear Modulus (GPa) = 31.80917 33.43957 32.62437
#
# Velocity S-wave (km/s) = 3.94557 4.04542 3.99581
# Velocity P-wave (km/s) = 6.10614 6.31772 6.21283
#
# Compressibility (1/GPa) = 0.02961027
#
# Stress axis : x y z
#
# Youngs Moduli (GPa) = 83.31401 73.22288 61.06226
#
# Poissons Ratio (x) = 0.23281 0.05463
# Poissons Ratio (y) = 0.26490 0.13061
# Poissons Ratio (z) = 0.07453 0.15662
#
# Static dielectric constant tensor:
#      x y z
#    x 3.743100 0.132250 -0.065800 
#    y 0.132250 4.129030 -0.001800 
#    z -0.065800 -0.001800 3.409850 
# 
# 
# High freq. dielectric constant tensor:
#      x y z
#    x 1.813200 0.002740 -0.001580 
#    y 0.002740 1.814010 0.002200 
#    z -0.001580 0.002200 1.782470 
# 
# From -- ./inp_files/39746.got.cif
#   From: 2010.06.25/outbox.cif.g09.slc.cpg/sg2_20_cif.got.tgz:39746.got - 2010.06.27 13:26:56.
