data_PCOD8014419
_publ_section_title
;
Structure prediction by ZEFSAII (Michael W. Deem and Ramdas Pophale) SiO2 
 PCOD8014419
Probable space group: P -1
;
_chemical_formula_sum "Si O2"
_cell_formula_units_Z 16
_cell_length_a 15.085969
_cell_length_b 8.574609
_cell_length_c 14.874716
_cell_angle_alpha 128.059283
_cell_angle_beta 39.622604
_cell_angle_gamma 98.039459
_cell_volume 719.725498
_symmetry_space_group_name_H-M "P -1"
_symmetry_group_IT_number 2
_symmetry_cell_setting 'triclinic'
loop_
_space_group_symop_operation_xyz
x,y,z
-x,-y,-z
loop_
_atom_site_type_symbol
_atom_site_label
_atom_site_fract_x
_atom_site_fract_y
_atom_site_fract_z
Si Si1 0.584873 0.135912 0.483796
Si Si2 0.474303 0.183262 0.162317
Si Si3 0.156661 0.090170 0.967444
Si Si4 0.876969 0.902072 0.324389
Si Si5 0.818923 0.739390 0.821553
Si Si6 0.778685 0.618637 0.401637
Si Si7 0.177223 0.611994 0.430541
Si Si8 0.756027 0.394023 0.172373
O O1 0.416279 0.453084 0.710014
O O2 0.500000 0.000000 0.500000
O O3 0.737242 0.019074 0.246596
O O4 0.687495 0.077174 0.476481
O O5 0.366638 0.206590 0.343088
O O6 0.356481 0.468326 0.306649
O O7 0.500000 0.000000 0.000000
O O8 0.684340 0.026231 0.976649
O O9 0.194102 0.866343 0.921295
O O10 0.217676 0.220075 0.027947
O O11 0.936985 0.310106 0.196538
O O12 0.868779 0.745006 0.352242
O O13 0.895363 0.098411 0.429169
O O14 0.060682 0.685191 0.044554
O O15 0.780050 0.549555 0.752367
O O16 0.029708 0.612307 0.597329
O O17 0.683226 0.611177 0.385390
#
# Coordination Sequence:
#
# PCOD8014419 Si02
#       8
#     2   2   2   2   2   2   2   2
#     4  12  26  43  65  97 138 174 209 267 334 392
#     4  10  22  41  67  91 122 169 222 275 317 373
#     4  12  24  41  71  95 129 174 222 269 319 390
#     4  12  25  43  64  98 140 174 211 266 336 394
#     4  10  21  41  67  94 122 163 225 271 316 370
#     4  12  23  42  66  94 141 172 209 273 334 387
#     4  10  22  42  68  91 128 168 216 274 320 383
#     4  12  24  43  66 101 130 173 222 266 324 396
#
# _framework density 22.230699000000001
#
# number of rings (size 3 to 8) (size 9 to 14) (size 15 to 20)
#    0.000    0.750    5.000    2.625    3.500    0.000 
#    0.000    3.125    0.000    0.000    0.000    0.000 
#    0.000    0.000    0.000    0.000    0.000    0.000 
#
# Total GULP energy -198319.718824 kJ/mol
# GULP energy per Si atom -12394.982427 kJ/mol
# Density = 2.218010 g / cm^3
# Si number density = 22.230699 Si / 1000 Ang^3
#
#
#
# Elastic Constant Matrix: (Units=GPa)
#
#
# Indices 1 2 3 4 5 6 
#
# 1 70.2259 -2.0111 21.5242 8.4473 -3.8157 -1.6307
# 2 -2.0111 68.3918 24.0565 6.0490 16.1720 -1.1019
# 3 21.5242 24.0565 97.3547 6.9953 -0.9784 -5.5486
# 4 8.4473 6.0490 6.9953 28.7015 -7.3378 -3.1823
# 5 -3.8157 16.1720 -0.9784 -7.3378 38.5509 7.2992
# 6 -1.6307 -1.1019 -5.5486 -3.1823 7.2992 24.7574
#
#
#
# Elastic Compliance Matrix: (Units=1/GPa)
#
#
# Indices 1 2 3 4 5 6 
#
# 1 0.015968 0.002239 -0.003785 -0.004332 -0.000245 -0.000181
# 2 0.002239 0.019128 -0.004795 -0.005703 -0.009380 0.001957
# 3 -0.003785 -0.004795 0.012435 -0.000308 0.001547 0.001828
# 4 -0.004332 -0.005703 -0.000308 0.039950 0.009217 0.001810
# 5 -0.000245 -0.009380 0.001547 0.009217 0.033295 -0.008718
# 6 -0.000181 0.001957 0.001828 0.001810 -0.008718 0.043680
#
#
# Mechanical properties :
#
#
# Convention : Reuss Voigt Hill
#
# Bulk Modulus (GPa) = 28.69485 35.90129 32.29807
# Shear Modulus (GPa) = 26.48960 31.22882 28.85921
#
# Velocity S-wave (km/s) = 3.45567 3.75208 3.60692
# Velocity P-wave (km/s) = 5.37196 5.91230 5.64860
#
# Compressibility (1/GPa) = 0.03484946
#
# Stress axis : x y z
#
# Youngs Moduli (GPa) = 62.62715 52.27962 80.41695
#
# Poissons Ratio (x) = -0.11706 0.30439
# Poissons Ratio (y) = -0.14023 0.38556
# Poissons Ratio (z) = 0.23705 0.25066
#
# Static dielectric constant tensor:
#      x y z
#    x 4.456830 -0.290330 -0.051790 
#    y -0.290330 3.441710 0.944110 
#    z -0.051790 0.944110 3.258530 
# 
# 
# High freq. dielectric constant tensor:
#      x y z
#    x 1.888730 -0.007430 -0.005050 
#    y -0.007430 1.844440 0.019460 
#    z -0.005050 0.019460 1.887310 
# 
# From -- ./inp_files/530121.got.cif
#   From: 2010.06.25/outbox.cif.g09.slc.cpg/sg2_266_cif.got.tgz:530121.got - 2010.06.27 13:26:56.
