data_PCOD8014632
_publ_section_title
;
Structure prediction by ZEFSAII (Michael W. Deem and Ramdas Pophale) SiO2 
 PCOD8014632
Probable space group: P -1
;
_chemical_formula_sum "Si O2"
_cell_formula_units_Z 16
_cell_length_a 12.358936
_cell_length_b 11.705294
_cell_length_c 10.011604
_cell_angle_alpha 90.391006
_cell_angle_beta 124.919847
_cell_angle_gamma 130.431822
_cell_volume 719.227032
_symmetry_space_group_name_H-M "P -1"
_symmetry_group_IT_number 2
_symmetry_cell_setting 'triclinic'
loop_
_space_group_symop_operation_xyz
x,y,z
-x,-y,-z
loop_
_atom_site_type_symbol
_atom_site_label
_atom_site_fract_x
_atom_site_fract_y
_atom_site_fract_z
Si Si1 0.896079 0.103663 0.831503
Si Si2 0.638425 0.899941 0.902157
Si Si3 0.988119 0.713687 0.675995
Si Si4 0.300806 0.305654 0.676740
Si Si5 0.396635 0.139240 0.615493
Si Si6 0.645039 0.099895 0.232062
Si Si7 0.715475 0.716417 0.036958
Si Si8 0.123872 0.473191 0.132183
O O1 0.738528 0.941689 0.829002
O O2 0.745800 0.024373 0.597008
O O3 0.081118 0.140662 0.919491
O O4 0.012050 0.297476 0.965560
O O5 0.424003 0.832940 0.734604
O O6 0.573778 0.734788 0.921243
O O7 0.822280 0.079219 0.127211
O O8 0.098907 0.722459 0.628358
O O9 0.797914 0.664938 0.488293
O O10 0.897271 0.565300 0.723768
O O11 0.268585 0.159949 0.585467
O O12 0.558100 0.503503 0.884729
O O13 0.191228 0.232061 0.745816
O O14 0.622572 0.340446 0.717714
O O15 0.432516 0.067910 0.750558
O O16 0.500000 0.000000 0.000000
O O17 0.000000 0.500000 0.000000
#
# Coordination Sequence:
#
# PCOD8014632 Si02
#       8
#     2   2   2   2   2   2   2   2
#     4  11  24  43  67 101 132 175 229 271 339 400
#     4  10  22  40  65  93 134 171 220 281 327 399
#     4  10  22  42  66  99 130 176 229 268 340 400
#     4  11  24  41  66  98 133 177 225 280 329 398
#     4  12  24  43  74  95 136 182 225 275 336 401
#     4  10  21  41  69  96 128 180 226 270 337 399
#     4  11  23  42  64  98 138 171 224 281 335 390
#     4  11  25  45  68 100 142 176 219 283 333 399
#
# _framework density 22.246105
#
# number of rings (size 3 to 8) (size 9 to 14) (size 15 to 20)
#    0.000    1.250    1.250    5.625    1.750    5.000 
#    0.000    0.625    0.000    0.000    0.000    0.000 
#    0.000    0.000    0.000    0.000    0.000    0.000 
#
# Total GULP energy -198361.894076 kJ/mol
# GULP energy per Si atom -12397.618380 kJ/mol
# Density = 2.219547 g / cm^3
# Si number density = 22.246105 Si / 1000 Ang^3
#
#
#
# Elastic Constant Matrix: (Units=GPa)
#
#
# Indices 1 2 3 4 5 6 
#
# 1 126.2993 52.3755 48.0431 -20.1151 4.1094 8.2941
# 2 52.3755 122.5609 44.5434 -29.8841 -1.7482 2.0393
# 3 48.0431 44.5434 85.1973 -15.0259 3.2802 1.9192
# 4 -20.1151 -29.8841 -15.0259 40.5005 -5.5107 7.7329
# 5 4.1094 -1.7482 3.2802 -5.5107 26.9577 -10.4883
# 6 8.2941 2.0393 1.9192 7.7329 -10.4883 37.0602
#
#
#
# Elastic Compliance Matrix: (Units=1/GPa)
#
#
# Indices 1 2 3 4 5 6 
#
# 1 0.011370 -0.002634 -0.004458 0.002382 -0.002148 -0.003274
# 2 -0.002634 0.012437 -0.003897 0.006916 0.002895 -0.000517
# 3 -0.004458 -0.003897 0.016507 0.000878 -0.001500 -0.000250
# 4 0.002382 0.006916 0.000878 0.033147 0.004147 -0.006702
# 5 -0.002148 0.002895 -0.001500 0.004147 0.043218 0.011765
# 6 -0.003274 -0.000517 -0.000250 -0.006702 0.011765 0.032485
#
#
# Mechanical properties :
#
#
# Convention : Reuss Voigt Hill
#
# Bulk Modulus (GPa) = 54.53721 69.33126 61.93423
# Shear Modulus (GPa) = 28.20792 33.51005 30.85898
#
# Velocity S-wave (km/s) = 3.56475 3.88536 3.72850
# Velocity P-wave (km/s) = 6.44297 7.16668 6.81444
#
# Compressibility (1/GPa) = 0.01833611
#
# Stress axis : x y z
#
# Youngs Moduli (GPa) = 87.95013 80.40236 60.57960
#
# Poissons Ratio (x) = 0.21178 0.27005
# Poissons Ratio (y) = 0.23166 0.23611
# Poissons Ratio (z) = 0.39207 0.31336
#
# Static dielectric constant tensor:
#      x y z
#    x 5.048140 0.200360 0.030670 
#    y 0.200360 4.022350 -0.133560 
#    z 0.030670 -0.133560 3.905360 
# 
# 
# High freq. dielectric constant tensor:
#      x y z
#    x 1.885850 0.008560 0.001350 
#    y 0.008560 1.876450 -0.010130 
#    z 0.001350 -0.010130 1.872330 
# 
# From -- ./inp_files/262600.got.cif
#   From: 2010.06.25/outbox.cif.g09.slc.cpg/sg2_132_cif.got.tgz:262600.got - 2010.06.27 13:26:56.
