data_PCOD8014697
_publ_section_title
;
Structure prediction by ZEFSAII (Michael W. Deem and Ramdas Pophale) SiO2 
 PCOD8014697
Probable space group: P -1
;
_chemical_formula_sum "Si O2"
_cell_formula_units_Z 14
_cell_length_a 12.657284
_cell_length_b 16.266294
_cell_length_c 23.451532
_cell_angle_alpha 162.049148
_cell_angle_beta 153.321312
_cell_angle_gamma 35.973540
_cell_volume 638.507613
_symmetry_space_group_name_H-M "P -1"
_symmetry_group_IT_number 2
_symmetry_cell_setting 'triclinic'
loop_
_space_group_symop_operation_xyz
x,y,z
-x,-y,-z
loop_
_atom_site_type_symbol
_atom_site_label
_atom_site_fract_x
_atom_site_fract_y
_atom_site_fract_z
Si Si1 0.476983 0.585361 0.226053
Si Si2 0.723767 0.312860 0.252824
Si Si3 0.123047 0.256080 0.633295
Si Si4 0.662997 0.715855 0.864386
Si Si5 0.882189 0.096204 0.711826
Si Si6 0.473352 0.251348 0.897403
Si Si7 0.627799 0.327823 0.489220
O O1 0.551808 0.359833 0.150808
O O2 0.254089 0.664547 0.202041
O O3 0.714268 0.855221 0.512340
O O4 0.385737 0.443253 0.027603
O O5 0.613036 0.374075 0.300879
O O6 0.000000 0.500000 0.500000
O O7 0.708276 0.990252 0.028644
O O8 0.252900 0.149958 0.678684
O O9 0.865929 0.294438 0.551370
O O10 0.080572 0.020905 0.409210
O O11 0.280610 0.561895 0.890656
O O12 0.696486 0.479061 0.682721
O O13 0.855909 0.772594 0.046352
O O14 0.537503 0.987339 0.783048
O O15 0.500000 0.500000 0.500000
#
# Coordination Sequence:
#
# PCOD8014697 Si02
#       7
#     2   2   2   2   2   2   2
#     4  10  21  41  70  96 129 172 217 269 324 379
#     4  11  24  43  68  95 132 170 211 274 328 381
#     4  10  24  44  69  94 135 172 219 274 321 389
#     4  11  26  42  66 100 130 168 223 265 326 393
#     4  10  22  41  69 101 126 166 225 270 321 382
#     4  10  23  45  67  95 132 177 219 265 329 384
#     4  12  27  43  66  97 135 174 217 267 330 398
#
# _framework density 21.926127999999999
#
# number of rings (size 3 to 8) (size 9 to 14) (size 15 to 20)
#    0.000    1.429    1.429    2.143    8.000    3.429 
#    0.000    0.000    0.000    0.000    0.000    0.000 
#    0.000    0.000    0.000    0.000    0.000    0.000 
#
# Total GULP energy -173635.699652 kJ/mol
# GULP energy per Si atom -12402.549975 kJ/mol
# Density = 2.187622 g / cm^3
# Si number density = 21.926128 Si / 1000 Ang^3
#
#
#
# Elastic Constant Matrix: (Units=GPa)
#
#
# Indices 1 2 3 4 5 6 
#
# 1 123.8433 38.4872 56.0636 -0.2071 -4.0232 -14.9159
# 2 38.4872 123.7790 48.6417 6.9511 4.3217 7.4537
# 3 56.0636 48.6417 102.9290 -0.4524 -9.2637 -3.3546
# 4 -0.2071 6.9511 -0.4524 31.0771 3.6370 -1.7374
# 5 -4.0232 4.3217 -9.2637 3.6370 40.1400 3.9739
# 6 -14.9159 7.4537 -3.3546 -1.7374 3.9739 35.4247
#
#
#
# Elastic Compliance Matrix: (Units=1/GPa)
#
#
# Indices 1 2 3 4 5 6 
#
# 1 0.011640 -0.001837 -0.005348 0.000731 -0.000418 0.004864
# 2 -0.001837 0.010773 -0.004373 -0.002464 -0.001796 -0.003374
# 3 -0.005348 -0.004373 0.014991 0.000754 0.003351 -0.000251
# 4 0.000731 -0.002464 0.000754 0.033229 -0.002779 0.002839
# 5 -0.000418 -0.001796 0.003351 -0.002779 0.026344 -0.002572
# 6 0.004864 -0.003374 -0.000251 0.002839 -0.002572 0.031391
#
#
# Mechanical properties :
#
#
# Convention : Reuss Voigt Hill
#
# Bulk Modulus (GPa) = 69.98394 70.77070 70.37732
# Shear Modulus (GPa) = 32.00073 35.15227 33.57650
#
# Velocity S-wave (km/s) = 3.82446 4.00836 3.91749
# Velocity P-wave (km/s) = 7.17561 7.33277 7.25461
#
# Compressibility (1/GPa) = 0.01428899
#
# Stress axis : x y z
#
# Youngs Moduli (GPa) = 85.91005 92.82710 66.70479
#
# Poissons Ratio (x) = 0.17054 0.35672
# Poissons Ratio (y) = 0.15783 0.29168
# Poissons Ratio (z) = 0.45943 0.40590
#
# Static dielectric constant tensor:
#      x y z
#    x 4.123300 0.068240 0.083950 
#    y 0.068240 4.073960 0.161270 
#    z 0.083950 0.161270 3.972950 
# 
# 
# High freq. dielectric constant tensor:
#      x y z
#    x 1.876360 0.006000 0.004510 
#    y 0.006000 1.865760 0.009980 
#    z 0.004510 0.009980 1.863500 
# 
# From -- ./inp_files/244823.got.cif
#   From: 2010.06.25/outbox.cif.g09.slc.cpg/sg2_123_cif.got.tgz:244823.got - 2010.06.27 13:26:56.
