data_PCOD8014986
_publ_section_title
;
Structure prediction by ZEFSAII (Michael W. Deem and Ramdas Pophale) SiO2 
 PCOD8014986
Probable space group: P -1
;
_chemical_formula_sum "Si O2"
_cell_formula_units_Z 16
_cell_length_a 15.025528
_cell_length_b 9.358400
_cell_length_c 10.014433
_cell_angle_alpha 72.189795
_cell_angle_beta 99.219110
_cell_angle_gamma 42.389319
_cell_volume 722.015793
_symmetry_space_group_name_H-M "P -1"
_symmetry_group_IT_number 2
_symmetry_cell_setting 'triclinic'
loop_
_space_group_symop_operation_xyz
x,y,z
-x,-y,-z
loop_
_atom_site_type_symbol
_atom_site_label
_atom_site_fract_x
_atom_site_fract_y
_atom_site_fract_z
Si Si1 0.268775 0.993091 0.606748
Si Si2 0.465266 0.974425 0.784803
Si Si3 0.216363 0.109059 0.074293
Si Si4 0.430773 0.532670 0.340172
Si Si5 0.845683 0.641184 0.754370
Si Si6 0.278872 0.311850 0.888774
Si Si7 0.029490 0.795460 0.507452
Si Si8 0.285362 0.424511 0.427883
O O1 0.416232 0.700890 0.654261
O O2 0.358338 0.970894 0.747052
O O3 0.159036 0.251839 0.410850
O O4 0.141553 0.048642 0.621926
O O5 0.397212 0.174693 0.830362
O O6 0.444316 0.107223 0.610196
O O7 0.656432 0.684739 0.963761
O O8 0.257771 0.125586 0.224068
O O9 0.304968 0.825758 0.159599
O O10 0.279085 0.134534 0.969325
O O11 0.022744 0.356929 0.939114
O O12 0.500000 0.500000 0.500000
O O13 0.336997 0.510790 0.356703
O O14 0.775875 0.575799 0.718442
O O15 0.099727 0.614220 0.708772
O O16 0.147146 0.631417 0.452341
O O17 0.000000 0.000000 0.500000
#
# Coordination Sequence:
#
# PCOD8014986 Si02
#       8
#     2   2   2   2   2   2   2   2
#     4  11  23  42  68 100 131 173 224 269 333 390
#     4   9  22  39  67  95 127 175 220 276 321 395
#     4  11  23  40  69  93 136 173 218 272 332 391
#     4  12  24  41  65 100 137 170 216 278 335 388
#     4  10  23  41  66  96 125 179 222 271 319 397
#     4  10  21  42  64  94 130 174 225 265 329 397
#     4  11  24  43  70  95 132 176 223 274 328 392
#     4  10  24  42  70  96 129 173 230 268 324 392
#
# _framework density 22.160181000000001
#
# number of rings (size 3 to 8) (size 9 to 14) (size 15 to 20)
#    0.000    1.500    2.500    1.500    3.500    5.000 
#    2.250    1.250    0.000    0.000    0.000    0.000 
#    0.000    0.000    0.000    0.000    0.000    0.000 
#
# Total GULP energy -198258.600333 kJ/mol
# GULP energy per Si atom -12391.162521 kJ/mol
# Density = 2.210974 g / cm^3
# Si number density = 22.160181 Si / 1000 Ang^3
#
#
#
# Elastic Constant Matrix: (Units=GPa)
#
#
# Indices 1 2 3 4 5 6 
#
# 1 123.1180 19.4168 32.3486 -14.3919 15.5177 17.7545
# 2 19.4168 75.0885 22.8511 -8.0645 20.8567 8.2017
# 3 32.3486 22.8511 90.1040 -4.1867 22.3191 12.9725
# 4 -14.3919 -8.0645 -4.1867 31.4759 5.7054 0.4984
# 5 15.5177 20.8567 22.3191 5.7054 31.7474 5.5029
# 6 17.7545 8.2017 12.9725 0.4984 5.5029 38.8921
#
#
#
# Elastic Compliance Matrix: (Units=1/GPa)
#
#
# Indices 1 2 3 4 5 6 
#
# 1 0.010252 -0.000016 -0.001947 0.005197 -0.003953 -0.003534
# 2 -0.000016 0.017835 -0.001007 0.006609 -0.011873 -0.001823
# 3 -0.001947 -0.001007 0.014696 0.002425 -0.008703 -0.002600
# 4 0.005197 0.006609 0.002425 0.038942 -0.015076 -0.002941
# 5 -0.003953 -0.011873 -0.008703 -0.015076 0.050002 0.000330
# 6 -0.003534 -0.001823 -0.002600 -0.002941 0.000330 0.028568
#
#
# Mechanical properties :
#
#
# Convention : Reuss Voigt Hill
#
# Bulk Modulus (GPa) = 27.14285 48.61595 37.87940
# Shear Modulus (GPa) = 28.00892 34.66935 31.33913
#
# Velocity S-wave (km/s) = 3.55904 3.95965 3.76468
# Velocity P-wave (km/s) = 5.40038 6.54914 6.00230
#
# Compressibility (1/GPa) = 0.03684212
#
# Stress axis : x y z
#
# Youngs Moduli (GPa) = 97.54396 56.06962 68.04804
#
# Poissons Ratio (x) = 0.00092 0.13249
# Poissons Ratio (y) = 0.00160 0.06851
# Poissons Ratio (z) = 0.18991 0.05645
#
# Static dielectric constant tensor:
#      x y z
#    x 4.095530 0.222230 0.329420 
#    y 0.222230 4.165960 -0.010350 
#    z 0.329420 -0.010350 4.368950 
# 
# 
# High freq. dielectric constant tensor:
#      x y z
#    x 1.878720 0.001040 0.016570 
#    y 0.001040 1.859620 0.005000 
#    z 0.016570 0.005000 1.878250 
# 
# From -- ./inp_files/262560.got.cif
#   From: 2010.06.25/outbox.cif.g09.slc.cpg/sg2_132_cif.got.tgz:262560.got - 2010.06.27 13:26:56.
