data_PCOD8014295
_publ_section_title
;
Structure prediction by ZEFSAII (Michael W. Deem and Ramdas Pophale) SiO2 
 PCOD8014295
Probable space group: P -1
;
_chemical_formula_sum "Si O2"
_cell_formula_units_Z 16
_cell_length_a 9.786935
_cell_length_b 14.677612
_cell_length_c 9.268939
_cell_angle_alpha 132.546123
_cell_angle_beta 81.733797
_cell_angle_gamma 72.005848
_cell_volume 806.183717
_symmetry_space_group_name_H-M "P -1"
_symmetry_group_IT_number 2
_symmetry_cell_setting 'triclinic'
loop_
_space_group_symop_operation_xyz
x,y,z
-x,-y,-z
loop_
_atom_site_type_symbol
_atom_site_label
_atom_site_fract_x
_atom_site_fract_y
_atom_site_fract_z
Si Si1 0.830869 0.225103 0.351074
Si Si2 0.325593 0.109049 0.214205
Si Si3 0.032421 0.338607 0.302718
Si Si4 0.138309 0.832351 0.265831
Si Si5 0.571900 0.341514 0.753126
Si Si6 0.734647 0.674751 0.294135
Si Si7 0.156468 0.948975 0.105630
Si Si8 0.008840 0.346571 0.980838
O O1 0.659776 0.330202 0.575686
O O2 0.885298 0.329733 0.386621
O O3 0.800272 0.134669 0.141846
O O4 0.970176 0.099259 0.302237
O O5 0.202641 0.217329 0.224155
O O6 0.335706 0.197416 0.439829
O O7 0.276824 0.002434 0.174213
O O8 0.500000 0.000000 0.000000
O O9 0.000000 0.500000 0.500000
O O10 0.048747 0.294128 0.084429
O O11 0.293999 0.781189 0.289436
O O12 0.191973 0.826393 0.086442
O O13 0.066820 0.729760 0.180097
O O14 0.000000 0.000000 0.500000
O O15 0.422349 0.321330 0.735872
O O16 0.500000 0.500000 0.000000
O O17 0.819878 0.699909 0.172140
O O18 0.872643 0.522409 0.188200
#
# Coordination Sequence:
#
# PCOD8014295 Si02
#       8
#     2   2   2   2   2   2   2   2
#     4  10  22  41  66  94 132 168 221 267 327 388
#     4  11  24  42  66  97 138 171 215 275 338 385
#     4  11  23  41  72  97 125 178 225 269 323 400
#     4  12  23  42  69  98 130 174 223 266 323 400
#     4  12  26  42  65  99 137 174 216 273 333 386
#     4  11  25  44  66  97 139 174 215 278 332 392
#     4  10  21  41  66  94 124 176 219 268 321 389
#     4  11  24  44  69 100 130 174 227 267 332 396
#
# _framework density 19.846594
#
# number of rings (size 3 to 8) (size 9 to 14) (size 15 to 20)
#    0.000    1.000    5.000    1.500    3.500    2.000 
#    0.000    3.125    0.000    0.000    0.000    0.000 
#    0.000    0.000    0.000    0.000    0.000    0.000 
#
# Total GULP energy -198438.114571 kJ/mol
# GULP energy per Si atom -12402.382161 kJ/mol
# Density = 1.980142 g / cm^3
# Si number density = 19.846594 Si / 1000 Ang^3
#
#
#
# Elastic Constant Matrix: (Units=GPa)
#
#
# Indices 1 2 3 4 5 6 
#
# 1 162.4035 50.5353 70.3267 -8.6460 -1.2364 5.0286
# 2 50.5353 93.9977 28.1750 -11.0895 -11.6082 7.3282
# 3 70.3267 28.1750 135.3654 0.8444 -9.8928 6.4824
# 4 -8.6460 -11.0895 0.8444 31.6384 6.0389 3.7525
# 5 -1.2364 -11.6082 -9.8928 6.0389 38.0897 1.5843
# 6 5.0286 7.3282 6.4824 3.7525 1.5843 32.1940
#
#
#
# Elastic Compliance Matrix: (Units=1/GPa)
#
#
# Indices 1 2 3 4 5 6 
#
# 1 0.009215 -0.003788 -0.004180 0.001705 -0.002218 0.000175
# 2 -0.003788 0.013934 -0.000549 0.003550 0.003545 -0.003058
# 3 -0.004180 -0.000549 0.009932 -0.001970 0.002636 -0.001122
# 4 0.001705 0.003550 -0.001970 0.034802 -0.004705 -0.004503
# 5 -0.002218 0.003545 0.002636 -0.004705 0.028770 -0.001859
# 6 0.000175 -0.003058 -0.001122 -0.004503 -0.001859 0.032573
#
#
# Mechanical properties :
#
#
# Convention : Reuss Voigt Hill
#
# Bulk Modulus (GPa) = 62.31488 76.64897 69.48192
# Shear Modulus (GPa) = 32.97965 36.56639 34.77302
#
# Velocity S-wave (km/s) = 4.08085 4.29704 4.19034
# Velocity P-wave (km/s) = 7.32604 7.95763 7.64836
#
# Compressibility (1/GPa) = 0.01604753
#
# Stress axis : x y z
#
# Youngs Moduli (GPa) = 108.52253 71.76450 100.68416
#
# Poissons Ratio (x) = 0.27181 0.42087
# Poissons Ratio (y) = 0.41103 0.05529
# Poissons Ratio (z) = 0.45364 0.03941
#
# Static dielectric constant tensor:
#      x y z
#    x 3.504790 0.029430 0.161100 
#    y 0.029430 3.834100 0.011910 
#    z 0.161100 0.011910 3.636090 
# 
# 
# High freq. dielectric constant tensor:
#      x y z
#    x 1.782620 0.006530 0.011200 
#    y 0.006530 1.774990 -0.007640 
#    z 0.011200 -0.007640 1.785320 
# 
# From -- ./inp_files/207938.got.cif
#   From: 2010.06.25/outbox.cif.g09.slc.cpg/sg2_104_cif.got.tgz:207938.got - 2010.06.27 13:26:56.
