data_PCOD8014247
_publ_section_title
;
Structure prediction by ZEFSAII (Michael W. Deem and Ramdas Pophale) SiO2 
 PCOD8014247
Probable space group: P -1
;
_chemical_formula_sum "Si O2"
_cell_formula_units_Z 16
_cell_length_a 19.359420
_cell_length_b 5.845920
_cell_length_c 25.244767
_cell_angle_alpha 100.168824
_cell_angle_beta 162.151568
_cell_angle_gamma 71.064922
_cell_volume 736.979510
_symmetry_space_group_name_H-M "P -1"
_symmetry_group_IT_number 2
_symmetry_cell_setting 'triclinic'
loop_
_space_group_symop_operation_xyz
x,y,z
-x,-y,-z
loop_
_atom_site_type_symbol
_atom_site_label
_atom_site_fract_x
_atom_site_fract_y
_atom_site_fract_z
Si Si1 0.569590 0.691239 0.523131
Si Si2 0.745017 0.009449 0.790881
Si Si3 0.506713 0.566956 0.205475
Si Si4 0.081422 0.890705 0.449952
Si Si5 0.589005 0.453971 0.141458
Si Si6 0.276439 0.301311 0.839665
Si Si7 0.508958 0.009403 0.288767
Si Si8 0.059769 0.533188 0.925987
O O1 0.500000 0.500000 0.500000
O O2 0.431457 0.730021 0.366235
O O3 0.890836 0.510484 0.753272
O O4 0.500000 0.000000 0.500000
O O5 0.552903 0.034275 0.698727
O O6 0.850552 0.728970 0.825272
O O7 0.000000 0.000000 0.000000
O O8 0.711646 0.255045 0.357452
O O9 0.499617 0.588311 0.138550
O O10 0.605108 0.750993 0.310813
O O11 0.219212 0.664189 0.023282
O O12 0.235393 0.958167 0.520570
O O13 0.001676 0.685171 0.356298
O O14 0.825089 0.141809 0.299522
O O15 0.694140 0.625382 0.195777
O O16 0.322426 0.492908 0.921097
O O17 0.500000 0.000000 0.000000
O O18 0.250315 0.251583 0.082316
#
# Coordination Sequence:
#
# PCOD8014247 Si02
#       8
#     2   2   2   2   2   2   2   2
#     4  10  23  43  69  98 132 179 228 278 344 410
#     4  11  21  43  73  95 131 177 221 275 334 401
#     4  11  23  40  63  97 127 170 220 268 336 396
#     4  10  22  40  64  92 130 162 223 273 323 405
#     4  10  21  41  66  87 129 174 212 274 329 396
#     4   9  20  40  63  90 122 168 220 264 334 389
#     4  11  23  39  67 101 131 172 223 276 337 400
#     4  10  23  43  64  94 136 171 222 276 334 409
#
# _framework density 21.710238
#
# number of rings (size 3 to 8) (size 9 to 14) (size 15 to 20)
#    0.000    1.750    1.250    2.250    1.750    7.000 
#    9.000    0.000    0.000    0.000    0.000    0.000 
#    0.000    0.000    0.000    0.000    0.000    0.000 
#
# Total GULP energy -198212.194262 kJ/mol
# GULP energy per Si atom -12388.262141 kJ/mol
# Density = 2.166082 g / cm^3
# Si number density = 21.710238 Si / 1000 Ang^3
#
#
#
# Elastic Constant Matrix: (Units=GPa)
#
#
# Indices 1 2 3 4 5 6 
#
# 1 167.2132 60.6286 54.0393 15.5026 -3.4661 6.8576
# 2 60.6286 92.7211 32.0488 15.3506 5.0761 19.2774
# 3 54.0393 32.0488 106.5949 28.3927 -11.7450 8.3661
# 4 15.5026 15.3506 28.3927 42.6758 8.5880 9.1470
# 5 -3.4661 5.0761 -11.7450 8.5880 31.4199 -1.8569
# 6 6.8576 19.2774 8.3661 9.1470 -1.8569 34.2109
#
#
#
# Elastic Compliance Matrix: (Units=1/GPa)
#
#
# Indices 1 2 3 4 5 6 
#
# 1 0.008731 -0.005131 -0.002972 0.000093 0.000767 0.001885
# 2 -0.005131 0.016909 -0.002371 0.000057 -0.004684 -0.008189
# 3 -0.002972 -0.002371 0.015145 -0.010174 0.008581 0.001414
# 4 0.000093 0.000057 -0.010174 0.034515 -0.013681 -0.007534
# 5 0.000767 -0.004684 0.008581 -0.013681 0.039983 0.006215
# 6 0.001885 -0.008189 0.001414 -0.007534 0.006215 0.035473
#
#
# Mechanical properties :
#
#
# Convention : Reuss Voigt Hill
#
# Bulk Modulus (GPa) = 50.40939 73.32918 61.86928
# Shear Modulus (GPa) = 28.03986 36.31548 32.17767
#
# Velocity S-wave (km/s) = 3.59771 4.09435 3.85404
# Velocity P-wave (km/s) = 6.36613 7.49675 6.95445
#
# Compressibility (1/GPa) = 0.01983758
#
# Stress axis : x y z
#
# Youngs Moduli (GPa) = 114.53036 59.13841 66.02779
#
# Poissons Ratio (x) = 0.30346 0.19621
# Poissons Ratio (y) = 0.58769 0.15656
# Poissons Ratio (z) = 0.34035 0.14023
#
# Static dielectric constant tensor:
#      x y z
#    x 3.869050 0.215290 -0.278070 
#    y 0.215290 3.822190 0.106160 
#    z -0.278070 0.106160 4.428530 
# 
# 
# High freq. dielectric constant tensor:
#      x y z
#    x 1.833970 0.025640 -0.011090 
#    y 0.025640 1.849570 0.008720 
#    z -0.011090 0.008720 1.874550 
# 
# From -- ./inp_files/55290.got.cif
#   From: 2010.06.25/outbox.cif.g09.slc.cpg/sg2_28_cif.got.tgz:55290.got - 2010.06.27 13:26:56.
