data_PCOD8014527
_publ_section_title
;
Structure prediction by ZEFSAII (Michael W. Deem and Ramdas Pophale) SiO2 
 PCOD8014527
Probable space group: P -1
;
_chemical_formula_sum "Si O2"
_cell_formula_units_Z 16
_cell_length_a 9.134164
_cell_length_b 17.829674
_cell_length_c 9.284186
_cell_angle_alpha 30.837943
_cell_angle_beta 95.279677
_cell_angle_gamma 92.231763
_cell_volume 769.406665
_symmetry_space_group_name_H-M "P -1"
_symmetry_group_IT_number 2
_symmetry_cell_setting 'triclinic'
loop_
_space_group_symop_operation_xyz
x,y,z
-x,-y,-z
loop_
_atom_site_type_symbol
_atom_site_label
_atom_site_fract_x
_atom_site_fract_y
_atom_site_fract_z
Si Si1 0.306571 0.908866 0.239634
Si Si2 0.881185 0.568103 0.162446
Si Si3 0.379704 0.582981 0.752147
Si Si4 0.408843 0.944852 0.879078
Si Si5 0.829802 0.904353 0.561168
Si Si6 0.919322 0.942691 0.815666
Si Si7 0.859427 0.624733 0.392036
Si Si8 0.473661 0.365453 0.617763
O O1 0.330977 0.738228 0.564977
O O2 0.435441 0.000541 0.157211
O O3 0.154329 0.967894 0.204369
O O4 0.301396 0.929646 0.032338
O O5 0.766383 0.501063 0.154236
O O6 0.834040 0.554293 0.348258
O O7 0.044616 0.483174 0.311802
O O8 0.890953 0.735225 0.838296
O O9 0.464161 0.603735 0.580558
O O10 0.500000 0.500000 0.000000
O O11 0.335248 0.064590 0.564414
O O12 0.442285 0.786072 0.066289
O O13 0.820934 0.960095 0.633038
O O14 0.925262 0.999113 0.308222
O O15 0.944725 0.772188 0.143201
O O16 0.697658 0.657837 0.387226
O O17 0.500000 0.500000 0.500000
#
# Coordination Sequence:
#
# PCOD8014527 Si02
#       8
#     2   2   2   2   2   2   2   2
#     4  10  22  40  60  87 125 169 206 249 315 379
#     4  10  22  42  63  94 128 166 207 267 317 364
#     4  11  24  40  61  94 134 165 207 260 324 378
#     4  10  22  40  61  90 127 162 210 258 312 378
#     4  10  23  40  65  92 124 162 213 266 308 364
#     4  10  22  41  63  93 121 165 212 257 317 369
#     4  10  21  41  68  91 123 161 220 262 307 381
#     4  11  22  39  67  96 118 168 218 261 314 373
#
# _framework density 20.795244
#
# number of rings (size 3 to 8) (size 9 to 14) (size 15 to 20)
#    0.000    1.750    2.500    0.750    3.500    5.000 
#    0.000    1.250    0.000    0.000    0.000    0.000 
#    0.000    0.000    0.000    0.000    0.000    0.000 
#
# Total GULP energy -198362.311215 kJ/mol
# GULP energy per Si atom -12397.644451 kJ/mol
# Density = 2.074791 g / cm^3
# Si number density = 20.795244 Si / 1000 Ang^3
#
#
#
# Elastic Constant Matrix: (Units=GPa)
#
#
# Indices 1 2 3 4 5 6 
#
# 1 73.5909 27.2079 44.8178 -0.6193 15.3795 -3.0571
# 2 27.2079 88.6250 35.4426 -26.1707 11.6903 -3.8050
# 3 44.8178 35.4426 115.2906 -26.3766 25.2933 12.3632
# 4 -0.6193 -26.1707 -26.3766 25.2790 4.3916 4.1007
# 5 15.3795 11.6903 25.2933 4.3916 43.5174 2.4691
# 6 -3.0571 -3.8050 12.3632 4.1007 2.4691 33.3908
#
#
#
# Elastic Compliance Matrix: (Units=1/GPa)
#
#
# Indices 1 2 3 4 5 6 
#
# 1 0.026448 -0.010773 -0.016108 -0.029934 0.005338 0.010440
# 2 -0.010773 0.022503 0.007504 0.033290 -0.009700 -0.004572
# 3 -0.016108 0.007504 0.026634 0.040096 -0.015039 -0.014293
# 4 -0.029934 0.033290 0.040096 0.125160 -0.032782 -0.026740
# 5 0.005338 -0.009700 -0.015039 -0.032782 0.035387 0.006361
# 6 0.010440 -0.004572 -0.014293 -0.026740 0.006361 0.038489
#
#
# Mechanical properties :
#
#
# Convention : Reuss Voigt Hill
#
# Bulk Modulus (GPa) = 27.15061 54.71590 40.93325
# Shear Modulus (GPa) = 15.35382 31.77330 23.56356
#
# Velocity S-wave (km/s) = 2.72018 3.91309 3.36984
# Velocity P-wave (km/s) = 4.79065 6.83997 5.90489
#
# Compressibility (1/GPa) = 0.03683159
#
# Stress axis : x y z
#
# Youngs Moduli (GPa) = 37.81005 44.43800 37.54566
#
# Poissons Ratio (x) = 0.47872 0.60480
# Poissons Ratio (y) = 0.40732 -0.28175
# Poissons Ratio (z) = 0.60906 -0.33347
#
# Static dielectric constant tensor:
#      x y z
#    x 3.698470 -0.136000 0.136640 
#    y -0.136000 3.765410 -0.396010 
#    z 0.136640 -0.396010 4.297350 
# 
# 
# High freq. dielectric constant tensor:
#      x y z
#    x 1.812820 0.001720 0.003210 
#    y 0.001720 1.809320 -0.013720 
#    z 0.003210 -0.013720 1.817670 
# 
# From -- ./inp_files/216354.got.cif
#   From: 2010.06.25/outbox.cif.g09.slc.cpg/sg2_109_cif.got.tgz:216354.got - 2010.06.27 13:26:56.
