data_PCOD8014761
_publ_section_title
;
Structure prediction by ZEFSAII (Michael W. Deem and Ramdas Pophale) SiO2 
 PCOD8014761
Probable space group: P -1
;
_chemical_formula_sum "Si O2"
_cell_formula_units_Z 14
_cell_length_a 10.934163
_cell_length_b 11.453611
_cell_length_c 9.690812
_cell_angle_alpha 116.060841
_cell_angle_beta 44.527960
_cell_angle_gamma 129.472386
_cell_volume 656.751851
_symmetry_space_group_name_H-M "P -1"
_symmetry_group_IT_number 2
_symmetry_cell_setting 'triclinic'
loop_
_space_group_symop_operation_xyz
x,y,z
-x,-y,-z
loop_
_atom_site_type_symbol
_atom_site_label
_atom_site_fract_x
_atom_site_fract_y
_atom_site_fract_z
Si Si1 0.067300 0.572951 0.766739
Si Si2 0.587646 0.175153 0.546759
Si Si3 0.748741 0.266494 0.762769
Si Si4 0.457712 0.263463 0.212521
Si Si5 0.986169 0.883647 0.563508
Si Si6 0.709985 0.833652 0.419225
Si Si7 0.785144 0.566561 0.214874
O O1 0.197907 0.722290 0.648457
O O2 0.197578 0.504269 0.691179
O O3 0.889581 0.448761 0.747294
O O4 0.980918 0.620246 0.989864
O O5 0.614757 0.213561 0.705425
O O6 0.425657 0.214443 0.633852
O O7 0.500000 0.000000 0.500000
O O8 0.897299 0.200437 0.623520
O O9 0.591336 0.213722 0.989390
O O10 0.253800 0.230850 0.276834
O O11 0.414118 0.171992 0.344981
O O12 0.581470 0.443260 0.236710
O O13 0.000000 0.000000 0.500000
O O14 0.103537 0.991620 0.657461
O O15 0.783964 0.717028 0.330306
#
# Coordination Sequence:
#
# PCOD8014761 Si02
#       7
#     2   2   2   2   2   2   2
#     4  10  22  42  69  97 129 170 221 272 327 383
#     4  12  25  44  62  95 139 179 206 262 341 399
#     4  11  24  44  64  97 133 171 220 265 333 388
#     4  10  22  41  69  96 125 169 222 276 315 379
#     4  10  22  39  63  97 129 169 220 271 321 379
#     4  11  22  41  65  97 131 170 222 270 324 386
#     4  10  21  41  72 101 120 167 229 279 317 373
#
# _framework density 21.317031
#
# number of rings (size 3 to 8) (size 9 to 14) (size 15 to 20)
#    0.000    1.429    2.857    2.571    2.000    3.429 
#    2.571    2.857    0.000    0.000    0.000    0.000 
#    0.000    0.000    0.000    0.000    0.000    0.000 
#
# Total GULP energy -173554.903429 kJ/mol
# GULP energy per Si atom -12396.778816 kJ/mol
# Density = 2.126851 g / cm^3
# Si number density = 21.317031 Si / 1000 Ang^3
#
#
#
# Elastic Constant Matrix: (Units=GPa)
#
#
# Indices 1 2 3 4 5 6 
#
# 1 114.3557 31.4502 50.1914 2.7533 -0.9700 18.8214
# 2 31.4502 111.6546 52.4135 3.0410 -1.9162 16.2524
# 3 50.1914 52.4135 86.3842 6.5062 -8.7005 5.9304
# 4 2.7533 3.0410 6.5062 19.3344 2.6377 -2.1949
# 5 -0.9700 -1.9162 -8.7005 2.6377 38.0880 1.0910
# 6 18.8214 16.2524 5.9304 -2.1949 1.0910 39.3575
#
#
#
# Elastic Compliance Matrix: (Units=1/GPa)
#
#
# Indices 1 2 3 4 5 6 
#
# 1 0.012729 0.000718 -0.007617 0.000219 -0.001246 -0.005189
# 2 0.000718 0.013281 -0.008292 0.000234 -0.001094 -0.004535
# 3 -0.007617 -0.008292 0.021650 -0.005138 0.004593 0.003391
# 4 0.000219 0.000234 -0.005138 0.054496 -0.005038 0.003752
# 5 -0.001246 -0.001094 0.004593 -0.005038 0.027586 -0.000690
# 6 -0.005189 -0.004535 0.003391 0.003752 -0.000690 0.029480
#
#
# Mechanical properties :
#
#
# Convention : Reuss Voigt Hill
#
# Bulk Modulus (GPa) = 57.87761 64.50049 61.18905
# Shear Modulus (GPa) = 25.59331 31.24528 28.41929
#
# Velocity S-wave (km/s) = 3.46873 3.83265 3.65523
# Velocity P-wave (km/s) = 6.57667 7.06464 6.82502
#
# Compressibility (1/GPa) = 0.01727784
#
# Stress axis : x y z
#
# Youngs Moduli (GPa) = 78.56354 75.29276 46.18891
#
# Poissons Ratio (x) = -0.05409 0.35183
# Poissons Ratio (y) = -0.05644 0.38302
# Poissons Ratio (z) = 0.59844 0.62436
#
# Static dielectric constant tensor:
#      x y z
#    x 4.304120 0.658600 -0.111680 
#    y 0.658600 4.186490 -0.056280 
#    z -0.111680 -0.056280 3.757050 
# 
# 
# High freq. dielectric constant tensor:
#      x y z
#    x 1.837250 0.028950 -0.009840 
#    y 0.028950 1.844270 0.005010 
#    z -0.009840 0.005010 1.815920 
# 
# From -- ./inp_files/259621.got.cif
#   From: 2010.06.25/outbox.cif.g09.slc.cpg/sg2_130_cif.got.tgz:259621.got - 2010.06.27 13:26:56.
