data_PCOD8014147
_publ_section_title
;
Structure prediction by ZEFSAII (Michael W. Deem and Ramdas Pophale) SiO2 
 PCOD8014147
Probable space group: P -1
;
_chemical_formula_sum "Si O2"
_cell_formula_units_Z 16
_cell_length_a 15.950923
_cell_length_b 10.793268
_cell_length_c 9.436768
_cell_angle_alpha 75.892663
_cell_angle_beta 55.281275
_cell_angle_gamma 121.648593
_cell_volume 717.809076
_symmetry_space_group_name_H-M "P -1"
_symmetry_group_IT_number 2
_symmetry_cell_setting 'triclinic'
loop_
_space_group_symop_operation_xyz
x,y,z
-x,-y,-z
loop_
_atom_site_type_symbol
_atom_site_label
_atom_site_fract_x
_atom_site_fract_y
_atom_site_fract_z
Si Si1 0.460900 0.568680 0.632799
Si Si2 0.005048 0.701964 0.479767
Si Si3 0.498694 0.099019 0.602924
Si Si4 0.210803 0.178100 0.625566
Si Si5 0.894699 0.512807 0.140062
Si Si6 0.690239 0.179897 0.859800
Si Si7 0.016595 0.833377 0.148375
Si Si8 0.922934 0.752206 0.825086
O O1 0.500000 0.500000 0.500000
O O2 0.520751 0.773528 0.464703
O O3 0.579792 0.651621 0.634398
O O4 0.253084 0.341971 0.952060
O O5 0.813547 0.436756 0.684836
O O6 0.957348 0.757567 0.627466
O O7 0.166552 0.774408 0.358956
O O8 0.087878 0.871542 0.223892
O O9 0.688208 0.272737 0.457739
O O10 0.500000 0.000000 0.500000
O O11 0.346329 0.905075 0.920344
O O12 0.183536 0.303319 0.614794
O O13 0.100084 0.003809 0.650549
O O14 0.152281 0.071171 0.870731
O O15 0.006358 0.693692 0.107715
O O16 0.880350 0.576273 0.992200
O O17 0.000000 0.500000 0.000000
O O18 0.500000 0.000000 0.000000
#
# Coordination Sequence:
#
# PCOD8014147 Si02
#       8
#     2   2   2   2   2   2   2   2
#     4  11  22  41  68  96 129 169 220 279 325 380
#     4  11  25  42  62  89 142 170 212 276 333 386
#     4  11  24  39  63  98 126 161 222 269 319 389
#     4  10  21  41  69  90 122 166 226 268 315 388
#     4  10  22  36  64  90 126 162 212 269 321 371
#     4  11  25  41  62  92 130 181 216 258 330 402
#     4  10  21  41  65  92 122 171 215 264 330 387
#     4  10  24  40  59  98 127 168 214 268 325 385
#
# _framework density 22.290049
#
# number of rings (size 3 to 8) (size 9 to 14) (size 15 to 20)
#    0.000    1.500    0.000    6.000   10.500    1.500 
#    0.000    0.625    0.000    0.000    0.000    0.000 
#    0.000    0.000    0.000    0.000    0.000    0.000 
#
# Total GULP energy -198262.391150 kJ/mol
# GULP energy per Si atom -12391.399447 kJ/mol
# Density = 2.223932 g / cm^3
# Si number density = 22.290049 Si / 1000 Ang^3
#
#
#
# Elastic Constant Matrix: (Units=GPa)
#
#
# Indices 1 2 3 4 5 6 
#
# 1 115.1104 59.0150 31.1031 9.7182 -33.3204 0.5479
# 2 59.0150 136.7812 44.4416 21.4397 -14.2688 -4.8319
# 3 31.1031 44.4416 57.8377 16.6753 -11.2864 4.7529
# 4 9.7182 21.4397 16.6753 37.9316 5.3365 -7.3369
# 5 -33.3204 -14.2688 -11.2864 5.3365 48.5694 2.0723
# 6 0.5479 -4.8319 4.7529 -7.3369 2.0723 41.6821
#
#
#
# Elastic Compliance Matrix: (Units=1/GPa)
#
#
# Indices 1 2 3 4 5 6 
#
# 1 0.013902 -0.004279 -0.002077 -0.001574 0.008018 -0.001118
# 2 -0.004279 0.011494 -0.006194 -0.002223 -0.000829 0.001745
# 3 -0.002077 -0.006194 0.027292 -0.009692 0.004406 -0.005728
# 4 -0.001574 -0.002223 -0.009692 0.034860 -0.008131 0.007409
# 5 0.008018 -0.000829 0.004406 -0.008131 0.027914 -0.003523
# 6 -0.001118 0.001745 -0.005728 0.007409 -0.003523 0.026340
#
#
# Mechanical properties :
#
#
# Convention : Reuss Voigt Hill
#
# Bulk Modulus (GPa) = 36.25287 64.31651 50.28469
# Shear Modulus (GPa) = 28.39322 37.31459 32.85391
#
# Velocity S-wave (km/s) = 3.57292 4.09595 3.84334
# Velocity P-wave (km/s) = 5.77238 7.16143 6.50410
#
# Compressibility (1/GPa) = 0.02758403
#
# Stress axis : x y z
#
# Youngs Moduli (GPa) = 71.93416 87.00567 36.64141
#
# Poissons Ratio (x) = 0.37233 0.07612
# Poissons Ratio (y) = 0.30783 0.22697
# Poissons Ratio (z) = 0.14944 0.53895
#
# Static dielectric constant tensor:
#      x y z
#    x 4.861920 0.362310 -0.498030 
#    y 0.362310 4.232280 -0.240620 
#    z -0.498030 -0.240620 4.171710 
# 
# 
# High freq. dielectric constant tensor:
#      x y z
#    x 1.886060 -0.005130 -0.019500 
#    y -0.005130 1.881340 0.000950 
#    z -0.019500 0.000950 1.865660 
# 
# From -- ./inp_files/306932.got.cif
#   From: 2010.06.25/outbox.cif.g09.slc.cpg/sg2_154_cif.got.tgz:306932.got - 2010.06.27 13:26:56.
