data_PCOD8014345
_publ_section_title
;
Structure prediction by ZEFSAII (Michael W. Deem and Ramdas Pophale) SiO2 
 PCOD8014345
Probable space group: P -1
;
_chemical_formula_sum "Si O2"
_cell_formula_units_Z 16
_cell_length_a 6.664712
_cell_length_b 23.695180
_cell_length_c 7.332026
_cell_angle_alpha 46.531150
_cell_angle_beta 64.786159
_cell_angle_gamma 82.374248
_cell_volume 737.245139
_symmetry_space_group_name_H-M "P -1"
_symmetry_group_IT_number 2
_symmetry_cell_setting 'triclinic'
loop_
_space_group_symop_operation_xyz
x,y,z
-x,-y,-z
loop_
_atom_site_type_symbol
_atom_site_label
_atom_site_fract_x
_atom_site_fract_y
_atom_site_fract_z
Si Si1 0.239558 0.221728 0.648540
Si Si2 0.600526 0.651758 0.986363
Si Si3 0.662911 0.913976 0.884907
Si Si4 0.320279 0.360561 0.589125
Si Si5 0.118739 0.579131 0.379135
Si Si6 0.259435 0.505470 0.827810
Si Si7 0.007059 0.949076 0.371882
Si Si8 0.156977 0.903223 0.044618
O O1 0.292705 0.264081 0.338283
O O2 0.319945 0.281970 0.650719
O O3 0.971590 0.175546 0.844609
O O4 0.366651 0.150533 0.794440
O O5 0.673983 0.658159 0.156316
O O6 0.330230 0.639734 0.063847
O O7 0.699083 0.582669 0.004770
O O8 0.836796 0.894661 0.705984
O O9 0.758123 0.003929 0.725381
O O10 0.419892 0.907322 0.905522
O O11 0.532827 0.434112 0.276492
O O12 0.081731 0.380314 0.574510
O O13 0.276653 0.549935 0.531242
O O14 0.000000 0.500000 0.500000
O O15 0.000000 0.500000 0.000000
O O16 0.070277 0.894467 0.308381
O O17 0.880892 0.014839 0.201904
#
# Coordination Sequence:
#
# PCOD8014345 Si02
#       8
#     2   2   2   2   2   2   2   2
#     4  11  27  40  58  98 129 170 205 248 324 394
#     4  11  24  42  61  90 125 162 215 267 318 382
#     4  10  21  41  67  96 132 167 212 257 313 376
#     4  11  24  43  62  88 129 160 214 271 317 383
#     4  11  20  40  67  89 109 163 219 266 326 370
#     4  11  23  38  66  90 115 160 217 274 318 375
#     4   9  20  40  70  99 125 164 215 265 298 372
#     4  10  21  41  66  98 133 165 212 256 316 377
#
# _framework density 21.702415999999999
#
# number of rings (size 3 to 8) (size 9 to 14) (size 15 to 20)
#    0.000    1.500    2.500    2.250    3.500    5.000 
#    0.000    0.000    0.000    0.000    0.000    0.000 
#    0.000    0.000    0.000    0.000    0.000    0.000 
#
# Total GULP energy -198232.894993 kJ/mol
# GULP energy per Si atom -12389.555937 kJ/mol
# Density = 2.165302 g / cm^3
# Si number density = 21.702416 Si / 1000 Ang^3
#
#
#
# Elastic Constant Matrix: (Units=GPa)
#
#
# Indices 1 2 3 4 5 6 
#
# 1 102.8957 11.4599 38.5010 -4.5735 -35.4981 -2.2766
# 2 11.4599 70.2186 24.0873 -3.2588 -17.1859 15.9732
# 3 38.5010 24.0873 98.7179 -8.5809 -7.8141 -5.8695
# 4 -4.5735 -3.2588 -8.5809 23.5938 3.9591 -4.0154
# 5 -35.4981 -17.1859 -7.8141 3.9591 38.8693 5.9491
# 6 -2.2766 15.9732 -5.8695 -4.0154 5.9491 32.8695
#
#
#
# Elastic Compliance Matrix: (Units=1/GPa)
#
#
# Indices 1 2 3 4 5 6 
#
# 1 0.018163 0.005616 -0.007592 -0.002743 0.018829 -0.006570
# 2 0.005616 0.023638 -0.007935 -0.004096 0.016861 -0.016067
# 3 -0.007592 -0.007935 0.015319 0.006002 -0.009271 0.008477
# 4 -0.002743 -0.004096 0.006002 0.046809 -0.009454 0.010302
# 5 0.018829 0.016861 -0.009271 -0.009454 0.052414 -0.019187
# 6 -0.006570 -0.016067 0.008477 0.010302 -0.019187 0.044021
#
#
# Mechanical properties :
#
#
# Convention : Reuss Voigt Hill
#
# Bulk Modulus (GPa) = 26.81179 46.65874 36.73526
# Shear Modulus (GPa) = 21.49439 32.25210 26.87324
#
# Velocity S-wave (km/s) = 3.15050 3.85919 3.52271
# Velocity P-wave (km/s) = 5.06116 6.43458 5.78874
#
# Compressibility (1/GPa) = 0.03729703
#
# Stress axis : x y z
#
# Youngs Moduli (GPa) = 55.05846 42.30432 65.27872
#
# Poissons Ratio (x) = -0.23757 0.49562
# Poissons Ratio (y) = -0.30919 0.51796
# Poissons Ratio (z) = 0.41803 0.33567
#
# Static dielectric constant tensor:
#      x y z
#    x 5.539810 -0.731490 0.127380 
#    y -0.731490 4.153610 0.009630 
#    z 0.127380 0.009630 4.165040 
# 
# 
# High freq. dielectric constant tensor:
#      x y z
#    x 1.866100 0.013940 -0.007220 
#    y 0.013940 1.828740 -0.000390 
#    z -0.007220 -0.000390 1.859330 
# 
# From -- ./inp_files/142995.got.cif
#   From: 2010.06.25/outbox.cif.g09.slc.cpg/sg2_72_cif.got.tgz:142995.got - 2010.06.27 13:26:56.
