data_PCOD8014730
_publ_section_title
;
Structure prediction by ZEFSAII (Michael W. Deem and Ramdas Pophale) SiO2 
 PCOD8014730
Probable space group: P -1
;
_chemical_formula_sum "Si O2"
_cell_formula_units_Z 16
_cell_length_a 12.416657
_cell_length_b 11.434407
_cell_length_c 9.304046
_cell_angle_alpha 97.139693
_cell_angle_beta 46.320218
_cell_angle_gamma 122.012093
_cell_volume 744.425454
_symmetry_space_group_name_H-M "P -1"
_symmetry_group_IT_number 2
_symmetry_cell_setting 'triclinic'
loop_
_space_group_symop_operation_xyz
x,y,z
-x,-y,-z
loop_
_atom_site_type_symbol
_atom_site_label
_atom_site_fract_x
_atom_site_fract_y
_atom_site_fract_z
Si Si1 0.015765 0.452802 0.824060
Si Si2 0.998484 0.875765 0.069178
Si Si3 0.998021 0.697842 0.781987
Si Si4 0.304374 0.960053 0.336961
Si Si5 0.427212 0.576222 0.485720
Si Si6 0.263943 0.890169 0.037466
Si Si7 0.637988 0.760764 0.556306
Si Si8 0.425520 0.472982 0.906459
O O1 0.028710 0.572669 0.729315
O O2 0.204408 0.466450 0.643850
O O3 0.836477 0.284975 0.922322
O O4 0.000000 0.500000 0.000000
O O5 0.182130 0.950268 0.014458
O O6 0.817231 0.780043 0.325792
O O7 0.999171 0.762076 0.946563
O O8 0.000000 0.000000 0.000000
O O9 0.164561 0.826375 0.550926
O O10 0.796727 0.620995 0.883970
O O11 0.230802 0.911047 0.235450
O O12 0.292291 0.090241 0.406378
O O13 0.512780 0.011159 0.180828
O O14 0.500000 0.500000 0.500000
O O15 0.495026 0.719085 0.545895
O O16 0.532511 0.624516 0.241364
O O17 0.530604 0.631730 0.754961
O O18 0.500000 0.500000 0.000000
#
# Coordination Sequence:
#
# PCOD8014730 Si02
#       8
#     2   2   2   2   2   2   2   2
#     4  12  23  43  76 102 135 183 234 295 348 416
#     4  12  25  45  73 106 140 183 242 292 351 425
#     4  12  26  45  69 109 138 183 244 292 352 426
#     4  11  27  48  68 101 145 190 234 288 365 427
#     4  10  21  41  71 103 135 180 233 286 348 416
#     4  11  26  48  71  99 143 190 234 290 364 422
#     4  11  23  45  72  99 142 186 228 293 350 425
#     4  11  25  43  69 104 142 181 240 292 352 416
#
# _framework density 21.493086999999999
#
# number of rings (size 3 to 8) (size 9 to 14) (size 15 to 20)
#    0.000    0.750    3.750    4.500    3.500    3.500 
#    4.500    0.000    0.000    0.000    0.000    0.000 
#    0.000    0.000    0.000    0.000    0.000    0.000 
#
# Total GULP energy -198327.230999 kJ/mol
# GULP energy per Si atom -12395.451937 kJ/mol
# Density = 2.144417 g / cm^3
# Si number density = 21.493087 Si / 1000 Ang^3
#
#
#
# Elastic Constant Matrix: (Units=GPa)
#
#
# Indices 1 2 3 4 5 6 
#
# 1 559.3358 163.5059 355.1048 -100.9159 25.6761 -138.1320
# 2 163.5059 167.1757 133.4208 -27.2026 22.2246 -31.3962
# 3 355.1048 133.4208 356.0393 -76.4070 18.1977 -99.6844
# 4 -100.9159 -27.2026 -76.4070 63.6613 0.7738 43.7656
# 5 25.6761 22.2246 18.1977 0.7738 37.9463 -5.9364
# 6 -138.1320 -31.3962 -99.6844 43.7656 -5.9364 102.1334
#
#
#
# Elastic Compliance Matrix: (Units=1/GPa)
#
#
# Indices 1 2 3 4 5 6 
#
# 1 0.005859 -0.001582 -0.004070 0.001959 -0.000722 0.002584
# 2 -0.001582 0.009511 -0.002252 0.000024 -0.003677 -0.001638
# 3 -0.004070 -0.002252 0.008458 0.001862 0.000177 0.001271
# 4 0.001959 0.000024 0.001862 0.025775 -0.003821 -0.006793
# 5 -0.000722 -0.003677 0.000177 -0.003821 0.029207 0.001402
# 6 0.002584 -0.001638 0.001271 -0.006793 0.001402 0.017015
#
#
# Mechanical properties :
#
#
# Convention : Reuss Voigt Hill
#
# Bulk Modulus (GPa) = 124.67336 265.17929 194.92633
# Shear Modulus (GPa) = 43.74214 69.44947 56.59581
#
# Velocity S-wave (km/s) = 4.51618 5.69057 5.13705
# Velocity P-wave (km/s) = 9.23725 12.91602 11.22832
#
# Compressibility (1/GPa) = 0.00802096
#
# Stress axis : x y z
#
# Youngs Moduli (GPa) = 170.68308 105.13730 118.23219
#
# Poissons Ratio (x) = 0.16635 0.48118
# Poissons Ratio (y) = 0.27005 0.26621
# Poissons Ratio (z) = 0.69464 0.23673
#
# Static dielectric constant tensor:
#      x y z
#    x 3.969510 -0.045830 0.060750 
#    y -0.045830 5.199350 0.267160 
#    z 0.060750 0.267160 4.163950 
# 
# 
# High freq. dielectric constant tensor:
#      x y z
#    x 1.842170 0.013040 -0.008920 
#    y 0.013040 1.852270 0.003850 
#    z -0.008920 0.003850 1.856830 
# 
# From -- ./inp_files/262464.got.cif
#   From: 2010.06.25/outbox.cif.g09.slc.cpg/sg2_132_cif.got.tgz:262464.got - 2010.06.27 13:26:56.
