data_PCOD8014165
_publ_section_title
;
Structure prediction by ZEFSAII (Michael W. Deem and Ramdas Pophale) SiO2 
 PCOD8014165
Probable space group: P -1
;
_chemical_formula_sum "Si O2"
_cell_formula_units_Z 16
_cell_length_a 15.173080
_cell_length_b 9.336701
_cell_length_c 12.076879
_cell_angle_alpha 93.869558
_cell_angle_beta 27.416011
_cell_angle_gamma 84.058140
_cell_volume 734.565425
_symmetry_space_group_name_H-M "P -1"
_symmetry_group_IT_number 2
_symmetry_cell_setting 'triclinic'
loop_
_space_group_symop_operation_xyz
x,y,z
-x,-y,-z
loop_
_atom_site_type_symbol
_atom_site_label
_atom_site_fract_x
_atom_site_fract_y
_atom_site_fract_z
Si Si1 0.214229 0.817604 0.934312
Si Si2 0.618708 0.384704 0.768339
Si Si3 0.379184 0.047876 0.850800
Si Si4 0.124641 0.426489 0.532429
Si Si5 0.424327 0.162540 0.032459
Si Si6 0.688962 0.481869 0.068600
Si Si7 0.602888 0.730480 0.351302
Si Si8 0.203513 0.221723 0.642505
O O1 0.300170 0.689278 0.926786
O O2 0.370907 0.776861 0.654963
O O3 0.207735 0.974544 0.009132
O O4 0.990124 0.834126 0.142537
O O5 0.832469 0.413111 0.517987
O O6 0.510537 0.426976 0.772741
O O7 0.500000 0.500000 0.000000
O O8 0.621498 0.215488 0.791395
O O9 0.397732 0.143692 0.730034
O O10 0.598286 0.917897 0.625530
O O11 0.315611 0.151102 0.037045
O O12 0.255379 0.292403 0.297520
O O13 0.164093 0.363871 0.610651
O O14 0.885067 0.474126 0.775322
O O15 0.500000 0.000000 0.000000
O O16 0.681666 0.563401 0.199295
O O17 0.761353 0.723761 0.272060
#
# Coordination Sequence:
#
# PCOD8014165 Si02
#       8
#     2   2   2   2   2   2   2   2
#     4  10  23  39  66  90 127 168 201 255 313 363
#     4  10  22  40  65  89 122 167 198 256 312 354
#     4  11  22  42  61  92 128 163 207 258 310 362
#     4  10  23  42  66  92 127 163 204 260 303 370
#     4  11  22  42  68  90 124 165 208 255 309 370
#     4  11  23  42  62  98 124 161 211 252 309 370
#     4  11  23  39  63  92 129 163 206 259 303 370
#     4  10  21  41  65  93 126 162 209 252 310 365
#
# _framework density 21.781586000000001
#
# number of rings (size 3 to 8) (size 9 to 14) (size 15 to 20)
#    0.000    1.500    2.500    3.375    1.750    7.000 
#    2.250    3.750    0.000    0.000    0.000    0.000 
#    0.000    0.000    0.000    0.000    0.000    0.000 
#
# Total GULP energy -198368.659969 kJ/mol
# GULP energy per Si atom -12398.041248 kJ/mol
# Density = 2.173201 g / cm^3
# Si number density = 21.781586 Si / 1000 Ang^3
#
#
#
# Elastic Constant Matrix: (Units=GPa)
#
#
# Indices 1 2 3 4 5 6 
#
# 1 84.9517 28.7882 39.8002 -14.8215 12.9140 17.4236
# 2 28.7882 109.6690 24.9099 -31.4014 11.1462 15.2765
# 3 39.8002 24.9099 68.5156 -18.1208 9.6024 23.5893
# 4 -14.8215 -31.4014 -18.1208 36.5772 0.9040 1.7708
# 5 12.9140 11.1462 9.6024 0.9040 28.7280 1.2124
# 6 17.4236 15.2765 23.5893 1.7708 1.2124 35.8801
#
#
#
# Elastic Compliance Matrix: (Units=1/GPa)
#
#
# Indices 1 2 3 4 5 6 
#
# 1 0.017421 -0.001214 -0.007159 0.002747 -0.004919 -0.003206
# 2 -0.001214 0.014479 0.002594 0.013748 -0.006044 -0.007755
# 3 -0.007159 0.002594 0.028354 0.014357 -0.007011 -0.016741
# 4 0.002747 0.013748 0.014357 0.048569 -0.012111 -0.018615
# 5 -0.004919 -0.006044 -0.007011 -0.012111 0.041720 0.008760
# 6 -0.003206 -0.007755 -0.016741 -0.018615 0.008760 0.044358
#
#
# Mechanical properties :
#
#
# Convention : Reuss Voigt Hill
#
# Bulk Modulus (GPa) = 20.53495 50.01475 35.27485
# Shear Modulus (GPa) = 22.45262 31.54627 26.99944
#
# Velocity S-wave (km/s) = 3.21410 3.80978 3.52455
# Velocity P-wave (km/s) = 4.81893 6.50879 5.72654
#
# Compressibility (1/GPa) = 0.04869747
#
# Stress axis : x y z
#
# Youngs Moduli (GPa) = 57.40112 69.06634 35.26818
#
# Poissons Ratio (x) = 0.08384 0.25248
# Poissons Ratio (y) = 0.06968 -0.09150
# Poissons Ratio (z) = 0.41093 -0.17919
#
# Static dielectric constant tensor:
#      x y z
#    x 4.238720 0.304740 -0.105260 
#    y 0.304740 4.457800 -0.472410 
#    z -0.105260 -0.472410 4.328630 
# 
# 
# High freq. dielectric constant tensor:
#      x y z
#    x 1.859900 0.005140 0.013990 
#    y 0.005140 1.872370 -0.018080 
#    z 0.013990 -0.018080 1.842010 
# 
# From -- ./inp_files/397514.got.cif
#   From: 2010.06.25/outbox.cif.g09.slc.cpg/sg2_199_cif.got.tgz:397514.got - 2010.06.27 13:26:56.
