data_PCOD8014501
_publ_section_title
;
Structure prediction by ZEFSAII (Michael W. Deem and Ramdas Pophale) SiO2 
 PCOD8014501
Probable space group: P -1
;
_chemical_formula_sum "Si O2"
_cell_formula_units_Z 16
_cell_length_a 15.130604
_cell_length_b 11.955339
_cell_length_c 12.306618
_cell_angle_alpha 73.777621
_cell_angle_beta 30.409605
_cell_angle_gamma 53.859014
_cell_volume 753.384560
_symmetry_space_group_name_H-M "P -1"
_symmetry_group_IT_number 2
_symmetry_cell_setting 'triclinic'
loop_
_space_group_symop_operation_xyz
x,y,z
-x,-y,-z
loop_
_atom_site_type_symbol
_atom_site_label
_atom_site_fract_x
_atom_site_fract_y
_atom_site_fract_z
Si Si1 0.748454 0.198133 0.987408
Si Si2 0.335080 0.339636 0.985021
Si Si3 0.730632 0.182648 0.252338
Si Si4 0.979274 0.710696 0.315065
Si Si5 0.193850 0.798619 0.609023
Si Si6 0.805583 0.835536 0.912530
Si Si7 0.543297 0.802334 0.873380
Si Si8 0.554674 0.030462 0.546728
O O1 0.834884 0.283428 0.828331
O O2 0.640221 0.270113 0.206163
O O3 0.525163 0.255134 0.134665
O O4 0.979678 0.998980 0.790052
O O5 0.133673 0.538265 0.135186
O O6 0.197233 0.286971 0.109546
O O7 0.431706 0.282815 0.020744
O O8 0.569236 0.255495 0.683867
O O9 0.739185 0.273588 0.317549
O O10 0.547802 0.171730 0.498533
O O11 0.000000 0.000000 0.000000
O O12 0.807431 0.736825 0.583364
O O13 0.822923 0.856585 0.351317
O O14 0.091092 0.738414 0.663896
O O15 0.669805 0.997027 0.936792
O O16 0.660517 0.905301 0.161023
O O17 0.500000 0.000000 0.500000
#
# Coordination Sequence:
#
# PCOD8014501 Si02
#       8
#     2   2   2   2   2   2   2   2
#     4  10  21  39  66  91 112 157 218 250 291 359
#     4  12  24  40  58  89 135 160 191 259 314 362
#     4  10  16  34  64  86 116 144 201 261 282 348
#     4  11  23  39  61  92 123 158 204 250 314 362
#     4  10  20  38  61  90 117 158 202 252 305 353
#     4  10  22  38  62  90 120 159 211 249 296 359
#     4  10  23  41  63  88 116 167 218 246 291 357
#     4  11  19  37  67  88 117 159 211 249 291 361
#
# _framework density 21.237493000000001
#
# number of rings (size 3 to 8) (size 9 to 14) (size 15 to 20)
#    0.000    1.500    3.750    4.500    0.000    4.500 
#    0.000    1.250    0.000    0.000    0.000    0.000 
#    0.000    0.000    0.000    0.000    0.000    0.000 
#
# Total GULP energy -198355.647401 kJ/mol
# GULP energy per Si atom -12397.227963 kJ/mol
# Density = 2.118916 g / cm^3
# Si number density = 21.237493 Si / 1000 Ang^3
#
#
#
# Elastic Constant Matrix: (Units=GPa)
#
#
# Indices 1 2 3 4 5 6 
#
# 1 128.8841 38.3795 34.5745 -15.4167 5.8592 16.6919
# 2 38.3795 61.2553 22.5748 -8.0024 -6.5170 24.4464
# 3 34.5745 22.5748 67.2947 -20.5927 1.3340 2.0477
# 4 -15.4167 -8.0024 -20.5927 22.7978 4.5960 -1.8082
# 5 5.8592 -6.5170 1.3340 4.5960 27.8016 -17.4790
# 6 16.6919 24.4464 2.0477 -1.8082 -17.4790 26.4307
#
#
#
# Elastic Compliance Matrix: (Units=1/GPa)
#
#
# Indices 1 2 3 4 5 6 
#
# 1 0.012177 -0.001316 -0.003200 0.006313 -0.012679 -0.014178
# 2 -0.001316 0.037050 -0.008444 0.004939 -0.020280 -0.045857
# 3 -0.003200 -0.008444 0.024402 0.017544 0.000635 0.009561
# 4 0.006313 0.004939 0.017544 0.069318 -0.026917 -0.022973
# 5 -0.012679 -0.020280 0.000635 -0.026917 0.092336 0.085936
# 6 -0.014178 -0.045857 0.009561 -0.022973 0.085936 0.143721
#
#
# Mechanical properties :
#
#
# Convention : Reuss Voigt Hill
#
# Bulk Modulus (GPa) = 20.96046 49.83241 35.39643
# Shear Modulus (GPa) = 11.88135 26.19970 19.04053
#
# Velocity S-wave (km/s) = 2.36784 3.51615 2.99750
# Velocity P-wave (km/s) = 4.16732 6.32453 5.35566
#
# Compressibility (1/GPa) = 0.04770888
#
# Stress axis : x y z
#
# Youngs Moduli (GPa) = 82.12208 26.99024 40.98053
#
# Poissons Ratio (x) = 0.03552 0.13114
# Poissons Ratio (y) = 0.10808 0.34604
# Poissons Ratio (z) = 0.26280 0.22791
#
# Static dielectric constant tensor:
#      x y z
#    x 4.102550 0.038970 -0.047310 
#    y 0.038970 3.758040 -0.280950 
#    z -0.047310 -0.280950 3.796910 
# 
# 
# High freq. dielectric constant tensor:
#      x y z
#    x 1.842620 0.012640 -0.001900 
#    y 0.012640 1.809150 -0.026990 
#    z -0.001900 -0.026990 1.825920 
# 
# From -- ./inp_files/271745.got.cif
#   From: 2010.06.25/outbox.cif.g09.slc.cpg/sg2_136_cif.got.tgz:271745.got - 2010.06.27 13:26:56.
