data_PCOD8014682
_publ_section_title
;
Structure prediction by ZEFSAII (Michael W. Deem and Ramdas Pophale) SiO2 
 PCOD8014682
Probable space group: P -1
;
_chemical_formula_sum "Si O2"
_cell_formula_units_Z 14
_cell_length_a 13.629240
_cell_length_b 21.278627
_cell_length_c 14.100226
_cell_angle_alpha 25.190626
_cell_angle_beta 146.739926
_cell_angle_gamma 158.669337
_cell_volume 632.511279
_symmetry_space_group_name_H-M "P -1"
_symmetry_group_IT_number 2
_symmetry_cell_setting 'triclinic'
loop_
_space_group_symop_operation_xyz
x,y,z
-x,-y,-z
loop_
_atom_site_type_symbol
_atom_site_label
_atom_site_fract_x
_atom_site_fract_y
_atom_site_fract_z
Si Si1 0.753639 0.472760 0.478922
Si Si2 0.291845 0.059403 0.284850
Si Si3 0.437228 0.856589 0.995103
Si Si4 0.854472 0.204115 0.992880
Si Si5 0.342293 0.916354 0.335660
Si Si6 0.534668 0.503982 0.913413
Si Si7 0.268312 0.435723 0.460164
O O1 0.773694 0.312775 0.734944
O O2 0.526263 0.376094 0.349771
O O3 0.674103 0.521442 0.439769
O O4 0.039883 0.694719 0.362174
O O5 0.339724 0.047771 0.229809
O O6 0.014263 0.824844 0.425523
O O7 0.534760 0.150164 0.422355
O O8 0.310907 0.248174 0.045067
O O9 0.715417 0.000992 0.084622
O O10 0.487938 0.939490 0.816495
O O11 0.272936 0.879871 0.889554
O O12 0.255691 0.596837 0.193971
O O13 0.164731 0.365139 0.041747
O O14 0.500000 0.500000 0.000000
O O15 0.500000 0.500000 0.500000
#
# Coordination Sequence:
#
# PCOD8014682 Si02
#       7
#     2   2   2   2   2   2   2
#     4  10  23  43  68  97 128 175 213 268 326 373
#     4  10  24  42  63  99 131 164 224 267 313 392
#     4  10  23  41  70  91 130 182 205 264 340 366
#     4  10  23  47  64  98 136 163 222 267 312 403
#     4  10  21  41  70  92 129 172 216 267 323 380
#     4  12  26  40  71  99 127 172 219 268 323 383
#     4  10  24  41  63  96 135 168 216 269 320 390
#
# _framework density 22.133994000000001
#
# number of rings (size 3 to 8) (size 9 to 14) (size 15 to 20)
#    0.000    1.714    1.429    0.857   10.000    4.000 
#    0.000    6.429    0.000    0.000    0.000    0.000 
#    0.000    0.000    0.000    0.000    0.000    0.000 
#
# Total GULP energy -173522.746330 kJ/mol
# GULP energy per Si atom -12394.481881 kJ/mol
# Density = 2.208362 g / cm^3
# Si number density = 22.133994 Si / 1000 Ang^3
#
#
#
# Elastic Constant Matrix: (Units=GPa)
#
#
# Indices 1 2 3 4 5 6 
#
# 1 113.0590 39.8724 35.0750 3.4904 -30.3861 14.2555
# 2 39.8724 119.0569 44.7690 2.4431 -3.1352 15.7778
# 3 35.0750 44.7690 79.0256 1.5490 -13.1048 10.1310
# 4 3.4904 2.4431 1.5490 34.5190 2.4169 1.3853
# 5 -30.3861 -3.1352 -13.1048 2.4169 36.1695 -2.8662
# 6 14.2555 15.7778 10.1310 1.3853 -2.8662 27.1052
#
#
#
# Elastic Compliance Matrix: (Units=1/GPa)
#
#
# Indices 1 2 3 4 5 6 
#
# 1 0.013917 -0.003044 -0.002235 -0.001682 0.010451 -0.003521
# 2 -0.003044 0.011888 -0.005554 0.000131 -0.003837 -0.003656
# 3 -0.002235 -0.005554 0.017678 -0.000379 0.003932 -0.001764
# 4 -0.001682 0.000131 -0.000379 0.029435 -0.003580 -0.000933
# 5 0.010451 -0.003837 0.003932 -0.003580 0.037714 -0.000561
# 6 -0.003521 -0.003656 -0.001764 -0.000933 -0.000561 0.041521
#
#
# Mechanical properties :
#
#
# Convention : Reuss Voigt Hill
#
# Bulk Modulus (GPa) = 45.83599 61.17490 53.50545
# Shear Modulus (GPa) = 27.61054 32.32043 29.96548
#
# Velocity S-wave (km/s) = 3.53572 3.82542 3.68342
# Velocity P-wave (km/s) = 6.11734 6.87097 6.50508
#
# Compressibility (1/GPa) = 0.02181692
#
# Stress axis : x y z
#
# Youngs Moduli (GPa) = 71.85706 84.11902 56.56764
#
# Poissons Ratio (x) = 0.25606 0.12642
# Poissons Ratio (y) = 0.21873 0.31417
# Poissons Ratio (z) = 0.16059 0.46719
#
# Static dielectric constant tensor:
#      x y z
#    x 4.194060 0.099330 0.065300 
#    y 0.099330 4.363710 -0.219480 
#    z 0.065300 -0.219480 4.022860 
# 
# 
# High freq. dielectric constant tensor:
#      x y z
#    x 1.881370 0.001550 -0.008750 
#    y 0.001550 1.867850 -0.015450 
#    z -0.008750 -0.015450 1.862820 
# 
# From -- ./inp_files/184321.got.cif
#   From: 2010.06.25/outbox.cif.g09.slc.cpg/sg2_93_cif.got.tgz:184321.got - 2010.06.27 13:26:56.
