data_PCOD8014120
_publ_section_title
;
Structure prediction by ZEFSAII (Michael W. Deem and Ramdas Pophale) SiO2 
 PCOD8014120
Probable space group: P -1
;
_chemical_formula_sum "Si O2"
_cell_formula_units_Z 14
_cell_length_a 7.268495
_cell_length_b 14.224364
_cell_length_c 22.715357
_cell_angle_alpha 17.775542
_cell_angle_beta 71.299118
_cell_angle_gamma 79.219268
_cell_volume 619.729468
_symmetry_space_group_name_H-M "P -1"
_symmetry_group_IT_number 2
_symmetry_cell_setting 'triclinic'
loop_
_space_group_symop_operation_xyz
x,y,z
-x,-y,-z
loop_
_atom_site_type_symbol
_atom_site_label
_atom_site_fract_x
_atom_site_fract_y
_atom_site_fract_z
Si Si1 0.986398 0.352507 0.279859
Si Si2 0.807803 0.537703 0.692251
Si Si3 0.155922 0.271047 0.198267
Si Si4 0.407288 0.421470 0.975924
Si Si5 0.370466 0.497856 0.804123
Si Si6 0.669356 0.336239 0.592038
Si Si7 0.864207 0.264215 0.732501
O O1 0.737754 0.280102 0.349141
O O2 0.121191 0.592079 0.176936
O O3 0.083306 0.488095 0.123559
O O4 0.000000 0.000000 0.500000
O O5 0.586577 0.566043 0.708133
O O6 0.773904 0.275766 0.799712
O O7 0.985700 0.889805 0.442701
O O8 0.198208 0.391316 0.053750
O O9 0.386807 0.305130 0.175878
O O10 0.422460 0.058865 0.181194
O O11 0.403681 0.594597 0.811344
O O12 0.188354 0.122461 0.043093
O O13 0.500000 0.500000 0.500000
O O14 0.739372 0.388610 0.622468
O O15 0.881954 0.530595 0.416397
#
# Coordination Sequence:
#
# PCOD8014120 Si02
#       7
#     2   2   2   2   2   2   2
#     4  10  24  42  63  94 130 169 212 263 319 383
#     4  11  22  44  63  94 134 167 211 268 316 387
#     4  10  21  41  65  89 131 167 213 263 314 378
#     4  10  21  42  65  96 125 169 219 261 316 384
#     4  11  24  40  70  93 127 171 216 263 323 378
#     4  10  22  41  68  94 133 165 207 272 323 372
#     4  10  23  41  64  99 127 166 218 261 320 386
#
# _framework density 22.590502999999998
#
# number of rings (size 3 to 8) (size 9 to 14) (size 15 to 20)
#    0.000    1.714    2.857    0.429    2.000    4.571 
#    0.000    2.857    0.000    0.000    0.000    0.000 
#    0.000    0.000    0.000    0.000    0.000    0.000 
#
# Total GULP energy -173473.695715 kJ/mol
# GULP energy per Si atom -12390.978265 kJ/mol
# Density = 2.253909 g / cm^3
# Si number density = 22.590503 Si / 1000 Ang^3
#
#
#
# Elastic Constant Matrix: (Units=GPa)
#
#
# Indices 1 2 3 4 5 6 
#
# 1 147.2445 38.7325 26.5119 10.3051 -4.5065 -18.4930
# 2 38.7325 154.3721 -2.9317 25.7610 0.3028 -2.6338
# 3 26.5119 -2.9317 59.6943 4.7422 -13.7819 -8.0464
# 4 10.3051 25.7610 4.7422 24.8216 -4.8512 -11.6092
# 5 -4.5065 0.3028 -13.7819 -4.8512 28.6054 3.8594
# 6 -18.4930 -2.6338 -8.0464 -11.6092 3.8594 21.2621
#
#
#
# Elastic Compliance Matrix: (Units=1/GPa)
#
#
# Indices 1 2 3 4 5 6 
#
# 1 0.008881 -0.002729 -0.003429 0.003447 -0.000733 0.008104
# 2 -0.002729 0.009088 0.001445 -0.012092 -0.000918 -0.007137
# 3 -0.003429 0.001445 0.020886 -0.000929 0.008949 0.002969
# 4 0.003447 -0.012092 -0.000929 0.071043 0.007056 0.038658
# 5 -0.000733 -0.000918 0.008949 0.007056 0.040477 -0.000859
# 6 0.008104 -0.007137 0.002969 0.038658 -0.000859 0.075583
#
#
# Mechanical properties :
#
#
# Convention : Reuss Voigt Hill
#
# Bulk Modulus (GPa) = 33.97985 53.99292 43.98639
# Shear Modulus (GPa) = 20.39206 34.87103 27.63154
#
# Velocity S-wave (km/s) = 3.00773 3.93315 3.50115
# Velocity P-wave (km/s) = 5.20924 6.67674 5.98811
#
# Compressibility (1/GPa) = 0.02942921
#
# Stress axis : x y z
#
# Youngs Moduli (GPa) = 112.60343 110.03620 47.87891
#
# Poissons Ratio (x) = 0.30027 0.16417
# Poissons Ratio (y) = 0.30728 -0.06919
# Poissons Ratio (z) = 0.38611 -0.15901
#
# Static dielectric constant tensor:
#      x y z
#    x 4.188590 0.411550 -0.217040 
#    y 0.411550 4.847950 0.220960 
#    z -0.217040 0.220960 3.931950 
# 
# 
# High freq. dielectric constant tensor:
#      x y z
#    x 1.878840 0.010560 -0.030280 
#    y 0.010560 1.908540 0.011440 
#    z -0.030280 0.011440 1.879160 
# 
# From -- ./inp_files/431803.got.cif
#   From: 2010.06.25/outbox.cif.g09.slc.cpg/sg2_216_cif.got.tgz:431803.got - 2010.06.27 13:26:56.
