data_PCOD8014773
_publ_section_title
;
Structure prediction by ZEFSAII (Michael W. Deem and Ramdas Pophale) SiO2 
 PCOD8014773
Probable space group: P -1
;
_chemical_formula_sum "Si O2"
_cell_formula_units_Z 12
_cell_length_a 9.158947
_cell_length_b 11.231300
_cell_length_c 13.778521
_cell_angle_alpha 31.554941
_cell_angle_beta 125.464967
_cell_angle_gamma 136.151776
_cell_volume 511.519218
_symmetry_space_group_name_H-M "P -1"
_symmetry_group_IT_number 2
_symmetry_cell_setting 'triclinic'
loop_
_space_group_symop_operation_xyz
x,y,z
-x,-y,-z
loop_
_atom_site_type_symbol
_atom_site_label
_atom_site_fract_x
_atom_site_fract_y
_atom_site_fract_z
Si Si1 0.174947 0.138835 0.375609
Si Si2 0.082051 0.899743 0.015347
Si Si3 0.816438 0.533373 0.619416
Si Si4 0.395892 0.268060 0.728745
Si Si5 0.760646 0.091613 0.266105
Si Si6 0.691982 0.557689 0.967999
O O1 0.333073 0.310330 0.231188
O O2 0.019291 0.251846 0.254490
O O3 0.311612 0.149690 0.514333
O O4 0.026109 0.821846 0.514196
O O5 0.119271 0.680172 0.230093
O O6 0.913276 0.773199 0.951857
O O7 0.299109 0.143975 0.882906
O O8 0.000000 0.000000 0.000000
O O9 0.653378 0.433210 0.719247
O O10 0.686699 0.540870 0.471345
O O11 0.329378 0.031905 0.787808
O O12 0.679235 0.282286 0.133110
O O13 0.500000 0.500000 0.000000
#
# Coordination Sequence:
#
# PCOD8014773 Si02
#       6
#     2   2   2   2   2   2
#     4  10  21  43  69  95 123 166 218 270 319 366
#     4  12  26  45  61  95 137 176 206 258 323 387
#     4  10  21  44  68  95 127 162 219 266 313 376
#     4  10  23  43  70 100 122 163 222 267 318 373
#     4  10  21  41  72  94 123 163 218 273 316 365
#     4  12  26  44  62  97 136 171 211 258 323 387
#
# _framework density 23.459529
#
# number of rings (size 3 to 8) (size 9 to 14) (size 15 to 20)
#    0.000    1.333    5.000    1.000    2.333    1.333 
#   12.000    0.000    0.000    0.000    0.000    0.000 
#    0.000    0.000    0.000    0.000    0.000    0.000 
#
# Total GULP energy -148766.332110 kJ/mol
# GULP energy per Si atom -12397.194342 kJ/mol
# Density = 2.340613 g / cm^3
# Si number density = 23.459529 Si / 1000 Ang^3
#
#
#
# Elastic Constant Matrix: (Units=GPa)
#
#
# Indices 1 2 3 4 5 6 
#
# 1 170.0335 23.4624 103.1502 -15.6163 -2.1420 -21.7707
# 2 23.4624 47.3216 18.8759 0.1662 4.0333 -1.7029
# 3 103.1502 18.8759 116.0542 -12.2106 -4.8937 -10.2087
# 4 -15.6163 0.1662 -12.2106 17.9041 -8.2310 -4.3417
# 5 -2.1420 4.0333 -4.8937 -8.2310 46.8273 -0.7079
# 6 -21.7707 -1.7029 -10.2087 -4.3417 -0.7079 30.4771
#
#
#
# Elastic Compliance Matrix: (Units=1/GPa)
#
#
# Indices 1 2 3 4 5 6 
#
# 1 0.014690 -0.002722 -0.011064 0.007740 0.001228 0.007766
# 2 -0.002722 0.023721 -0.002500 -0.006564 -0.003620 -0.002476
# 3 -0.011064 -0.002500 0.019365 0.004530 0.002516 -0.000853
# 4 0.007740 -0.006564 0.004530 0.077122 0.015221 0.018019
# 5 0.001228 -0.003620 0.002516 0.015221 0.024726 0.004260
# 6 0.007766 -0.002476 -0.000853 0.018019 0.004260 0.040601
#
#
# Mechanical properties :
#
#
# Convention : Reuss Voigt Hill
#
# Bulk Modulus (GPa) = 39.67711 69.37629 54.52670
# Shear Modulus (GPa) = 20.72989 31.56974 26.14982
#
# Velocity S-wave (km/s) = 2.97584 3.67237 3.34230
# Velocity P-wave (km/s) = 5.36258 6.90063 6.17964
#
# Compressibility (1/GPa) = 0.02520345
#
# Stress axis : x y z
#
# Youngs Moduli (GPa) = 68.07562 42.15615 51.63991
#
# Poissons Ratio (x) = 0.11476 0.57135
# Poissons Ratio (y) = 0.18532 0.12909
# Poissons Ratio (z) = 0.75320 0.10538
#
# Static dielectric constant tensor:
#      x y z
#    x 4.110000 0.136520 -0.065430 
#    y 0.136520 4.387050 0.078410 
#    z -0.065430 0.078410 4.414150 
# 
# 
# High freq. dielectric constant tensor:
#      x y z
#    x 1.903550 0.003080 -0.000120 
#    y 0.003080 1.934420 -0.003960 
#    z -0.000120 -0.003960 1.942100 
# 
# From -- ./inp_files/262220.got.cif
#   From: 2010.06.25/outbox.cif.g09.slc.cpg/sg2_132_cif.got.tgz:262220.got - 2010.06.27 13:26:56.
