data_PCOD8014573
_publ_section_title
;
Structure prediction by ZEFSAII (Michael W. Deem and Ramdas Pophale) SiO2 
 PCOD8014573
Probable space group: P -1
;
_chemical_formula_sum "Si O2"
_cell_formula_units_Z 10
_cell_length_a 11.784664
_cell_length_b 12.393678
_cell_length_c 6.811860
_cell_angle_alpha 140.972284
_cell_angle_beta 118.272866
_cell_angle_gamma 47.045370
_cell_volume 455.164999
_symmetry_space_group_name_H-M "P -1"
_symmetry_group_IT_number 2
_symmetry_cell_setting 'triclinic'
loop_
_space_group_symop_operation_xyz
x,y,z
-x,-y,-z
loop_
_atom_site_type_symbol
_atom_site_label
_atom_site_fract_x
_atom_site_fract_y
_atom_site_fract_z
Si Si1 0.610700 0.628995 0.442802
Si Si2 0.677508 0.838587 0.480815
Si Si3 0.779323 0.477834 0.763642
Si Si4 0.075740 0.089424 0.320152
Si Si5 0.717704 0.253304 0.718751
O O1 0.680173 0.748433 0.569530
O O2 0.649801 0.595527 0.656127
O O3 0.424217 0.771297 0.466265
O O4 0.680735 0.408812 0.086626
O O5 0.774865 0.942179 0.716941
O O6 0.500000 0.000000 0.500000
O O7 0.768088 0.650944 0.135708
O O8 0.748060 0.327912 0.646689
O O9 0.950550 0.333340 0.603963
O O10 0.132681 0.969076 0.405040
O O11 0.000000 0.000000 0.000000
#
# Coordination Sequence:
#
# PCOD8014573 Si02
#       5
#     2   2   2   2   2
#     4  10  21  42  69  98 129 176 219 268 324 392
#     4  11  25  46  67  95 137 173 221 271 321 395
#     4  11  24  42  68 100 131 172 218 273 331 382
#     4  12  24  45  68 100 134 174 215 274 333 383
#     4  10  21  41  68  98 136 168 220 269 322 397
#
# _framework density 21.970054000000001
#
# number of rings (size 3 to 8) (size 9 to 14) (size 15 to 20)
#    0.000    1.200    4.000    1.800    0.000    3.200 
#    7.200    0.000    0.000    0.000    0.000    0.000 
#    0.000    0.000    0.000    0.000    0.000    0.000 
#
# Total GULP energy -124039.358333 kJ/mol
# GULP energy per Si atom -12403.935833 kJ/mol
# Density = 2.192005 g / cm^3
# Si number density = 21.970054 Si / 1000 Ang^3
#
#
#
# Elastic Constant Matrix: (Units=GPa)
#
#
# Indices 1 2 3 4 5 6 
#
# 1 140.3105 46.4482 44.9407 -12.0552 27.7799 4.6040
# 2 46.4482 141.6403 42.0275 -17.7536 10.4508 4.9529
# 3 44.9407 42.0275 55.8062 -5.1663 8.0876 0.4032
# 4 -12.0552 -17.7536 -5.1663 37.7243 -1.8773 -13.0879
# 5 27.7799 10.4508 8.0876 -1.8773 32.1203 3.5337
# 6 4.6040 4.9529 0.4032 -13.0879 3.5337 46.8076
#
#
#
# Elastic Compliance Matrix: (Units=1/GPa)
#
#
# Indices 1 2 3 4 5 6 
#
# 1 0.011407 -0.000763 -0.007319 0.001953 -0.007676 0.000147
# 2 -0.000763 0.009637 -0.006220 0.003448 -0.000722 0.000127
# 3 -0.007319 -0.006220 0.028232 -0.001085 0.001099 0.000748
# 4 0.001953 0.003448 -0.001085 0.031427 -0.001621 0.008362
# 5 -0.007676 -0.000722 0.001099 -0.001621 0.037910 -0.002493
# 6 0.000147 0.000127 0.000748 0.008362 -0.002493 0.023856
#
#
# Mechanical properties :
#
#
# Convention : Reuss Voigt Hill
#
# Bulk Modulus (GPa) = 48.37557 67.17663 57.77610
# Shear Modulus (GPa) = 28.09571 36.95314 32.52443
#
# Velocity S-wave (km/s) = 3.57994 4.10564 3.85177
# Velocity P-wave (km/s) = 6.25736 7.28820 6.79237
#
# Compressibility (1/GPa) = 0.02067159
#
# Stress axis : x y z
#
# Youngs Moduli (GPa) = 87.66871 103.76676 35.42021
#
# Poissons Ratio (x) = 0.07916 0.25924
# Poissons Ratio (y) = 0.06688 0.22033
# Poissons Ratio (z) = 0.64165 0.64547
#
# Static dielectric constant tensor:
#      x y z
#    x 4.019240 0.005850 -0.037350 
#    y 0.005850 4.049220 0.090250 
#    z -0.037350 0.090250 3.713660 
# 
# 
# High freq. dielectric constant tensor:
#      x y z
#    x 1.870460 0.000650 0.000460 
#    y 0.000650 1.879630 0.002060 
#    z 0.000460 0.002060 1.844010 
# 
# From -- ./inp_files/15207.got.cif
#   From: 2010.06.25/outbox.cif.g09.slc.cpg/sg2_8_cif.got.tgz:15207.got - 2010.06.27 13:26:56.
