data_PCOD8014226
_publ_section_title
;
Structure prediction by ZEFSAII (Michael W. Deem and Ramdas Pophale) SiO2 
 PCOD8014226
Probable space group: P -1
;
_chemical_formula_sum "Si O2"
_cell_formula_units_Z 14
_cell_length_a 11.897541
_cell_length_b 19.496219
_cell_length_c 17.178305
_cell_angle_alpha 158.603948
_cell_angle_beta 153.252395
_cell_angle_gamma 39.171791
_cell_volume 614.712425
_symmetry_space_group_name_H-M "P -1"
_symmetry_group_IT_number 2
_symmetry_cell_setting 'triclinic'
loop_
_space_group_symop_operation_xyz
x,y,z
-x,-y,-z
loop_
_atom_site_type_symbol
_atom_site_label
_atom_site_fract_x
_atom_site_fract_y
_atom_site_fract_z
Si Si1 0.649096 0.462203 0.293396
Si Si2 0.424285 0.122921 0.672521
Si Si3 0.494684 0.625949 0.513727
Si Si4 0.874797 0.055100 0.173656
Si Si5 0.905193 0.691818 0.554467
Si Si6 0.595138 0.298662 0.808790
Si Si7 0.850394 0.442744 0.634136
O O1 0.449002 0.500478 0.272637
O O2 0.785807 0.663407 0.538115
O O3 0.894525 0.431857 0.460273
O O4 0.481538 0.263784 0.932663
O O5 0.637972 0.249474 0.873474
O O6 0.124031 0.062413 0.390176
O O7 0.480250 0.918407 0.511440
O O8 0.699939 0.578249 0.647284
O O9 0.215707 0.580476 0.338442
O O10 0.625801 0.856671 0.817441
O O11 0.759727 0.225791 0.309803
O O12 0.952473 0.087904 0.163242
O O13 0.644519 0.607744 0.247991
O O14 0.838046 0.453273 0.077079
#
# Coordination Sequence:
#
# PCOD8014226 Si02
#       7
#     2   2   2   2   2   2   2
#     4  11  23  41  58 104 133 166 203 282 320 384
#     4  10  22  37  69  97 133 159 220 263 329 376
#     4  11  25  41  66  94 131 170 222 259 318 377
#     4  11  21  43  68  97 121 178 213 264 311 402
#     4  10  23  37  66  93 136 160 208 264 338 366
#     4  10  21  41  65  99 125 177 210 264 313 398
#     4  11  22  43  67  91 127 176 222 260 301 395
#
# _framework density 22.774878000000001
#
# number of rings (size 3 to 8) (size 9 to 14) (size 15 to 20)
#    0.000    1.429    2.857    2.143    2.000    4.571 
#    0.000    3.571    0.000    0.000    0.000    3.000 
#    0.000    0.000    0.000    0.000    0.000    0.000 
#
# Total GULP energy -173449.696522 kJ/mol
# GULP energy per Si atom -12389.264037 kJ/mol
# Density = 2.272304 g / cm^3
# Si number density = 22.774878 Si / 1000 Ang^3
#
#
#
# Elastic Constant Matrix: (Units=GPa)
#
#
# Indices 1 2 3 4 5 6 
#
# 1 145.8296 3.5956 56.8425 -1.4767 4.3469 5.0319
# 2 3.5956 68.4133 20.5395 -3.4145 0.4984 15.5443
# 3 56.8425 20.5395 109.4361 13.8074 -3.6849 5.7841
# 4 -1.4767 -3.4145 13.8074 25.5815 -6.6638 3.8623
# 5 4.3469 0.4984 -3.6849 -6.6638 34.0006 1.5172
# 6 5.0319 15.5443 5.7841 3.8623 1.5172 24.9981
#
#
#
# Elastic Compliance Matrix: (Units=1/GPa)
#
#
# Indices 1 2 3 4 5 6 
#
# 1 0.009086 0.001876 -0.005466 0.003824 -0.000931 -0.002265
# 2 0.001876 0.019131 -0.004810 0.007372 0.000955 -0.012358
# 3 -0.005466 -0.004810 0.013871 -0.008650 0.000480 0.002189
# 4 0.003824 0.007372 -0.008650 0.048921 0.008564 -0.011431
# 5 -0.000931 0.000955 0.000480 0.008564 0.031414 -0.003747
# 6 -0.002265 -0.012358 0.002189 -0.011431 -0.003747 0.049630
#
#
# Mechanical properties :
#
#
# Convention : Reuss Voigt Hill
#
# Bulk Modulus (GPa) = 39.54256 53.95935 46.75096
# Shear Modulus (GPa) = 25.34434 33.09613 29.22024
#
# Velocity S-wave (km/s) = 3.33951 3.81620 3.58579
# Velocity P-wave (km/s) = 5.68066 6.56976 6.14132
#
# Compressibility (1/GPa) = 0.02528921
#
# Stress axis : x y z
#
# Youngs Moduli (GPa) = 110.05786 52.27038 72.09182
#
# Poissons Ratio (x) = -0.09804 0.39403
# Poissons Ratio (y) = -0.20643 0.34674
# Poissons Ratio (z) = 0.60154 0.25141
#
# Static dielectric constant tensor:
#      x y z
#    x 4.434630 0.066680 0.190200 
#    y 0.066680 4.247200 0.308890 
#    z 0.190200 0.308890 3.882320 
# 
# 
# High freq. dielectric constant tensor:
#      x y z
#    x 1.895740 0.004950 0.007690 
#    y 0.004950 1.901960 0.024690 
#    z 0.007690 0.024690 1.881790 
# 
# From -- ./inp_files/570828.got.cif
#   From: 2010.06.25/outbox.cif.g09.slc.cpg/sg2_286_cif.got.tgz:570828.got - 2010.06.27 13:26:56.
