data_PCOD8014476
_publ_section_title
;
Structure prediction by ZEFSAII (Michael W. Deem and Ramdas Pophale) SiO2 
 PCOD8014476
Probable space group: P -1
;
_chemical_formula_sum "Si O2"
_cell_formula_units_Z 14
_cell_length_a 9.332920
_cell_length_b 8.736852
_cell_length_c 17.144170
_cell_angle_alpha 99.346860
_cell_angle_beta 125.091956
_cell_angle_gamma 124.669272
_cell_volume 645.666391
_symmetry_space_group_name_H-M "P -1"
_symmetry_group_IT_number 2
_symmetry_cell_setting 'triclinic'
loop_
_space_group_symop_operation_xyz
x,y,z
-x,-y,-z
loop_
_atom_site_type_symbol
_atom_site_label
_atom_site_fract_x
_atom_site_fract_y
_atom_site_fract_z
Si Si1 0.296090 0.804067 0.491792
Si Si2 0.356390 0.057837 0.660152
Si Si3 0.347041 0.513768 0.771463
Si Si4 0.218419 0.394409 0.468961
Si Si5 0.648867 0.943783 0.026082
Si Si6 0.297684 0.150512 0.803698
Si Si7 0.638420 0.562744 0.726251
O O1 0.247511 0.586270 0.458742
O O2 0.978990 0.665564 0.375376
O O3 0.500000 0.000000 0.500000
O O4 0.466734 0.985085 0.640816
O O5 0.487191 0.184430 0.799928
O O6 0.429957 0.259365 0.646953
O O7 0.990245 0.765265 0.531098
O O8 0.309891 0.339237 0.801896
O O9 0.571882 0.638257 0.780257
O O10 0.499414 0.762745 0.888017
O O11 0.546827 0.566794 0.613102
O O12 0.055625 0.166601 0.334442
O O13 0.571850 0.780245 0.063460
O O14 0.007809 0.225214 0.146365
O O15 0.500000 0.000000 0.000000
#
# Coordination Sequence:
#
# PCOD8014476 Si02
#       7
#     2   2   2   2   2   2   2
#     4  12  25  37  69 107 134 165 214 280 331 385
#     4   9  21  41  66  97 133 166 215 272 330 384
#     4  11  23  47  64  95 139 173 219 262 328 400
#     4  10  21  41  67  98 131 168 213 272 332 381
#     4  12  27  42  66  96 134 173 222 276 320 390
#     4   9  22  43  68  89 127 177 214 270 326 385
#     4  11  23  43  71  96 128 181 220 261 333 392
#
# _framework density 21.683022999999999
#
# number of rings (size 3 to 8) (size 9 to 14) (size 15 to 20)
#    0.857    0.571    1.429    3.429    6.000    0.571 
#    0.000    2.857    0.000    0.000    0.000    0.000 
#    0.000    0.000    0.000    0.000    0.000    0.000 
#
# Total GULP energy -173457.099690 kJ/mol
# GULP energy per Si atom -12389.792835 kJ/mol
# Density = 2.163367 g / cm^3
# Si number density = 21.683023 Si / 1000 Ang^3
#
#
#
# Elastic Constant Matrix: (Units=GPa)
#
#
# Indices 1 2 3 4 5 6 
#
# 1 7.9691 -38.0601 9.0549 27.4990 36.0630 0.6395
# 2 -38.0601 67.3620 -0.1467 14.9880 35.9566 -6.9918
# 3 9.0549 -0.1467 55.7018 3.7092 13.5432 0.2538
# 4 27.4990 14.9880 3.7092 26.6564 -7.3762 -4.0635
# 5 36.0630 35.9566 13.5432 -7.3762 29.2028 5.1586
# 6 0.6395 -6.9918 0.2538 -4.0635 5.1586 32.5851
#
#
#
# Elastic Compliance Matrix: (Units=1/GPa)
#
#
# Indices 1 2 3 4 5 6 
#
# 1 0.001102 -0.008661 -0.004004 0.007591 0.013617 -0.003058
# 2 -0.008661 0.006619 0.000042 0.006549 0.003863 0.001795
# 3 -0.004004 0.000042 0.019611 0.000304 -0.004238 0.000644
# 4 0.007591 0.006549 0.000304 0.023368 -0.012770 0.006190
# 5 0.013617 0.003863 -0.004238 -0.012770 0.011921 -0.002885
# 6 -0.003058 0.001795 0.000644 0.006190 -0.002885 0.032358
#
#
# Mechanical properties :
#
#
# Convention : Reuss Voigt Hill
#
# Bulk Modulus (GPa) = 479.29431 8.08099 243.68765
# Shear Modulus (GPa) = 41.34915 28.36786 34.85850
#
# Velocity S-wave (km/s) = 4.37164 3.62096 4.01389
# Velocity P-wave (km/s) = 15.71647 4.60617 11.58068
#
# Compressibility (1/GPa) = 0.00208640
#
# Stress axis : x y z
#
# Youngs Moduli (GPa) = 907.04869 151.07889 50.99146
#
# Poissons Ratio (x) = 1.30843 0.20419
# Poissons Ratio (y) = 7.85554 -0.00213
# Poissons Ratio (z) = 3.63212 -0.00631
#
# Static dielectric constant tensor:
#      x y z
#    x 4.059890 0.113040 -0.188040 
#    y 0.113040 3.821060 0.015100 
#    z -0.188040 0.015100 3.646170 
# 
# 
# High freq. dielectric constant tensor:
#      x y z
#    x 1.864790 0.010160 -0.021110 
#    y 0.010160 1.859590 0.001940 
#    z -0.021110 0.001940 1.825170 
# 
# From -- ./inp_files/557334.got.cif
#   From: 2010.06.25/outbox.cif.g09.slc.cpg/sg2_279_cif.got.tgz:557334.got - 2010.06.27 13:26:56.
