data_PCOD8014538
_publ_section_title
;
Structure prediction by ZEFSAII (Michael W. Deem and Ramdas Pophale) SiO2 
 PCOD8014538
Probable space group: P -1
;
_chemical_formula_sum "Si O2"
_cell_formula_units_Z 16
_cell_length_a 9.588841
_cell_length_b 29.560656
_cell_length_c 15.852851
_cell_angle_alpha 18.966309
_cell_angle_beta 145.766028
_cell_angle_gamma 136.391896
_cell_volume 779.496288
_symmetry_space_group_name_H-M "P -1"
_symmetry_group_IT_number 2
_symmetry_cell_setting 'triclinic'
loop_
_space_group_symop_operation_xyz
x,y,z
-x,-y,-z
loop_
_atom_site_type_symbol
_atom_site_label
_atom_site_fract_x
_atom_site_fract_y
_atom_site_fract_z
Si Si1 0.280664 0.387841 0.822103
Si Si2 0.131206 0.161762 0.243098
Si Si3 0.589663 0.367060 0.843293
Si Si4 0.167407 0.342587 0.233749
Si Si5 0.278621 0.641878 0.777675
Si Si6 0.349308 0.834557 0.919771
Si Si7 0.516751 0.169875 0.568143
Si Si8 0.779664 0.837425 0.260811
O O1 0.381724 0.389794 0.774460
O O2 0.000000 0.500000 0.500000
O O3 0.239119 0.232304 0.094926
O O4 0.473072 0.424551 0.920963
O O5 0.292784 0.165589 0.400351
O O6 0.825779 0.240788 0.977196
O O7 0.165957 0.998033 0.520073
O O8 0.500000 0.500000 0.500000
O O9 0.581518 0.230340 0.024216
O O10 0.876442 0.343722 0.064722
O O11 0.383528 0.231217 0.480877
O O12 0.253899 0.276905 0.484991
O O13 0.165654 0.510350 0.930295
O O14 0.343068 0.713518 0.597985
O O15 0.079302 0.778623 0.485800
O O16 0.609519 0.827682 0.111699
O O17 0.715583 0.003593 0.971002
#
# Coordination Sequence:
#
# PCOD8014538 Si02
#       8
#     2   2   2   2   2   2   2   2
#     4  11  25  42  65  92 129 169 212 268 326 379
#     4   9  20  41  67  92 128 169 213 260 318 384
#     4  12  25  41  67  93 129 169 219 263 316 388
#     4  12  24  42  67 100 129 168 218 268 316 384
#     4  11  24  42  65  95 133 167 212 269 325 384
#     4  10  21  41  68  94 126 171 213 258 319 385
#     4  10  22  43  66  94 131 172 212 265 324 382
#     4  11  23  42  68  95 130 172 213 262 327 381
#
# _framework density 20.526076
#
# number of rings (size 3 to 8) (size 9 to 14) (size 15 to 20)
#    0.000    1.250    2.500    3.000    5.250    0.500 
#    2.250    0.000    0.000    0.000    0.000    0.000 
#    0.000    0.000    0.000    0.000    0.000    0.000 
#
# Total GULP energy -198371.947320 kJ/mol
# GULP energy per Si atom -12398.246708 kJ/mol
# Density = 2.047936 g / cm^3
# Si number density = 20.526076 Si / 1000 Ang^3
#
#
#
# Elastic Constant Matrix: (Units=GPa)
#
#
# Indices 1 2 3 4 5 6 
#
# 1 142.7751 47.2804 40.2429 0.2339 13.6697 -0.2123
# 2 47.2804 78.8350 43.2731 -5.1514 5.3662 -2.4369
# 3 40.2429 43.2731 98.3707 1.9083 15.7364 -2.2671
# 4 0.2339 -5.1514 1.9083 31.7678 2.3568 3.7541
# 5 13.6697 5.3662 15.7364 2.3568 41.2082 -3.5930
# 6 -0.2123 -2.4369 -2.2671 3.7541 -3.5930 21.7019
#
#
#
# Elastic Compliance Matrix: (Units=1/GPa)
#
#
# Indices 1 2 3 4 5 6 
#
# 1 0.009113 -0.004627 -0.001393 -0.000495 -0.001931 -0.000810
# 2 -0.004627 0.019414 -0.006937 0.003355 0.001559 0.001088
# 3 -0.001393 -0.006937 0.014474 -0.001726 -0.004032 0.000350
# 4 -0.000495 0.003355 -0.001726 0.032969 -0.002009 -0.005844
# 5 -0.001931 0.001559 -0.004032 -0.002009 0.026753 0.004512
# 6 -0.000810 0.001088 0.000350 -0.005844 0.004512 0.047988
#
#
# Mechanical properties :
#
#
# Convention : Reuss Voigt Hill
#
# Bulk Modulus (GPa) = 58.52172 64.61929 61.57050
# Shear Modulus (GPa) = 27.42434 31.54788 29.48611
#
# Velocity S-wave (km/s) = 3.65920 3.92467 3.79426
# Velocity P-wave (km/s) = 6.81365 7.21715 7.01830
#
# Compressibility (1/GPa) = 0.01708767
#
# Stress axis : x y z
#
# Youngs Moduli (GPa) = 109.72892 51.50920 69.09141
#
# Poissons Ratio (x) = 0.23833 0.09625
# Poissons Ratio (y) = 0.50771 0.47927
# Poissons Ratio (z) = 0.15286 0.35730
#
# Static dielectric constant tensor:
#      x y z
#    x 4.383190 0.034520 0.008140 
#    y 0.034520 3.803240 -0.303980 
#    z 0.008140 -0.303980 4.297420 
# 
# 
# High freq. dielectric constant tensor:
#      x y z
#    x 1.813460 0.007680 0.005490 
#    y 0.007680 1.794810 -0.002140 
#    z 0.005490 -0.002140 1.813650 
# 
# From -- ./inp_files/308305.got.cif
#   From: 2010.06.25/outbox.cif.g09.slc.cpg/sg2_155_cif.got.tgz:308305.got - 2010.06.27 13:26:56.
