data_PCOD8014922
_publ_section_title
;
Structure prediction by ZEFSAII (Michael W. Deem and Ramdas Pophale) SiO2 
 PCOD8014922
Probable space group: P -1
;
_chemical_formula_sum "Si O2"
_cell_formula_units_Z 16
_cell_length_a 22.662623
_cell_length_b 7.205174
_cell_length_c 5.582263
_cell_angle_alpha 67.800777
_cell_angle_beta 86.914858
_cell_angle_gamma 59.423475
_cell_volume 715.569032
_symmetry_space_group_name_H-M "P -1"
_symmetry_group_IT_number 2
_symmetry_cell_setting 'triclinic'
loop_
_space_group_symop_operation_xyz
x,y,z
-x,-y,-z
loop_
_atom_site_type_symbol
_atom_site_label
_atom_site_fract_x
_atom_site_fract_y
_atom_site_fract_z
Si Si1 0.029279 0.141159 0.055417
Si Si2 0.605353 0.025433 0.216656
Si Si3 0.919451 0.543110 0.218747
Si Si4 0.692048 0.160365 0.388850
Si Si5 0.716550 0.561447 0.252675
Si Si6 0.435214 0.761686 0.384303
Si Si7 0.853556 0.342705 0.635611
Si Si8 0.791951 0.707100 0.849384
O O1 0.975166 0.307348 0.183971
O O2 0.101914 0.939769 0.253911
O O3 0.046975 0.300012 0.801867
O O4 0.000000 0.000000 0.000000
O O5 0.660557 0.111985 0.181610
O O6 0.559883 0.106584 0.436671
O O7 0.649274 0.739107 0.341408
O O8 0.562267 0.123808 0.927870
O O9 0.899965 0.454282 0.501209
O O10 0.848318 0.710790 0.005260
O O11 0.704863 0.368920 0.223330
O O12 0.636325 0.237906 0.581331
O O13 0.764156 0.920044 0.561772
O O14 0.787418 0.421699 0.449993
O O15 0.724350 0.730389 0.980776
O O16 0.500000 0.500000 0.500000
O O17 0.829260 0.444503 0.856000
#
# Coordination Sequence:
#
# PCOD8014922 Si02
#       8
#     2   2   2   2   2   2   2   2
#     4  11  22  42  59  86 118 162 203 260 318 391
#     4  10  21  42  63  94 134 168 219 267 316 389
#     4  10  24  40  60  83 123 156 207 260 320 383
#     4  10  23  38  66  92 128 171 211 265 328 377
#     4  11  22  41  63  94 125 170 210 267 323 383
#     4  10  21  42  68  95 136 175 212 270 323 379
#     4  11  22  39  63  87 121 161 208 263 320 380
#     4  11  21  42  59  92 124 159 214 267 317 385
#
# _framework density 22.359829999999999
#
# number of rings (size 3 to 8) (size 9 to 14) (size 15 to 20)
#    0.750    0.750    3.750    1.500    0.000    2.500 
#    2.250    1.250    0.000    0.000    0.000    0.000 
#    0.000    0.000    0.000    0.000    0.000    0.000 
#
# Total GULP energy -198234.900085 kJ/mol
# GULP energy per Si atom -12389.681255 kJ/mol
# Density = 2.230894 g / cm^3
# Si number density = 22.359830 Si / 1000 Ang^3
#
#
#
# Elastic Constant Matrix: (Units=GPa)
#
#
# Indices 1 2 3 4 5 6 
#
# 1 31.6280 30.8424 0.4659 -7.4567 0.2960 -0.3340
# 2 30.8424 128.5244 37.8179 -17.5584 3.3608 -5.5668
# 3 0.4659 37.8179 83.3056 3.5335 1.9832 -4.9103
# 4 -7.4567 -17.5584 3.5335 31.3123 -6.4567 3.5551
# 5 0.2960 3.3608 1.9832 -6.4567 13.4543 0.2347
# 6 -0.3340 -5.5668 -4.9103 3.5551 0.2347 44.8054
#
#
#
# Elastic Compliance Matrix: (Units=1/GPa)
#
#
# Indices 1 2 3 4 5 6 
#
# 1 0.043590 -0.011355 0.004597 0.004275 0.003268 -0.000938
# 2 -0.011355 0.013023 -0.006058 0.005322 0.000436 0.000445
# 3 0.004597 -0.006058 0.015086 -0.004804 -0.003140 0.001332
# 4 0.004275 0.005322 -0.004804 0.040735 0.018888 -0.003164
# 5 0.003268 0.000436 -0.003140 0.018888 0.083711 -0.002203
# 6 -0.000938 0.000445 0.001332 -0.003164 -0.002203 0.022776
#
#
# Mechanical properties :
#
#
# Convention : Reuss Voigt Hill
#
# Bulk Modulus (GPa) = 21.70837 42.41227 32.06032
# Shear Modulus (GPa) = 19.23750 29.53651 24.38700
#
# Velocity S-wave (km/s) = 2.93637 3.63845 3.30610
# Velocity P-wave (km/s) = 4.60718 6.05478 5.37989
#
# Compressibility (1/GPa) = 0.04606518
#
# Stress axis : x y z
#
# Youngs Moduli (GPa) = 22.94091 76.78650 66.28817
#
# Poissons Ratio (x) = 0.87192 -0.30470
# Poissons Ratio (y) = 0.26050 0.40160
# Poissons Ratio (z) = -0.10545 0.46520
#
# Static dielectric constant tensor:
#      x y z
#    x 3.973490 -0.212130 -0.023140 
#    y -0.212130 4.432010 -0.097890 
#    z -0.023140 -0.097890 3.903640 
# 
# 
# High freq. dielectric constant tensor:
#      x y z
#    x 1.867230 -0.017610 0.007300 
#    y -0.017610 1.891260 -0.004600 
#    z 0.007300 -0.004600 1.861480 
# 
# From -- ./inp_files/121554.got.cif
#   From: 2010.06.25/outbox.cif.g09.slc.cpg/sg2_61_cif.got.tgz:121554.got - 2010.06.27 13:26:56.
