data_PCOD8014985
_publ_section_title
;
Structure prediction by ZEFSAII (Michael W. Deem and Ramdas Pophale) SiO2 
 PCOD8014985
Probable space group: P -1
;
_chemical_formula_sum "Si O2"
_cell_formula_units_Z 12
_cell_length_a 19.021572
_cell_length_b 15.320023
_cell_length_c 14.857394
_cell_angle_alpha 27.022856
_cell_angle_beta 18.363995
_cell_angle_gamma 24.479454
_cell_volume 552.939993
_symmetry_space_group_name_H-M "P -1"
_symmetry_group_IT_number 2
_symmetry_cell_setting 'triclinic'
loop_
_space_group_symop_operation_xyz
x,y,z
-x,-y,-z
loop_
_atom_site_type_symbol
_atom_site_label
_atom_site_fract_x
_atom_site_fract_y
_atom_site_fract_z
Si Si1 0.725398 0.690488 0.676038
Si Si2 0.014980 0.174314 0.051642
Si Si3 0.646524 0.142655 0.394010
Si Si4 0.901062 0.548380 0.175705
Si Si5 0.763422 0.288881 0.709928
Si Si6 0.391325 0.292488 0.395529
O O1 0.559928 0.754616 0.725509
O O2 0.000000 0.500000 0.500000
O O3 0.764221 0.885157 0.491395
O O4 0.530005 0.648390 0.014770
O O5 0.806491 0.225829 0.182189
O O6 0.073039 0.956868 0.234975
O O7 0.923743 0.376153 0.046992
O O8 0.255520 0.153514 0.723644
O O9 0.370600 0.245977 0.677647
O O10 0.636701 0.216528 0.232416
O O11 0.887047 0.337458 0.426317
O O12 0.000000 0.500000 0.000000
O O13 0.773340 0.449762 0.627867
#
# Coordination Sequence:
#
# PCOD8014985 Si02
#       6
#     2   2   2   2   2   2
#     4  12  23  38  64  98 132 178 207 249 316 379
#     4  10  21  42  64  94 129 165 213 261 314 383
#     4  10  22  41  63  93 131 169 210 260 308 382
#     4  10  24  46  69  90 123 166 214 276 324 363
#     4  10  21  43  61  94 132 161 216 263 302 386
#     4  10  23  38  61  92 135 169 213 245 310 371
#
# _framework density 21.702172999999998
#
# number of rings (size 3 to 8) (size 9 to 14) (size 15 to 20)
#    0.000    2.000    3.333    2.000    4.667    2.000 
#    0.000    0.833    0.000    0.000    0.000    0.000 
#    0.000    0.000    0.000    0.000    0.000    0.000 
#
# Total GULP energy -148673.675453 kJ/mol
# GULP energy per Si atom -12389.472954 kJ/mol
# Density = 2.165278 g / cm^3
# Si number density = 21.702173 Si / 1000 Ang^3
#
#
#
# Elastic Constant Matrix: (Units=GPa)
#
#
# Indices 1 2 3 4 5 6 
#
# 1 124.5757 31.7553 65.0062 -7.0892 -20.0629 -1.9342
# 2 31.7553 84.1879 31.8515 -15.5785 -0.7043 -11.8017
# 3 65.0062 31.8515 89.4348 -21.5984 -3.0058 -5.5339
# 4 -7.0892 -15.5785 -21.5984 34.8753 -4.5463 -1.1936
# 5 -20.0629 -0.7043 -3.0058 -4.5463 40.9884 -1.2188
# 6 -1.9342 -11.8017 -5.5339 -1.1936 -1.2188 24.1752
#
#
#
# Elastic Compliance Matrix: (Units=1/GPa)
#
#
# Indices 1 2 3 4 5 6 
#
# 1 0.015154 -0.002617 -0.011059 -0.004239 0.006017 -0.002502
# 2 -0.002617 0.015606 -0.001900 0.005467 -0.000331 0.007227
# 3 -0.011059 -0.001900 0.022637 0.010728 -0.002484 0.003774
# 4 -0.004239 0.005467 0.010728 0.037544 0.003172 0.006799
# 5 0.006017 -0.000331 -0.002484 0.003172 0.027545 0.001297
# 6 -0.002502 0.007227 0.003774 0.006799 0.001297 0.045958
#
#
# Mechanical properties :
#
#
# Convention : Reuss Voigt Hill
#
# Bulk Modulus (GPa) = 44.95152 61.71382 53.33267
# Shear Modulus (GPa) = 24.62924 31.31348 27.97136
#
# Velocity S-wave (km/s) = 3.37244 3.80264 3.59398
# Velocity P-wave (km/s) = 5.99353 6.91220 6.46919
#
# Compressibility (1/GPa) = 0.02224619
#
# Stress axis : x y z
#
# Youngs Moduli (GPa) = 65.98823 64.07817 44.17513
#
# Poissons Ratio (x) = 0.16768 0.48854
# Poissons Ratio (y) = 0.17268 0.08391
# Poissons Ratio (z) = 0.72978 0.12172
#
# Static dielectric constant tensor:
#      x y z
#    x 4.109250 -0.020500 -0.259270 
#    y -0.020500 3.752820 -0.380980 
#    z -0.259270 -0.380980 3.996190 
# 
# 
# High freq. dielectric constant tensor:
#      x y z
#    x 1.837590 -0.004440 -0.015050 
#    y -0.004440 1.845070 -0.034540 
#    z -0.015050 -0.034540 1.849220 
# 
# From -- ./inp_files/538513.got.cif
#   From: 2010.06.25/outbox.cif.g09.slc.cpg/sg2_270_cif.got.tgz:538513.got - 2010.06.27 13:26:56.
