data_PCOD8014843
_publ_section_title
;
Structure prediction by ZEFSAII (Michael W. Deem and Ramdas Pophale) SiO2 
 PCOD8014843
Probable space group: P -1
;
_chemical_formula_sum "Si O2"
_cell_formula_units_Z 14
_cell_length_a 14.908610
_cell_length_b 8.270056
_cell_length_c 15.869911
_cell_angle_alpha 87.344088
_cell_angle_beta 28.808824
_cell_angle_gamma 67.632856
_cell_volume 666.882716
_symmetry_space_group_name_H-M "P -1"
_symmetry_group_IT_number 2
_symmetry_cell_setting 'triclinic'
loop_
_space_group_symop_operation_xyz
x,y,z
-x,-y,-z
loop_
_atom_site_type_symbol
_atom_site_label
_atom_site_fract_x
_atom_site_fract_y
_atom_site_fract_z
Si Si1 0.970146 0.443819 0.616424
Si Si2 0.299460 0.476097 0.662798
Si Si3 0.309346 0.918169 0.535847
Si Si4 0.860112 0.035250 0.504505
Si Si5 0.666101 0.724549 0.532493
Si Si6 0.408114 0.725010 0.110102
Si Si7 0.071685 0.032198 0.028308
O O1 0.000000 0.500000 0.500000
O O2 0.065109 0.199347 0.537680
O O3 0.145903 0.431331 0.540224
O O4 0.670291 0.669498 0.885613
O O5 0.500000 0.500000 0.500000
O O6 0.406707 0.284024 0.648664
O O7 0.269872 0.424413 0.595865
O O8 0.017369 0.725036 0.909761
O O9 0.068465 0.991647 0.785322
O O10 0.295243 0.842266 0.457681
O O11 0.281518 0.125950 0.544903
O O12 0.146243 0.950211 0.271189
O O13 0.672271 0.227525 0.725906
O O14 0.377999 0.855948 0.799265
O O15 0.500000 0.500000 0.000000
O O16 0.000000 0.000000 0.000000
#
# Coordination Sequence:
#
# PCOD8014843 Si02
#       7
#     2   2   2   2   2   2   2
#     4  10  23  40  61  95 127 163 211 262 317 378
#     4  10  21  42  61  95 126 159 213 260 315 387
#     4  10  22  41  65  94 128 167 212 262 318 384
#     4   9  20  41  63  91 125 164 213 258 314 381
#     4  11  23  43  64  92 131 167 214 263 320 381
#     4   9  19  41  61  88 124 160 211 258 307 377
#     4  11  23  42  62  92 131 167 210 263 319 380
#
# _framework density 20.993195
#
# number of rings (size 3 to 8) (size 9 to 14) (size 15 to 20)
#    0.000    2.000    2.857    0.429    2.000    3.429 
#   23.143    0.000    0.000    0.000    0.000    0.000 
#    0.000    0.000    0.000    0.000    0.000    0.000 
#
# Total GULP energy -173455.776837 kJ/mol
# GULP energy per Si atom -12389.698345 kJ/mol
# Density = 2.094541 g / cm^3
# Si number density = 20.993195 Si / 1000 Ang^3
#
#
#
# Elastic Constant Matrix: (Units=GPa)
#
#
# Indices 1 2 3 4 5 6 
#
# 1 203.2119 47.5799 75.7455 7.1730 8.7311 -15.8246
# 2 47.5799 64.5298 36.0138 -4.9872 6.3822 -13.8448
# 3 75.7455 36.0138 151.0722 2.1796 1.1122 -1.4586
# 4 7.1730 -4.9872 2.1796 24.5551 3.6263 5.8261
# 5 8.7311 6.3822 1.1122 3.6263 44.4630 3.0744
# 6 -15.8246 -13.8448 -1.4586 5.8261 3.0744 30.5054
#
#
#
# Elastic Compliance Matrix: (Units=1/GPa)
#
#
# Indices 1 2 3 4 5 6 
#
# 1 0.007031 -0.003272 -0.002670 -0.003003 -0.000785 0.002688
# 2 -0.003272 0.022272 -0.003634 0.004466 -0.003362 0.007723
# 3 -0.002670 -0.003634 0.008795 -0.000258 0.001032 -0.002669
# 4 -0.003003 0.004466 -0.000258 0.044847 -0.003164 -0.007790
# 5 -0.000785 -0.003362 0.001032 -0.003164 0.023613 -0.003659
# 6 0.002688 0.007723 -0.002669 -0.007790 -0.003659 0.039409
#
#
# Mechanical properties :
#
#
# Convention : Reuss Voigt Hill
#
# Bulk Modulus (GPa) = 52.78284 81.94359 67.36321
# Shear Modulus (GPa) = 29.16550 37.20301 33.18425
#
# Velocity S-wave (km/s) = 3.73135 4.21425 3.98013
# Velocity P-wave (km/s) = 6.61524 7.92452 7.29930
#
# Compressibility (1/GPa) = 0.01894555
#
# Stress axis : x y z
#
# Youngs Moduli (GPa) = 142.21738 44.89965 113.70215
#
# Poissons Ratio (x) = 0.14691 0.30363
# Poissons Ratio (y) = 0.46534 0.41319
# Poissons Ratio (z) = 0.37978 0.16316
#
# Static dielectric constant tensor:
#      x y z
#    x 3.948300 -0.334060 0.190770 
#    y -0.334060 3.725000 0.840180 
#    z 0.190770 0.840180 3.382380 
# 
# 
# High freq. dielectric constant tensor:
#      x y z
#    x 1.847280 0.000670 -0.003200 
#    y 0.000670 1.799530 0.009050 
#    z -0.003200 0.009050 1.825440 
# 
# From -- ./inp_files/348559.got.cif
#   From: 2010.06.25/outbox.cif.g09.slc.cpg/sg2_175_cif.got.tgz:348559.got - 2010.06.27 13:26:56.
