data_PCOD8014876
_publ_section_title
;
Structure prediction by ZEFSAII (Michael W. Deem and Ramdas Pophale) SiO2 
 PCOD8014876
Probable space group: P -1
;
_chemical_formula_sum "Si O2"
_cell_formula_units_Z 16
_cell_length_a 8.057572
_cell_length_b 21.942351
_cell_length_c 9.124286
_cell_angle_alpha 119.993136
_cell_angle_beta 67.655678
_cell_angle_gamma 148.241031
_cell_volume 731.820511
_symmetry_space_group_name_H-M "P -1"
_symmetry_group_IT_number 2
_symmetry_cell_setting 'triclinic'
loop_
_space_group_symop_operation_xyz
x,y,z
-x,-y,-z
loop_
_atom_site_type_symbol
_atom_site_label
_atom_site_fract_x
_atom_site_fract_y
_atom_site_fract_z
Si Si1 0.055271 0.292352 0.717254
Si Si2 0.857999 0.027362 0.125730
Si Si3 0.826943 0.239514 0.031331
Si Si4 0.832526 0.071268 0.502812
Si Si5 0.572625 0.424117 0.497062
Si Si6 0.938283 0.765801 0.791716
Si Si7 0.433201 0.846030 0.528809
Si Si8 0.274232 0.682948 0.602934
O O1 0.384293 0.411768 0.663510
O O2 0.054983 0.207249 0.642139
O O3 0.761614 0.228489 0.645502
O O4 0.036833 0.325590 0.920334
O O5 0.966877 0.080757 0.319023
O O6 0.018427 0.136271 0.094702
O O7 0.477959 0.903993 0.089674
O O8 0.000000 0.000000 0.000000
O O9 0.051669 0.264617 0.088148
O O10 0.711854 0.273193 0.192128
O O11 0.500000 0.000000 0.500000
O O12 0.774691 0.991532 0.549127
O O13 0.605803 0.356670 0.469503
O O14 0.911366 0.569088 0.530327
O O15 0.388738 0.362352 0.330492
O O16 0.238946 0.836977 0.683580
O O17 0.485009 0.790380 0.536195
#
# Coordination Sequence:
#
# PCOD8014876 Si02
#       8
#     2   2   2   2   2   2   2   2
#     4  10  19  36  62  83 119 155 190 238 286 345
#     4  12  21  34  58  91 124 154 185 240 300 339
#     4  11  22  35  58  92 117 151 196 242 281 346
#     4  10  16  35  59  83 119 160 184 225 297 346
#     4  10  21  43  61  80 117 158 193 245 293 345
#     4  10  20  37  60  81 117 158 197 231 283 350
#     4   9  17  35  61  81 111 154 196 228 280 352
#     4  10  23  39  61  87 114 149 201 246 294 340
#
# _framework density 21.863287
#
# number of rings (size 3 to 8) (size 9 to 14) (size 15 to 20)
#    0.000    1.750    6.250    1.125    0.000    6.000 
#    2.250    0.625    0.000    3.000    0.000    0.000 
#    0.000    0.000    0.000    0.000    0.000    0.000 
#
# Total GULP energy -198360.782859 kJ/mol
# GULP energy per Si atom -12397.548929 kJ/mol
# Density = 2.181352 g / cm^3
# Si number density = 21.863287 Si / 1000 Ang^3
#
#
#
# Elastic Constant Matrix: (Units=GPa)
#
#
# Indices 1 2 3 4 5 6 
#
# 1 37.0691 -9.5667 15.5378 -14.3995 12.5021 -14.4508
# 2 -9.5667 42.6027 3.4810 -3.2495 10.4099 -4.5339
# 3 15.5378 3.4810 91.6509 -17.3465 7.1499 -4.1622
# 4 -14.3995 -3.2495 -17.3465 29.3245 0.3521 3.2353
# 5 12.5021 10.4099 7.1499 0.3521 31.6351 2.1849
# 6 -14.4508 -4.5339 -4.1622 3.2353 2.1849 27.9704
#
#
#
# Elastic Compliance Matrix: (Units=1/GPa)
#
#
# Indices 1 2 3 4 5 6 
#
# 1 0.103459 0.048436 -0.002687 0.048689 -0.060906 0.060030
# 2 0.048436 0.049062 -0.000806 0.025573 -0.037657 0.032841
# 3 -0.002687 -0.000806 0.012671 0.006130 -0.001590 -0.000218
# 4 0.048689 0.025573 0.006130 0.062034 -0.031494 0.025497
# 5 -0.060906 -0.037657 -0.001590 -0.031494 0.071527 -0.039752
# 6 0.060030 0.032841 -0.000218 0.025497 -0.039752 0.072213
#
#
# Mechanical properties :
#
#
# Convention : Reuss Voigt Hill
#
# Bulk Modulus (GPa) = 3.92031 21.13634 12.52833
# Shear Modulus (GPa) = 13.65720 28.57738 21.11729
#
# Velocity S-wave (km/s) = 2.50204 3.61930 3.11123
# Velocity P-wave (km/s) = 3.18495 5.21097 4.31846
#
# Compressibility (1/GPa) = 0.25508161
#
# Stress axis : x y z
#
# Youngs Moduli (GPa) = 9.66562 20.38228 78.91755
#
# Poissons Ratio (x) = -0.98725 0.21202
# Poissons Ratio (y) = -0.46817 0.06358
# Poissons Ratio (z) = 0.02597 0.01642
#
# Static dielectric constant tensor:
#      x y z
#    x 4.038040 -0.294560 0.235180 
#    y -0.294560 4.385640 -0.088650 
#    z 0.235180 -0.088650 3.994510 
# 
# 
# High freq. dielectric constant tensor:
#      x y z
#    x 1.850290 -0.004620 0.001780 
#    y -0.004620 1.854780 -0.000870 
#    z 0.001780 -0.000870 1.841660 
# 
# From -- ./inp_files/189408.got.cif
#   From: 2010.06.25/outbox.cif.g09.slc.cpg/sg2_95_cif.got.tgz:189408.got - 2010.06.27 13:26:56.
