data_PCOD8014687
_publ_section_title
;
Structure prediction by ZEFSAII (Michael W. Deem and Ramdas Pophale) SiO2 
 PCOD8014687
Probable space group: P -1
;
_chemical_formula_sum "Si O2"
_cell_formula_units_Z 12
_cell_length_a 8.417563
_cell_length_b 9.632515
_cell_length_c 12.972640
_cell_angle_alpha 138.935676
_cell_angle_beta 118.891704
_cell_angle_gamma 86.092588
_cell_volume 518.607001
_symmetry_space_group_name_H-M "P -1"
_symmetry_group_IT_number 2
_symmetry_cell_setting 'triclinic'
loop_
_space_group_symop_operation_xyz
x,y,z
-x,-y,-z
loop_
_atom_site_type_symbol
_atom_site_label
_atom_site_fract_x
_atom_site_fract_y
_atom_site_fract_z
Si Si1 0.906083 0.770418 0.763745
Si Si2 0.731492 0.235806 0.476432
Si Si3 0.282110 0.444928 0.104133
Si Si4 0.711520 0.038815 0.135198
Si Si5 0.034642 0.685331 0.221193
Si Si6 0.353367 0.130218 0.428300
O O1 0.769703 0.511261 0.634352
O O2 0.757839 0.777949 0.633565
O O3 0.095295 0.756908 0.758028
O O4 0.000000 0.000000 0.000000
O O5 0.725040 0.115249 0.299583
O O6 0.916919 0.226896 0.595477
O O7 0.511668 0.077031 0.381399
O O8 0.098278 0.474213 0.118287
O O9 0.515002 0.670675 0.328891
O O10 0.211394 0.416785 0.944026
O O11 0.272196 0.202251 0.006104
O O12 0.500000 0.000000 0.000000
O O13 0.181587 0.890631 0.298989
#
# Coordination Sequence:
#
# PCOD8014687 Si02
#       6
#     2   2   2   2   2   2
#     4  12  24  43  72  97 131 184 230 276 327 399
#     4  11  24  40  67 103 138 173 220 282 337 396
#     4  10  21  41  70  94 132 177 223 268 328 393
#     4  12  25  45  64 100 143 174 222 281 343 396
#     4  10  22  44  71  98 137 173 233 271 325 399
#     4  11  22  45  71 100 132 177 231 274 324 401
#
# _framework density 23.138911
#
# number of rings (size 3 to 8) (size 9 to 14) (size 15 to 20)
#    0.000    1.000    1.667    7.000    2.333    0.667 
#    3.000    3.333    0.000    0.000    0.000    0.000 
#    0.000    0.000    0.000    0.000    0.000    0.000 
#
# Total GULP energy -148712.279995 kJ/mol
# GULP energy per Si atom -12392.690000 kJ/mol
# Density = 2.308625 g / cm^3
# Si number density = 23.138911 Si / 1000 Ang^3
#
#
#
# Elastic Constant Matrix: (Units=GPa)
#
#
# Indices 1 2 3 4 5 6 
#
# 1 59.7075 30.7834 39.4610 -23.7317 12.8931 -4.5733
# 2 30.7834 129.8439 50.3624 -30.3177 10.3149 -12.9621
# 3 39.4610 50.3624 137.8911 -38.4753 15.0704 5.1458
# 4 -23.7317 -30.3177 -38.4753 63.6086 -11.6904 4.8469
# 5 12.8931 10.3149 15.0704 -11.6904 26.4762 -16.4700
# 6 -4.5733 -12.9621 5.1458 4.8469 -16.4700 37.9314
#
#
#
# Elastic Compliance Matrix: (Units=1/GPa)
#
#
# Indices 1 2 3 4 5 6 
#
# 1 0.023780 -0.002762 -0.003836 0.003981 -0.007342 -0.001253
# 2 -0.002762 0.010187 -0.002739 0.002329 0.002696 0.004393
# 3 -0.003836 -0.002739 0.011110 0.003421 -0.005422 -0.005697
# 4 0.003981 0.002329 0.003421 0.021233 0.004657 0.000121
# 5 -0.007342 0.002696 -0.005422 0.004657 0.062402 0.027272
# 6 -0.001253 0.004393 -0.005697 0.000121 0.027272 0.040313
#
#
# Mechanical properties :
#
#
# Convention : Reuss Voigt Hill
#
# Bulk Modulus (GPa) = 37.87594 63.18403 50.52999
# Shear Modulus (GPa) = 25.44546 39.39228 32.41887
#
# Velocity S-wave (km/s) = 3.31974 4.13052 3.74713
# Velocity P-wave (km/s) = 5.57662 7.07912 6.37231
#
# Compressibility (1/GPa) = 0.02640198
#
# Stress axis : x y z
#
# Youngs Moduli (GPa) = 42.05301 98.16594 90.00827
#
# Poissons Ratio (x) = 0.27113 0.34530
# Poissons Ratio (y) = 0.11615 0.24653
# Poissons Ratio (z) = 0.16133 0.26887
#
# Static dielectric constant tensor:
#      x y z
#    x 3.970330 -0.126720 0.231040 
#    y -0.126720 4.613370 -0.431890 
#    z 0.231040 -0.431890 4.626360 
# 
# 
# High freq. dielectric constant tensor:
#      x y z
#    x 1.880330 -0.007030 0.013880 
#    y -0.007030 1.933880 -0.022160 
#    z 0.013880 -0.022160 1.934730 
# 
# From -- ./inp_files/164554.got.cif
#   From: 2010.06.25/outbox.cif.g09.slc.cpg/sg2_83_cif.got.tgz:164554.got - 2010.06.27 13:26:56.
