data_PCOD8014637
_publ_section_title
;
Structure prediction by ZEFSAII (Michael W. Deem and Ramdas Pophale) SiO2 
 PCOD8014637
Probable space group: P -1
;
_chemical_formula_sum "Si O2"
_cell_formula_units_Z 16
_cell_length_a 8.610701
_cell_length_b 11.899274
_cell_length_c 9.377632
_cell_angle_alpha 89.841013
_cell_angle_beta 55.981126
_cell_angle_gamma 111.846272
_cell_volume 710.869677
_symmetry_space_group_name_H-M "P -1"
_symmetry_group_IT_number 2
_symmetry_cell_setting 'triclinic'
loop_
_space_group_symop_operation_xyz
x,y,z
-x,-y,-z
loop_
_atom_site_type_symbol
_atom_site_label
_atom_site_fract_x
_atom_site_fract_y
_atom_site_fract_z
Si Si1 0.473181 0.205537 0.266047
Si Si2 0.808633 0.578022 0.438306
Si Si3 0.918574 0.360880 0.978610
Si Si4 0.961211 0.786852 0.559748
Si Si5 0.303362 0.115811 0.836572
Si Si6 0.493070 0.325075 0.530189
Si Si7 0.040878 0.847118 0.843438
Si Si8 0.619109 0.051638 0.789800
O O1 0.669677 0.302353 0.069783
O O2 0.556708 0.248168 0.383646
O O3 0.251614 0.198805 0.335385
O O4 0.454782 0.067940 0.272780
O O5 0.702580 0.425857 0.503662
O O6 0.614433 0.607524 0.507363
O O7 0.907726 0.643887 0.538841
O O8 0.976348 0.632177 0.226791
O O9 0.968544 0.269426 0.058512
O O10 0.000000 0.500000 0.000000
O O11 0.061261 0.818935 0.665927
O O12 0.126174 0.876317 0.352883
O O13 0.321406 0.225572 0.721785
O O14 0.534093 0.147772 0.775682
O O15 0.222176 0.979555 0.804456
O O16 0.163650 0.127736 0.036236
O O17 0.500000 0.000000 0.000000
#
# Coordination Sequence:
#
# PCOD8014637 Si02
#       8
#     2   2   2   2   2   2   2   2
#     4  11  23  41  68  99 139 178 236 276 353 405
#     4  10  22  43  68  97 137 181 233 280 342 416
#     4  12  23  44  75 102 136 186 239 285 339 427
#     4  11  26  43  69 102 144 179 228 295 348 413
#     4  11  24  42  73  97 145 180 235 291 340 420
#     4  10  21  41  69  96 132 188 229 281 343 409
#     4  11  25  45  68 108 138 183 232 288 354 405
#     4  12  25  42  67 101 141 185 229 283 354 415
#
# _framework density 22.507642000000001
#
# number of rings (size 3 to 8) (size 9 to 14) (size 15 to 20)
#    0.000    1.000    3.750    2.625    1.750    3.000 
#    0.000    6.250    0.000    0.000    0.000    0.000 
#    0.000    0.000    0.000    0.000    0.000    0.000 
#
# Total GULP energy -198209.247089 kJ/mol
# GULP energy per Si atom -12388.077943 kJ/mol
# Density = 2.245641 g / cm^3
# Si number density = 22.507642 Si / 1000 Ang^3
#
#
#
# Elastic Constant Matrix: (Units=GPa)
#
#
# Indices 1 2 3 4 5 6 
#
# 1 80.7007 32.1739 35.5490 -1.1702 -18.8629 1.0971
# 2 32.1739 143.4157 56.6581 3.4135 3.2410 13.3900
# 3 35.5490 56.6581 116.3525 12.9330 -9.3941 10.1840
# 4 -1.1702 3.4135 12.9330 42.4330 10.4051 2.4141
# 5 -18.8629 3.2410 -9.3941 10.4051 38.1785 -6.2642
# 6 1.0971 13.3900 10.1840 2.4141 -6.2642 23.4493
#
#
#
# Elastic Compliance Matrix: (Units=1/GPa)
#
#
# Indices 1 2 3 4 5 6 
#
# 1 0.017125 -0.003175 -0.003315 -0.000728 0.008919 0.004909
# 2 -0.003175 0.009778 -0.003913 0.001763 -0.004690 -0.005169
# 3 -0.003315 -0.003913 0.012331 -0.004047 0.002524 -0.001875
# 4 -0.000728 0.001763 -0.004047 0.027278 -0.009697 -0.004614
# 5 0.008919 -0.004690 0.002524 -0.009697 0.036203 0.011834
# 6 0.004909 -0.005169 -0.001875 -0.004614 0.011834 0.049818
#
#
# Mechanical properties :
#
#
# Convention : Reuss Voigt Hill
#
# Bulk Modulus (GPa) = 54.26765 65.47010 59.86887
# Shear Modulus (GPa) = 27.85822 35.21803 31.53812
#
# Velocity S-wave (km/s) = 3.52195 3.95994 3.74735
# Velocity P-wave (km/s) = 6.37980 7.07526 6.73651
#
# Compressibility (1/GPa) = 0.01842719
#
# Stress axis : x y z
#
# Youngs Moduli (GPa) = 58.39539 102.27361 81.09848
#
# Poissons Ratio (x) = 0.32469 0.26882
# Poissons Ratio (y) = 0.18539 0.31738
# Poissons Ratio (z) = 0.19357 0.40024
#
# Static dielectric constant tensor:
#      x y z
#    x 3.842200 0.154840 -0.345190 
#    y 0.154840 4.492560 0.209420 
#    z -0.345190 0.209420 4.198450 
# 
# 
# High freq. dielectric constant tensor:
#      x y z
#    x 1.866640 0.007750 -0.027720 
#    y 0.007750 1.905290 0.013010 
#    z -0.027720 0.013010 1.894930 
# 
# From -- ./inp_files/188325.got.cif
#   From: 2010.06.25/outbox.cif.g09.slc.cpg/sg2_95_cif.got.tgz:188325.got - 2010.06.27 13:26:56.
