data_PCOD8014238
_publ_section_title
;
Structure prediction by ZEFSAII (Michael W. Deem and Ramdas Pophale) SiO2 
 PCOD8014238
Probable space group: P -1
;
_chemical_formula_sum "Si O2"
_cell_formula_units_Z 14
_cell_length_a 10.994517
_cell_length_b 11.088086
_cell_length_c 7.273428
_cell_angle_alpha 114.825808
_cell_angle_beta 135.593427
_cell_angle_gamma 65.257695
_cell_volume 553.214668
_symmetry_space_group_name_H-M "P -1"
_symmetry_group_IT_number 2
_symmetry_cell_setting 'triclinic'
loop_
_space_group_symop_operation_xyz
x,y,z
-x,-y,-z
loop_
_atom_site_type_symbol
_atom_site_label
_atom_site_fract_x
_atom_site_fract_y
_atom_site_fract_z
Si Si1 0.854876 0.699237 0.455819
Si Si2 0.682026 0.043385 0.921663
Si Si3 0.936693 0.989635 0.632667
Si Si4 0.572681 0.141663 0.471621
Si Si5 0.548741 0.320582 0.050853
Si Si6 0.044258 0.529484 0.860540
Si Si7 0.583474 0.419881 0.762891
O O1 0.649276 0.697858 0.217245
O O2 0.962321 0.600767 0.356933
O O3 0.889956 0.847342 0.546467
O O4 0.915224 0.654884 0.701325
O O5 0.580377 0.104168 0.669858
O O6 0.662390 0.171232 0.127193
O O7 0.581770 0.929337 0.828151
O O8 0.886792 0.986186 0.052215
O O9 0.000000 0.000000 0.500000
O O10 0.764343 0.102222 0.558905
O O11 0.506814 0.304492 0.492942
O O12 0.632539 0.377510 0.999088
O O13 0.551248 0.433143 0.287862
O O14 0.234651 0.564948 0.119436
O O15 0.000000 0.500000 0.000000
#
# Coordination Sequence:
#
# PCOD8014238 Si02
#       7
#     2   2   2   2   2   2   2
#     4  10  21  42  64  98 137 181 234 292 346 418
#     4  10  21  41  70  94 134 181 230 290 343 422
#     4  12  26  42  69  99 140 189 229 282 358 421
#     4  10  21  41  66 103 131 173 235 286 348 418
#     4   9  17  38  67  93 132 182 224 280 363 403
#     4  10  22  40  69  96 136 182 234 290 350 422
#     4   9  19  36  66  96 130 170 223 287 342 416
#
# _framework density 25.306632
#
# number of rings (size 3 to 8) (size 9 to 14) (size 15 to 20)
#    0.000    2.000    1.429    2.143    2.000    1.714 
#    0.000    0.714    6.286    0.000    0.000    0.000 
#    0.000    0.000    0.000    0.000    0.000    0.000 
#
# Total GULP energy -173475.431892 kJ/mol
# GULP energy per Si atom -12391.102278 kJ/mol
# Density = 2.524903 g / cm^3
# Si number density = 25.306632 Si / 1000 Ang^3
#
#
#
# Elastic Constant Matrix: (Units=GPa)
#
#
# Indices 1 2 3 4 5 6 
#
# 1 141.0543 75.8177 38.1735 15.9841 19.7098 -0.5686
# 2 75.8177 97.1401 60.0320 35.6551 -9.8056 -4.0375
# 3 38.1735 60.0320 66.1509 30.9965 13.0845 -0.8983
# 4 15.9841 35.6551 30.9965 42.8774 9.1120 -9.4102
# 5 19.7098 -9.8056 13.0845 9.1120 30.4842 -7.5838
# 6 -0.5686 -4.0375 -0.8983 -9.4102 -7.5838 44.5420
#
#
#
# Elastic Compliance Matrix: (Units=1/GPa)
#
#
# Indices 1 2 3 4 5 6 
#
# 1 -0.074765 0.181725 -0.129178 -0.063050 0.188989 0.031770
# 2 0.181725 -0.395043 0.270592 0.138940 -0.419688 -0.070135
# 3 -0.129178 0.270592 -0.158465 -0.112826 0.283266 0.044076
# 4 -0.063050 0.138940 -0.112826 -0.010983 0.145103 0.031899
# 5 0.188989 -0.419688 0.283266 0.145103 -0.406371 -0.068451
# 6 0.031770 -0.070135 0.044076 0.031899 -0.068451 0.012472
#
#
# Mechanical properties :
#
#
# Convention : Reuss Voigt Hill
#
# Bulk Modulus (GPa) = 55.54085 72.48800 64.01442
# Shear Modulus (GPa) = -2.98788 32.26885 14.64049
#
# Velocity S-wave (km/s) = -1.08776 3.57475 2.40786
# Velocity P-wave (km/s) = 4.51853 6.76347 5.75159
#
# Compressibility (1/GPa) = 0.01800477
#
# Stress axis : x y z
#
# Youngs Moduli (GPa) = -13.37531 -2.53137 -6.31056
#
# Poissons Ratio (x) = 0.46001 -0.81519
# Poissons Ratio (y) = 2.43063 1.70759
# Poissons Ratio (z) = -1.72780 0.68497
#
# Static dielectric constant tensor:
#      x y z
#    x 4.726840 -0.246770 0.181570 
#    y -0.246770 5.190760 0.333250 
#    z 0.181570 0.333250 4.706210 
# 
# 
# High freq. dielectric constant tensor:
#      x y z
#    x 2.021140 -0.000450 0.012280 
#    y -0.000450 2.013520 0.021050 
#    z 0.012280 0.021050 1.991820 
# 
# From -- ./inp_files/260454.got.cif
#   From: 2010.06.25/outbox.cif.g09.slc.cpg/sg2_131_cif.got.tgz:260454.got - 2010.06.27 13:26:56.
