data_PCOD8014181
_publ_section_title
;
Structure prediction by ZEFSAII (Michael W. Deem and Ramdas Pophale) SiO2 
 PCOD8014181
Probable space group: P -1
;
_chemical_formula_sum "Si O2"
_cell_formula_units_Z 16
_cell_length_a 19.745382
_cell_length_b 11.448156
_cell_length_c 8.702045
_cell_angle_alpha 134.036653
_cell_angle_beta 76.791573
_cell_angle_gamma 138.315355
_cell_volume 746.715290
_symmetry_space_group_name_H-M "P -1"
_symmetry_group_IT_number 2
_symmetry_cell_setting 'triclinic'
loop_
_space_group_symop_operation_xyz
x,y,z
-x,-y,-z
loop_
_atom_site_type_symbol
_atom_site_label
_atom_site_fract_x
_atom_site_fract_y
_atom_site_fract_z
Si Si1 0.256112 0.232372 0.315130
Si Si2 0.211034 0.771223 0.439628
Si Si3 0.001362 0.106749 0.941704
Si Si4 0.424153 0.742781 0.923740
Si Si5 0.314972 0.291736 0.000863
Si Si6 0.458523 0.088729 0.674319
Si Si7 0.185333 0.253896 0.792924
Si Si8 0.139493 0.834314 0.258805
O O1 0.365283 0.489049 0.616326
O O2 0.326522 0.339512 0.218794
O O3 0.198713 0.956058 0.167927
O O4 0.143693 0.145909 0.269936
O O5 0.072107 0.418787 0.223866
O O6 0.217959 0.863931 0.351594
O O7 0.312657 0.825817 0.456339
O O8 0.248172 0.986305 0.735329
O O9 0.073341 0.159952 0.809987
O O10 0.000000 0.000000 0.000000
O O11 0.303105 0.576042 0.935601
O O12 0.529249 0.887123 0.124470
O O13 0.500000 0.000000 0.000000
O O14 0.459173 0.594652 0.138436
O O15 0.232662 0.272249 0.946830
O O16 0.500000 0.000000 0.500000
O O17 0.133168 0.004135 0.487310
O O18 0.000000 0.500000 0.000000
#
# Coordination Sequence:
#
# PCOD8014181 Si02
#       8
#     2   2   2   2   2   2   2   2
#     4  11  23  40  65  94 134 168 219 275 327 387
#     4  11  24  42  68  93 127 176 225 262 333 403
#     4  12  24  39  65 100 131 172 228 271 327 397
#     4  10  22  39  63  93 128 165 209 272 332 379
#     4  10  21  41  65  94 128 175 217 268 325 397
#     4  11  23  44  71  93 131 173 221 272 331 396
#     4   9  21  40  63  92 129 174 216 267 327 391
#     4  10  21  42  62  92 132 170 212 268 330 389
#
# _framework density 21.427174999999998
#
# number of rings (size 3 to 8) (size 9 to 14) (size 15 to 20)
#    0.000    1.500    2.500    3.375    1.750    3.500 
#    2.250    5.000    0.000    0.000    0.000    0.000 
#    0.000    0.000    0.000    0.000    0.000    0.000 
#
# Total GULP energy -198258.163922 kJ/mol
# GULP energy per Si atom -12391.135245 kJ/mol
# Density = 2.137841 g / cm^3
# Si number density = 21.427175 Si / 1000 Ang^3
#
#
#
# Elastic Constant Matrix: (Units=GPa)
#
#
# Indices 1 2 3 4 5 6 
#
# 1 84.4919 32.6060 26.8968 -6.2379 10.2339 -11.3801
# 2 32.6060 144.3450 33.2855 -9.9986 -0.6263 -33.1896
# 3 26.8968 33.2855 99.6814 -2.5879 6.9627 -12.8346
# 4 -6.2379 -9.9986 -2.5879 40.4825 -10.8838 1.8603
# 5 10.2339 -0.6263 6.9627 -10.8838 37.9180 -0.9807
# 6 -11.3801 -33.1896 -12.8346 1.8603 -0.9807 32.4373
#
#
#
# Elastic Compliance Matrix: (Units=1/GPa)
#
#
# Indices 1 2 3 4 5 6 
#
# 1 0.014164 -0.002213 -0.002650 0.000542 -0.003178 0.001529
# 2 -0.002213 0.009972 -0.001692 0.002127 0.001908 0.008694
# 3 -0.002650 -0.001692 0.011656 -0.000593 -0.001573 0.001938
# 4 0.000542 0.002127 -0.000593 0.027352 0.007869 0.000801
# 5 -0.003178 0.001908 -0.001573 0.007869 0.029827 0.000666
# 6 0.001529 0.008694 0.001938 0.000801 0.000666 0.041001
#
#
# Mechanical properties :
#
#
# Convention : Reuss Voigt Hill
#
# Bulk Modulus (GPa) = 44.08561 57.12165 50.60363
# Shear Modulus (GPa) = 32.33269 37.88290 35.10779
#
# Velocity S-wave (km/s) = 3.88874 4.20930 4.05219
# Velocity P-wave (km/s) = 6.38611 7.09512 6.74993
#
# Compressibility (1/GPa) = 0.02268314
#
# Stress axis : x y z
#
# Youngs Moduli (GPa) = 70.60204 100.27675 85.79403
#
# Poissons Ratio (x) = 0.22192 0.22735
# Poissons Ratio (y) = 0.15625 0.14512
# Poissons Ratio (z) = 0.18709 0.16962
#
# Static dielectric constant tensor:
#      x y z
#    x 3.660570 -0.090710 0.245130 
#    y -0.090710 3.715390 0.091980 
#    z 0.245130 0.091980 4.273590 
# 
# 
# High freq. dielectric constant tensor:
#      x y z
#    x 1.813260 -0.022960 0.012910 
#    y -0.022960 1.846530 0.004400 
#    z 0.012910 0.004400 1.859750 
# 
# From -- ./inp_files/295143.got.cif
#   From: 2010.06.25/outbox.cif.g09.slc.cpg/sg2_148_cif.got.tgz:295143.got - 2010.06.27 13:26:56.
