data_PCOD8014210
_publ_section_title
;
Structure prediction by ZEFSAII (Michael W. Deem and Ramdas Pophale) SiO2 
 PCOD8014210
Probable space group: P -1
;
_chemical_formula_sum "Si O2"
_cell_formula_units_Z 16
_cell_length_a 15.134002
_cell_length_b 12.439038
_cell_length_c 12.496831
_cell_angle_alpha 131.076144
_cell_angle_beta 26.312042
_cell_angle_gamma 135.049197
_cell_volume 734.800273
_symmetry_space_group_name_H-M "P -1"
_symmetry_group_IT_number 2
_symmetry_cell_setting 'triclinic'
loop_
_space_group_symop_operation_xyz
x,y,z
-x,-y,-z
loop_
_atom_site_type_symbol
_atom_site_label
_atom_site_fract_x
_atom_site_fract_y
_atom_site_fract_z
Si Si1 0.574824 0.805257 0.885816
Si Si2 0.453768 0.962298 0.651116
Si Si3 0.912501 0.041414 0.810065
Si Si4 0.513915 0.515588 0.144150
Si Si5 0.522294 0.355149 0.518871
Si Si6 0.744498 0.679867 0.423550
Si Si7 0.863399 0.583511 0.645561
Si Si8 0.770034 0.107724 0.583987
O O1 0.794837 0.929604 0.769265
O O2 0.494640 0.658788 0.955554
O O3 0.610438 0.749936 0.693919
O O4 0.392178 0.881677 0.139448
O O5 0.412016 0.788269 0.616170
O O6 0.500000 0.000000 0.500000
O O7 0.651898 0.078715 0.578242
O O8 0.237367 0.986252 0.940096
O O9 0.140896 0.026553 0.578514
O O10 0.001726 0.217782 0.786616
O O11 0.588612 0.605688 0.231222
O O12 0.276579 0.511780 0.364812
O O13 0.690803 0.609705 0.929288
O O14 0.723725 0.508794 0.370386
O O15 0.349208 0.319329 0.591312
O O16 0.000000 0.500000 0.500000
O O17 0.019449 0.744457 0.542455
#
# Coordination Sequence:
#
# PCOD8014210 Si02
#       8
#     2   2   2   2   2   2   2   2
#     4  10  21  41  65  96 126 161 217 274 316 373
#     4  11  27  43  65  97 134 169 214 263 319 390
#     4  11  23  43  67  97 125 171 216 264 326 375
#     4  10  22  38  63  93 130 165 215 265 314 383
#     4  10  23  45  64  93 132 172 211 264 315 381
#     4  10  22  45  69  91 130 173 216 265 318 380
#     4  11  22  37  63  94 128 171 211 264 322 380
#     4  11  23  41  64  97 131 166 216 263 325 379
#
# _framework density 21.774625
#
# number of rings (size 3 to 8) (size 9 to 14) (size 15 to 20)
#    0.000    1.500    3.750    0.375    3.500    2.500 
#    2.250    0.000    0.000    0.000    0.000    0.000 
#    0.000    0.000    0.000    0.000    0.000    0.000 
#
# Total GULP energy -198316.687033 kJ/mol
# GULP energy per Si atom -12394.792940 kJ/mol
# Density = 2.172507 g / cm^3
# Si number density = 21.774625 Si / 1000 Ang^3
#
#
#
# Elastic Constant Matrix: (Units=GPa)
#
#
# Indices 1 2 3 4 5 6 
#
# 1 111.7030 33.3673 57.9963 4.5527 13.1124 12.5942
# 2 33.3673 81.1323 36.0255 -0.6781 4.5857 7.3071
# 3 57.9963 36.0255 110.0844 -8.1197 -4.5469 11.4300
# 4 4.5527 -0.6781 -8.1197 33.3651 -2.5882 -3.1743
# 5 13.1124 4.5857 -4.5469 -2.5882 35.7386 5.7140
# 6 12.5942 7.3071 11.4300 -3.1743 5.7140 35.9179
#
#
#
# Elastic Compliance Matrix: (Units=1/GPa)
#
#
# Indices 1 2 3 4 5 6 
#
# 1 0.014494 -0.002266 -0.007288 -0.004428 -0.005997 -0.001739
# 2 -0.002266 0.015080 -0.003746 -0.000495 -0.001474 -0.000891
# 3 -0.007288 -0.003746 0.014940 0.004814 0.005711 -0.001920
# 4 -0.004428 -0.000495 0.004814 0.032287 0.004272 0.002295
# 5 -0.005997 -0.001474 0.005711 0.004272 0.032068 -0.004139
# 6 -0.001739 -0.000891 -0.001920 0.002295 -0.004139 0.030104
#
#
# Mechanical properties :
#
#
# Convention : Reuss Voigt Hill
#
# Bulk Modulus (GPa) = 55.82425 61.96643 58.89534
# Shear Modulus (GPa) = 29.14702 32.70635 30.92669
#
# Velocity S-wave (km/s) = 3.66263 3.87982 3.77279
# Velocity P-wave (km/s) = 6.60147 6.97069 6.78859
#
# Compressibility (1/GPa) = 0.01791336
#
# Stress axis : x y z
#
# Youngs Moduli (GPa) = 68.99603 66.31165 66.93595
#
# Poissons Ratio (x) = 0.15027 0.48782
# Poissons Ratio (y) = 0.15636 0.25075
# Poissons Ratio (z) = 0.50283 0.24841
#
# Static dielectric constant tensor:
#      x y z
#    x 3.969430 -0.225980 0.063350 
#    y -0.225980 5.245440 -0.208160 
#    z 0.063350 -0.208160 3.827250 
# 
# 
# High freq. dielectric constant tensor:
#      x y z
#    x 1.849600 0.007730 0.006520 
#    y 0.007730 1.873920 -0.012110 
#    z 0.006520 -0.012110 1.845720 
# 
# From -- ./inp_files/451587.got.cif
#   From: 2010.06.25/outbox.cif.g09.slc.cpg/sg2_226_cif.got.tgz:451587.got - 2010.06.27 13:26:56.
