data_PCOD8014650
_publ_section_title
;
Structure prediction by ZEFSAII (Michael W. Deem and Ramdas Pophale) SiO2 
 PCOD8014650
Probable space group: P -1
;
_chemical_formula_sum "Si O2"
_cell_formula_units_Z 16
_cell_length_a 5.385287
_cell_length_b 18.190880
_cell_length_c 9.973760
_cell_angle_alpha 121.735797
_cell_angle_beta 69.898339
_cell_angle_gamma 120.000601
_cell_volume 715.308830
_symmetry_space_group_name_H-M "P -1"
_symmetry_group_IT_number 2
_symmetry_cell_setting 'triclinic'
loop_
_space_group_symop_operation_xyz
x,y,z
-x,-y,-z
loop_
_atom_site_type_symbol
_atom_site_label
_atom_site_fract_x
_atom_site_fract_y
_atom_site_fract_z
Si Si1 0.812330 0.853602 0.816094
Si Si2 0.509017 0.787362 0.543935
Si Si3 0.404432 0.014948 0.887634
Si Si4 0.334471 0.027215 0.440323
Si Si5 0.734258 0.632915 0.321685
Si Si6 0.327360 0.424432 0.150949
Si Si7 0.119126 0.604293 0.026288
Si Si8 0.871764 0.666984 0.626239
O O1 0.676631 0.856602 0.700058
O O2 0.751757 0.746306 0.760603
O O3 0.685260 0.895812 0.000706
O O4 0.147797 0.918148 0.797031
O O5 0.499640 0.859278 0.500180
O O6 0.665992 0.723763 0.395005
O O7 0.209981 0.716144 0.589827
O O8 0.652872 0.034288 0.750776
O O9 0.500000 0.000000 0.000000
O O10 0.500000 0.000000 0.500000
O O11 0.000000 0.000000 0.500000
O O12 0.498032 0.537475 0.207768
O O13 0.741361 0.613180 0.460153
O O14 0.045495 0.660588 0.216360
O O15 0.538982 0.368338 0.036070
O O16 0.205129 0.406271 0.307811
O O17 0.052659 0.386492 0.066332
O O18 0.000000 0.500000 0.000000
#
# Coordination Sequence:
#
# PCOD8014650 Si02
#       8
#     2   2   2   2   2   2   2   2
#     4  10  21  41  69  98 130 179 231 273 347 409
#     4  11  24  44  69  99 143 181 225 288 356 405
#     4  11  21  42  76  91 130 182 230 274 352 414
#     4  12  27  47  69 102 138 175 228 286 342 416
#     4  10  24  42  72  97 139 191 225 276 356 409
#     4  11  25  44  71 107 136 183 240 287 331 408
#     4  10  23  46  68  93 141 184 229 281 348 407
#     4  11  24  41  71  97 143 174 237 291 331 408
#
# _framework density 22.367958999999999
#
# number of rings (size 3 to 8) (size 9 to 14) (size 15 to 20)
#    0.000    1.250    2.500    2.625   12.250    0.500 
#    4.500    0.000    0.000    0.000    0.000    0.000 
#    0.000    0.000    0.000    0.000    0.000    0.000 
#
# Total GULP energy -198333.389059 kJ/mol
# GULP energy per Si atom -12395.836816 kJ/mol
# Density = 2.231705 g / cm^3
# Si number density = 22.367959 Si / 1000 Ang^3
#
#
#
# Elastic Constant Matrix: (Units=GPa)
#
#
# Indices 1 2 3 4 5 6 
#
# 1 134.6015 31.1762 44.0716 -15.8145 -10.8597 -8.7204
# 2 31.1762 64.7250 36.9113 -5.7751 -7.5224 -9.8084
# 3 44.0716 36.9113 130.9935 -10.7922 -29.2508 -14.7693
# 4 -15.8145 -5.7751 -10.7922 32.5135 0.9158 4.1337
# 5 -10.8597 -7.5224 -29.2508 0.9158 38.0097 -7.4039
# 6 -8.7204 -9.8084 -14.7693 4.1337 -7.4039 33.9068
#
#
#
# Elastic Compliance Matrix: (Units=1/GPa)
#
#
# Indices 1 2 3 4 5 6 
#
# 1 0.009165 -0.002960 -0.001774 0.003263 0.000682 0.000479
# 2 -0.002960 0.019779 -0.004052 0.000294 0.000583 0.003287
# 3 -0.001774 -0.004052 0.012132 0.001496 0.009053 0.005450
# 4 0.003263 0.000294 0.001496 0.033156 0.000901 -0.002269
# 5 0.000682 0.000583 0.009053 0.000901 0.035906 0.012018
# 6 0.000479 0.003287 0.005450 -0.002269 0.012018 0.035842
#
#
# Mechanical properties :
#
#
# Convention : Reuss Voigt Hill
#
# Bulk Modulus (GPa) = 42.54763 61.62646 52.08705
# Shear Modulus (GPa) = 29.17382 35.43007 32.30194
#
# Velocity S-wave (km/s) = 3.61538 3.98422 3.80428
# Velocity P-wave (km/s) = 6.04078 6.98401 6.52945
#
# Compressibility (1/GPa) = 0.02350307
#
# Stress axis : x y z
#
# Youngs Moduli (GPa) = 109.10699 50.55950 82.42521
#
# Poissons Ratio (x) = 0.14964 0.14626
# Poissons Ratio (y) = 0.32292 0.33402
# Poissons Ratio (z) = 0.19360 0.20489
#
# Static dielectric constant tensor:
#      x y z
#    x 4.603300 -0.220310 -0.935250 
#    y -0.220310 3.780640 0.282000 
#    z -0.935250 0.282000 5.722880 
# 
# 
# High freq. dielectric constant tensor:
#      x y z
#    x 1.893260 -0.011680 -0.013600 
#    y -0.011680 1.853850 0.001160 
#    z -0.013600 0.001160 1.894130 
# 
# From -- ./inp_files/139345.got.cif
#   From: 2010.06.25/outbox.cif.g09.slc.cpg/sg2_70_cif.got.tgz:139345.got - 2010.06.27 13:26:56.
