data_PCOD8014883
_publ_section_title
;
Structure prediction by ZEFSAII (Michael W. Deem and Ramdas Pophale) SiO2 
 PCOD8014883
Probable space group: P -1
;
_chemical_formula_sum "Si O2"
_cell_formula_units_Z 14
_cell_length_a 8.750211
_cell_length_b 14.749671
_cell_length_c 14.832028
_cell_angle_alpha 149.171961
_cell_angle_beta 43.780617
_cell_angle_gamma 136.893716
_cell_volume 645.191223
_symmetry_space_group_name_H-M "P -1"
_symmetry_group_IT_number 2
_symmetry_cell_setting 'triclinic'
loop_
_space_group_symop_operation_xyz
x,y,z
-x,-y,-z
loop_
_atom_site_type_symbol
_atom_site_label
_atom_site_fract_x
_atom_site_fract_y
_atom_site_fract_z
Si Si1 0.582546 0.535311 0.095799
Si Si2 0.116767 0.274193 0.110497
Si Si3 0.331177 0.115744 0.535075
Si Si4 0.739632 0.068041 0.212995
Si Si5 0.112958 0.194901 0.517215
Si Si6 0.948044 0.424798 0.131302
Si Si7 0.389267 0.951717 0.103006
O O1 0.376352 0.409320 0.140023
O O2 0.630925 0.751751 0.281674
O O3 0.500000 0.500000 0.000000
O O4 0.827130 0.490257 0.957379
O O5 0.936053 0.256968 0.255939
O O6 0.013814 0.338410 0.120488
O O7 0.132992 0.067285 0.911452
O O8 0.584024 0.114371 0.396243
O O9 0.206928 0.198639 0.581403
O O10 0.163887 0.912072 0.459735
O O11 0.584993 0.969602 0.109657
O O12 0.155569 0.409859 0.655547
O O13 0.244806 0.094273 0.308003
O O14 0.768470 0.262958 0.012368
O O15 0.500000 0.000000 0.000000
#
# Coordination Sequence:
#
# PCOD8014883 Si02
#       7
#     2   2   2   2   2   2   2
#     4  10  22  40  62  91 128 164 214 259 314 385
#     4  10  22  42  59  92 129 169 213 251 321 385
#     4  10  21  42  62  96 127 165 216 264 318 377
#     4  10  22  41  64  89 131 172 210 262 318 379
#     4  10  23  40  67  97 129 162 214 269 318 376
#     4  11  22  42  66  97 126 166 216 265 317 377
#     4  11  22  42  67  96 128 166 213 267 320 373
#
# _framework density 21.698995
#
# number of rings (size 3 to 8) (size 9 to 14) (size 15 to 20)
#    0.000    1.714    2.857    0.857    2.000    1.714 
#    5.143    4.286    0.000    0.000    0.000    0.000 
#    0.000    0.000    0.000    0.000    0.000    0.000 
#
# Total GULP energy -173554.326964 kJ/mol
# GULP energy per Si atom -12396.737640 kJ/mol
# Density = 2.164961 g / cm^3
# Si number density = 21.698995 Si / 1000 Ang^3
#
#
#
# Elastic Constant Matrix: (Units=GPa)
#
#
# Indices 1 2 3 4 5 6 
#
# 1 56.5800 32.7363 40.8996 8.6282 -4.0634 -3.9488
# 2 32.7363 127.9393 56.9330 1.7923 -10.0031 22.5677
# 3 40.8996 56.9330 154.0190 5.3065 -0.0232 1.8595
# 4 8.6282 1.7923 5.3065 40.7365 2.0065 -5.6406
# 5 -4.0634 -10.0031 -0.0232 2.0065 33.6001 1.8793
# 6 -3.9488 22.5677 1.8595 -5.6406 1.8793 32.1707
#
#
#
# Elastic Compliance Matrix: (Units=1/GPa)
#
#
# Indices 1 2 3 4 5 6 
#
# 1 0.025258 -0.005357 -0.004677 -0.003683 0.001318 0.006406
# 2 -0.005357 0.012540 -0.003079 -0.000523 0.003650 -0.009581
# 3 -0.004677 -0.003079 0.008851 0.000216 -0.001556 0.001203
# 4 -0.003683 -0.000523 0.000216 0.026081 -0.002416 0.004616
# 5 0.001318 0.003650 -0.001556 -0.002416 0.031407 -0.004567
# 6 0.006406 -0.009581 0.001203 0.004616 -0.004567 0.039598
#
#
# Mechanical properties :
#
#
# Convention : Reuss Voigt Hill
#
# Bulk Modulus (GPa) = 48.96493 66.63067 57.79780
# Shear Modulus (GPa) = 28.28595 35.16608 31.72601
#
# Velocity S-wave (km/s) = 3.61440 4.03007 3.82788
# Velocity P-wave (km/s) = 6.32717 7.24077 6.79933
#
# Compressibility (1/GPa) = 0.02042278
#
# Stress axis : x y z
#
# Youngs Moduli (GPa) = 39.59179 79.74791 112.98725
#
# Poissons Ratio (x) = 0.42718 0.52848
# Poissons Ratio (y) = 0.21208 0.34784
# Poissons Ratio (z) = 0.18519 0.24551
#
# Static dielectric constant tensor:
#      x y z
#    x 3.798940 0.467650 -0.073370 
#    y 0.467650 4.582610 -0.214460 
#    z -0.073370 -0.214460 3.802910 
# 
# 
# High freq. dielectric constant tensor:
#      x y z
#    x 1.840960 0.017700 -0.006460 
#    y 0.017700 1.864550 -0.009090 
#    z -0.006460 -0.009090 1.845520 
# 
# From -- ./inp_files/253080.got.cif
#   From: 2010.06.25/outbox.cif.g09.slc.cpg/sg2_127_cif.got.tgz:253080.got - 2010.06.27 13:26:56.
