data_PCOD8014901
_publ_section_title
;
Structure prediction by ZEFSAII (Michael W. Deem and Ramdas Pophale) SiO2 
 PCOD8014901
Probable space group: P -1
;
_chemical_formula_sum "Si O2"
_cell_formula_units_Z 14
_cell_length_a 12.678125
_cell_length_b 12.631410
_cell_length_c 11.149845
_cell_angle_alpha 64.184385
_cell_angle_beta 145.967918
_cell_angle_gamma 135.486639
_cell_volume 643.237342
_symmetry_space_group_name_H-M "P -1"
_symmetry_group_IT_number 2
_symmetry_cell_setting 'triclinic'
loop_
_space_group_symop_operation_xyz
x,y,z
-x,-y,-z
loop_
_atom_site_type_symbol
_atom_site_label
_atom_site_fract_x
_atom_site_fract_y
_atom_site_fract_z
Si Si1 0.839718 0.019747 0.255629
Si Si2 0.068953 0.917014 0.951069
Si Si3 0.697390 0.744932 0.901383
Si Si4 0.047585 0.749562 0.377455
Si Si5 0.219377 0.755219 0.792892
Si Si6 0.532471 0.086077 0.609176
Si Si7 0.809099 0.396134 0.592080
O O1 0.844248 0.153860 0.242339
O O2 0.001226 0.079290 0.253460
O O3 0.000000 0.000000 0.500000
O O4 0.527265 0.852207 0.029087
O O5 0.831675 0.772386 0.885625
O O6 0.257696 0.887205 0.122183
O O7 0.232971 0.090323 0.085088
O O8 0.381651 0.598603 0.664266
O O9 0.771896 0.688967 0.108048
O O10 0.076249 0.700597 0.555948
O O11 0.099235 0.673617 0.365055
O O12 0.244911 0.949876 0.465592
O O13 0.059329 0.576844 0.790927
O O14 0.624875 0.261242 0.591684
O O15 0.500000 0.000000 0.500000
#
# Coordination Sequence:
#
# PCOD8014901 Si02
#       7
#     2   2   2   2   2   2   2
#     4  11  25  46  64  82 117 167 217 245 291 369
#     4  11  19  37  64  91 119 158 208 246 288 361
#     4  11  20  33  65  98 119 154 196 250 309 352
#     4  11  20  37  65  94 126 161 194 244 303 365
#     4  11  25  42  64  87 123 166 199 249 310 352
#     4  10  16  35  60  89 127 153 189 245 298 355
#     4  11  22  37  58 100 130 147 198 253 306 361
#
# _framework density 21.764904000000001
#
# number of rings (size 3 to 8) (size 9 to 14) (size 15 to 20)
#    0.000    1.143    7.143    2.143    0.000    1.714 
#    0.000    1.429    0.000    0.000    0.000    0.000 
#    0.000    0.000    0.000    0.000    0.000    0.000 
#
# Total GULP energy -173443.355158 kJ/mol
# GULP energy per Si atom -12388.811083 kJ/mol
# Density = 2.171537 g / cm^3
# Si number density = 21.764904 Si / 1000 Ang^3
#
#
#
# Elastic Constant Matrix: (Units=GPa)
#
#
# Indices 1 2 3 4 5 6 
#
# 1 46.1465 15.0372 18.5524 -2.0969 -3.1777 -7.4905
# 2 15.0372 101.1051 49.0084 13.6963 1.9829 -3.9184
# 3 18.5524 49.0084 131.1801 -19.0997 12.5353 -5.1928
# 4 -2.0969 13.6963 -19.0997 35.9852 1.4779 -2.8992
# 5 -3.1777 1.9829 12.5353 1.4779 28.7967 -10.5152
# 6 -7.4905 -3.9184 -5.1928 -2.8992 -10.5152 17.8663
#
#
#
# Elastic Compliance Matrix: (Units=1/GPa)
#
#
# Indices 1 2 3 4 5 6 
#
# 1 0.027108 -0.002369 -0.003034 0.001762 0.010352 0.016342
# 2 -0.002369 0.014752 -0.006753 -0.009424 0.002152 0.000017
# 3 -0.003034 -0.006753 0.012452 0.009152 -0.006243 -0.001323
# 4 0.001762 -0.009424 0.009152 0.036907 -0.003008 0.005551
# 5 0.010352 0.002152 -0.006243 -0.003008 0.050324 0.032128
# 6 0.016342 0.000017 -0.001323 0.005551 0.032128 0.082251
#
#
# Mechanical properties :
#
#
# Convention : Reuss Voigt Hill
#
# Bulk Modulus (GPa) = 33.33589 49.29196 41.31393
# Shear Modulus (GPa) = 19.37181 29.58521 24.47851
#
# Velocity S-wave (km/s) = 2.98660 3.69088 3.35726
# Velocity P-wave (km/s) = 5.21945 6.39219 5.83536
#
# Compressibility (1/GPa) = 0.02999770
#
# Stress axis : x y z
#
# Youngs Moduli (GPa) = 36.88980 67.78915 80.30836
#
# Poissons Ratio (x) = 0.16061 0.24368
# Poissons Ratio (y) = 0.08740 0.54234
# Poissons Ratio (z) = 0.11194 0.45779
#
# Static dielectric constant tensor:
#      x y z
#    x 2.783100 -0.956230 -0.491920 
#    y -0.956230 2.669900 -0.913620 
#    z -0.491920 -0.913620 3.675760 
# 
# 
# High freq. dielectric constant tensor:
#      x y z
#    x 1.829930 0.007800 0.017090 
#    y 0.007800 1.847410 -0.019000 
#    z 0.017090 -0.019000 1.856530 
# 
# From -- ./inp_files/455654.got.cif
#   From: 2010.06.25/outbox.cif.g09.slc.cpg/sg2_228_cif.got.tgz:455654.got - 2010.06.27 13:26:56.
