data_PCOD8014575
_publ_section_title
;
Structure prediction by ZEFSAII (Michael W. Deem and Ramdas Pophale) SiO2 
 PCOD8014575
Probable space group: P -1
;
_chemical_formula_sum "Si O2"
_cell_formula_units_Z 14
_cell_length_a 6.848977
_cell_length_b 15.843661
_cell_length_c 12.466911
_cell_angle_alpha 46.913383
_cell_angle_beta 123.828759
_cell_angle_gamma 140.037065
_cell_volume 632.994914
_symmetry_space_group_name_H-M "P -1"
_symmetry_group_IT_number 2
_symmetry_cell_setting 'triclinic'
loop_
_space_group_symop_operation_xyz
x,y,z
-x,-y,-z
loop_
_atom_site_type_symbol
_atom_site_label
_atom_site_fract_x
_atom_site_fract_y
_atom_site_fract_z
Si Si1 0.080628 0.478788 0.378047
Si Si2 0.884427 0.959963 0.122252
Si Si3 0.275187 0.721920 0.067120
Si Si4 0.423651 0.325607 0.353913
Si Si5 0.767103 0.722297 0.444273
Si Si6 0.806833 0.763922 0.862368
Si Si7 0.342108 0.563553 0.064981
O O1 0.062720 0.569201 0.201607
O O2 0.402981 0.588631 0.440496
O O3 0.049896 0.339996 0.443275
O O4 0.778424 0.408268 0.417207
O O5 0.519673 0.869608 0.085362
O O6 0.918320 0.844977 0.289142
O O7 0.043890 0.097541 0.132513
O O8 0.000000 0.000000 0.000000
O O9 0.477038 0.705961 0.061053
O O10 0.049981 0.741216 0.924262
O O11 0.213935 0.214619 0.485393
O O12 0.312010 0.225681 0.297553
O O13 0.376166 0.449196 0.227485
O O14 0.519381 0.617622 0.960434
O O15 0.000000 0.500000 0.000000
#
# Coordination Sequence:
#
# PCOD8014575 Si02
#       7
#     2   2   2   2   2   2   2
#     4  10  21  41  68  99 129 171 218 279 323 387
#     4  11  25  48  67  91 131 182 226 267 324 397
#     4  11  21  42  69  97 131 172 222 272 322 387
#     4  12  23  39  67 102 138 164 217 276 336 387
#     4  10  24  43  66  94 132 174 222 269 333 384
#     4  12  25  40  68 100 135 175 217 268 330 396
#     4  12  22  38  67 102 136 168 213 274 334 382
#
# _framework density 22.117080000000001
#
# number of rings (size 3 to 8) (size 9 to 14) (size 15 to 20)
#    0.000    0.857    5.714    2.143    0.000    0.571 
#    7.714    0.714    0.000    0.000    0.000    0.000 
#    0.000    0.000    0.000    0.000    0.000    0.000 
#
# Total GULP energy -173445.868581 kJ/mol
# GULP energy per Si atom -12388.990613 kJ/mol
# Density = 2.206674 g / cm^3
# Si number density = 22.117080 Si / 1000 Ang^3
#
#
#
# Elastic Constant Matrix: (Units=GPa)
#
#
# Indices 1 2 3 4 5 6 
#
# 1 116.6111 38.5441 50.5099 -5.1570 -3.1800 -7.0492
# 2 38.5441 81.3982 32.5339 1.6079 0.9596 -8.8687
# 3 50.5099 32.5339 98.3727 -3.7503 -22.3691 4.5152
# 4 -5.1570 1.6079 -3.7503 20.5447 3.8106 -2.6488
# 5 -3.1800 0.9596 -22.3691 3.8106 47.3545 12.9595
# 6 -7.0492 -8.8687 4.5152 -2.6488 12.9595 30.3249
#
#
#
# Elastic Compliance Matrix: (Units=1/GPa)
#
#
# Indices 1 2 3 4 5 6 
#
# 1 0.012725 -0.002882 -0.006552 0.003590 -0.003853 0.005051
# 2 -0.002882 0.016726 -0.005560 -0.001207 -0.004999 0.007081
# 3 -0.006552 -0.005560 0.018426 -0.001382 0.011476 -0.010917
# 4 0.003590 -0.001207 -0.001382 0.051716 -0.006764 0.008095
# 5 -0.003853 -0.004999 0.011476 -0.006764 0.031934 -0.018305
# 6 0.005051 0.007081 -0.010917 0.008095 -0.018305 0.046376
#
#
# Mechanical properties :
#
#
# Convention : Reuss Voigt Hill
#
# Bulk Modulus (GPa) = 55.89613 59.95087 57.92350
# Shear Modulus (GPa) = 23.38040 31.29778 27.33909
#
# Velocity S-wave (km/s) = 3.25486 3.76586 3.51965
# Velocity P-wave (km/s) = 6.28118 6.78777 6.53938
#
# Compressibility (1/GPa) = 0.01789033
#
# Stress axis : x y z
#
# Youngs Moduli (GPa) = 78.58559 59.78544 54.27136
#
# Poissons Ratio (x) = 0.17231 0.35556
# Poissons Ratio (y) = 0.22650 0.30173
# Poissons Ratio (z) = 0.51486 0.33239
#
# Static dielectric constant tensor:
#      x y z
#    x 4.220700 -0.283100 -0.121790 
#    y -0.283100 4.149960 0.164290 
#    z -0.121790 0.164290 3.943790 
# 
# 
# High freq. dielectric constant tensor:
#      x y z
#    x 1.875920 -0.004400 -0.003440 
#    y -0.004400 1.863180 0.018950 
#    z -0.003440 0.018950 1.864040 
# 
# From -- ./inp_files/64069.got.cif
#   From: 2010.06.25/outbox.cif.g09.slc.cpg/sg2_33_cif.got.tgz:64069.got - 2010.06.27 13:26:56.
