data_PCOD8014306
_publ_section_title
;
Structure prediction by ZEFSAII (Michael W. Deem and Ramdas Pophale) SiO2 
 PCOD8014306
Probable space group: P -1
;
_chemical_formula_sum "Si O2"
_cell_formula_units_Z 12
_cell_length_a 7.130760
_cell_length_b 7.332040
_cell_length_c 14.324124
_cell_angle_alpha 122.425696
_cell_angle_beta 84.828677
_cell_angle_gamma 61.926841
_cell_volume 495.304355
_symmetry_space_group_name_H-M "P -1"
_symmetry_group_IT_number 2
_symmetry_cell_setting 'triclinic'
loop_
_space_group_symop_operation_xyz
x,y,z
-x,-y,-z
loop_
_atom_site_type_symbol
_atom_site_label
_atom_site_fract_x
_atom_site_fract_y
_atom_site_fract_z
Si Si1 0.884090 0.948196 0.375109
Si Si2 0.370331 0.601895 0.347628
Si Si3 0.101369 0.731918 0.815804
Si Si4 0.460843 0.938633 0.730535
Si Si5 0.948856 0.737101 0.631223
Si Si6 0.901295 0.781077 0.032666
O O1 0.719225 0.112338 0.519186
O O2 0.748130 0.887808 0.291075
O O3 0.914368 0.153318 0.379291
O O4 0.147398 0.671607 0.314045
O O5 0.609044 0.476581 0.240132
O O6 0.425292 0.383143 0.364750
O O7 0.041280 0.624037 0.700727
O O8 0.004001 0.047967 0.890785
O O9 0.955016 0.728362 0.906410
O O10 0.661248 0.976453 0.710340
O O11 0.373082 0.032846 0.867925
O O12 0.000000 0.500000 0.500000
O O13 0.000000 0.500000 0.000000
#
# Coordination Sequence:
#
# PCOD8014306 Si02
#       6
#     2   2   2   2   2   2
#     4  11  22  42  65 101 136 180 225 277 352 424
#     4  10  21  41  66  94 138 178 224 285 342 411
#     4  10  23  46  70 101 142 181 235 292 343 413
#     4  11  23  43  67  94 139 178 225 291 345 402
#     4  12  23  41  71 103 138 181 220 281 361 421
#     4  10  23  45  71  98 134 187 242 288 342 404
#
# _framework density 24.227526000000001
#
# number of rings (size 3 to 8) (size 9 to 14) (size 15 to 20)
#    0.000    1.333    5.000    1.500    2.333    2.000 
#    0.000    7.500    0.000    0.000    0.000    0.000 
#    0.000    0.000    0.000    0.000    0.000    0.000 
#
# Total GULP energy -148656.733229 kJ/mol
# GULP energy per Si atom -12388.061102 kJ/mol
# Density = 2.417238 g / cm^3
# Si number density = 24.227526 Si / 1000 Ang^3
#
#
#
# Elastic Constant Matrix: (Units=GPa)
#
#
# Indices 1 2 3 4 5 6 
#
# 1 93.9628 30.8123 48.5854 -3.5982 -21.8253 -23.9139
# 2 30.8123 97.5189 41.9035 -2.1201 3.6190 -24.0106
# 3 48.5854 41.9035 138.0808 -14.5365 -17.6118 -6.6909
# 4 -3.5982 -2.1201 -14.5365 32.6702 1.1359 0.1021
# 5 -21.8253 3.6190 -17.6118 1.1359 34.3098 0.1064
# 6 -23.9139 -24.0106 -6.6909 0.1021 0.1064 47.8370
#
#
#
# Elastic Compliance Matrix: (Units=1/GPa)
#
#
# Indices 1 2 3 4 5 6 
#
# 1 0.017353 -0.002483 -0.003866 -0.000315 0.009305 0.006868
# 2 -0.002483 0.014213 -0.003927 -0.000938 -0.005080 0.005357
# 3 -0.003866 -0.003927 0.010495 0.003885 0.003221 -0.002451
# 4 -0.000315 -0.000938 0.003885 0.032214 0.000827 -0.000156
# 5 0.009305 -0.005080 0.003221 0.000827 0.037220 0.002468
# 6 0.006868 0.005357 -0.002451 -0.000156 0.002468 0.026678
#
#
# Mechanical properties :
#
#
# Convention : Reuss Voigt Hill
#
# Bulk Modulus (GPa) = 46.48976 63.57386 55.03181
# Shear Modulus (GPa) = 30.13968 36.84748 33.49358
#
# Velocity S-wave (km/s) = 3.53090 3.90409 3.72218
# Velocity P-wave (km/s) = 5.98778 6.82788 6.42158
#
# Compressibility (1/GPa) = 0.02151011
#
# Stress axis : x y z
#
# Youngs Moduli (GPa) = 57.62759 70.35650 95.28222
#
# Poissons Ratio (x) = 0.17469 0.36834
# Poissons Ratio (y) = 0.14308 0.37416
# Poissons Ratio (z) = 0.22278 0.27628
#
# Static dielectric constant tensor:
#      x y z
#    x 4.680510 -0.037950 -0.180450 
#    y -0.037950 4.383190 0.137850 
#    z -0.180450 0.137850 5.381530 
# 
# 
# High freq. dielectric constant tensor:
#      x y z
#    x 1.951820 0.011760 -0.021890 
#    y 0.011760 1.948120 0.002200 
#    z -0.021890 0.002200 1.969120 
# 
# From -- ./inp_files/493623.got.cif
#   From: 2010.06.25/outbox.cif.g09.slc.cpg/sg2_247_cif.got.tgz:493623.got - 2010.06.27 13:26:56.
