data_PCOD8014424
_publ_section_title
;
Structure prediction by ZEFSAII (Michael W. Deem and Ramdas Pophale) SiO2 
 PCOD8014424
Probable space group: P -1
;
_chemical_formula_sum "Si O2"
_cell_formula_units_Z 16
_cell_length_a 8.666049
_cell_length_b 17.451620
_cell_length_c 8.875631
_cell_angle_alpha 64.001176
_cell_angle_beta 80.918562
_cell_angle_gamma 38.074220
_cell_volume 700.278238
_symmetry_space_group_name_H-M "P -1"
_symmetry_group_IT_number 2
_symmetry_cell_setting 'triclinic'
loop_
_space_group_symop_operation_xyz
x,y,z
-x,-y,-z
loop_
_atom_site_type_symbol
_atom_site_label
_atom_site_fract_x
_atom_site_fract_y
_atom_site_fract_z
Si Si1 0.097198 0.119077 0.967960
Si Si2 0.242682 0.336778 0.047124
Si Si3 0.893842 0.169334 0.632009
Si Si4 0.565276 0.070225 0.422654
Si Si5 0.512468 0.439487 0.277572
Si Si6 0.551622 0.155086 0.673924
Si Si7 0.412536 0.660699 0.968965
Si Si8 0.910987 0.686186 0.215430
O O1 0.207765 0.165445 0.890617
O O2 0.939845 0.158426 0.810766
O O3 0.900681 0.204687 0.068043
O O4 0.330538 0.949942 0.112413
O O5 0.323220 0.229264 0.248540
O O6 0.483696 0.295983 0.017351
O O7 0.159822 0.326340 0.918720
O O8 0.000000 0.500000 0.000000
O O9 0.752027 0.316825 0.462783
O O10 0.680951 0.189995 0.614205
O O11 0.170214 0.028794 0.628311
O O12 0.608622 0.081745 0.574663
O O13 0.500000 0.000000 0.500000
O O14 0.554249 0.518238 0.150987
O O15 0.228682 0.549018 0.307800
O O16 0.536659 0.365273 0.195238
O O17 0.234952 0.300158 0.636723
#
# Coordination Sequence:
#
# PCOD8014424 Si02
#       8
#     2   2   2   2   2   2   2   2
#     4  11  23  43  68  97 132 182 220 281 337 400
#     4  12  24  43  70 100 135 176 225 275 336 400
#     4  12  25  44  69  97 137 173 233 274 339 397
#     4  12  27  45  71 104 135 176 225 282 337 403
#     4  10  23  42  65  97 132 182 217 278 328 403
#     4  12  24  43  70  98 137 174 226 280 338 396
#     4  10  21  41  67  94 133 175 226 267 341 394
#     4  11  24  43  65  98 137 176 224 272 337 399
#
# _framework density 22.84806
#
# number of rings (size 3 to 8) (size 9 to 14) (size 15 to 20)
#    0.000    0.750    1.250    6.375    1.750    2.500 
#    2.250    0.000    0.000    0.000    0.000    0.000 
#    0.000    0.000    0.000    0.000    0.000    0.000 
#
# Total GULP energy -198474.975018 kJ/mol
# GULP energy per Si atom -12404.685939 kJ/mol
# Density = 2.279606 g / cm^3
# Si number density = 22.848060 Si / 1000 Ang^3
#
#
#
# Elastic Constant Matrix: (Units=GPa)
#
#
# Indices 1 2 3 4 5 6 
#
# 1 104.5360 21.7116 7.3823 7.2537 -19.8080 15.9763
# 2 21.7116 100.7477 40.1147 3.1821 -9.3444 -9.2900
# 3 7.3823 40.1147 80.1417 -14.2520 -5.4488 8.9733
# 4 7.2537 3.1821 -14.2520 36.8586 0.1425 -0.8432
# 5 -19.8080 -9.3444 -5.4488 0.1425 26.4784 10.4053
# 6 15.9763 -9.2900 8.9733 -0.8432 10.4053 43.4429
#
#
#
# Elastic Compliance Matrix: (Units=1/GPa)
#
#
# Indices 1 2 3 4 5 6 
#
# 1 0.014416 -0.003510 0.002120 -0.001993 0.013863 -0.009849
# 2 -0.003510 0.014625 -0.008506 -0.003705 -0.001759 0.006525
# 3 0.002120 -0.008506 0.019115 0.007510 0.005511 -0.007721
# 4 -0.001993 -0.003705 0.007510 0.030734 -0.001126 -0.000744
# 5 0.013863 -0.001759 0.005511 -0.001126 0.056590 -0.020189
# 6 -0.009849 0.006525 -0.007721 -0.000744 -0.020189 0.034452
#
#
# Mechanical properties :
#
#
# Convention : Reuss Voigt Hill
#
# Bulk Modulus (GPa) = 35.25717 47.09363 41.17540
# Shear Modulus (GPa) = 25.10310 35.77042 30.43676
#
# Velocity S-wave (km/s) = 3.31826 3.96103 3.65381
# Velocity P-wave (km/s) = 5.49051 6.44795 5.98840
#
# Compressibility (1/GPa) = 0.02836303
#
# Stress axis : x y z
#
# Youngs Moduli (GPa) = 69.36851 68.37822 52.31474
#
# Poissons Ratio (x) = 0.24002 -0.11091
# Poissons Ratio (y) = 0.24350 0.44498
# Poissons Ratio (z) = -0.14706 0.58162
#
# Static dielectric constant tensor:
#      x y z
#    x 4.801730 1.008990 -0.348820 
#    y 1.008990 6.393560 -0.420360 
#    z -0.348820 -0.420360 4.121730 
# 
# 
# High freq. dielectric constant tensor:
#      x y z
#    x 1.913710 -0.000840 -0.006030 
#    y -0.000840 1.916720 0.000360 
#    z -0.006030 0.000360 1.895240 
# 
# From -- ./inp_files/217004.got.cif
#   From: 2010.06.25/outbox.cif.g09.slc.cpg/sg2_109_cif.got.tgz:217004.got - 2010.06.27 13:26:56.
