data_PCOD8014960
_publ_section_title
;
Structure prediction by ZEFSAII (Michael W. Deem and Ramdas Pophale) SiO2 
 PCOD8014960
Probable space group: P -1
;
_chemical_formula_sum "Si O2"
_cell_formula_units_Z 16
_cell_length_a 16.137593
_cell_length_b 8.746953
_cell_length_c 7.740643
_cell_angle_alpha 108.723350
_cell_angle_beta 121.372724
_cell_angle_gamma 53.614414
_cell_volume 750.894864
_symmetry_space_group_name_H-M "P -1"
_symmetry_group_IT_number 2
_symmetry_cell_setting 'triclinic'
loop_
_space_group_symop_operation_xyz
x,y,z
-x,-y,-z
loop_
_atom_site_type_symbol
_atom_site_label
_atom_site_fract_x
_atom_site_fract_y
_atom_site_fract_z
Si Si1 0.088370 0.623150 0.548521
Si Si2 0.258486 0.345421 0.191941
Si Si3 0.857360 0.850917 0.167130
Si Si4 0.666228 0.116506 0.323417
Si Si5 0.433094 0.221746 0.027264
Si Si6 0.192405 0.715023 0.406948
Si Si7 0.034414 0.953389 0.825542
Si Si8 0.285424 0.249384 0.579674
O O1 0.188292 0.630557 0.555797
O O2 0.076593 0.733546 0.753786
O O3 0.150813 0.393043 0.548613
O O4 0.969845 0.711821 0.350168
O O5 0.358981 0.276152 0.139538
O O6 0.194244 0.576098 0.209764
O O7 0.308505 0.265045 0.408525
O O8 0.168443 0.286034 0.022403
O O9 0.746270 0.990983 0.207453
O O10 0.876114 0.986154 0.108527
O O11 0.535050 0.262581 0.173622
O O12 0.700838 0.259572 0.489383
O O13 0.678926 0.967612 0.429819
O O14 0.357979 0.308164 0.803532
O O15 0.500000 0.000000 0.000000
O O16 0.079685 0.923737 0.364507
O O17 0.000000 0.000000 0.000000
#
# Coordination Sequence:
#
# PCOD8014960 Si02
#       8
#     2   2   2   2   2   2   2   2
#     4  10  21  42  64  89 133 164 211 265 316 385
#     4  11  24  42  65  97 130 168 217 267 310 380
#     4  11  21  41  67  90 129 176 207 257 327 379
#     4  11  21  43  68  90 126 177 212 261 329 368
#     4  10  22  43  65  93 130 168 214 271 317 370
#     4  10  22  42  61  90 132 168 207 265 324 369
#     4  11  23  36  63  98 132 167 209 260 321 390
#     4  10  24  40  66  98 125 167 219 262 317 380
#
# _framework density 21.307908999999999
#
# number of rings (size 3 to 8) (size 9 to 14) (size 15 to 20)
#    0.000    1.500    5.000    0.750    3.500    7.500 
#    0.000    2.500    0.000    0.000    0.000    0.000 
#    0.000    0.000    0.000    0.000    0.000    0.000 
#
# Total GULP energy -198247.577419 kJ/mol
# GULP energy per Si atom -12390.473589 kJ/mol
# Density = 2.125941 g / cm^3
# Si number density = 21.307909 Si / 1000 Ang^3
#
#
#
# Elastic Constant Matrix: (Units=GPa)
#
#
# Indices 1 2 3 4 5 6 
#
# 1 95.4903 17.8428 60.7801 -1.3585 14.4501 -10.3130
# 2 17.8428 59.5064 42.5292 10.8924 2.0138 -9.1409
# 3 60.7801 42.5292 139.5008 10.5814 8.0948 -1.6196
# 4 -1.3585 10.8924 10.5814 37.5745 2.3814 2.5934
# 5 14.4501 2.0138 8.0948 2.3814 35.5088 10.8708
# 6 -10.3130 -9.1409 -1.6196 2.5934 10.8708 29.1555
#
#
#
# Elastic Compliance Matrix: (Units=1/GPa)
#
#
# Indices 1 2 3 4 5 6 
#
# 1 0.017275 0.001491 -0.007562 0.002224 -0.008314 0.009060
# 2 0.001491 0.024061 -0.007315 -0.005319 -0.002752 0.009164
# 3 -0.007562 -0.007315 0.012620 -0.001506 0.002237 -0.004968
# 4 0.002224 -0.005319 -0.001506 0.028952 -0.001262 -0.003070
# 5 -0.008314 -0.002752 0.002237 -0.001262 0.036539 -0.017191
# 6 0.009060 0.009164 -0.004968 -0.003070 -0.017191 0.046784
#
#
# Mechanical properties :
#
#
# Convention : Reuss Voigt Hill
#
# Bulk Modulus (GPa) = 36.78818 59.64461 48.21639
# Shear Modulus (GPa) = 24.74450 32.00411 28.37431
#
# Velocity S-wave (km/s) = 3.41146 3.87975 3.65311
# Velocity P-wave (km/s) = 5.72887 6.93703 6.36170
#
# Compressibility (1/GPa) = 0.02718265
#
# Stress axis : x y z
#
# Youngs Moduli (GPa) = 57.88584 41.56173 79.23757
#
# Poissons Ratio (x) = -0.06197 0.59923
# Poissons Ratio (y) = -0.08631 0.57965
# Poissons Ratio (z) = 0.43776 0.30404
#
# Static dielectric constant tensor:
#      x y z
#    x 3.251120 2.323350 -0.741350 
#    y 2.323350 -2.750600 3.669970 
#    z -0.741350 3.669970 2.426030 
# 
# 
# High freq. dielectric constant tensor:
#      x y z
#    x 1.833020 -0.006210 0.001550 
#    y -0.006210 1.832570 0.009850 
#    z 0.001550 0.009850 1.834450 
# 
# From -- ./inp_files/329480.got.cif
#   From: 2010.06.25/outbox.cif.g09.slc.cpg/sg2_165_cif.got.tgz:329480.got - 2010.06.27 13:26:56.
