data_PCOD8014364
_publ_section_title
;
Structure prediction by ZEFSAII (Michael W. Deem and Ramdas Pophale) SiO2 
 PCOD8014364
Probable space group: P -1
;
_chemical_formula_sum "Si O2"
_cell_formula_units_Z 16
_cell_length_a 12.430860
_cell_length_b 15.733688
_cell_length_c 12.952199
_cell_angle_alpha 56.405004
_cell_angle_beta 77.364642
_cell_angle_gamma 28.738046
_cell_volume 757.509765
_symmetry_space_group_name_H-M "P -1"
_symmetry_group_IT_number 2
_symmetry_cell_setting 'triclinic'
loop_
_space_group_symop_operation_xyz
x,y,z
-x,-y,-z
loop_
_atom_site_type_symbol
_atom_site_label
_atom_site_fract_x
_atom_site_fract_y
_atom_site_fract_z
Si Si1 0.191047 0.740424 0.595183
Si Si2 0.822274 0.499382 0.908434
Si Si3 0.707732 0.815727 0.679118
Si Si4 0.791158 0.479104 0.165724
Si Si5 0.861102 0.935132 0.336988
Si Si6 0.174443 0.110604 0.923198
Si Si7 0.816465 0.761670 0.353534
Si Si8 0.871304 0.200184 0.821314
O O1 0.200846 0.650294 0.746912
O O2 0.527351 0.483823 0.669819
O O3 0.055631 0.798875 0.486005
O O4 0.000000 0.000000 0.500000
O O5 0.896322 0.549533 0.820958
O O6 0.085008 0.208463 0.994748
O O7 0.489396 0.754251 0.769648
O O8 0.837648 0.477978 0.041696
O O9 0.935313 0.713952 0.693620
O O10 0.500000 0.000000 0.500000
O O11 0.514832 0.983575 0.711726
O O12 0.480663 0.783985 0.074967
O O13 0.935823 0.754754 0.403291
O O14 0.929369 0.959277 0.216866
O O15 0.198166 0.192509 0.793965
O O16 0.898670 0.281310 0.823965
O O17 0.000000 0.500000 0.500000
O O18 0.000000 0.000000 0.000000
#
# Coordination Sequence:
#
# PCOD8014364 Si02
#       8
#     2   2   2   2   2   2   2   2
#     4  12  26  43  67  98 135 181 235 285 343 403
#     4  11  22  43  68  99 133 177 219 276 344 409
#     4  11  23  42  67  96 139 175 216 281 339 405
#     4  12  24  46  65  97 136 172 230 281 333 415
#     4  10  22  43  67  97 139 174 228 281 339 409
#     4  11  23  41  69  96 132 175 227 277 339 405
#     4  10  21  41  67 100 136 175 217 274 343 409
#     4  11  21  44  69  93 134 178 224 286 337 392
#
# _framework density 21.121841
#
# number of rings (size 3 to 8) (size 9 to 14) (size 15 to 20)
#    0.000    1.000    5.000    3.750    0.000    3.500 
#    6.750    2.500    0.000    0.000    0.000    0.000 
#    0.000    0.000    0.000    0.000    0.000    0.000 
#
# Total GULP energy -198364.892530 kJ/mol
# GULP energy per Si atom -12397.805783 kJ/mol
# Density = 2.107377 g / cm^3
# Si number density = 21.121841 Si / 1000 Ang^3
#
#
#
# Elastic Constant Matrix: (Units=GPa)
#
#
# Indices 1 2 3 4 5 6 
#
# 1 110.4987 54.1677 45.8886 -15.9064 -6.4692 -9.4550
# 2 54.1677 134.0421 38.7836 -8.9814 -5.8539 11.3510
# 3 45.8886 38.7836 92.2281 -12.6250 -12.7089 7.6049
# 4 -15.9064 -8.9814 -12.6250 26.5873 -3.0235 -1.9143
# 5 -6.4692 -5.8539 -12.7089 -3.0235 49.0462 -0.2544
# 6 -9.4550 11.3510 7.6049 -1.9143 -0.2544 32.7862
#
#
#
# Elastic Compliance Matrix: (Units=1/GPa)
#
#
# Indices 1 2 3 4 5 6 
#
# 1 0.015064 -0.004813 -0.005288 0.005467 0.000418 0.007560
# 2 -0.004813 0.010222 -0.001576 -0.000491 0.000123 -0.004589
# 3 -0.005288 -0.001576 0.015460 0.003712 0.003327 -0.004323
# 4 0.005467 -0.000491 0.003712 0.043217 0.004306 0.003442
# 5 0.000418 0.000123 0.003327 0.004306 0.021585 -0.000275
# 6 0.007560 -0.004589 -0.004323 0.003442 -0.000275 0.035471
#
#
# Mechanical properties :
#
#
# Convention : Reuss Voigt Hill
#
# Bulk Modulus (GPa) = 57.49995 68.27208 62.88601
# Shear Modulus (GPa) = 29.38238 34.87922 32.13080
#
# Velocity S-wave (km/s) = 3.73378 4.06807 3.90450
# Velocity P-wave (km/s) = 6.77276 7.37962 7.08269
#
# Compressibility (1/GPa) = 0.01739132
#
# Stress axis : x y z
#
# Youngs Moduli (GPa) = 66.38459 97.82530 64.68452
#
# Poissons Ratio (x) = 0.47081 0.34208
# Poissons Ratio (y) = 0.31950 0.10194
# Poissons Ratio (z) = 0.35107 0.15416
#
# Static dielectric constant tensor:
#      x y z
#    x 4.273710 -0.260950 -0.087700 
#    y -0.260950 3.974400 0.053200 
#    z -0.087700 0.053200 3.789760 
# 
# 
# High freq. dielectric constant tensor:
#      x y z
#    x 1.835870 -0.016390 -0.005070 
#    y -0.016390 1.829590 0.005340 
#    z -0.005070 0.005340 1.825870 
# 
# From -- ./inp_files/187238.got.cif
#   From: 2010.06.25/outbox.cif.g09.slc.cpg/sg2_94_cif.got.tgz:187238.got - 2010.06.27 13:26:56.
