data_PCOD8014355
_publ_section_title
;
Structure prediction by ZEFSAII (Michael W. Deem and Ramdas Pophale) SiO2 
 PCOD8014355
Probable space group: P -1
;
_chemical_formula_sum "Si O2"
_cell_formula_units_Z 16
_cell_length_a 11.671845
_cell_length_b 7.280611
_cell_length_c 11.148144
_cell_angle_alpha 50.749469
_cell_angle_beta 99.532004
_cell_angle_gamma 105.864052
_cell_volume 705.638799
_symmetry_space_group_name_H-M "P -1"
_symmetry_group_IT_number 2
_symmetry_cell_setting 'triclinic'
loop_
_space_group_symop_operation_xyz
x,y,z
-x,-y,-z
loop_
_atom_site_type_symbol
_atom_site_label
_atom_site_fract_x
_atom_site_fract_y
_atom_site_fract_z
Si Si1 0.726995 0.115716 0.184609
Si Si2 0.955303 0.160988 0.827425
Si Si3 0.114146 0.070637 0.333291
Si Si4 0.444305 0.234764 0.554945
Si Si5 0.924098 0.308037 0.319722
Si Si6 0.482167 0.188361 0.142918
Si Si7 0.290844 0.877118 0.085904
Si Si8 0.364677 0.393885 0.235379
O O1 0.835710 0.290588 0.198478
O O2 0.619342 0.260850 0.091523
O O3 0.681158 0.865411 0.354002
O O4 0.761840 0.061181 0.077436
O O5 0.963767 0.047708 0.744561
O O6 0.819657 0.184154 0.816984
O O7 0.045308 0.420857 0.737080
O O8 0.000000 0.000000 0.000000
O O9 0.138431 0.861649 0.512679
O O10 0.235841 0.239847 0.236972
O O11 0.044688 0.239247 0.325304
O O12 0.500000 0.500000 0.500000
O O13 0.419019 0.243253 0.406558
O O14 0.531653 0.051669 0.673562
O O15 0.451592 0.409019 0.126635
O O16 0.389526 0.111655 0.049240
O O17 0.356621 0.653046 0.180535
#
# Coordination Sequence:
#
# PCOD8014355 Si02
#       8
#     2   2   2   2   2   2   2   2
#     4  10  24  41  64  99 136 174 217 269 337 392
#     4  12  27  44  67 101 135 180 226 274 338 399
#     4  11  23  43  70  99 129 173 228 277 337 391
#     4  10  21  41  66  99 132 172 218 273 330 392
#     4  11  24  45  69  98 137 171 224 285 330 398
#     4  10  23  41  67  96 133 167 223 267 326 398
#     4  12  24  42  67  96 136 175 221 271 330 397
#     4  12  21  42  70  96 128 175 221 275 329 392
#
# _framework density 22.674491
#
# number of rings (size 3 to 8) (size 9 to 14) (size 15 to 20)
#    0.750    0.250    5.000    1.875    1.750    1.500 
#    0.000    6.250    0.000    0.000    0.000    0.000 
#    0.000    0.000    0.000    0.000    0.000    0.000 
#
# Total GULP energy -198433.726360 kJ/mol
# GULP energy per Si atom -12402.107898 kJ/mol
# Density = 2.262288 g / cm^3
# Si number density = 22.674491 Si / 1000 Ang^3
#
#
#
# Elastic Constant Matrix: (Units=GPa)
#
#
# Indices 1 2 3 4 5 6 
#
# 1 61.7656 -1.6570 -17.0208 2.0715 0.8047 9.9117
# 2 -1.6570 104.0669 9.2181 3.7935 9.4969 11.0267
# 3 -17.0208 9.2181 51.6558 19.1460 15.3283 -2.9241
# 4 2.0715 3.7935 19.1460 44.0499 1.0930 5.2193
# 5 0.8047 9.4969 15.3283 1.0930 33.0032 10.5455
# 6 9.9117 11.0267 -2.9241 5.2193 10.5455 40.9315
#
#
#
# Elastic Compliance Matrix: (Units=1/GPa)
#
#
# Indices 1 2 3 4 5 6 
#
# 1 0.019254 0.000293 0.008868 -0.004386 -0.003698 -0.002596
# 2 0.000293 0.010141 -0.001464 0.000087 -0.001434 -0.002549
# 3 0.008868 -0.001464 0.033744 -0.015366 -0.017211 0.007051
# 4 -0.004386 0.000087 -0.015366 0.030087 0.008137 -0.005992
# 5 -0.003698 -0.001434 -0.017211 0.008137 0.042327 -0.011890
# 6 -0.002596 -0.002549 0.007051 -0.005992 -0.011890 0.030078
#
#
# Mechanical properties :
#
#
# Convention : Reuss Voigt Hill
#
# Bulk Modulus (GPa) = 12.73357 22.06322 17.39839
# Shear Modulus (GPa) = 28.34245 38.72679 33.53462
#
# Velocity S-wave (km/s) = 3.53933 4.13721 3.84989
# Velocity P-wave (km/s) = 4.72551 5.70733 5.23947
#
# Compressibility (1/GPa) = 0.07853258
#
# Stress axis : x y z
#
# Youngs Moduli (GPa) = 51.93836 98.60607 29.63502
#
# Poissons Ratio (x) = -0.02894 -0.26279
# Poissons Ratio (y) = -0.01524 0.04339
# Poissons Ratio (z) = -0.46057 0.14437
#
# Static dielectric constant tensor:
#      x y z
#    x 3.931800 0.005140 -0.020470 
#    y 0.005140 3.991360 0.072100 
#    z -0.020470 0.072100 4.211690 
# 
# 
# High freq. dielectric constant tensor:
#      x y z
#    x 1.886520 0.006960 -0.001650 
#    y 0.006960 1.897040 0.007220 
#    z -0.001650 0.007220 1.906440 
# 
# From -- ./inp_files/409890.got.cif
#   From: 2010.06.25/outbox.cif.g09.slc.cpg/sg2_205_cif.got.tgz:409890.got - 2010.06.27 13:26:56.
