data_PCOD8014738
_publ_section_title
;
Structure prediction by ZEFSAII (Michael W. Deem and Ramdas Pophale) SiO2 
 PCOD8014738
Probable space group: P -1
;
_chemical_formula_sum "Si O2"
_cell_formula_units_Z 14
_cell_length_a 9.046892
_cell_length_b 21.154274
_cell_length_c 8.933937
_cell_angle_alpha 47.764340
_cell_angle_beta 101.293409
_cell_angle_gamma 137.960952
_cell_volume 670.450690
_symmetry_space_group_name_H-M "P -1"
_symmetry_group_IT_number 2
_symmetry_cell_setting 'triclinic'
loop_
_space_group_symop_operation_xyz
x,y,z
-x,-y,-z
loop_
_atom_site_type_symbol
_atom_site_label
_atom_site_fract_x
_atom_site_fract_y
_atom_site_fract_z
Si Si1 0.206969 0.812431 0.214150
Si Si2 0.418562 0.594627 0.782930
Si Si3 0.809016 0.890059 0.996906
Si Si4 0.243137 0.632726 0.449559
Si Si5 0.126528 0.241684 0.984108
Si Si6 0.963790 0.906671 0.530232
Si Si7 0.686415 0.567817 0.708239
O O1 0.266412 0.740603 0.336723
O O2 0.063449 0.772080 0.093479
O O3 0.982968 0.725977 0.437332
O O4 0.500000 0.000000 0.000000
O O5 0.208573 0.554872 0.711447
O O6 0.572059 0.602271 0.690942
O O7 0.653990 0.767632 0.623422
O O8 0.254963 0.468612 0.084000
O O9 0.817257 0.976745 0.748454
O O10 0.505011 0.728571 0.252878
O O11 0.911919 0.855745 0.981766
O O12 0.000000 0.000000 0.000000
O O13 0.000000 0.500000 0.500000
O O14 0.455869 0.421416 0.778514
O O15 0.008460 0.166714 0.248983
O O16 0.000000 0.000000 0.500000
#
# Coordination Sequence:
#
# PCOD8014738 Si02
#       7
#     2   2   2   2   2   2   2
#     4  12  26  39  59  97 138 165 200 265 335 378
#     4  10  21  41  71  91 120 168 229 262 304 381
#     4  11  20  38  68  91 123 166 219 266 305 377
#     4  12  25  40  61  96 133 170 209 256 331 390
#     4  10  21  42  64  90 122 169 221 257 309 381
#     4   9  20  36  66  94 116 155 223 268 301 353
#     4  10  22  43  68  91 122 170 221 266 309 378
#
# _framework density 20.881474999999998
#
# number of rings (size 3 to 8) (size 9 to 14) (size 15 to 20)
#    0.000    1.429    1.429    3.857    4.000    0.571 
#    2.571    0.714    0.000    0.000    0.000    0.000 
#    0.000    0.000    0.000    0.000    0.000    0.000 
#
# Total GULP energy -173536.351844 kJ/mol
# GULP energy per Si atom -12395.453703 kJ/mol
# Density = 2.083395 g / cm^3
# Si number density = 20.881475 Si / 1000 Ang^3
#
#
#
# Elastic Constant Matrix: (Units=GPa)
#
#
# Indices 1 2 3 4 5 6 
#
# 1 73.0879 46.7853 32.3179 7.1445 22.2722 10.3605
# 2 46.7853 158.7862 66.5560 1.3366 13.7712 10.9175
# 3 32.3179 66.5560 130.9326 10.4969 8.1115 18.5446
# 4 7.1445 1.3366 10.4969 43.7315 3.9271 12.6230
# 5 22.2722 13.7712 8.1115 3.9271 29.2045 5.2788
# 6 10.3605 10.9175 18.5446 12.6230 5.2788 40.9221
#
#
#
# Elastic Compliance Matrix: (Units=1/GPa)
#
#
# Indices 1 2 3 4 5 6 
#
# 1 0.021797 -0.004272 -0.002078 -0.001343 -0.013622 -0.001266
# 2 -0.004272 0.009099 -0.003655 0.001336 -0.000183 -0.000078
# 3 -0.002078 -0.003655 0.010466 -0.001300 0.001116 -0.002985
# 4 -0.001343 0.001336 -0.001300 0.025539 -0.001391 -0.007126
# 5 -0.013622 -0.000183 0.001116 -0.001391 0.045025 -0.002387
# 6 -0.001266 -0.000078 -0.002985 -0.007126 -0.002387 0.028637
#
#
# Mechanical properties :
#
#
# Convention : Reuss Voigt Hill
#
# Bulk Modulus (GPa) = 46.83357 72.68056 59.75707
# Shear Modulus (GPa) = 29.81692 37.24813 33.53252
#
# Velocity S-wave (km/s) = 3.78287 4.22807 4.01165
# Velocity P-wave (km/s) = 6.44648 7.66272 7.08076
#
# Compressibility (1/GPa) = 0.02135221
#
# Stress axis : x y z
#
# Youngs Moduli (GPa) = 45.87739 109.90777 95.54451
#
# Poissons Ratio (x) = 0.46949 0.19853
# Poissons Ratio (y) = 0.19597 0.34925
# Poissons Ratio (z) = 0.09533 0.40175
#
# Static dielectric constant tensor:
#      x y z
#    x 3.586750 -0.296140 0.779190 
#    y -0.296140 4.535850 -0.016230 
#    z 0.779190 -0.016230 4.589870 
# 
# 
# High freq. dielectric constant tensor:
#      x y z
#    x 1.787260 -0.009120 0.024690 
#    y -0.009120 1.837380 0.008930 
#    z 0.024690 0.008930 1.834920 
# 
# From -- ./inp_files/150302.got.cif
#   From: 2010.06.25/outbox.cif.g09.slc.cpg/sg2_76_cif.got.tgz:150302.got - 2010.06.27 13:26:56.
