data_PCOD8014145
_publ_section_title
;
Structure prediction by ZEFSAII (Michael W. Deem and Ramdas Pophale) SiO2 
 PCOD8014145
Probable space group: P -1
;
_chemical_formula_sum "Si O2"
_cell_formula_units_Z 16
_cell_length_a 11.627971
_cell_length_b 8.320995
_cell_length_c 9.222435
_cell_angle_alpha 64.950198
_cell_angle_beta 97.402949
_cell_angle_gamma 113.003435
_cell_volume 743.396104
_symmetry_space_group_name_H-M "P -1"
_symmetry_group_IT_number 2
_symmetry_cell_setting 'triclinic'
loop_
_space_group_symop_operation_xyz
x,y,z
-x,-y,-z
loop_
_atom_site_type_symbol
_atom_site_label
_atom_site_fract_x
_atom_site_fract_y
_atom_site_fract_z
Si Si1 0.445145 0.746782 0.456819
Si Si2 0.208601 0.562277 0.939816
Si Si3 0.048741 0.517616 0.212094
Si Si4 0.067375 0.187865 0.530352
Si Si5 0.689863 0.729916 0.865214
Si Si6 0.069976 0.916913 0.159072
Si Si7 0.545778 0.178713 0.236915
Si Si8 0.329793 0.376115 0.426410
O O1 0.410246 0.748110 0.620179
O O2 0.338381 0.584592 0.408442
O O3 0.562472 0.688327 0.476259
O O4 0.473467 0.951353 0.310693
O O5 0.329144 0.761865 0.865746
O O6 0.098862 0.559538 0.816733
O O7 0.142001 0.505556 0.106266
O O8 0.269429 0.405122 0.967380
O O9 0.054530 0.379840 0.394065
O O10 0.099777 0.741323 0.168864
O O11 0.211253 0.216635 0.541672
O O12 0.025521 0.160141 0.697653
O O13 0.000000 0.000000 0.500000
O O14 0.554207 0.736607 0.876704
O O15 0.682022 0.632881 0.744657
O O16 0.798582 0.937724 0.813971
O O17 0.000000 0.000000 0.000000
#
# Coordination Sequence:
#
# PCOD8014145 Si02
#       8
#     2   2   2   2   2   2   2   2
#     4   9  22  41  62 100 131 174 224 288 334 405
#     4  11  23  44  65  97 135 179 224 282 349 397
#     4  11  26  43  69  98 141 176 230 285 338 409
#     4  12  25  43  72 103 134 187 225 281 344 412
#     4  11  22  44  65  97 136 175 224 282 339 407
#     4  12  26  45  68 105 140 178 231 283 340 407
#     4  10  23  39  71  95 131 177 228 282 342 405
#     4  10  21  41  65  91 140 174 224 274 340 406
#
# _framework density 21.522846000000001
#
# number of rings (size 3 to 8) (size 9 to 14) (size 15 to 20)
#    0.000    1.250    3.750    0.750    7.000    1.000 
#    0.000    5.000    0.000    0.000    0.000    0.000 
#    0.000    0.000    0.000    0.000    0.000    0.000 
#
# Total GULP energy -198304.468943 kJ/mol
# GULP energy per Si atom -12394.029309 kJ/mol
# Density = 2.147386 g / cm^3
# Si number density = 21.522846 Si / 1000 Ang^3
#
#
#
# Elastic Constant Matrix: (Units=GPa)
#
#
# Indices 1 2 3 4 5 6 
#
# 1 111.7635 31.0806 37.7126 -9.2312 -5.2348 15.2009
# 2 31.0806 126.4384 18.5069 -5.5761 5.6645 5.2940
# 3 37.7126 18.5069 99.2600 -12.8282 3.3302 4.2970
# 4 -9.2312 -5.5761 -12.8282 29.4164 -0.6136 2.5488
# 5 -5.2348 5.6645 3.3302 -0.6136 30.5653 -14.2836
# 6 15.2009 5.2940 4.2970 2.5488 -14.2836 35.9065
#
#
#
# Elastic Compliance Matrix: (Units=1/GPa)
#
#
# Indices 1 2 3 4 5 6 
#
# 1 0.011473 -0.002090 -0.003576 0.002001 0.000970 -0.003877
# 2 -0.002090 0.008716 -0.000580 0.000812 -0.002549 -0.001403
# 3 -0.003576 -0.000580 0.012195 0.004130 -0.002239 -0.001044
# 4 0.002001 0.000812 0.004130 0.036955 -0.001750 -0.004781
# 5 0.000970 -0.002549 -0.002239 -0.001750 0.041433 0.016840
# 6 -0.003877 -0.001403 -0.001044 -0.004781 0.016840 0.036861
#
#
# Mechanical properties :
#
#
# Convention : Reuss Voigt Hill
#
# Bulk Modulus (GPa) = 50.26604 56.89579 53.58092
# Shear Modulus (GPa) = 29.98375 35.85509 32.91942
#
# Velocity S-wave (km/s) = 3.73649 4.08598 3.91514
# Velocity P-wave (km/s) = 6.48233 6.98232 6.73696
#
# Compressibility (1/GPa) = 0.01989415
#
# Stress axis : x y z
#
# Youngs Moduli (GPa) = 87.15956 114.72706 81.99948
#
# Poissons Ratio (x) = 0.23976 0.29319
# Poissons Ratio (y) = 0.18215 0.04756
# Poissons Ratio (z) = 0.31164 0.06654
#
# Static dielectric constant tensor:
#      x y z
#    x 4.091300 0.095170 0.106900 
#    y 0.095170 4.061120 -0.120980 
#    z 0.106900 -0.120980 3.688620 
# 
# 
# High freq. dielectric constant tensor:
#      x y z
#    x 1.862130 0.005740 0.008050 
#    y 0.005740 1.851300 -0.010580 
#    z 0.008050 -0.010580 1.833050 
# 
# From -- ./inp_files/206740.got.cif
#   From: 2010.06.25/outbox.cif.g09.slc.cpg/sg2_104_cif.got.tgz:206740.got - 2010.06.27 13:26:56.
