data_PCOD8014796
_publ_section_title
;
Structure prediction by ZEFSAII (Michael W. Deem and Ramdas Pophale) SiO2 
 PCOD8014796
Probable space group: P -1
;
_chemical_formula_sum "Si O2"
_cell_formula_units_Z 14
_cell_length_a 17.265029
_cell_length_b 10.734211
_cell_length_c 9.921640
_cell_angle_alpha 94.952469
_cell_angle_beta 139.396819
_cell_angle_gamma 53.675543
_cell_volume 695.018906
_symmetry_space_group_name_H-M "P -1"
_symmetry_group_IT_number 2
_symmetry_cell_setting 'triclinic'
loop_
_space_group_symop_operation_xyz
x,y,z
-x,-y,-z
loop_
_atom_site_type_symbol
_atom_site_label
_atom_site_fract_x
_atom_site_fract_y
_atom_site_fract_z
Si Si1 0.636598 0.632522 0.850636
Si Si2 0.727358 0.758965 0.795705
Si Si3 0.085294 0.612433 0.170327
Si Si4 0.634648 0.267929 0.695875
Si Si5 0.959402 0.176391 0.122070
Si Si6 0.395942 0.754870 0.775169
Si Si7 0.460358 0.414054 0.763456
O O1 0.739679 0.675868 0.947656
O O2 0.436762 0.781566 0.503068
O O3 0.554865 0.710013 0.902705
O O4 0.800823 0.381525 0.030413
O O5 0.789278 0.611316 0.744518
O O6 0.500000 0.000000 0.500000
O O7 0.885611 0.739303 0.001108
O O8 0.231218 0.557081 0.463776
O O9 0.014410 0.768525 0.975395
O O10 0.500000 0.500000 0.500000
O O11 0.592234 0.263158 0.793034
O O12 0.869778 0.111865 0.969670
O O13 0.167680 0.988401 0.460423
O O14 0.446828 0.573828 0.772867
O O15 0.428059 0.742128 0.975433
#
# Coordination Sequence:
#
# PCOD8014796 Si02
#       7
#     2   2   2   2   2   2   2
#     4  10  19  38  55  80 114 142 183 240 268 324
#     4  10  20  34  61  86 103 139 196 237 268 317
#     4  10  20  38  57  82 114 141 185 236 274 313
#     4  10  16  35  57  77 113 144 180 226 276 314
#     4  10  19  34  58  80 108 152 182 221 278 327
#     4  11  23  34  57  84 119 147 182 215 283 339
#     4  11  21  39  52  86 121 145 175 236 270 329
#
# _framework density 20.143338
#
# number of rings (size 3 to 8) (size 9 to 14) (size 15 to 20)
#    0.000    1.714    7.143    0.857    0.000    4.000 
#    0.000    0.714    0.000   12.000    0.000    0.000 
#    0.000    0.000    0.000    0.000    0.000    0.000 
#
# Total GULP energy -173559.708460 kJ/mol
# GULP energy per Si atom -12397.122033 kJ/mol
# Density = 2.009749 g / cm^3
# Si number density = 20.143338 Si / 1000 Ang^3
#
#
#
# Elastic Constant Matrix: (Units=GPa)
#
#
# Indices 1 2 3 4 5 6 
#
# 1 169.4056 24.0272 71.8044 4.6987 12.0927 -2.9063
# 2 24.0272 17.8316 18.0719 -6.7919 -7.1127 -6.7636
# 3 71.8044 18.0719 132.2950 -10.1691 -7.8184 -1.4810
# 4 4.6987 -6.7919 -10.1691 27.4268 -4.9990 3.3810
# 5 12.0927 -7.1127 -7.8184 -4.9990 35.9259 4.3422
# 6 -2.9063 -6.7636 -1.4810 3.3810 4.3422 16.0134
#
#
#
# Elastic Compliance Matrix: (Units=1/GPa)
#
#
# Indices 1 2 3 4 5 6 
#
# 1 0.011835 -0.019271 -0.005211 -0.010404 -0.010198 -0.001511
# 2 -0.019271 0.120868 -0.001201 0.034553 0.031131 0.031705
# 3 -0.005211 -0.001201 0.011294 0.006114 0.005200 -0.003109
# 4 -0.010404 0.034553 0.006114 0.053002 0.019434 -0.003189
# 5 -0.010198 0.031131 0.005200 0.019434 0.041706 -0.003633
# 6 -0.001511 0.031705 -0.003109 -0.003189 -0.003633 0.076936
#
#
# Mechanical properties :
#
#
# Convention : Reuss Voigt Hill
#
# Bulk Modulus (GPa) = 10.79535 60.81548 35.80541
# Shear Modulus (GPa) = 12.56650 29.58179 21.07415
#
# Velocity S-wave (km/s) = 2.50042 3.83634 3.23802
# Velocity P-wave (km/s) = 3.70230 7.06260 5.63858
#
# Compressibility (1/GPa) = 0.09263251
#
# Stress axis : x y z
#
# Youngs Moduli (GPa) = 84.49214 8.27348 88.54611
#
# Poissons Ratio (x) = 0.15943 0.46139
# Poissons Ratio (y) = 1.62822 0.10634
# Poissons Ratio (z) = 0.44026 0.00994
#
# Static dielectric constant tensor:
#      x y z
#    x 4.278210 0.153290 0.289720 
#    y 0.153290 3.434670 0.039980 
#    z 0.289720 0.039980 3.670300 
# 
# 
# High freq. dielectric constant tensor:
#      x y z
#    x 1.804320 0.004130 0.015830 
#    y 0.004130 1.756190 -0.017150 
#    z 0.015830 -0.017150 1.768620 
# 
# From -- ./inp_files/168388.got.cif
#   From: 2010.06.25/outbox.cif.g09.slc.cpg/sg2_85_cif.got.tgz:168388.got - 2010.06.27 13:26:56.
