data_PCOD8014554
_publ_section_title
;
Structure prediction by ZEFSAII (Michael W. Deem and Ramdas Pophale) SiO2 
 PCOD8014554
Probable space group: P -1
;
_chemical_formula_sum "Si O2"
_cell_formula_units_Z 16
_cell_length_a 14.143357
_cell_length_b 11.432135
_cell_length_c 13.721949
_cell_angle_alpha 111.497901
_cell_angle_beta 149.045936
_cell_angle_gamma 47.480607
_cell_volume 695.613567
_symmetry_space_group_name_H-M "P -1"
_symmetry_group_IT_number 2
_symmetry_cell_setting 'triclinic'
loop_
_space_group_symop_operation_xyz
x,y,z
-x,-y,-z
loop_
_atom_site_type_symbol
_atom_site_label
_atom_site_fract_x
_atom_site_fract_y
_atom_site_fract_z
Si Si1 0.530832 0.744765 0.324339
Si Si2 0.631592 0.511361 0.833111
Si Si3 0.461645 0.763280 0.588736
Si Si4 0.825446 0.717874 0.423411
Si Si5 0.929995 0.503718 0.775692
Si Si6 0.632636 0.457608 0.206769
Si Si7 0.947607 0.138955 0.894750
Si Si8 0.320505 0.112681 0.080840
O O1 0.699403 0.780898 0.442846
O O2 0.698975 0.601103 0.518950
O O3 0.528524 0.649382 0.203654
O O4 0.204004 0.941741 0.123717
O O5 0.436238 0.674336 0.626640
O O6 0.451447 0.597495 0.799873
O O7 0.727016 0.320593 0.828156
O O8 0.910599 0.447235 0.081550
O O9 0.769785 0.581035 0.760079
O O10 0.469859 0.900340 0.679218
O O11 0.213795 0.874403 0.324330
O O12 0.000000 0.500000 0.500000
O O13 0.034354 0.720695 0.575955
O O14 0.534641 0.895727 0.159433
O O15 0.156443 0.273410 0.900583
O O16 0.500000 0.500000 0.000000
O O17 0.087994 0.173190 0.963478
#
# Coordination Sequence:
#
# PCOD8014554 Si02
#       8
#     2   2   2   2   2   2   2   2
#     4  10  24  41  67  98 130 170 230 271 338 400
#     4  11  22  40  65 100 135 173 222 273 337 398
#     4  11  22  38  67 102 142 168 215 273 341 410
#     4   9  21  45  64  88 126 175 226 270 321 385
#     4  11  21  41  64 102 138 173 210 275 344 407
#     4  11  24  41  64  88 132 180 219 279 325 382
#     4  11  22  40  68 104 133 173 218 275 343 399
#     4  10  21  41  68  95 137 173 217 272 339 394
#
# _framework density 23.001276000000001
#
# number of rings (size 3 to 8) (size 9 to 14) (size 15 to 20)
#    0.000    1.500    2.500    2.625    3.500    2.500 
#    0.000    5.000    2.750    0.000    0.000    0.000 
#    0.000    0.000    0.000    0.000    0.000    0.000 
#
# Total GULP energy -198219.629245 kJ/mol
# GULP energy per Si atom -12388.726828 kJ/mol
# Density = 2.294892 g / cm^3
# Si number density = 23.001276 Si / 1000 Ang^3
#
#
#
# Elastic Constant Matrix: (Units=GPa)
#
#
# Indices 1 2 3 4 5 6 
#
# 1 127.4477 14.5091 58.2898 -11.6621 13.5180 -7.5937
# 2 14.5091 75.1644 46.2434 -14.4380 -8.5576 8.6469
# 3 58.2898 46.2434 153.7198 -16.2843 -9.4481 2.5923
# 4 -11.6621 -14.4380 -16.2843 38.9659 -1.5797 -2.3634
# 5 13.5180 -8.5576 -9.4481 -1.5797 45.1941 -6.6440
# 6 -7.5937 8.6469 2.5923 -2.3634 -6.6440 28.8815
#
#
#
# Elastic Compliance Matrix: (Units=1/GPa)
#
#
# Indices 1 2 3 4 5 6 
#
# 1 0.010334 0.000103 -0.004054 0.001437 -0.003522 0.002357
# 2 0.000103 0.017723 -0.004713 0.004459 0.001900 -0.004054
# 3 -0.004054 -0.004713 0.009735 0.001215 0.002416 0.000127
# 4 0.001437 0.004459 0.001215 0.028434 0.001912 0.001700
# 5 -0.003522 0.001900 0.002416 0.001912 0.024719 0.004131
# 6 0.002357 -0.004054 0.000127 0.001700 0.004131 0.037536
#
#
# Mechanical properties :
#
#
# Convention : Reuss Voigt Hill
#
# Bulk Modulus (GPa) = 48.86386 66.04627 57.45507
# Shear Modulus (GPa) = 32.75860 38.42760 35.59310
#
# Velocity S-wave (km/s) = 3.77796 4.09182 3.93802
# Velocity P-wave (km/s) = 6.34986 7.14846 6.76096
#
# Compressibility (1/GPa) = 0.02046502
#
# Stress axis : x y z
#
# Youngs Moduli (GPa) = 96.76629 56.42320 102.71825
#
# Poissons Ratio (x) = -0.00581 0.41638
# Poissons Ratio (y) = -0.00996 0.48413
# Poissons Ratio (z) = 0.39225 0.26593
#
# Static dielectric constant tensor:
#      x y z
#    x 4.813270 -0.377620 1.078310 
#    y -0.377620 4.853270 -1.104890 
#    z 1.078310 -1.104890 5.363630 
# 
# 
# High freq. dielectric constant tensor:
#      x y z
#    x 1.921780 0.024760 0.025610 
#    y 0.024760 1.888080 -0.012140 
#    z 0.025610 -0.012140 1.912680 
# 
# From -- ./inp_files/476570.got.cif
#   From: 2010.06.25/outbox.cif.g09.slc.cpg/sg2_239_cif.got.tgz:476570.got - 2010.06.27 13:26:56.
