data_PCOD8014314
_publ_section_title
;
Structure prediction by ZEFSAII (Michael W. Deem and Ramdas Pophale) SiO2 
 PCOD8014314
Probable space group: P -1
;
_chemical_formula_sum "Si O2"
_cell_formula_units_Z 16
_cell_length_a 9.203688
_cell_length_b 15.225686
_cell_length_c 12.649780
_cell_angle_alpha 26.965726
_cell_angle_beta 66.892824
_cell_angle_gamma 75.476892
_cell_volume 718.194714
_symmetry_space_group_name_H-M "P -1"
_symmetry_group_IT_number 2
_symmetry_cell_setting 'triclinic'
loop_
_space_group_symop_operation_xyz
x,y,z
-x,-y,-z
loop_
_atom_site_type_symbol
_atom_site_label
_atom_site_fract_x
_atom_site_fract_y
_atom_site_fract_z
Si Si1 0.067780 0.026474 0.836136
Si Si2 0.559723 0.791816 0.486976
Si Si3 0.434471 0.193849 0.299919
Si Si4 0.960210 0.334618 0.414344
Si Si5 0.529556 0.232938 0.005583
Si Si6 0.098791 0.200239 0.313964
Si Si7 0.889736 0.392580 0.741856
Si Si8 0.701263 0.530327 0.205994
O O1 0.248847 0.169675 0.633220
O O2 0.941515 0.118134 0.705401
O O3 0.067146 0.813044 0.015459
O O4 0.000000 0.000000 0.000000
O O5 0.521519 0.695207 0.719385
O O6 0.454954 0.637729 0.602947
O O7 0.499356 0.995645 0.269716
O O8 0.238806 0.132771 0.412396
O O9 0.500000 0.000000 0.500000
O O10 0.511303 0.313318 0.045337
O O11 0.998656 0.306623 0.310106
O O12 0.097668 0.481188 0.289007
O O13 0.799421 0.423880 0.374820
O O14 0.708072 0.344748 0.796715
O O15 0.386302 0.298191 0.907664
O O16 0.169999 0.372405 0.024742
O O17 0.000000 0.000000 0.500000
O O18 0.000000 0.500000 0.500000
#
# Coordination Sequence:
#
# PCOD8014314 Si02
#       8
#     2   2   2   2   2   2   2   2
#     4  11  23  45  75  98 129 175 233 290 327 390
#     4  10  21  41  66  95 132 171 229 273 337 392
#     4   9  19  36  64  94 123 176 214 273 331 392
#     4  12  26  43  67 100 136 182 220 275 347 391
#     4   9  22  39  65  93 134 170 221 280 331 394
#     4  11  26  43  64 100 145 180 219 270 339 413
#     4  11  24  44  73  99 128 173 237 284 328 397
#     4  11  26  40  65  98 140 177 214 272 338 422
#
# _framework density 22.278081
#
# number of rings (size 3 to 8) (size 9 to 14) (size 15 to 20)
#    0.000    1.500    2.500    1.125    8.750    1.000 
#    0.000    1.250    0.000    0.000    0.000    0.000 
#    0.000    0.000    0.000    0.000    0.000    0.000 
#
# Total GULP energy -198235.550445 kJ/mol
# GULP energy per Si atom -12389.721903 kJ/mol
# Density = 2.222737 g / cm^3
# Si number density = 22.278081 Si / 1000 Ang^3
#
#
#
# Elastic Constant Matrix: (Units=GPa)
#
#
# Indices 1 2 3 4 5 6 
#
# 1 119.3282 7.5904 41.4256 -9.3647 34.6108 -25.0238
# 2 7.5904 72.4345 17.4835 -7.6576 -1.6756 -5.8787
# 3 41.4256 17.4835 97.3675 -1.0701 3.2305 -8.9018
# 4 -9.3647 -7.6576 -1.0701 32.0731 -8.0415 -4.3550
# 5 34.6108 -1.6756 3.2305 -8.0415 41.6520 -11.7370
# 6 -25.0238 -5.8787 -8.9018 -4.3550 -11.7370 33.8809
#
#
#
# Elastic Compliance Matrix: (Units=1/GPa)
#
#
# Indices 1 2 3 4 5 6 
#
# 1 0.014438 0.000359 -0.005278 0.002694 -0.009224 0.006490
# 2 0.000359 0.015256 -0.002583 0.004788 0.002486 0.003710
# 3 -0.005278 -0.002583 0.012865 -0.000955 0.003095 -0.000017
# 4 0.002694 0.004788 -0.000955 0.036403 0.007867 0.009974
# 5 -0.009224 0.002486 0.003095 0.007867 0.035205 0.007638
# 6 0.006490 0.003710 -0.000017 0.009974 0.007638 0.038876
#
#
# Mechanical properties :
#
#
# Convention : Reuss Voigt Hill
#
# Bulk Modulus (GPa) = 36.29090 46.90324 41.59707
# Shear Modulus (GPa) = 28.21177 36.36325 32.28751
#
# Velocity S-wave (km/s) = 3.56244 4.04449 3.81109
# Velocity P-wave (km/s) = 5.76599 6.55055 6.17075
#
# Compressibility (1/GPa) = 0.02755512
#
# Stress axis : x y z
#
# Youngs Moduli (GPa) = 69.26401 65.54719 77.73015
#
# Poissons Ratio (x) = -0.02354 0.41026
# Poissons Ratio (y) = -0.02487 0.20077
# Poissons Ratio (z) = 0.36558 0.16930
#
# Static dielectric constant tensor:
#      x y z
#    x 4.480320 -0.487980 0.566240 
#    y -0.487980 4.288600 -0.291260 
#    z 0.566240 -0.291260 4.566540 
# 
# 
# High freq. dielectric constant tensor:
#      x y z
#    x 1.879180 -0.026110 0.015850 
#    y -0.026110 1.864080 -0.018150 
#    z 0.015850 -0.018150 1.877580 
# 
# From -- ./inp_files/398103.got.cif
#   From: 2010.06.25/outbox.cif.g09.slc.cpg/sg2_200_cif.got.tgz:398103.got - 2010.06.27 13:26:56.
