data_PCOD8014757
_publ_section_title
;
Structure prediction by ZEFSAII (Michael W. Deem and Ramdas Pophale) SiO2 
 PCOD8014757
Probable space group: P -1
;
_chemical_formula_sum "Si O2"
_cell_formula_units_Z 16
_cell_length_a 10.367806
_cell_length_b 11.010180
_cell_length_c 11.737763
_cell_angle_alpha 65.603345
_cell_angle_beta 139.806939
_cell_angle_gamma 97.500328
_cell_volume 747.477665
_symmetry_space_group_name_H-M "P -1"
_symmetry_group_IT_number 2
_symmetry_cell_setting 'triclinic'
loop_
_space_group_symop_operation_xyz
x,y,z
-x,-y,-z
loop_
_atom_site_type_symbol
_atom_site_label
_atom_site_fract_x
_atom_site_fract_y
_atom_site_fract_z
Si Si1 0.619878 0.527947 0.741053
Si Si2 0.244042 0.976825 0.275629
Si Si3 0.715995 0.794469 0.648874
Si Si4 0.804493 0.415221 0.682110
Si Si5 0.095083 0.145617 0.899949
Si Si6 0.608495 0.835567 0.107693
Si Si7 0.884627 0.699846 0.563150
Si Si8 0.635059 0.381133 0.047723
O O1 0.750563 0.638480 0.779638
O O2 0.715774 0.414058 0.750695
O O3 0.373085 0.600815 0.519790
O O4 0.657522 0.456817 0.916366
O O5 0.481644 0.886375 0.485772
O O6 0.111979 0.883380 0.276007
O O7 0.153549 0.125624 0.222499
O O8 0.214840 0.009823 0.108612
O O9 0.779885 0.801069 0.558135
O O10 0.865994 0.549909 0.637122
O O11 0.018047 0.287159 0.867265
O O12 0.237251 0.170916 0.888045
O O13 0.747936 0.758838 0.337088
O O14 0.457300 0.746632 0.995995
O O15 0.500000 0.000000 0.000000
O O16 0.129874 0.688727 0.715411
O O17 0.500000 0.500000 0.000000
#
# Coordination Sequence:
#
# PCOD8014757 Si02
#       8
#     2   2   2   2   2   2   2   2
#     4  10  22  41  70  98 137 174 226 288 348 405
#     4  10  23  40  66  98 138 168 230 294 346 417
#     4  10  22  42  66 103 132 177 228 294 344 411
#     4  10  21  41  71  99 131 181 227 290 347 408
#     4  11  24  41  69  99 133 186 228 284 359 413
#     4  12  29  50  71 100 147 193 235 287 349 429
#     4  11  26  46  72 100 139 187 236 286 355 418
#     4  12  29  46  73 107 144 188 238 289 344 428
#
# _framework density 21.405322000000002
#
# number of rings (size 3 to 8) (size 9 to 14) (size 15 to 20)
#    0.000    1.250    2.500    1.500    8.750    3.500 
#    2.250    0.000    0.000    0.000    0.000    0.000 
#    0.000    0.000    0.000    0.000    0.000    0.000 
#
# Total GULP energy -198278.777725 kJ/mol
# GULP energy per Si atom -12392.423608 kJ/mol
# Density = 2.135660 g / cm^3
# Si number density = 21.405322 Si / 1000 Ang^3
#
#
#
# Elastic Constant Matrix: (Units=GPa)
#
#
# Indices 1 2 3 4 5 6 
#
# 1 172.4848 50.9363 46.1880 -12.2684 7.5382 -14.3558
# 2 50.9363 131.7626 34.1995 4.6840 1.3252 -2.7004
# 3 46.1880 34.1995 74.4671 -1.3357 -3.5012 -3.3552
# 4 -12.2684 4.6840 -1.3357 33.3489 -4.4771 8.9267
# 5 7.5382 1.3252 -3.5012 -4.4771 32.1994 -9.9382
# 6 -14.3558 -2.7004 -3.3552 8.9267 -9.9382 39.6760
#
#
#
# Elastic Compliance Matrix: (Units=1/GPa)
#
#
# Indices 1 2 3 4 5 6 
#
# 1 0.007787 -0.002056 -0.003841 0.002424 -0.001367 0.001465
# 2 -0.002056 0.009260 -0.003043 -0.002252 -0.000544 -0.000001
# 3 -0.003841 -0.003043 0.017384 -0.000049 0.003113 0.000664
# 4 0.002424 -0.002252 -0.000049 0.033145 0.002220 -0.006181
# 5 -0.001367 -0.000544 0.003113 0.002220 0.034474 0.007867
# 6 0.001465 -0.000001 0.000664 -0.006181 0.007867 0.029152
#
#
# Mechanical properties :
#
#
# Convention : Reuss Voigt Hill
#
# Bulk Modulus (GPa) = 60.41909 71.26247 65.84078
# Shear Modulus (GPa) = 32.34185 37.53757 34.93971
#
# Velocity S-wave (km/s) = 3.89128 4.19221 4.04454
# Velocity P-wave (km/s) = 6.96253 7.53638 7.25513
#
# Compressibility (1/GPa) = 0.01655106
#
# Stress axis : x y z
#
# Youngs Moduli (GPa) = 128.41453 107.99614 57.52430
#
# Poissons Ratio (x) = 0.22203 0.22093
# Poissons Ratio (y) = 0.26401 0.17507
# Poissons Ratio (z) = 0.49319 0.32867
#
# Static dielectric constant tensor:
#      x y z
#    x 3.886530 0.029980 0.097010 
#    y 0.029980 4.245630 0.189810 
#    z 0.097010 0.189810 3.868710 
# 
# 
# High freq. dielectric constant tensor:
#      x y z
#    x 1.841660 -0.000210 0.006820 
#    y -0.000210 1.858530 0.002800 
#    z 0.006820 0.002800 1.839070 
# 
# From -- ./inp_files/392385.got.cif
#   From: 2010.06.25/outbox.cif.g09.slc.cpg/sg2_197_cif.got.tgz:392385.got - 2010.06.27 13:26:56.
