data_PCOD8014479
_publ_section_title
;
Structure prediction by ZEFSAII (Michael W. Deem and Ramdas Pophale) SiO2 
 PCOD8014479
Probable space group: P -1
;
_chemical_formula_sum "Si O2"
_cell_formula_units_Z 16
_cell_length_a 12.015724
_cell_length_b 24.789318
_cell_length_c 9.349313
_cell_angle_alpha 133.619348
_cell_angle_beta 131.281743
_cell_angle_gamma 22.058163
_cell_volume 754.980683
_symmetry_space_group_name_H-M "P -1"
_symmetry_group_IT_number 2
_symmetry_cell_setting 'triclinic'
loop_
_space_group_symop_operation_xyz
x,y,z
-x,-y,-z
loop_
_atom_site_type_symbol
_atom_site_label
_atom_site_fract_x
_atom_site_fract_y
_atom_site_fract_z
Si Si1 0.300315 0.302555 0.547412
Si Si2 0.016204 0.356843 0.997139
Si Si3 0.356008 0.982743 0.810754
Si Si4 0.694628 0.611504 0.017017
Si Si5 0.274867 0.455513 0.634981
Si Si6 0.880029 0.247218 0.681034
Si Si7 0.307618 0.922550 0.954482
Si Si8 0.865405 0.155529 0.234928
O O1 0.405116 0.319229 0.550195
O O2 0.936358 0.463130 0.534487
O O3 0.421548 0.168172 0.364002
O O4 0.403293 0.282491 0.756627
O O5 0.756396 0.505901 0.954450
O O6 0.013929 0.269942 0.827292
O O7 0.343859 0.240445 0.014539
O O8 0.958116 0.405879 0.199863
O O9 0.069506 0.116141 0.712773
O O10 0.252030 0.989244 0.880916
O O11 0.500000 0.000000 0.000000
O O12 0.431606 0.712558 0.869374
O O13 0.000000 0.500000 0.000000
O O14 0.540786 0.395844 0.718954
O O15 0.888772 0.214559 0.467419
O O16 0.144775 0.913451 0.799445
O O17 0.155686 0.034459 0.159614
#
# Coordination Sequence:
#
# PCOD8014479 Si02
#       8
#     2   2   2   2   2   2   2   2
#     4  10  22  39  67  96 126 181 225 270 338 392
#     4  11  23  44  68  96 138 177 218 287 342 398
#     4  12  25  44  68 102 137 177 225 280 344 405
#     4  11  23  43  68  95 133 180 227 273 332 405
#     4  10  21  41  67  98 132 168 230 284 330 395
#     4  12  26  42  68 104 135 178 221 280 351 396
#     4  11  24  47  66  95 144 175 228 280 331 406
#     4  11  27  44  67 101 136 182 231 281 323 410
#
# _framework density 21.192596000000002
#
# number of rings (size 3 to 8) (size 9 to 14) (size 15 to 20)
#    0.000    1.000    3.750    1.875    8.750    2.000 
#    2.250    0.000    0.000    0.000    0.000    0.000 
#    0.000    0.000    0.000    0.000    0.000    0.000 
#
# Total GULP energy -198395.606570 kJ/mol
# GULP energy per Si atom -12399.725411 kJ/mol
# Density = 2.114436 g / cm^3
# Si number density = 21.192596 Si / 1000 Ang^3
#
#
#
# Elastic Constant Matrix: (Units=GPa)
#
#
# Indices 1 2 3 4 5 6 
#
# 1 79.7859 28.8583 39.8125 12.3219 -6.1879 8.0737
# 2 28.8583 98.1672 50.8087 9.2885 -10.1835 -5.7913
# 3 39.8125 50.8087 112.3493 6.9608 -1.8280 14.6280
# 4 12.3219 9.2885 6.9608 36.4264 6.9372 -5.8255
# 5 -6.1879 -10.1835 -1.8280 6.9372 29.7698 2.4473
# 6 8.0737 -5.7913 14.6280 -5.8255 2.4473 38.5634
#
#
#
# Elastic Compliance Matrix: (Units=1/GPa)
#
#
# Indices 1 2 3 4 5 6 
#
# 1 0.016921 -0.002010 -0.004224 -0.005741 0.004186 -0.003375
# 2 -0.002010 0.015060 -0.006493 -0.002035 0.004435 0.004557
# 3 -0.004224 -0.006493 0.014002 -0.000100 -0.001780 -0.005304
# 4 -0.005741 -0.002035 -0.000100 0.032903 -0.010101 0.006546
# 5 0.004186 0.004435 -0.001780 -0.010101 0.038511 -0.003505
# 6 -0.003375 0.004557 -0.005304 0.006546 -0.003505 0.030545
#
#
# Mechanical properties :
#
#
# Convention : Reuss Voigt Hill
#
# Bulk Modulus (GPa) = 48.71296 58.80683 53.75990
# Shear Modulus (GPa) = 27.74080 32.34013 30.04046
#
# Velocity S-wave (km/s) = 3.62192 3.91066 3.76905
# Velocity P-wave (km/s) = 6.36606 6.94262 6.66058
#
# Compressibility (1/GPa) = 0.02052842
#
# Stress axis : x y z
#
# Youngs Moduli (GPa) = 59.09819 66.40200 71.41762
#
# Poissons Ratio (x) = 0.13345 0.30167
# Poissons Ratio (y) = 0.11877 0.46375
# Poissons Ratio (z) = 0.24964 0.43118
#
# Static dielectric constant tensor:
#      x y z
#    x 3.844180 0.139280 -0.087750 
#    y 0.139280 3.928280 -0.006540 
#    z -0.087750 -0.006540 3.924080 
# 
# 
# High freq. dielectric constant tensor:
#      x y z
#    x 1.823590 0.003430 -0.005400 
#    y 0.003430 1.840020 -0.000250 
#    z -0.005400 -0.000250 1.836120 
# 
# From -- ./inp_files/285831.got.cif
#   From: 2010.06.25/outbox.cif.g09.slc.cpg/sg2_143_cif.got.tgz:285831.got - 2010.06.27 13:26:56.
