data_PCOD8014522
_publ_section_title
;
Structure prediction by ZEFSAII (Michael W. Deem and Ramdas Pophale) SiO2 
 PCOD8014522
Probable space group: P -1
;
_chemical_formula_sum "Si O2"
_cell_formula_units_Z 16
_cell_length_a 10.915041
_cell_length_b 16.494954
_cell_length_c 19.281792
_cell_angle_alpha 150.337807
_cell_angle_beta 24.956698
_cell_angle_gamma 149.523408
_cell_volume 677.822295
_symmetry_space_group_name_H-M "P -1"
_symmetry_group_IT_number 2
_symmetry_cell_setting 'triclinic'
loop_
_space_group_symop_operation_xyz
x,y,z
-x,-y,-z
loop_
_atom_site_type_symbol
_atom_site_label
_atom_site_fract_x
_atom_site_fract_y
_atom_site_fract_z
Si Si1 0.327927 0.069044 0.579602
Si Si2 0.320754 0.060651 0.790180
Si Si3 0.677622 0.343801 0.912425
Si Si4 0.257525 0.273306 0.580950
Si Si5 0.791106 0.984980 0.704022
Si Si6 0.477005 0.646260 0.212504
Si Si7 0.330323 0.172111 0.086057
Si Si8 0.132461 0.446145 0.462276
O O1 0.332944 0.256273 0.743649
O O2 0.500000 0.000000 0.500000
O O3 0.540037 0.086401 0.415049
O O4 0.974559 0.948088 0.649922
O O5 0.483167 0.142014 0.839179
O O6 0.436889 0.226175 0.801908
O O7 0.953561 0.966314 0.914204
O O8 0.045361 0.385451 0.748489
O O9 0.589095 0.485160 0.018304
O O10 0.548335 0.337786 0.052351
O O11 0.347009 0.183954 0.400414
O O12 0.564429 0.398277 0.552774
O O13 0.048621 0.136299 0.641593
O O14 0.528496 0.053818 0.920798
O O15 0.112298 0.584809 0.372176
O O16 0.202007 0.264456 0.281598
O O17 0.000000 0.500000 0.500000
#
# Coordination Sequence:
#
# PCOD8014522 Si02
#       8
#     2   2   2   2   2   2   2   2
#     4  10  21  41  68  87 129 182 218 259 325 398
#     4  11  23  44  65  94 135 177 223 269 327 412
#     4  11  23  42  66 100 130 173 221 279 335 390
#     4  10  24  40  66  96 135 171 218 281 338 382
#     4  10  22  42  64  99 133 174 221 275 331 396
#     4  11  24  41  68  95 132 180 218 269 337 395
#     4  11  25  38  69 101 129 172 226 276 332 389
#     4  12  24  42  65 101 134 173 222 277 331 398
#
# _framework density 23.605005999999999
#
# number of rings (size 3 to 8) (size 9 to 14) (size 15 to 20)
#    0.000    1.250    3.750    1.500    3.500    1.000 
#    0.000    5.625    0.000    0.000    0.000    0.000 
#    0.000    0.000    0.000    0.000    0.000    0.000 
#
# Total GULP energy -198248.117632 kJ/mol
# GULP energy per Si atom -12390.507352 kJ/mol
# Density = 2.355128 g / cm^3
# Si number density = 23.605006 Si / 1000 Ang^3
#
#
#
# Elastic Constant Matrix: (Units=GPa)
#
#
# Indices 1 2 3 4 5 6 
#
# 1 79.7771 27.2730 36.7178 1.1892 -25.6495 37.2030
# 2 27.2730 75.1667 28.5250 -6.1559 -8.0009 27.0479
# 3 36.7178 28.5250 139.5747 11.3138 -25.1074 10.6987
# 4 1.1892 -6.1559 11.3138 31.3168 7.5880 0.9857
# 5 -25.6495 -8.0009 -25.1074 7.5880 34.5459 -3.9838
# 6 37.2030 27.0479 10.6987 0.9857 -3.9838 52.3351
#
#
#
# Elastic Compliance Matrix: (Units=1/GPa)
#
#
# Indices 1 2 3 4 5 6 
#
# 1 0.027762 -0.001604 -0.002137 -0.004344 0.017677 -0.017042
# 2 -0.001604 0.018300 -0.003450 0.005534 -0.001579 -0.007837
# 3 -0.002137 -0.003450 0.009883 -0.005747 0.006275 0.001868
# 4 -0.004344 0.005534 -0.005747 0.038837 -0.014702 -0.000448
# 5 0.017677 -0.001579 0.006275 -0.014702 0.048450 -0.009067
# 6 -0.017042 -0.007837 0.001868 -0.000448 -0.009067 0.034209
#
#
# Mechanical properties :
#
#
# Convention : Reuss Voigt Hill
#
# Bulk Modulus (GPa) = 24.05966 53.28335 38.67150
# Shear Modulus (GPa) = 24.30981 37.10643 30.70812
#
# Velocity S-wave (km/s) = 3.21262 3.96911 3.61073
# Velocity P-wave (km/s) = 4.89653 6.60508 5.81391
#
# Compressibility (1/GPa) = 0.04156335
#
# Stress axis : x y z
#
# Youngs Moduli (GPa) = 36.01998 54.64469 101.18026
#
# Poissons Ratio (x) = 0.08764 0.21627
# Poissons Ratio (y) = 0.05777 0.34907
# Poissons Ratio (z) = 0.07699 0.18852
#
# Static dielectric constant tensor:
#      x y z
#    x 4.513750 0.412170 0.125690 
#    y 0.412170 4.141140 0.309900 
#    z 0.125690 0.309900 4.759800 
# 
# 
# High freq. dielectric constant tensor:
#      x y z
#    x 1.928470 0.018810 -0.002100 
#    y 0.018810 1.914600 0.011020 
#    z -0.002100 0.011020 1.950420 
# 
# From -- ./inp_files/498900.got.cif
#   From: 2010.06.25/outbox.cif.g09.slc.cpg/sg2_250_cif.got.tgz:498900.got - 2010.06.27 13:26:56.
