data_PCOD8014721
_publ_section_title
;
Structure prediction by ZEFSAII (Michael W. Deem and Ramdas Pophale) SiO2 
 PCOD8014721
Probable space group: P -1
;
_chemical_formula_sum "Si O2"
_cell_formula_units_Z 16
_cell_length_a 11.191594
_cell_length_b 15.063682
_cell_length_c 15.314555
_cell_angle_alpha 28.772652
_cell_angle_beta 41.866234
_cell_angle_gamma 61.573098
_cell_volume 692.603843
_symmetry_space_group_name_H-M "P -1"
_symmetry_group_IT_number 2
_symmetry_cell_setting 'triclinic'
loop_
_space_group_symop_operation_xyz
x,y,z
-x,-y,-z
loop_
_atom_site_type_symbol
_atom_site_label
_atom_site_fract_x
_atom_site_fract_y
_atom_site_fract_z
Si Si1 0.239316 0.931878 0.291007
Si Si2 0.753856 0.167424 0.207173
Si Si3 0.453191 0.175712 0.718834
Si Si4 0.611510 0.574405 0.185718
Si Si5 0.078152 0.432629 0.099177
Si Si6 0.020739 0.973132 0.223138
Si Si7 0.238081 0.791335 0.037085
Si Si8 0.203652 0.394560 0.468172
O O1 0.436725 0.898622 0.205177
O O2 0.112637 0.804711 0.557162
O O3 0.075535 0.840579 0.377033
O O4 0.325221 0.189203 0.019941
O O5 0.905740 0.087119 0.230512
O O6 0.500000 0.000000 0.500000
O O7 0.828646 0.388932 0.028078
O O8 0.799368 0.206493 0.046405
O O9 0.630216 0.433534 0.375444
O O10 0.240309 0.144087 0.904150
O O11 0.402807 0.031486 0.781897
O O12 0.360248 0.413648 0.441363
O O13 0.738084 0.599279 0.007295
O O14 0.000000 0.500000 0.000000
O O15 0.837027 0.792225 0.416149
O O16 0.320017 0.631438 0.151411
O O17 0.014038 0.677735 0.304719
#
# Coordination Sequence:
#
# PCOD8014721 Si02
#       8
#     2   2   2   2   2   2   2   2
#     4  12  26  46  69 106 142 183 230 286 345 420
#     4  12  26  44  72 103 138 184 232 285 342 413
#     4  11  23  45  73 103 144 181 229 290 344 415
#     4  12  24  44  74 100 131 192 236 276 354 409
#     4  12  26  47  68  98 144 183 228 285 342 411
#     4  11  25  44  67 109 142 179 233 287 351 409
#     4  10  21  42  69 103 137 175 227 292 343 398
#     4  10  21  41  71 100 136 176 229 288 344 406
#
# _framework density 23.101229
#
# number of rings (size 3 to 8) (size 9 to 14) (size 15 to 20)
#    0.000    0.750    2.500    5.250    0.000    3.500 
#    4.500    2.500    0.000    0.000    0.000    0.000 
#    0.000    0.000    0.000    0.000    0.000    0.000 
#
# Total GULP energy -198383.215091 kJ/mol
# GULP energy per Si atom -12398.950943 kJ/mol
# Density = 2.304865 g / cm^3
# Si number density = 23.101229 Si / 1000 Ang^3
#
#
#
# Elastic Constant Matrix: (Units=GPa)
#
#
# Indices 1 2 3 4 5 6 
#
# 1 94.5566 12.1384 16.1334 -10.9094 8.7157 1.3715
# 2 12.1384 86.9813 23.7458 -18.7944 -4.5297 -12.5932
# 3 16.1334 23.7458 111.3359 -26.3031 7.1160 -6.6068
# 4 -10.9094 -18.7944 -26.3031 20.0201 -3.2227 -1.0703
# 5 8.7157 -4.5297 7.1160 -3.2227 35.3653 2.9295
# 6 1.3715 -12.5932 -6.6068 -1.0703 2.9295 40.0322
#
#
#
# Elastic Compliance Matrix: (Units=1/GPa)
#
#
# Indices 1 2 3 4 5 6 
#
# 1 0.011494 -0.000642 -0.000222 0.004968 -0.002391 -0.000324
# 2 -0.000642 0.015827 0.000649 0.016142 0.003085 0.005314
# 3 -0.000222 0.000649 0.013393 0.018058 -0.001159 0.002990
# 4 0.004968 0.016142 0.018058 0.092851 0.004841 0.010016
# 5 -0.002391 0.003085 -0.001159 0.004841 0.030035 -0.001207
# 6 -0.000324 0.005314 0.002990 0.010016 -0.001207 0.027512
#
#
# Mechanical properties :
#
#
# Convention : Reuss Voigt Hill
#
# Bulk Modulus (GPa) = 24.82250 44.10099 34.46174
# Shear Modulus (GPa) = 24.39386 35.14058 29.76722
#
# Velocity S-wave (km/s) = 3.25307 3.90443 3.59354
# Velocity P-wave (km/s) = 4.98782 6.28155 5.67170
#
# Compressibility (1/GPa) = 0.04028603
#
# Stress axis : x y z
#
# Youngs Moduli (GPa) = 87.00147 63.18355 74.66413
#
# Poissons Ratio (x) = 0.04054 0.01654
# Poissons Ratio (y) = 0.05582 -0.04846
# Poissons Ratio (z) = 0.01928 -0.04101
#
# Static dielectric constant tensor:
#      x y z
#    x 4.475350 -0.083700 0.143280 
#    y -0.083700 4.343790 -0.027260 
#    z 0.143280 -0.027260 4.235930 
# 
# 
# High freq. dielectric constant tensor:
#      x y z
#    x 1.925690 -0.006920 0.000660 
#    y -0.006920 1.911490 -0.004480 
#    z 0.000660 -0.004480 1.915190 
# 
# From -- ./inp_files/522111.got.cif
#   From: 2010.06.25/outbox.cif.g09.slc.cpg/sg2_262_cif.got.tgz:522111.got - 2010.06.27 13:26:56.
