data_PCOD8014942
_publ_section_title
;
Structure prediction by ZEFSAII (Michael W. Deem and Ramdas Pophale) SiO2 
 PCOD8014942
Probable space group: P -1
;
_chemical_formula_sum "Si O2"
_cell_formula_units_Z 14
_cell_length_a 20.289910
_cell_length_b 16.074359
_cell_length_c 9.784002
_cell_angle_alpha 44.048259
_cell_angle_beta 138.777113
_cell_angle_gamma 162.247611
_cell_volume 641.122187
_symmetry_space_group_name_H-M "P -1"
_symmetry_group_IT_number 2
_symmetry_cell_setting 'triclinic'
loop_
_space_group_symop_operation_xyz
x,y,z
-x,-y,-z
loop_
_atom_site_type_symbol
_atom_site_label
_atom_site_fract_x
_atom_site_fract_y
_atom_site_fract_z
Si Si1 0.208419 0.223731 0.259220
Si Si2 0.990555 0.405704 0.468858
Si Si3 0.652389 0.408673 0.145907
Si Si4 0.489168 0.884940 0.228989
Si Si5 0.394778 0.523332 0.465240
Si Si6 0.654242 0.129711 0.715646
Si Si7 0.306483 0.384966 0.798838
O O1 0.235584 0.287713 0.384546
O O2 0.346508 0.249648 0.412165
O O3 0.317127 0.444816 0.076037
O O4 0.941173 0.920232 0.168169
O O5 0.000000 0.500000 0.500000
O O6 0.122069 0.428879 0.693075
O O7 0.088550 0.581006 0.280449
O O8 0.733860 0.096290 0.401836
O O9 0.616295 0.410954 0.244028
O O10 0.429479 0.095289 0.113448
O O11 0.370686 0.640742 0.267622
O O12 0.364105 0.801630 0.265851
O O13 0.500000 0.000000 0.000000
O O14 0.288371 0.383286 0.612068
O O15 0.500000 0.000000 0.500000
O O16 0.500000 0.500000 0.000000
#
# Coordination Sequence:
#
# PCOD8014942 Si02
#       7
#     2   2   2   2   2   2   2
#     4  11  25  46  66 100 135 180 225 273 346 399
#     4  11  23  40  70  95 136 180 216 279 333 391
#     4  11  22  42  71 101 132 170 229 276 328 406
#     4  12  25  44  67 102 135 178 225 272 342 396
#     4  11  25  45  68  94 144 178 218 283 333 403
#     4  10  21  42  64 100 132 167 226 269 327 401
#     4  12  25  42  69 103 132 177 228 279 336 395
#
# _framework density 21.83671
#
# number of rings (size 3 to 8) (size 9 to 14) (size 15 to 20)
#    0.000    0.857    4.286    4.286    2.000    0.571 
#    0.000    0.000    0.000    0.000    0.000    0.000 
#    0.000    0.000    0.000    0.000    0.000    0.000 
#
# Total GULP energy -173576.557107 kJ/mol
# GULP energy per Si atom -12398.325508 kJ/mol
# Density = 2.178701 g / cm^3
# Si number density = 21.836710 Si / 1000 Ang^3
#
#
#
# Elastic Constant Matrix: (Units=GPa)
#
#
# Indices 1 2 3 4 5 6 
#
# 1 172.7654 24.7672 37.9710 -11.4637 2.4487 -1.1831
# 2 24.7672 66.9014 -2.7380 -8.3864 8.4744 7.9994
# 3 37.9710 -2.7380 92.7122 -17.0279 4.4039 -0.2383
# 4 -11.4637 -8.3864 -17.0279 35.3500 1.9144 0.7549
# 5 2.4487 8.4744 4.4039 1.9144 38.9088 -8.1041
# 6 -1.1831 7.9994 -0.2383 0.7549 -8.1041 31.0559
#
#
#
# Elastic Compliance Matrix: (Units=1/GPa)
#
#
# Indices 1 2 3 4 5 6 
#
# 1 0.006842 -0.002882 -0.002909 0.000067 0.000769 0.001180
# 2 -0.002882 0.018289 0.002944 0.005270 -0.005732 -0.006422
# 3 -0.002909 0.002944 0.013353 0.006363 -0.002617 -0.001604
# 4 0.000067 0.005270 0.006363 0.032919 -0.004157 -0.003191
# 5 0.000769 -0.005732 -0.002617 -0.004157 0.029326 0.009240
# 6 0.001180 -0.006422 -0.001604 -0.003191 0.009240 0.036376
#
#
# Mechanical properties :
#
#
# Convention : Reuss Voigt Hill
#
# Bulk Modulus (GPa) = 30.49517 50.26439 40.37978
# Shear Modulus (GPa) = 32.52468 39.22151 35.87309
#
# Velocity S-wave (km/s) = 3.86353 4.24267 4.05753
# Velocity P-wave (km/s) = 5.82219 6.86066 6.36264
#
# Compressibility (1/GPa) = 0.03279208
#
# Stress axis : x y z
#
# Youngs Moduli (GPa) = 146.15057 54.67629 74.88881
#
# Poissons Ratio (x) = 0.15758 0.21782
# Poissons Ratio (y) = 0.42121 -0.22049
# Poissons Ratio (z) = 0.42508 -0.16098
#
# Static dielectric constant tensor:
#      x y z
#    x 4.229220 0.031350 -0.236950 
#    y 0.031350 4.372820 -0.332240 
#    z -0.236950 -0.332240 3.916000 
# 
# 
# High freq. dielectric constant tensor:
#      x y z
#    x 1.885910 -0.003540 -0.005010 
#    y -0.003540 1.848960 -0.009310 
#    z -0.005010 -0.009310 1.851990 
# 
# From -- ./inp_files/179553.got.cif
#   From: 2010.06.25/outbox.cif.g09.slc.cpg/sg2_90_cif.got.tgz:179553.got - 2010.06.27 13:26:56.
