data_PCOD8014735
_publ_section_title
;
Structure prediction by ZEFSAII (Michael W. Deem and Ramdas Pophale) SiO2 
 PCOD8014735
Probable space group: P -1
;
_chemical_formula_sum "Si O2"
_cell_formula_units_Z 14
_cell_length_a 19.519566
_cell_length_b 7.521782
_cell_length_c 8.439786
_cell_angle_alpha 70.693436
_cell_angle_beta 145.801162
_cell_angle_gamma 120.800433
_cell_volume 587.070281
_symmetry_space_group_name_H-M "P -1"
_symmetry_group_IT_number 2
_symmetry_cell_setting 'triclinic'
loop_
_space_group_symop_operation_xyz
x,y,z
-x,-y,-z
loop_
_atom_site_type_symbol
_atom_site_label
_atom_site_fract_x
_atom_site_fract_y
_atom_site_fract_z
Si Si1 0.997862 0.218383 0.417823
Si Si2 0.513736 0.396119 0.772062
Si Si3 0.238948 0.495808 0.579456
Si Si4 0.557027 0.250402 0.569518
Si Si5 0.789617 0.841475 0.638488
Si Si6 0.007670 0.766612 0.239700
Si Si7 0.823583 0.348131 0.872177
O O1 0.138839 0.397292 0.564171
O O2 0.979954 0.289274 0.538156
O O3 0.000000 0.000000 0.500000
O O4 0.864302 0.169268 0.065702
O O5 0.567894 0.302741 0.760460
O O6 0.529500 0.633638 0.703323
O O7 0.358851 0.224516 0.554664
O O8 0.604800 0.405651 0.094631
O O9 0.212178 0.321892 0.447262
O O10 0.214193 0.674581 0.380733
O O11 0.706240 0.365544 0.745963
O O12 0.500000 0.000000 0.500000
O O13 0.895994 0.856841 0.976444
O O14 0.844005 0.066347 0.588865
O O15 0.964849 0.556240 0.117316
#
# Coordination Sequence:
#
# PCOD8014735 Si02
#       7
#     2   2   2   2   2   2   2
#     4  12  25  41  71 104 137 191 244 296 366 426
#     4  11  24  47  77 105 152 196 238 300 375 435
#     4  11  23  44  71 108 146 194 238 295 374 431
#     4  11  26  46  74 110 145 193 249 303 359 440
#     4  10  21  41  71 106 147 189 236 299 362 436
#     4  10  21  42  68 102 141 186 241 293 361 424
#     4  11  25  48  68 104 151 185 244 311 355 436
#
# _framework density 23.84723
#
# number of rings (size 3 to 8) (size 9 to 14) (size 15 to 20)
#    0.000    1.143    4.286    2.143    4.000    0.000 
#    2.571    0.714    3.143    0.000    0.000    0.000 
#    0.000    0.000    0.000    0.000    0.000    0.000 
#
# Total GULP energy -173546.708995 kJ/mol
# GULP energy per Si atom -12396.193500 kJ/mol
# Density = 2.379295 g / cm^3
# Si number density = 23.847230 Si / 1000 Ang^3
#
#
#
# Elastic Constant Matrix: (Units=GPa)
#
#
# Indices 1 2 3 4 5 6 
#
# 1 90.0929 53.5447 36.1664 -10.0203 1.0580 17.9171
# 2 53.5447 115.5599 58.4720 -9.5933 -5.2263 12.0542
# 3 36.1664 58.4720 154.2723 -26.0129 -12.6924 12.5320
# 4 -10.0203 -9.5933 -26.0129 37.4783 7.8522 1.3161
# 5 1.0580 -5.2263 -12.6924 7.8522 33.0202 1.0742
# 6 17.9171 12.0542 12.5320 1.3161 1.0742 44.9652
#
#
#
# Elastic Compliance Matrix: (Units=1/GPa)
#
#
# Indices 1 2 3 4 5 6 
#
# 1 0.016672 -0.006765 -0.000669 0.002930 -0.002407 -0.004671
# 2 -0.006765 0.013595 -0.003663 -0.001131 0.001227 0.000076
# 3 -0.000669 -0.003663 0.009122 0.004882 0.001835 -0.001480
# 4 0.002930 -0.001131 0.004882 0.031904 -0.005885 -0.003018
# 5 -0.002407 0.001227 0.001835 -0.005885 0.032676 -0.000490
# 6 -0.004671 0.000076 -0.001480 -0.003018 -0.000490 0.024593
#
#
# Mechanical properties :
#
#
# Convention : Reuss Voigt Hill
#
# Bulk Modulus (GPa) = 58.15457 72.92126 65.53792
# Shear Modulus (GPa) = 31.95163 37.20886 34.58025
#
# Velocity S-wave (km/s) = 3.66436 3.95435 3.81211
# Velocity P-wave (km/s) = 6.50712 7.17594 6.84970
#
# Compressibility (1/GPa) = 0.01719555
#
# Stress axis : x y z
#
# Youngs Moduli (GPa) = 59.98140 73.55640 109.63013
#
# Poissons Ratio (x) = 0.49759 0.07334
# Poissons Ratio (y) = 0.40576 0.40155
# Poissons Ratio (z) = 0.04013 0.26942
#
# Static dielectric constant tensor:
#      x y z
#    x -27.347940 -11.500710 49.225180 
#    y -11.500710 0.153600 18.030050 
#    z 49.225180 18.030050 -72.425070 
# 
# 
# High freq. dielectric constant tensor:
#      x y z
#    x 1.951260 0.009660 0.000420 
#    y 0.009660 1.945970 -0.013210 
#    z 0.000420 -0.013210 1.942250 
# 
# From -- ./inp_files/343483.got.cif
#   From: 2010.06.25/outbox.cif.g09.slc.cpg/sg2_172_cif.got.tgz:343483.got - 2010.06.27 13:26:56.
