data_PCOD8014485
_publ_section_title
;
Structure prediction by ZEFSAII (Michael W. Deem and Ramdas Pophale) SiO2 
 PCOD8014485
Probable space group: P -1
;
_chemical_formula_sum "Si O2"
_cell_formula_units_Z 16
_cell_length_a 19.697838
_cell_length_b 11.883330
_cell_length_c 9.477154
_cell_angle_alpha 46.988164
_cell_angle_beta 46.423548
_cell_angle_gamma 27.591827
_cell_volume 727.403166
_symmetry_space_group_name_H-M "P -1"
_symmetry_group_IT_number 2
_symmetry_cell_setting 'triclinic'
loop_
_space_group_symop_operation_xyz
x,y,z
-x,-y,-z
loop_
_atom_site_type_symbol
_atom_site_label
_atom_site_fract_x
_atom_site_fract_y
_atom_site_fract_z
Si Si1 0.896217 0.098391 0.893734
Si Si2 0.541832 0.550453 0.605303
Si Si3 0.188140 0.234998 0.303181
Si Si4 0.490273 0.722145 0.224561
Si Si5 0.065230 0.492725 0.771313
Si Si6 0.844352 0.280786 0.519650
Si Si7 0.759947 0.954587 0.296393
Si Si8 0.174916 0.603106 0.009213
O O1 0.805304 0.267162 0.742183
O O2 0.885600 0.257789 0.874449
O O3 0.823033 0.044860 0.117556
O O4 0.075528 0.823572 0.843912
O O5 0.485694 0.648497 0.444507
O O6 0.534590 0.373137 0.782500
O O7 0.709163 0.400452 0.511310
O O8 0.422881 0.792184 0.670374
O O9 0.189817 0.177461 0.511231
O O10 0.128699 0.485479 0.167745
O O11 0.067286 0.294857 0.332291
O O12 0.348638 0.021438 0.173810
O O13 0.645613 0.612708 0.074596
O O14 0.146751 0.546486 0.649457
O O15 0.187942 0.221334 0.755776
O O16 0.000000 0.500000 0.000000
O O17 0.000000 0.000000 0.500000
#
# Coordination Sequence:
#
# PCOD8014485 Si02
#       8
#     2   2   2   2   2   2   2   2
#     4  11  24  39  70  98 129 174 226 272 325 389
#     4  10  23  42  68  96 132 174 218 273 329 393
#     4  11  24  41  70  96 133 174 221 273 334 388
#     4  10  21  41  67  99 127 170 222 273 327 389
#     4  12  27  45  66  99 137 176 217 274 339 395
#     4  12  26  44  66  95 134 177 220 268 336 397
#     4  11  23  46  69  96 134 176 225 275 326 394
#     4  11  22  40  66  98 128 170 223 277 318 392
#
# _framework density 21.996054000000001
#
# number of rings (size 3 to 8) (size 9 to 14) (size 15 to 20)
#    0.000    1.000    2.500    3.750    5.250    1.000 
#    2.250    0.000    0.000    0.000    0.000    0.000 
#    0.000    0.000    0.000    0.000    0.000    0.000 
#
# Total GULP energy -198360.251367 kJ/mol
# GULP energy per Si atom -12397.515710 kJ/mol
# Density = 2.194599 g / cm^3
# Si number density = 21.996054 Si / 1000 Ang^3
#
#
#
# Elastic Constant Matrix: (Units=GPa)
#
#
# Indices 1 2 3 4 5 6 
#
# 1 88.9445 39.7085 11.8289 3.1061 -17.4873 11.3719
# 2 39.7085 135.9991 22.0508 11.9763 4.1547 9.5809
# 3 11.8289 22.0508 72.5230 0.4702 -3.9650 16.2431
# 4 3.1061 11.9763 0.4702 30.1876 0.7083 -8.0959
# 5 -17.4873 4.1547 -3.9650 0.7083 26.6081 6.5466
# 6 11.3719 9.5809 16.2431 -8.0959 6.5466 33.7306
#
#
#
# Elastic Compliance Matrix: (Units=1/GPa)
#
#
# Indices 1 2 3 4 5 6 
#
# 1 0.017260 -0.004889 0.001382 -0.002477 0.014469 -0.008498
# 2 -0.004889 0.009575 -0.002455 -0.003040 -0.005083 0.000367
# 3 0.001382 -0.002455 0.016810 -0.002146 0.006211 -0.009584
# 4 -0.002477 -0.003040 -0.002146 0.038245 -0.005693 0.013016
# 5 0.014469 -0.005083 0.006211 -0.005693 0.053432 -0.018162
# 6 -0.008498 0.000367 -0.009584 0.013016 -0.018162 0.043672
#
#
# Mechanical properties :
#
#
# Convention : Reuss Voigt Hill
#
# Bulk Modulus (GPa) = 31.52388 49.40478 40.46433
# Shear Modulus (GPa) = 24.81514 33.03049 28.92281
#
# Velocity S-wave (km/s) = 3.36246 3.87932 3.63010
# Velocity P-wave (km/s) = 5.42564 6.52496 6.00052
#
# Compressibility (1/GPa) = 0.03172198
#
# Stress axis : x y z
#
# Youngs Moduli (GPa) = 57.93886 104.43383 59.48932
#
# Poissons Ratio (x) = 0.51054 -0.08220
# Poissons Ratio (y) = 0.28324 0.14602
# Poissons Ratio (z) = -0.08006 0.25634
#
# Static dielectric constant tensor:
#      x y z
#    x 3.946380 0.087660 0.118280 
#    y 0.087660 4.459220 -0.073670 
#    z 0.118280 -0.073670 3.880750 
# 
# 
# High freq. dielectric constant tensor:
#      x y z
#    x 1.864890 0.008050 -0.006240 
#    y 0.008050 1.884380 0.003530 
#    z -0.006240 0.003530 1.852360 
# 
# From -- ./inp_files/332850.got.cif
#   From: 2010.06.25/outbox.cif.g09.slc.cpg/sg2_167_cif.got.tgz:332850.got - 2010.06.27 13:26:56.
