data_PCOD8014250
_publ_section_title
;
Structure prediction by ZEFSAII (Michael W. Deem and Ramdas Pophale) SiO2 
 PCOD8014250
Probable space group: P -1
;
_chemical_formula_sum "Si O2"
_cell_formula_units_Z 16
_cell_length_a 17.129799
_cell_length_b 8.843661
_cell_length_c 9.532757
_cell_angle_alpha 133.814511
_cell_angle_beta 45.171087
_cell_angle_gamma 110.241723
_cell_volume 709.977752
_symmetry_space_group_name_H-M "P -1"
_symmetry_group_IT_number 2
_symmetry_cell_setting 'triclinic'
loop_
_space_group_symop_operation_xyz
x,y,z
-x,-y,-z
loop_
_atom_site_type_symbol
_atom_site_label
_atom_site_fract_x
_atom_site_fract_y
_atom_site_fract_z
Si Si1 0.797561 0.679617 0.215885
Si Si2 0.065253 0.147375 0.626385
Si Si3 0.599315 0.050262 0.605107
Si Si4 0.265713 0.758426 0.995635
Si Si5 0.171818 0.411654 0.184901
Si Si6 0.025786 0.217344 0.421911
Si Si7 0.603846 0.444232 0.038099
Si Si8 0.406243 0.861130 0.635696
O O1 0.888683 0.707212 0.231731
O O2 0.774694 0.450854 0.130164
O O3 0.679368 0.875184 0.496565
O O4 0.847141 0.691484 0.006053
O O5 0.009559 0.294456 0.656634
O O6 0.973695 0.038815 0.748035
O O7 0.164460 0.946837 0.310159
O O8 0.582056 0.291381 0.843216
O O9 0.652296 0.026717 0.363495
O O10 0.475178 0.008510 0.722232
O O11 0.309182 0.839485 0.850497
O O12 0.363749 0.691295 0.946458
O O13 0.144952 0.255364 0.239608
O O14 0.297542 0.444338 0.063766
O O15 0.078541 0.649494 0.458415
O O16 0.488654 0.629352 0.334609
#
# Coordination Sequence:
#
# PCOD8014250 Si02
#       8
#     2   2   2   2   2   2   2   2
#     4  11  22  41  63  87 125 161 196 249 304 352
#     4  11  23  42  62  91 124 158 200 250 297 360
#     4  11  23  39  62  90 122 160 204 245 297 357
#     4  11  23  41  61  89 125 159 198 249 297 356
#     4  10  21  41  66  89 122 159 197 254 300 353
#     4  10  22  41  65  91 120 158 203 247 304 355
#     4  11  21  42  63  86 128 157 197 252 299 353
#     4  11  25  39  62  92 121 160 205 245 297 359
#
# _framework density 22.535917999999999
#
# number of rings (size 3 to 8) (size 9 to 14) (size 15 to 20)
#    0.000    1.250    6.250    0.750    1.750    3.500 
#    0.000    0.000    0.000    0.000    0.000    0.000 
#    0.000    0.000    0.000    0.000    0.000    0.000 
#
# Total GULP energy -198362.162272 kJ/mol
# GULP energy per Si atom -12397.635142 kJ/mol
# Density = 2.248463 g / cm^3
# Si number density = 22.535918 Si / 1000 Ang^3
#
#
#
# Elastic Constant Matrix: (Units=GPa)
#
#
# Indices 1 2 3 4 5 6 
#
# 1 75.7023 26.9386 0.1802 3.8005 37.0460 13.2701
# 2 26.9386 137.3787 36.2109 -27.0035 18.4448 5.9810
# 3 0.1802 36.2109 50.6309 -0.2672 17.3300 19.1193
# 4 3.8005 -27.0035 -0.2672 32.6459 1.7451 4.2748
# 5 37.0460 18.4448 17.3300 1.7451 38.6473 15.1835
# 6 13.2701 5.9810 19.1193 4.2748 15.1835 29.4203
#
#
#
# Elastic Compliance Matrix: (Units=1/GPa)
#
#
# Indices 1 2 3 4 5 6 
#
# 1 0.036481 -0.009526 0.022570 -0.008805 -0.036604 -0.009015
# 2 -0.009526 0.014139 -0.014301 0.011588 0.005926 0.005974
# 3 0.022570 -0.014301 0.047709 -0.009614 -0.026691 -0.023105
# 4 -0.008805 0.011588 -0.009614 0.040995 0.005795 -0.001084
# 5 -0.036604 0.005926 -0.026691 0.005795 0.071928 -0.005312
# 6 -0.009015 0.005974 -0.023105 -0.001084 -0.005312 0.054757
#
#
# Mechanical properties :
#
#
# Convention : Reuss Voigt Hill
#
# Bulk Modulus (GPa) = 10.43696 43.37462 26.90579
# Shear Modulus (GPa) = 16.64108 33.50151 25.07129
#
# Velocity S-wave (km/s) = 2.72035 3.85981 3.33904
# Velocity P-wave (km/s) = 3.80898 6.25722 5.17982
#
# Compressibility (1/GPa) = 0.09581330
#
# Stress axis : x y z
#
# Youngs Moduli (GPa) = 27.41165 70.72753 20.96042
#
# Poissons Ratio (x) = 0.67377 -0.47308
# Poissons Ratio (y) = 0.26113 0.29976
# Poissons Ratio (z) = -0.61868 1.01150
#
# Static dielectric constant tensor:
#      x y z
#    x 4.257520 -0.297370 0.000150 
#    y -0.297370 4.368880 0.002050 
#    z 0.000150 0.002050 3.917900 
# 
# 
# High freq. dielectric constant tensor:
#      x y z
#    x 1.893320 -0.013400 -0.008950 
#    y -0.013400 1.895300 0.010770 
#    z -0.008950 0.010770 1.875520 
# 
# From -- ./inp_files/188916.got.cif
#   From: 2010.06.25/outbox.cif.g09.slc.cpg/sg2_95_cif.got.tgz:188916.got - 2010.06.27 13:26:56.
