data_PCOD8014287
_publ_section_title
;
Structure prediction by ZEFSAII (Michael W. Deem and Ramdas Pophale) SiO2 
 PCOD8014287
Probable space group: P -1
;
_chemical_formula_sum "Si O2"
_cell_formula_units_Z 16
_cell_length_a 7.008644
_cell_length_b 11.405680
_cell_length_c 24.332990
_cell_angle_alpha 151.910301
_cell_angle_beta 122.710884
_cell_angle_gamma 58.470305
_cell_volume 765.368642
_symmetry_space_group_name_H-M "P -1"
_symmetry_group_IT_number 2
_symmetry_cell_setting 'triclinic'
loop_
_space_group_symop_operation_xyz
x,y,z
-x,-y,-z
loop_
_atom_site_type_symbol
_atom_site_label
_atom_site_fract_x
_atom_site_fract_y
_atom_site_fract_z
Si Si1 0.082351 0.285380 0.882606
Si Si2 0.730959 0.462156 0.083651
Si Si3 0.394882 0.848513 0.258919
Si Si4 0.096057 0.256974 0.130667
Si Si5 0.376570 0.307610 0.366101
Si Si6 0.354092 0.993751 0.529406
Si Si7 0.503077 0.962370 0.836752
Si Si8 0.938161 0.401532 0.637699
O O1 0.256286 0.378655 0.903782
O O2 0.237561 0.064107 0.848879
O O3 0.858269 0.205901 0.785926
O O4 0.000000 0.500000 0.000000
O O5 0.550358 0.610310 0.158695
O O6 0.992085 0.432661 0.136887
O O7 0.652507 0.193434 0.945736
O O8 0.507504 0.935895 0.367216
O O9 0.348961 0.067244 0.298160
O O10 0.986094 0.387076 0.222522
O O11 0.373479 0.200884 0.160108
O O12 0.000000 0.000000 0.000000
O O13 0.500000 0.500000 0.500000
O O14 0.137546 0.463474 0.375670
O O15 0.502199 0.214866 0.290705
O O16 0.140972 0.196466 0.568991
O O17 0.500000 0.000000 0.500000
O O18 0.266835 0.725209 0.416263
#
# Coordination Sequence:
#
# PCOD8014287 Si02
#       8
#     2   2   2   2   2   2   2   2
#     4  12  24  38  65 100 130 166 210 270 328 379
#     4  11  21  43  69  92 127 168 217 266 322 384
#     4  12  24  41  67  97 127 169 222 264 320 386
#     4   9  20  38  70  90 120 169 209 262 321 373
#     4  11  22  42  65  90 128 177 210 257 319 380
#     4  11  25  42  67  96 127 167 218 266 316 384
#     4  10  21  41  66  93 130 166 211 265 320 382
#     4  10  22  44  68  89 129 170 211 265 325 373
#
# _framework density 20.904959999999999
#
# number of rings (size 3 to 8) (size 9 to 14) (size 15 to 20)
#    0.000    1.250    5.000    1.125    1.750    1.000 
#    4.500    1.875    0.000    0.000    0.000    0.000 
#    0.000    0.000    0.000    0.000    0.000    0.000 
#
# Total GULP energy -198246.270427 kJ/mol
# GULP energy per Si atom -12390.391902 kJ/mol
# Density = 2.085738 g / cm^3
# Si number density = 20.904960 Si / 1000 Ang^3
#
#
#
# Elastic Constant Matrix: (Units=GPa)
#
#
# Indices 1 2 3 4 5 6 
#
# 1 80.8751 28.4315 24.1920 -2.3846 -7.2201 -16.6743
# 2 28.4315 142.6428 31.6223 -4.8167 -10.2923 -25.3510
# 3 24.1920 31.6223 129.5600 -8.5800 -10.6838 -7.4171
# 4 -2.3846 -4.8167 -8.5800 36.0764 -0.0804 -1.7874
# 5 -7.2201 -10.2923 -10.6838 -0.0804 24.7354 0.2340
# 6 -16.6743 -25.3510 -7.4171 -1.7874 0.2340 32.0591
#
#
#
# Elastic Compliance Matrix: (Units=1/GPa)
#
#
# Indices 1 2 3 4 5 6 
#
# 1 0.014948 -0.001188 -0.001837 0.000718 0.003017 0.006428
# 2 -0.001188 0.008857 -0.001291 0.001107 0.002727 0.006129
# 3 -0.001837 -0.001291 0.008725 0.001793 0.002700 0.000123
# 4 0.000718 0.001107 0.001793 0.028505 0.001507 0.003242
# 5 0.003017 0.002727 0.002700 0.001507 0.043575 0.004116
# 6 0.006428 0.006129 0.000123 0.003242 0.004116 0.039561
#
#
# Mechanical properties :
#
#
# Convention : Reuss Voigt Hill
#
# Bulk Modulus (GPa) = 41.84405 57.95215 49.89810
# Shear Modulus (GPa) = 31.10076 36.49631 33.79854
#
# Velocity S-wave (km/s) = 3.86128 4.18283 4.02527
# Velocity P-wave (km/s) = 6.31974 7.14913 6.74719
#
# Compressibility (1/GPa) = 0.02389826
#
# Stress axis : x y z
#
# Youngs Moduli (GPa) = 66.90038 112.90739 114.61419
#
# Poissons Ratio (x) = 0.13411 0.21053
# Poissons Ratio (y) = 0.07946 0.14796
# Poissons Ratio (z) = 0.12289 0.14576
#
# Static dielectric constant tensor:
#      x y z
#    x 4.537770 -0.360560 0.438940 
#    y -0.360560 4.625550 -0.158800 
#    z 0.438940 -0.158800 4.507570 
# 
# 
# High freq. dielectric constant tensor:
#      x y z
#    x 1.769600 -0.023410 -0.005930 
#    y -0.023410 1.851580 -0.002450 
#    z -0.005930 -0.002450 1.838590 
# 
# From -- ./inp_files/95503.got.cif
#   From: 2010.06.25/outbox.cif.g09.slc.cpg/sg2_48_cif.got.tgz:95503.got - 2010.06.27 13:26:56.
