data_PCOD8014086
_publ_section_title
;
Structure prediction by ZEFSAII (Michael W. Deem and Ramdas Pophale) SiO2 
 PCOD8014086
Probable space group: P -1
;
_chemical_formula_sum "Si O2"
_cell_formula_units_Z 14
_cell_length_a 11.055012
_cell_length_b 11.734675
_cell_length_c 16.666380
_cell_angle_alpha 36.499527
_cell_angle_beta 148.335398
_cell_angle_gamma 153.927645
_cell_volume 491.523641
_symmetry_space_group_name_H-M "P -1"
_symmetry_group_IT_number 2
_symmetry_cell_setting 'triclinic'
loop_
_space_group_symop_operation_xyz
x,y,z
-x,-y,-z
loop_
_atom_site_type_symbol
_atom_site_label
_atom_site_fract_x
_atom_site_fract_y
_atom_site_fract_z
Si Si1 0.492580 0.760113 0.832679
Si Si2 0.389798 0.478284 0.083110
Si Si3 0.876627 0.478923 0.802195
Si Si4 0.133935 0.612335 0.385749
Si Si5 0.999349 0.782625 0.349149
Si Si6 0.781552 0.792850 0.648012
Si Si7 0.707681 0.989949 0.357232
O O1 0.688527 0.768951 0.866054
O O2 0.118702 0.483822 0.771598
O O3 0.533309 0.018483 0.712410
O O4 0.586847 0.724972 0.992344
O O5 0.619269 0.575456 0.234337
O O6 0.066717 0.394401 0.980081
O O7 0.839296 0.597772 0.792073
O O8 0.521449 0.233712 0.711322
O O9 0.077344 0.713752 0.718612
O O10 0.929816 0.341996 0.476419
O O11 0.429664 0.652901 0.501811
O O12 0.197961 0.836847 0.350859
O O13 0.107512 0.051830 0.293342
O O14 0.934707 0.972793 0.548691
#
# Coordination Sequence:
#
# PCOD8014086 Si02
#       7
#     2   2   2   2   2   2   2
#     4   9  18  40  71  89 129 165 223 272 324 370
#     4   9  20  41  62  98 128 174 211 269 324 393
#     4  11  26  42  66  97 137 171 222 264 324 395
#     4  10  21  41  64  99 123 170 222 274 321 383
#     4  10  22  40  65  92 135 164 221 269 330 385
#     4  12  23  38  67  94 132 175 213 272 330 388
#     4  11  23  42  67 101 128 171 224 277 315 381
#
# _framework density 28.482862000000001
#
# number of rings (size 3 to 8) (size 9 to 14) (size 15 to 20)
#    0.000    1.714    1.429    3.000    2.000    1.143 
#    5.143    2.143    0.000    0.000    0.000    0.000 
#    0.000    0.000    0.000    0.000    0.000    0.000 
#
# Total GULP energy -173512.521158 kJ/mol
# GULP energy per Si atom -12393.751511 kJ/mol
# Density = 2.841803 g / cm^3
# Si number density = 28.482862 Si / 1000 Ang^3
#
#
#
# Elastic Constant Matrix: (Units=GPa)
#
#
# Indices 1 2 3 4 5 6 
#
# 1 79.8622 27.5031 14.9633 1.4723 24.6531 -41.6732
# 2 27.5031 101.4642 19.0574 -4.4630 18.8750 -36.4747
# 3 14.9633 19.0574 104.8322 -3.1756 32.7271 -14.7478
# 4 1.4723 -4.4630 -3.1756 38.0032 -12.5168 16.8432
# 5 24.6531 18.8750 32.7271 -12.5168 49.7014 -3.7211
# 6 -41.6732 -36.4747 -14.7478 16.8432 -3.7211 56.0988
#
#
#
# Elastic Compliance Matrix: (Units=1/GPa)
#
#
# Indices 1 2 3 4 5 6 
#
# 1 0.046901 0.009655 0.009751 -0.035469 -0.038407 0.051783
# 2 0.009655 0.016569 0.002754 -0.012458 -0.014426 0.021453
# 3 0.009751 0.002754 0.014861 -0.011255 -0.017367 0.015168
# 4 -0.035469 -0.012458 -0.011255 0.062652 0.041511 -0.053464
# 5 -0.038407 -0.014426 -0.017367 0.041511 0.062738 -0.050778
# 6 0.051783 0.021453 0.015168 -0.053464 -0.050778 0.086913
#
#
# Mechanical properties :
#
#
# Convention : Reuss Voigt Hill
#
# Bulk Modulus (GPa) = 8.15322 45.46736 26.81029
# Shear Modulus (GPa) = 17.40968 43.73631 30.57300
#
# Velocity S-wave (km/s) = 2.47500 3.92284 3.27981
# Velocity P-wave (km/s) = 3.32208 6.04284 4.87607
#
# Compressibility (1/GPa) = 0.12265088
#
# Stress axis : x y z
#
# Youngs Moduli (GPa) = 21.32172 60.35433 67.28875
#
# Poissons Ratio (x) = -0.58274 -0.65612
# Poissons Ratio (y) = -0.20587 -0.18532
# Poissons Ratio (z) = -0.20790 -0.16622
#
# Static dielectric constant tensor:
#      x y z
#    x 6.114160 -0.184880 0.406670 
#    y -0.184880 4.786640 -0.345720 
#    z 0.406670 -0.345720 5.219640 
# 
# 
# High freq. dielectric constant tensor:
#      x y z
#    x 2.181850 -0.010170 0.018200 
#    y -0.010170 2.138990 -0.016930 
#    z 0.018200 -0.016930 2.157150 
# 
# From -- ./inp_files/66980.got.cif
#   From: 2010.06.25/outbox.cif.g09.slc.cpg/sg2_34_cif.got.tgz:66980.got - 2010.06.27 13:26:56.
