data_PCOD8014895
_publ_section_title
;
Structure prediction by ZEFSAII (Michael W. Deem and Ramdas Pophale) SiO2 
 PCOD8014895
Probable space group: P -1
;
_chemical_formula_sum "Si O2"
_cell_formula_units_Z 16
_cell_length_a 18.323630
_cell_length_b 8.387517
_cell_length_c 13.021201
_cell_angle_alpha 60.662654
_cell_angle_beta 22.091916
_cell_angle_gamma 61.521963
_cell_volume 654.526481
_symmetry_space_group_name_H-M "P -1"
_symmetry_group_IT_number 2
_symmetry_cell_setting 'triclinic'
loop_
_space_group_symop_operation_xyz
x,y,z
-x,-y,-z
loop_
_atom_site_type_symbol
_atom_site_label
_atom_site_fract_x
_atom_site_fract_y
_atom_site_fract_z
Si Si1 0.534371 0.177087 0.000799
Si Si2 0.516904 0.914655 0.393838
Si Si3 0.017284 0.275676 0.946977
Si Si4 0.249307 0.783459 0.090767
Si Si5 0.135427 0.113101 0.359558
Si Si6 0.608261 0.584949 0.077137
Si Si7 0.804156 0.956839 0.378893
Si Si8 0.691227 0.547555 0.348892
O O1 0.334309 0.099384 0.330305
O O2 0.662123 0.265697 0.895795
O O3 0.477212 0.333453 0.944190
O O4 0.671960 0.013734 0.817272
O O5 0.568346 0.696095 0.393025
O O6 0.500000 0.000000 0.500000
O O7 0.312871 0.948795 0.593547
O O8 0.679775 0.017459 0.088586
O O9 0.850190 0.439826 0.104544
O O10 0.950803 0.115114 0.162644
O O11 0.069330 0.216147 0.780769
O O12 0.211430 0.345916 0.719521
O O13 0.012862 0.809471 0.382513
O O14 0.317650 0.626693 0.970564
O O15 0.218821 0.295490 0.144315
O O16 0.000000 0.000000 0.500000
O O17 0.446661 0.594653 0.373350
#
# Coordination Sequence:
#
# PCOD8014895 Si02
#       8
#     2   2   2   2   2   2   2   2
#     4  10  22  41  63  89 126 167 204 254 315 375
#     4  11  20  41  64  87 124 168 204 253 316 366
#     4  10  22  39  61  94 125 157 213 263 305 370
#     4  10  22  40  64  90 126 164 211 257 307 372
#     4  10  23  42  62  93 127 164 208 258 312 372
#     4  12  22  40  65  93 127 165 208 253 317 378
#     4  10  21  42  63  88 124 168 207 257 318 366
#     4  11  23  39  63  94 125 163 209 259 313 372
#
# _framework density 24.445153000000001
#
# number of rings (size 3 to 8) (size 9 to 14) (size 15 to 20)
#    0.000    1.500    2.500    2.625    0.000    3.500 
#    0.000    6.250    0.000    0.000    0.000    0.000 
#    0.000    0.000    0.000    0.000    0.000    0.000 
#
# Total GULP energy -198357.919161 kJ/mol
# GULP energy per Si atom -12397.369948 kJ/mol
# Density = 2.438951 g / cm^3
# Si number density = 24.445153 Si / 1000 Ang^3
#
#
#
# Elastic Constant Matrix: (Units=GPa)
#
#
# Indices 1 2 3 4 5 6 
#
# 1 51.7758 18.6041 26.5339 -0.6460 8.9275 -9.2836
# 2 18.6041 106.6762 42.9101 3.5051 6.9264 -3.4613
# 3 26.5339 42.9101 160.0465 -3.8197 -4.6170 -5.3536
# 4 -0.6460 3.5051 -3.8197 51.5441 7.9355 -0.8985
# 5 8.9275 6.9264 -4.6170 7.9355 24.2177 -5.2362
# 6 -9.2836 -3.4613 -5.3536 -0.8985 -5.2362 32.6328
#
#
#
# Elastic Compliance Matrix: (Units=1/GPa)
#
#
# Indices 1 2 3 4 5 6 
#
# 1 0.024209 -0.002171 -0.003478 0.001578 -0.008451 0.004774
# 2 -0.002171 0.011025 -0.002701 -0.000558 -0.002760 -0.000350
# 3 -0.003478 -0.002701 0.007675 0.000167 0.003585 0.000563
# 4 0.001578 -0.000558 0.000167 0.020571 -0.007167 -0.000167
# 5 -0.008451 -0.002760 0.003585 -0.007167 0.049446 0.005628
# 6 0.004774 -0.000350 0.000563 -0.000167 0.005628 0.032956
#
#
# Mechanical properties :
#
#
# Convention : Reuss Voigt Hill
#
# Bulk Modulus (GPa) = 38.15327 54.95495 46.55411
# Shear Modulus (GPa) = 29.18525 37.04227 33.11376
#
# Velocity S-wave (km/s) = 3.45905 3.89694 3.68450
# Velocity P-wave (km/s) = 5.62094 6.54048 6.09806
#
# Compressibility (1/GPa) = 0.02621007
#
# Stress axis : x y z
#
# Youngs Moduli (GPa) = 41.30612 90.69960 130.29132
#
# Poissons Ratio (x) = 0.19693 0.45315
# Poissons Ratio (y) = 0.08969 0.35188
# Poissons Ratio (z) = 0.14366 0.24495
#
# Static dielectric constant tensor:
#      x y z
#    x 5.495850 -0.205810 1.255410 
#    y -0.205810 4.688780 -0.198990 
#    z 1.255410 -0.198990 6.485940 
# 
# 
# High freq. dielectric constant tensor:
#      x y z
#    x 1.948020 0.017740 -0.010580 
#    y 0.017740 1.978690 0.007660 
#    z -0.010580 0.007660 1.992590 
# 
# From -- ./inp_files/540437.got.cif
#   From: 2010.06.25/outbox.cif.g09.slc.cpg/sg2_271_cif.got.tgz:540437.got - 2010.06.27 13:26:56.
