data_PCOD8014442
_publ_section_title
;
Structure prediction by ZEFSAII (Michael W. Deem and Ramdas Pophale) SiO2 
 PCOD8014442
Probable space group: P -1
;
_chemical_formula_sum "Si O2"
_cell_formula_units_Z 16
_cell_length_a 11.156151
_cell_length_b 9.263454
_cell_length_c 14.551922
_cell_angle_alpha 113.512899
_cell_angle_beta 33.930895
_cell_angle_gamma 101.312345
_cell_volume 742.546463
_symmetry_space_group_name_H-M "P -1"
_symmetry_group_IT_number 2
_symmetry_cell_setting 'triclinic'
loop_
_space_group_symop_operation_xyz
x,y,z
-x,-y,-z
loop_
_atom_site_type_symbol
_atom_site_label
_atom_site_fract_x
_atom_site_fract_y
_atom_site_fract_z
Si Si1 0.137260 0.000606 0.820337
Si Si2 0.695990 0.546570 0.444562
Si Si3 0.596122 0.868498 0.701598
Si Si4 0.808817 0.198572 0.946874
Si Si5 0.155555 0.740933 0.599590
Si Si6 0.760247 0.932784 0.793694
Si Si7 0.099918 0.477970 0.032636
Si Si8 0.526000 0.850521 0.280628
O O1 0.153880 0.827426 0.720383
O O2 0.385439 0.019681 0.682185
O O3 0.024043 0.148860 0.862462
O O4 0.000000 0.000000 0.000000
O O5 0.500000 0.500000 0.500000
O O6 0.653183 0.735908 0.549631
O O7 0.748883 0.449031 0.483378
O O8 0.905526 0.503215 0.235157
O O9 0.790283 0.864909 0.652893
O O10 0.545748 0.054171 0.744499
O O11 0.387636 0.840182 0.880631
O O12 0.761594 0.388766 0.002346
O O13 0.856799 0.089404 0.794838
O O14 0.318003 0.799403 0.441469
O O15 0.905657 0.783706 0.726601
O O16 0.500000 0.000000 0.000000
O O17 0.265481 0.304460 0.904503
O O18 0.000000 0.500000 0.000000
#
# Coordination Sequence:
#
# PCOD8014442 Si02
#       8
#     2   2   2   2   2   2   2   2
#     4  11  20  36  65  98 132 174 218 274 341 405
#     4  12  27  43  67 104 141 173 223 280 343 404
#     4  11  24  44  70  97 134 178 228 279 330 400
#     4  10  21  41  67  95 133 175 221 277 334 397
#     4  11  25  42  66  97 139 178 227 278 333 402
#     4   9  23  45  74  94 131 181 235 273 335 393
#     4  12  25  42  65 100 140 176 217 276 344 406
#     4  12  24  39  67 101 135 175 224 273 346 400
#
# _framework density 21.547473
#
# number of rings (size 3 to 8) (size 9 to 14) (size 15 to 20)
#    0.000    1.000    2.500    4.125    7.000    1.000 
#    0.000    0.625    0.000    0.000    0.000    0.000 
#    0.000    0.000    0.000    0.000    0.000    0.000 
#
# Total GULP energy -198276.999125 kJ/mol
# GULP energy per Si atom -12392.312445 kJ/mol
# Density = 2.149843 g / cm^3
# Si number density = 21.547473 Si / 1000 Ang^3
#
#
#
# Elastic Constant Matrix: (Units=GPa)
#
#
# Indices 1 2 3 4 5 6 
#
# 1 137.0409 49.0112 30.0047 10.5266 -0.1075 -5.1842
# 2 49.0112 131.0926 36.9686 3.3756 3.1482 -18.7134
# 3 30.0047 36.9686 101.0921 -3.6595 2.8271 -7.3069
# 4 10.5266 3.3756 -3.6595 42.8507 1.8028 -0.6114
# 5 -0.1075 3.1482 2.8271 1.8028 30.9357 11.5842
# 6 -5.1842 -18.7134 -7.3069 -0.6114 11.5842 25.6112
#
#
#
# Elastic Compliance Matrix: (Units=1/GPa)
#
#
# Indices 1 2 3 4 5 6 
#
# 1 0.008866 -0.003006 -0.001751 -0.002162 0.001179 -0.001486
# 2 -0.003006 0.010692 -0.002301 -0.000012 -0.004020 0.008365
# 3 -0.001751 -0.002301 0.011510 0.001695 -0.001692 0.002054
# 4 -0.002162 -0.000012 0.001695 0.024127 -0.002163 0.001592
# 5 0.001179 -0.004020 -0.001692 -0.002163 0.041209 -0.021872
# 6 -0.001486 0.008365 0.002054 0.001592 -0.021872 0.055374
#
#
# Mechanical properties :
#
#
# Convention : Reuss Voigt Hill
#
# Bulk Modulus (GPa) = 58.98837 66.79941 62.89389
# Shear Modulus (GPa) = 29.14677 36.76226 32.95452
#
# Velocity S-wave (km/s) = 3.68187 4.13498 3.91499
# Velocity P-wave (km/s) = 6.74613 7.33933 7.04897
#
# Compressibility (1/GPa) = 0.01695249
#
# Stress axis : x y z
#
# Youngs Moduli (GPa) = 112.78793 93.52882 86.87872
#
# Poissons Ratio (x) = 0.28113 0.15212
# Poissons Ratio (y) = 0.33902 0.19992
# Poissons Ratio (z) = 0.19749 0.21523
#
# Static dielectric constant tensor:
#      x y z
#    x 4.053480 -0.014180 -0.078330 
#    y -0.014180 4.434060 0.345970 
#    z -0.078330 0.345970 3.910360 
# 
# 
# High freq. dielectric constant tensor:
#      x y z
#    x 1.847450 -0.001160 -0.003640 
#    y -0.001160 1.848670 0.007340 
#    z -0.003640 0.007340 1.841710 
# 
# From -- ./inp_files/329400.got.cif
#   From: 2010.06.25/outbox.cif.g09.slc.cpg/sg2_165_cif.got.tgz:329400.got - 2010.06.27 13:26:56.
