data_PCOD8014064
_publ_section_title
;
Structure prediction by ZEFSAII (Michael W. Deem and Ramdas Pophale) SiO2 
 PCOD8014064
Probable space group: P -1
;
_chemical_formula_sum "Si O2"
_cell_formula_units_Z 14
_cell_length_a 10.493370
_cell_length_b 9.547147
_cell_length_c 7.898225
_cell_angle_alpha 76.767388
_cell_angle_beta 91.881883
_cell_angle_gamma 59.961724
_cell_volume 656.515084
_symmetry_space_group_name_H-M "P -1"
_symmetry_group_IT_number 2
_symmetry_cell_setting 'triclinic'
loop_
_space_group_symop_operation_xyz
x,y,z
-x,-y,-z
loop_
_atom_site_type_symbol
_atom_site_label
_atom_site_fract_x
_atom_site_fract_y
_atom_site_fract_z
Si Si1 0.138613 0.953053 0.137155
Si Si2 0.995149 0.497684 0.801212
Si Si3 0.091606 0.157482 0.401391
Si Si4 0.561841 0.122222 0.994342
Si Si5 0.691665 0.648085 0.303190
Si Si6 0.618884 0.987236 0.376346
Si Si7 0.150734 0.658717 0.382847
O O1 0.213597 0.760587 0.259912
O O2 0.063972 0.090327 0.244796
O O3 0.268781 0.964049 0.043395
O O4 0.000000 0.000000 0.000000
O O5 0.885280 0.686150 0.675875
O O6 0.944355 0.379029 0.746136
O O7 0.160955 0.445436 0.774763
O O8 0.000000 0.500000 0.000000
O O9 0.248252 0.007995 0.524020
O O10 0.956922 0.213402 0.511272
O O11 0.557435 0.141084 0.194141
O O12 0.452069 0.296929 0.840542
O O13 0.500000 0.000000 0.000000
O O14 0.684203 0.810405 0.334620
O O15 0.709937 0.513912 0.485682
O O16 0.500000 0.000000 0.500000
#
# Coordination Sequence:
#
# PCOD8014064 Si02
#       7
#     2   2   2   2   2   2   2
#     4  12  26  42  67 100 139 175 221 280 341 395
#     4  11  22  36  69  96 131 178 223 278 325 390
#     4  11  21  40  64  97 129 177 227 266 331 405
#     4  10  24  41  64  95 132 175 222 275 327 398
#     4  10  21  41  64  95 134 172 229 273 324 406
#     4  11  21  37  67  94 130 171 230 273 326 389
#     4  11  22  42  64  97 139 172 217 285 335 391
#
# _framework density 21.324719999999999
#
# number of rings (size 3 to 8) (size 9 to 14) (size 15 to 20)
#    0.000    1.143    2.857    4.714    8.000    0.571 
#    0.000    0.000    0.000    9.429    0.000    0.000 
#    0.000    0.000    0.000    0.000    0.000    0.000 
#
# Total GULP energy -173521.289523 kJ/mol
# GULP energy per Si atom -12394.377823 kJ/mol
# Density = 2.127618 g / cm^3
# Si number density = 21.324720 Si / 1000 Ang^3
#
#
#
# Elastic Constant Matrix: (Units=GPa)
#
#
# Indices 1 2 3 4 5 6 
#
# 1 104.1980 28.8842 55.0470 -4.7940 5.8172 -3.4739
# 2 28.8842 63.7857 41.5381 1.1093 5.5789 3.2643
# 3 55.0470 41.5381 153.7877 3.5526 6.9071 -12.8404
# 4 -4.7940 1.1093 3.5526 40.9943 3.9362 7.1152
# 5 5.8172 5.5789 6.9071 3.9362 38.5260 -13.6529
# 6 -3.4739 3.2643 -12.8404 7.1152 -13.6529 23.7532
#
#
#
# Elastic Compliance Matrix: (Units=1/GPa)
#
#
# Indices 1 2 3 4 5 6 
#
# 1 0.012584 -0.003095 -0.003762 0.002244 -0.001460 -0.001279
# 2 -0.003095 0.021492 -0.005323 0.001752 -0.005378 -0.009899
# 3 -0.003762 -0.005323 0.009890 -0.002773 0.002640 0.007876
# 4 0.002244 0.001752 -0.002773 0.028145 -0.008111 -0.014505
# 5 -0.001460 -0.005378 0.002640 -0.008111 0.036247 0.025217
# 6 -0.001279 -0.009899 0.007876 -0.014505 0.025217 0.066369
#
#
# Mechanical properties :
#
#
# Convention : Reuss Voigt Hill
#
# Bulk Modulus (GPa) = 51.00097 63.63443 57.31770
# Shear Modulus (GPa) = 24.31654 33.74150 29.02902
#
# Velocity S-wave (km/s) = 3.38049 3.98209 3.69356
# Velocity P-wave (km/s) = 6.26141 7.14480 6.71764
#
# Compressibility (1/GPa) = 0.01960747
#
# Stress axis : x y z
#
# Youngs Moduli (GPa) = 79.46397 46.52977 101.11641
#
# Poissons Ratio (x) = 0.14400 0.38035
# Poissons Ratio (y) = 0.24593 0.53820
# Poissons Ratio (z) = 0.29891 0.24766
#
# Static dielectric constant tensor:
#      x y z
#    x 3.589700 -0.205260 -0.109650 
#    y -0.205260 3.258160 -1.016860 
#    z -0.109650 -1.016860 4.153460 
# 
# 
# High freq. dielectric constant tensor:
#      x y z
#    x 1.818850 -0.006310 0.005240 
#    y -0.006310 1.818550 -0.007510 
#    z 0.005240 -0.007510 1.865850 
# 
# From -- ./inp_files/158063.got.cif
#   From: 2010.06.25/outbox.cif.g09.slc.cpg/sg2_80_cif.got.tgz:158063.got - 2010.06.27 13:26:56.
