data_PCOD8014506
_publ_section_title
;
Structure prediction by ZEFSAII (Michael W. Deem and Ramdas Pophale) SiO2 
 PCOD8014506
Probable space group: P -1
;
_chemical_formula_sum "Si O2"
_cell_formula_units_Z 12
_cell_length_a 8.711507
_cell_length_b 8.588767
_cell_length_c 11.183542
_cell_angle_alpha 72.393775
_cell_angle_beta 39.165790
_cell_angle_gamma 77.144388
_cell_volume 503.617473
_symmetry_space_group_name_H-M "P -1"
_symmetry_group_IT_number 2
_symmetry_cell_setting 'triclinic'
loop_
_space_group_symop_operation_xyz
x,y,z
-x,-y,-z
loop_
_atom_site_type_symbol
_atom_site_label
_atom_site_fract_x
_atom_site_fract_y
_atom_site_fract_z
Si Si1 0.565183 0.861251 0.338749
Si Si2 0.193551 0.576170 0.699755
Si Si3 0.788055 0.883307 0.602375
Si Si4 0.917613 0.729944 0.324539
Si Si5 0.460395 0.683539 0.017412
Si Si6 0.716844 0.661265 0.093275
O O1 0.378517 0.711011 0.508397
O O2 0.759090 0.875415 0.327006
O O3 0.730122 0.820027 0.132890
O O4 0.418462 0.023726 0.369083
O O5 0.169684 0.443244 0.638569
O O6 0.295752 0.500998 0.779315
O O7 0.939205 0.657466 0.866307
O O8 0.887094 0.745945 0.482832
O O9 0.669274 0.796615 0.807613
O O10 0.000000 0.000000 0.500000
O O11 0.201669 0.751649 0.116614
O O12 0.500000 0.500000 0.000000
O O13 0.477874 0.683823 0.151056
#
# Coordination Sequence:
#
# PCOD8014506 Si02
#       6
#     2   2   2   2   2   2
#     4  11  25  45  72 104 141 184 231 292 346 417
#     4  10  22  42  74 103 135 183 236 290 340 408
#     4  12  29  48  70 104 147 188 227 290 357 415
#     4  11  25  45  73 105 137 189 235 287 348 415
#     4  12  27  44  71 105 140 185 234 285 347 417
#     4  10  21  41  68 101 139 176 233 283 346 406
#
# _framework density 23.827608000000001
#
# number of rings (size 3 to 8) (size 9 to 14) (size 15 to 20)
#    0.000    1.000    1.667    4.500    4.667    5.333 
#    0.000    1.667    0.000    0.000    0.000    0.000 
#    0.000    0.000    0.000    0.000    0.000    0.000 
#
# Total GULP energy -148746.646505 kJ/mol
# GULP energy per Si atom -12395.553875 kJ/mol
# Density = 2.377338 g / cm^3
# Si number density = 23.827608 Si / 1000 Ang^3
#
#
#
# Elastic Constant Matrix: (Units=GPa)
#
#
# Indices 1 2 3 4 5 6 
#
# 1 118.4639 43.3662 19.4315 -12.4478 16.5669 -14.5521
# 2 43.3662 77.8863 57.5223 6.4603 -3.2021 -3.6940
# 3 19.4315 57.5223 76.9368 -3.1058 9.5432 -3.6259
# 4 -12.4478 6.4603 -3.1058 37.3371 7.5672 -1.1971
# 5 16.5669 -3.2021 9.5432 7.5672 32.1544 17.1357
# 6 -14.5521 -3.6940 -3.6259 -1.1971 17.1357 35.1460
#
#
#
# Elastic Compliance Matrix: (Units=1/GPa)
#
#
# Indices 1 2 3 4 5 6 
#
# 1 -0.257255 0.452765 -0.375806 -0.323696 0.571880 -0.387549
# 2 0.452765 -0.758083 0.628485 0.555264 -0.983623 0.671113
# 3 -0.375806 0.628485 -0.506685 -0.457654 0.808166 -0.551434
# 4 -0.323696 0.555264 -0.457654 -0.372333 0.699525 -0.476621
# 5 0.571880 -0.983623 0.808166 0.699525 -1.208108 0.829628
# 6 -0.387549 0.671113 -0.551434 -0.476621 0.829628 -0.539090
#
#
# Mechanical properties :
#
#
# Convention : Reuss Voigt Hill
#
# Bulk Modulus (GPa) = -8.99794 57.10301 24.05254
# Shear Modulus (GPa) = -0.98242 31.12529 15.07144
#
# Velocity S-wave (km/s) = -0.64280 3.61816 2.51772
# Velocity P-wave (km/s) = 2.08216 6.43986 4.30909
#
# Compressibility (1/GPa) = -0.11113651
#
# Stress axis : x y z
#
# Youngs Moduli (GPa) = -3.88719 -1.31912 -1.97361
#
# Poissons Ratio (x) = 0.59725 -0.74170
# Poissons Ratio (y) = 1.75998 1.24039
# Poissons Ratio (z) = -1.46083 0.82904
#
# Static dielectric constant tensor:
#      x y z
#    x 10.308470 -1.612460 1.661870 
#    y -1.612460 4.555490 -0.006720 
#    z 1.661870 -0.006720 4.871990 
# 
# 
# High freq. dielectric constant tensor:
#      x y z
#    x 1.962260 -0.012050 0.004230 
#    y -0.012050 1.930040 0.027380 
#    z 0.004230 0.027380 1.948220 
# 
# From -- ./inp_files/378113.got.cif
#   From: 2010.06.25/outbox.cif.g09.slc.cpg/sg2_190_cif.got.tgz:378113.got - 2010.06.27 13:26:56.
