data_PCOD8014021
_publ_section_title
;
Structure prediction by ZEFSAII (Michael W. Deem and Ramdas Pophale) SiO2 
 PCOD8014021
Probable space group: P -1
;
_chemical_formula_sum "Si O2"
_cell_formula_units_Z 14
_cell_length_a 10.502458
_cell_length_b 13.723437
_cell_length_c 9.300448
_cell_angle_alpha 45.513698
_cell_angle_beta 95.390932
_cell_angle_gamma 63.604274
_cell_volume 662.091651
_symmetry_space_group_name_H-M "P -1"
_symmetry_group_IT_number 2
_symmetry_cell_setting 'triclinic'
loop_
_space_group_symop_operation_xyz
x,y,z
-x,-y,-z
loop_
_atom_site_type_symbol
_atom_site_label
_atom_site_fract_x
_atom_site_fract_y
_atom_site_fract_z
Si Si1 0.064747 0.139826 0.839243
Si Si2 0.372242 0.036414 0.325679
Si Si3 0.317613 0.191211 0.861343
Si Si4 0.010186 0.781840 0.821901
Si Si5 0.379569 0.760392 0.442869
Si Si6 0.252273 0.525847 0.361846
Si Si7 0.089907 0.841696 0.480541
O O1 0.142731 0.232512 0.762007
O O2 0.865914 0.280010 0.752765
O O3 0.044220 0.116648 0.696488
O O4 0.204258 0.931777 0.148679
O O5 0.183346 0.146441 0.272025
O O6 0.500000 0.000000 0.500000
O O7 0.448765 0.839499 0.459810
O O8 0.347282 0.168467 0.060791
O O9 0.269430 0.376638 0.610057
O O10 0.500000 0.000000 0.000000
O O11 0.090534 0.730156 0.723374
O O12 0.994720 0.947694 0.705495
O O13 0.146704 0.587737 0.135322
O O14 0.543763 0.576495 0.551090
O O15 0.303155 0.698688 0.601852
#
# Coordination Sequence:
#
# PCOD8014021 Si02
#       7
#     2   2   2   2   2   2   2
#     4  11  22  41  67  92 123 167 210 256 310 375
#     4  10  21  41  64  92 125 166 204 252 320 367
#     4  11  22  42  64  93 129 162 201 265 312 364
#     4  10  23  41  66  90 129 171 200 261 314 367
#     4  10  22  41  64  92 128 158 210 265 302 366
#     4  12  22  41  67  92 128 163 207 260 316 365
#     4  10  22  44  63  91 128 167 211 254 314 362
#
# _framework density 21.145106999999999
#
# number of rings (size 3 to 8) (size 9 to 14) (size 15 to 20)
#    0.000    1.429    7.143    0.857    2.000    1.143 
#    2.571    1.429    0.000    0.000    0.000    0.000 
#    0.000    0.000    0.000    0.000    0.000    0.000 
#
# Total GULP energy -173543.090321 kJ/mol
# GULP energy per Si atom -12395.935023 kJ/mol
# Density = 2.109698 g / cm^3
# Si number density = 21.145107 Si / 1000 Ang^3
#
#
#
# Elastic Constant Matrix: (Units=GPa)
#
#
# Indices 1 2 3 4 5 6 
#
# 1 91.0694 59.3005 63.1290 21.0093 -4.1454 -32.8264
# 2 59.3005 99.3357 61.9631 23.9269 17.0763 -24.6698
# 3 63.1290 61.9631 125.5606 27.5362 3.9058 -8.3737
# 4 21.0093 23.9269 27.5362 48.2023 -13.2654 10.1027
# 5 -4.1454 17.0763 3.9058 -13.2654 25.3483 3.8645
# 6 -32.8264 -24.6698 -8.3737 10.1027 3.8645 44.6319
#
#
#
# Elastic Compliance Matrix: (Units=1/GPa)
#
#
# Indices 1 2 3 4 5 6 
#
# 1 0.029988 -0.007198 -0.009079 -0.006570 0.005058 0.017423
# 2 -0.007198 0.043498 -0.006370 -0.035666 -0.052767 0.030196
# 3 -0.009079 -0.006370 0.014910 0.000813 0.002119 -0.007769
# 4 -0.006570 -0.035666 0.000813 0.068453 0.065598 -0.045569
# 5 0.005058 -0.052767 0.002119 0.065598 0.117461 -0.050068
# 6 0.017423 0.030196 -0.007769 -0.045569 -0.050068 0.065103
#
#
# Mechanical properties :
#
#
# Convention : Reuss Voigt Hill
#
# Bulk Modulus (GPa) = 23.20103 76.08342 49.64223
# Shear Modulus (GPa) = 12.52898 32.40806 22.46852
#
# Velocity S-wave (km/s) = 2.43682 3.91916 3.26327
# Velocity P-wave (km/s) = 4.34898 7.51927 6.14219
#
# Compressibility (1/GPa) = 0.04310153
#
# Stress axis : x y z
#
# Youngs Moduli (GPa) = 33.34707 22.98941 67.06717
#
# Poissons Ratio (x) = 0.16548 0.60892
# Poissons Ratio (y) = 0.24004 0.42721
# Poissons Ratio (z) = 0.30277 0.14644
#
# Static dielectric constant tensor:
#      x y z
#    x 4.086250 -0.424780 -0.137320 
#    y -0.424780 3.983530 0.136450 
#    z -0.137320 0.136450 3.902260 
# 
# 
# High freq. dielectric constant tensor:
#      x y z
#    x 1.834770 -0.024680 -0.000520 
#    y -0.024680 1.822470 0.014160 
#    z -0.000520 0.014160 1.820800 
# 
# From -- ./inp_files/269609.got.cif
#   From: 2010.06.25/outbox.cif.g09.slc.cpg/sg2_135_cif.got.tgz:269609.got - 2010.06.27 13:26:56.
