data_PCOD8014662
_publ_section_title
;
Structure prediction by ZEFSAII (Michael W. Deem and Ramdas Pophale) SiO2 
 PCOD8014662
Probable space group: P -1
;
_chemical_formula_sum "Si O2"
_cell_formula_units_Z 16
_cell_length_a 11.944199
_cell_length_b 14.176464
_cell_length_c 9.354271
_cell_angle_alpha 76.361314
_cell_angle_beta 118.590269
_cell_angle_gamma 147.548997
_cell_volume 697.200326
_symmetry_space_group_name_H-M "P -1"
_symmetry_group_IT_number 2
_symmetry_cell_setting 'triclinic'
loop_
_space_group_symop_operation_xyz
x,y,z
-x,-y,-z
loop_
_atom_site_type_symbol
_atom_site_label
_atom_site_fract_x
_atom_site_fract_y
_atom_site_fract_z
Si Si1 0.899905 0.767753 0.599520
Si Si2 0.543574 0.385542 0.639074
Si Si3 0.188732 0.906619 0.222367
Si Si4 0.541559 0.307109 0.358952
Si Si5 0.695538 0.705970 0.993858
Si Si6 0.951843 0.286617 0.512431
Si Si7 0.381620 0.176758 0.876950
Si Si8 0.484941 0.925974 0.875306
O O1 0.761208 0.607172 0.686150
O O2 0.728714 0.746829 0.467187
O O3 0.939607 0.740368 0.482536
O O4 0.157597 0.970387 0.746777
O O5 0.549443 0.320298 0.529578
O O6 0.571703 0.340583 0.815448
O O7 0.157224 0.810170 0.365329
O O8 0.953235 0.820820 0.081164
O O9 0.425892 0.128461 0.317536
O O10 0.263976 0.895699 0.129515
O O11 0.821847 0.491186 0.404677
O O12 0.388796 0.298643 0.203517
O O13 0.726508 0.808468 0.096170
O O14 0.500000 0.500000 0.000000
O O15 0.752459 0.200690 0.315413
O O16 0.541613 0.205553 0.056736
O O17 0.500000 0.000000 0.000000
#
# Coordination Sequence:
#
# PCOD8014662 Si02
#       8
#     2   2   2   2   2   2   2   2
#     4  10  21  41  70 101 142 180 232 293 352 430
#     4  10  23  38  71 105 139 183 229 295 370 417
#     4  12  25  47  79 101 144 195 230 302 373 417
#     4  11  24  44  70 111 141 183 240 291 362 433
#     4  12  26  46  76 113 147 177 238 309 370 424
#     4  11  24  48  70 103 146 190 244 295 343 432
#     4  12  24  46  69 102 143 187 233 295 360 417
#     4  12  28  48  73 103 146 197 251 293 340 435
#
# _framework density 22.948927999999999
#
# number of rings (size 3 to 8) (size 9 to 14) (size 15 to 20)
#    0.000    0.750    3.750    3.375    5.250    0.500 
#    0.000    3.750    0.000    0.000    0.000    0.000 
#    0.000    0.000    0.000    0.000    0.000    0.000 
#
# Total GULP energy -198464.857660 kJ/mol
# GULP energy per Si atom -12404.053604 kJ/mol
# Density = 2.289669 g / cm^3
# Si number density = 22.948928 Si / 1000 Ang^3
#
#
#
# Elastic Constant Matrix: (Units=GPa)
#
#
# Indices 1 2 3 4 5 6 
#
# 1 96.0778 49.4180 35.0595 -3.1444 -12.7629 19.5254
# 2 49.4180 134.3962 50.2286 -10.8390 -2.9929 18.2954
# 3 35.0595 50.2286 109.0432 -22.1645 6.2858 21.1788
# 4 -3.1444 -10.8390 -22.1645 45.1913 -0.4160 -6.6798
# 5 -12.7629 -2.9929 6.2858 -0.4160 31.3164 -4.8710
# 6 19.5254 18.2954 21.1788 -6.6798 -4.8710 22.5945
#
#
#
# Elastic Compliance Matrix: (Units=1/GPa)
#
#
# Indices 1 2 3 4 5 6 
#
# 1 0.015391 -0.003769 -0.002507 -0.002107 0.005238 -0.007392
# 2 -0.003769 0.010271 -0.002993 0.000406 -0.000290 -0.002196
# 3 -0.002507 -0.002993 0.014314 0.004810 -0.005451 -0.008580
# 4 -0.002107 0.000406 0.004810 0.025054 -0.000796 0.004219
# 5 0.005238 -0.000290 -0.005451 -0.000796 0.036435 0.008438
# 6 -0.007392 -0.002196 -0.008580 0.004219 0.008438 0.063534
#
#
# Mechanical properties :
#
#
# Convention : Reuss Voigt Hill
#
# Bulk Modulus (GPa) = 46.64944 67.65881 57.15412
# Shear Modulus (GPa) = 26.22163 33.47453 29.84808
#
# Velocity S-wave (km/s) = 3.38392 3.82338 3.61034
# Velocity P-wave (km/s) = 5.96988 7.00266 6.50679
#
# Compressibility (1/GPa) = 0.02143648
#
# Stress axis : x y z
#
# Youngs Moduli (GPa) = 64.97382 97.36511 69.86280
#
# Poissons Ratio (x) = 0.36701 0.17511
# Poissons Ratio (y) = 0.24492 0.20912
# Poissons Ratio (z) = 0.16286 0.29145
#
# Static dielectric constant tensor:
#      x y z
#    x 4.289630 0.080970 -0.041090 
#    y 0.080970 4.346510 -0.136050 
#    z -0.041090 -0.136050 4.260090 
# 
# 
# High freq. dielectric constant tensor:
#      x y z
#    x 1.904300 0.005710 -0.007170 
#    y 0.005710 1.912340 -0.008020 
#    z -0.007170 -0.008020 1.912870 
# 
# From -- ./inp_files/272973.got.cif
#   From: 2010.06.25/outbox.cif.g09.slc.cpg/sg2_137_cif.got.tgz:272973.got - 2010.06.27 13:26:56.
