data_PCOD8014004
_publ_section_title
;
Structure prediction by ZEFSAII (Michael W. Deem and Ramdas Pophale) SiO2 
 PCOD8014004
Probable space group: P -1
;
_chemical_formula_sum "Si O2"
_cell_formula_units_Z 16
_cell_length_a 12.250600
_cell_length_b 9.090637
_cell_length_c 11.465047
_cell_angle_alpha 125.202822
_cell_angle_beta 128.774279
_cell_angle_gamma 78.693731
_cell_volume 785.636012
_symmetry_space_group_name_H-M "P -1"
_symmetry_group_IT_number 2
_symmetry_cell_setting 'triclinic'
loop_
_space_group_symop_operation_xyz
x,y,z
-x,-y,-z
loop_
_atom_site_type_symbol
_atom_site_label
_atom_site_fract_x
_atom_site_fract_y
_atom_site_fract_z
Si Si1 0.940769 0.988305 0.324651
Si Si2 0.242995 0.903533 0.058058
Si Si3 0.053138 0.720461 0.123622
Si Si4 0.140874 0.258850 0.191402
Si Si5 0.629720 0.185384 0.674914
Si Si6 0.015433 0.319208 0.361984
Si Si7 0.601106 0.541890 0.697940
Si Si8 0.621931 0.915896 0.990085
O O1 0.964222 0.803021 0.197114
O O2 0.769261 0.977088 0.194521
O O3 0.000000 0.000000 0.500000
O O4 0.035739 0.168298 0.401333
O O5 0.317883 0.790732 0.145688
O O6 0.178936 0.063400 0.147554
O O7 0.363690 0.010373 0.097983
O O8 0.129649 0.754184 0.840245
O O9 0.225239 0.809258 0.301649
O O10 0.000000 0.500000 0.000000
O O11 0.018278 0.778729 0.994262
O O12 0.143222 0.354934 0.365037
O O13 0.239011 0.391414 0.220757
O O14 0.571262 0.356439 0.670795
O O15 0.500000 0.000000 0.500000
O O16 0.000000 0.500000 0.500000
O O17 0.500000 0.500000 0.500000
O O18 0.569207 0.692188 0.836639
O O19 0.500000 0.000000 0.000000
#
# Coordination Sequence:
#
# PCOD8014004 Si02
#       8
#     2   2   2   2   2   2   2   2
#     4  11  25  41  62 100 137 173 229 285 339 405
#     4  10  21  41  64  90 131 171 221 278 332 400
#     4  12  22  42  74  97 127 181 228 280 331 398
#     4  11  20  43  68  91 127 176 232 272 327 398
#     4  12  24  38  66 106 134 166 225 283 341 400
#     4  11  23  36  61  97 131 172 218 279 336 392
#     4  11  24  42  66  96 131 173 229 275 332 410
#     4  10  22  45  66  88 129 185 223 275 347 402
#
# _framework density 20.365663000000001
#
# number of rings (size 3 to 8) (size 9 to 14) (size 15 to 20)
#    0.000    1.000    6.250    2.625    1.750    5.000 
#    0.000    0.625    0.000    0.000    0.000    0.000 
#    0.000    0.000    0.000    0.000    0.000    0.000 
#
# Total GULP energy -198301.314679 kJ/mol
# GULP energy per Si atom -12393.832167 kJ/mol
# Density = 2.031931 g / cm^3
# Si number density = 20.365663 Si / 1000 Ang^3
#
#
#
# Elastic Constant Matrix: (Units=GPa)
#
#
# Indices 1 2 3 4 5 6 
#
# 1 116.2377 64.9124 52.7793 14.6573 -14.1078 -17.4262
# 2 64.9124 164.3372 68.8590 0.7176 -15.3929 10.6791
# 3 52.7793 68.8590 109.8035 1.7933 -16.6256 -0.8177
# 4 14.6573 0.7176 1.7933 48.3725 1.5644 -4.5249
# 5 -14.1078 -15.3929 -16.6256 1.5644 46.3287 1.8111
# 6 -17.4262 10.6791 -0.8177 -4.5249 1.8111 36.1736
#
#
#
# Elastic Compliance Matrix: (Units=1/GPa)
#
#
# Indices 1 2 3 4 5 6 
#
# 1 0.014690 -0.004534 -0.003892 -0.003553 0.001385 0.007813
# 2 -0.004534 0.009949 -0.004013 0.000873 0.000656 -0.005136
# 3 -0.003892 -0.004013 0.013852 0.000606 0.002449 -0.000424
# 4 -0.003553 0.000873 0.000606 0.021837 -0.001345 0.000843
# 5 0.001385 0.000656 0.002449 -0.001345 0.023180 -0.000800
# 6 0.007813 -0.005136 -0.000424 0.000843 -0.000800 0.033061
#
#
# Mechanical properties :
#
#
# Convention : Reuss Voigt Hill
#
# Bulk Modulus (GPa) = 73.45727 84.83110 79.14419
# Shear Modulus (GPa) = 34.25075 39.76347 37.00711
#
# Velocity S-wave (km/s) = 4.10541 4.42348 4.26741
# Velocity P-wave (km/s) = 7.65637 8.23614 7.95154
#
# Compressibility (1/GPa) = 0.01361336
#
# Stress axis : x y z
#
# Youngs Moduli (GPa) = 68.07466 100.51462 72.19269
#
# Poissons Ratio (x) = 0.45576 0.28094
# Poissons Ratio (y) = 0.30867 0.28969
# Poissons Ratio (z) = 0.26491 0.40333
#
# Static dielectric constant tensor:
#      x y z
#    x 3.833120 0.237450 -0.142080 
#    y 0.237450 3.983570 -0.020460 
#    z -0.142080 -0.020460 3.275000 
# 
# 
# High freq. dielectric constant tensor:
#      x y z
#    x 1.791330 0.012160 0.006500 
#    y 0.012160 1.807680 -0.003090 
#    z 0.006500 -0.003090 1.790560 
# 
# From -- ./inp_files/223424.got.cif
#   From: 2010.06.25/outbox.cif.g09.slc.cpg/sg2_112_cif.got.tgz:223424.got - 2010.06.27 13:26:56.
