data_PCOD8014842
_publ_section_title
;
Structure prediction by ZEFSAII (Michael W. Deem and Ramdas Pophale) SiO2 
 PCOD8014842
Probable space group: P -1
;
_chemical_formula_sum "Si O2"
_cell_formula_units_Z 16
_cell_length_a 5.113044
_cell_length_b 19.869366
_cell_length_c 18.978693
_cell_angle_alpha 158.533132
_cell_angle_beta 104.659365
_cell_angle_gamma 84.923164
_cell_volume 621.002109
_symmetry_space_group_name_H-M "P -1"
_symmetry_group_IT_number 2
_symmetry_cell_setting 'triclinic'
loop_
_space_group_symop_operation_xyz
x,y,z
-x,-y,-z
loop_
_atom_site_type_symbol
_atom_site_label
_atom_site_fract_x
_atom_site_fract_y
_atom_site_fract_z
Si Si1 0.800672 0.581656 0.020015
Si Si2 0.358124 0.302138 0.619644
Si Si3 0.474074 0.686108 0.519494
Si Si4 0.142902 0.582311 0.816161
Si Si5 0.086979 0.916232 0.993357
Si Si6 0.931527 0.149422 0.823708
Si Si7 0.471850 0.693009 0.813932
Si Si8 0.449855 0.800018 0.259761
O O1 0.584237 0.359009 0.757793
O O2 0.851560 0.385940 0.908744
O O3 0.684319 0.698940 0.184613
O O4 0.819078 0.726295 0.094565
O O5 0.500972 0.316111 0.565913
O O6 0.210252 0.462436 0.768178
O O7 0.101321 0.078567 0.395084
O O8 0.118632 0.587195 0.414232
O O9 0.607404 0.545742 0.433445
O O10 0.638203 0.910133 0.778624
O O11 0.433833 0.712705 0.915675
O O12 0.009849 0.737822 0.987116
O O13 0.801515 0.826594 0.937664
O O14 0.219253 0.753833 0.821265
O O15 0.000000 0.000000 0.000000
O O16 0.618323 0.152529 0.777978
O O17 0.500000 0.000000 0.500000
#
# Coordination Sequence:
#
# PCOD8014842 Si02
#       8
#     2   2   2   2   2   2   2   2
#     4  10  21  42  61  94 131 166 225 272 324 399
#     4  11  22  39  67  99 130 173 218 277 342 399
#     4  11  25  43  71 101 135 180 221 282 343 402
#     4  11  22  45  67 101 139 169 225 285 342 407
#     4  12  28  48  71 101 138 183 231 271 331 412
#     4  10  23  39  66  95 134 172 215 275 341 385
#     4  11  26  47  69  99 138 173 226 280 341 388
#     4  10  21  42  66  89 135 180 217 272 329 388
#
# _framework density 25.764807999999999
#
# number of rings (size 3 to 8) (size 9 to 14) (size 15 to 20)
#    0.750    0.500    3.750    1.500    3.500    2.000 
#    0.000    1.250    0.000    0.000    0.000    0.000 
#    0.000    0.000    0.000    0.000    0.000    0.000 
#
# Total GULP energy -198209.666005 kJ/mol
# GULP energy per Si atom -12388.104125 kJ/mol
# Density = 2.570617 g / cm^3
# Si number density = 25.764808 Si / 1000 Ang^3
#
#
#
# Elastic Constant Matrix: (Units=GPa)
#
#
# Indices 1 2 3 4 5 6 
#
# 1 138.1094 19.4729 36.0410 8.2890 3.6114 0.6488
# 2 19.4729 87.5930 20.3960 16.7231 5.1286 0.7743
# 3 36.0410 20.3960 104.2606 16.0838 8.6449 15.7816
# 4 8.2890 16.7231 16.0838 39.8952 -1.6938 0.9918
# 5 3.6114 5.1286 8.6449 -1.6938 34.9215 11.6333
# 6 0.6488 0.7743 15.7816 0.9918 11.6333 40.9441
#
#
#
# Elastic Compliance Matrix: (Units=1/GPa)
#
#
# Indices 1 2 3 4 5 6 
#
# 1 0.008116 -0.001135 -0.002684 -0.000169 -0.000361 0.001034
# 2 -0.001135 0.013014 -0.001403 -0.004764 -0.002010 0.000999
# 3 -0.002684 -0.001403 0.012096 -0.003684 -0.001313 -0.004131
# 4 -0.000169 -0.004764 -0.003684 0.028713 0.003037 -0.000046
# 5 -0.000361 -0.002010 -0.001313 0.003037 0.032343 -0.008713
# 6 0.001034 0.000999 -0.004131 -0.000046 -0.008713 0.028457
#
#
# Mechanical properties :
#
#
# Convention : Reuss Voigt Hill
#
# Bulk Modulus (GPa) = 43.89493 53.53142 48.71318
# Shear Modulus (GPa) = 35.51713 40.08903 37.80308
#
# Velocity S-wave (km/s) = 3.71686 3.94885 3.83461
# Velocity P-wave (km/s) = 5.95767 6.45083 6.20915
#
# Compressibility (1/GPa) = 0.02278167
#
# Stress axis : x y z
#
# Youngs Moduli (GPa) = 123.21638 76.84120 82.67143
#
# Poissons Ratio (x) = 0.08721 0.22188
# Poissons Ratio (y) = 0.13984 0.11600
# Poissons Ratio (z) = 0.33070 0.10782
#
# Static dielectric constant tensor:
#      x y z
#    x 4.604590 -0.065070 0.100530 
#    y -0.065070 4.862190 0.441250 
#    z 0.100530 0.441250 4.582900 
# 
# 
# High freq. dielectric constant tensor:
#      x y z
#    x 2.031160 -0.003040 0.004500 
#    y -0.003040 2.043760 0.033150 
#    z 0.004500 0.033150 2.027310 
# 
# From -- ./inp_files/14272.got.cif
#   From: 2010.06.25/outbox.cif.g09.slc.cpg/sg2_8_cif.got.tgz:14272.got - 2010.06.27 13:26:56.
