data_PCOD8014492
_publ_section_title
;
Structure prediction by ZEFSAII (Michael W. Deem and Ramdas Pophale) SiO2 
 PCOD8014492
Probable space group: P -1
;
_chemical_formula_sum "Si O2"
_cell_formula_units_Z 14
_cell_length_a 9.791499
_cell_length_b 8.010257
_cell_length_c 8.746290
_cell_angle_alpha 123.106947
_cell_angle_beta 121.901635
_cell_angle_gamma 62.517367
_cell_volume 473.203723
_symmetry_space_group_name_H-M "P -1"
_symmetry_group_IT_number 2
_symmetry_cell_setting 'triclinic'
loop_
_space_group_symop_operation_xyz
x,y,z
-x,-y,-z
loop_
_atom_site_type_symbol
_atom_site_label
_atom_site_fract_x
_atom_site_fract_y
_atom_site_fract_z
Si Si1 0.047366 0.970013 0.733841
Si Si2 0.886077 0.762619 0.835234
Si Si3 0.473589 0.770559 0.570262
Si Si4 0.866707 0.317019 0.609255
Si Si5 0.242875 0.572912 0.864112
Si Si6 0.720444 0.838537 0.487956
Si Si7 0.480947 0.434682 0.195867
O O1 0.024368 0.144460 0.676110
O O2 0.864049 0.956922 0.666482
O O3 0.151072 0.748822 0.614402
O O4 0.143988 0.063186 0.969208
O O5 0.912961 0.528360 0.785370
O O6 0.710062 0.800712 0.650970
O O7 0.066238 0.750228 0.846863
O O8 0.307244 0.683644 0.418562
O O9 0.559314 0.619710 0.403856
O O10 0.541662 0.727768 0.763802
O O11 0.433868 0.010018 0.612418
O O12 0.208707 0.365043 0.668100
O O13 0.382091 0.662227 0.901744
O O14 0.304889 0.520413 0.048855
#
# Coordination Sequence:
#
# PCOD8014492 Si02
#       7
#     2   2   2   2   2   2   2
#     4  10  22  38  62 103 136 173 214 266 354 395
#     4  12  23  41  68 106 138 172 211 284 354 395
#     4  10  23  47  66  94 136 174 235 272 324 405
#     4  10  21  41  67  99 136 173 218 284 335 402
#     4  11  23  42  68  98 134 174 230 271 336 403
#     4  11  23  40  66  99 136 167 218 290 332 398
#     4  10  24  45  70  90 128 194 223 273 327 391
#
# _framework density 29.585564999999999
#
# number of rings (size 3 to 8) (size 9 to 14) (size 15 to 20)
#    0.000    1.429    1.429    3.857    2.000    1.143 
#    2.571    0.000    0.000    0.000    0.000    0.000 
#    0.000    0.000    0.000    0.000    0.000    0.000 
#
# Total GULP energy -173464.840786 kJ/mol
# GULP energy per Si atom -12390.345770 kJ/mol
# Density = 2.951823 g / cm^3
# Si number density = 29.585565 Si / 1000 Ang^3
#
#
#
# Elastic Constant Matrix: (Units=GPa)
#
#
# Indices 1 2 3 4 5 6 
#
# 1 81.3558 10.0064 46.4357 -3.9126 -4.1993 -19.6568
# 2 10.0064 184.9065 74.2972 -20.4559 -1.9729 -15.2760
# 3 46.4357 74.2972 213.6846 -8.6417 -0.1791 7.0322
# 4 -3.9126 -20.4559 -8.6417 65.3110 3.0110 6.5949
# 5 -4.1993 -1.9729 -0.1791 3.0110 41.6843 -3.6990
# 6 -19.6568 -15.2760 7.0322 6.5949 -3.6990 36.0044
#
#
#
# Elastic Compliance Matrix: (Units=1/GPa)
#
#
# Indices 1 2 3 4 5 6 
#
# 1 0.017937 0.002031 -0.005008 -0.000300 0.002967 0.011992
# 2 0.002031 0.007033 -0.002976 0.001439 0.000820 0.004495
# 3 -0.005008 -0.002976 0.006996 0.000305 -0.001128 -0.005535
# 4 -0.000300 0.001439 0.000305 0.016121 -0.001365 -0.002706
# 5 0.002967 0.000820 -0.001128 -0.001365 0.024864 0.004993
# 6 0.011992 0.004495 -0.005535 -0.002706 0.004993 0.038318
#
#
# Mechanical properties :
#
#
# Convention : Reuss Voigt Hill
#
# Bulk Modulus (GPa) = 49.85029 82.38059 66.11544
# Shear Modulus (GPa) = 38.50225 51.88043 45.19134
#
# Velocity S-wave (km/s) = 3.61139 4.19211 3.91254
# Velocity P-wave (km/s) = 5.85454 7.16499 6.54265
#
# Compressibility (1/GPa) = 0.02006006
#
# Stress axis : x y z
#
# Youngs Moduli (GPa) = 55.75149 142.18252 142.93202
#
# Poissons Ratio (x) = -0.28876 0.71584
# Poissons Ratio (y) = -0.11323 0.42534
# Poissons Ratio (z) = 0.27922 0.42311
#
# Static dielectric constant tensor:
#      x y z
#    x 5.938180 0.313750 -0.068880 
#    y 0.313750 6.169180 -0.411510 
#    z -0.068880 -0.411510 5.223630 
# 
# 
# High freq. dielectric constant tensor:
#      x y z
#    x 2.239400 0.008850 0.006330 
#    y 0.008850 2.226500 -0.016600 
#    z 0.006330 -0.016600 2.210240 
# 
# From -- ./inp_files/246140.got.cif
#   From: 2010.06.25/outbox.cif.g09.slc.cpg/sg2_124_cif.got.tgz:246140.got - 2010.06.27 13:26:56.
