data_PCOD8014839
_publ_section_title
;
Structure prediction by ZEFSAII (Michael W. Deem and Ramdas Pophale) SiO2 
 PCOD8014839
Probable space group: P -1
;
_chemical_formula_sum "Si O2"
_cell_formula_units_Z 16
_cell_length_a 7.637801
_cell_length_b 13.897186
_cell_length_c 8.570591
_cell_angle_alpha 85.857547
_cell_angle_beta 54.540025
_cell_angle_gamma 105.354729
_cell_volume 684.356382
_symmetry_space_group_name_H-M "P -1"
_symmetry_group_IT_number 2
_symmetry_cell_setting 'triclinic'
loop_
_space_group_symop_operation_xyz
x,y,z
-x,-y,-z
loop_
_atom_site_type_symbol
_atom_site_label
_atom_site_fract_x
_atom_site_fract_y
_atom_site_fract_z
Si Si1 0.852665 0.379160 0.467085
Si Si2 0.933483 0.146573 0.004356
Si Si3 0.370615 0.092490 0.795866
Si Si4 0.562957 0.505300 0.642016
Si Si5 0.839249 0.207972 0.711163
Si Si6 0.299802 0.263869 0.322756
Si Si7 0.618254 0.203902 0.375941
Si Si8 0.703564 0.601266 0.942126
O O1 0.789721 0.475722 0.544124
O O2 0.875598 0.324094 0.622917
O O3 0.654873 0.297185 0.468492
O O4 0.070558 0.414106 0.235638
O O5 0.858018 0.196864 0.189727
O O6 0.766542 0.027444 0.081984
O O7 0.898203 0.206869 0.862740
O O8 0.197742 0.155866 0.891655
O O9 0.580681 0.130103 0.808273
O O10 0.467896 0.102247 0.566721
O O11 0.500000 0.500000 0.500000
O O12 0.632672 0.621309 0.652875
O O13 0.336408 0.413520 0.849414
O O14 0.041360 0.184401 0.513522
O O15 0.479970 0.213718 0.291251
O O16 0.312214 0.289745 0.126903
O O17 0.500000 0.500000 0.000000
#
# Coordination Sequence:
#
# PCOD8014839 Si02
#       8
#     2   2   2   2   2   2   2   2
#     4  10  23  40  62  91 125 170 216 254 310 373
#     4  11  23  42  70  95 126 169 206 263 326 378
#     4  10  23  45  66  97 130 160 212 261 321 393
#     4  11  22  40  63  88 126 171 210 264 309 360
#     4  10  22  42  68  93 130 165 211 263 314 381
#     4  10  21  42  61  92 131 167 212 260 317 370
#     4  11  22  41  63  95 130 165 210 263 315 379
#     4   9  22  39  56  85 121 161 214 258 308 367
#
# _framework density 23.379631
#
# number of rings (size 3 to 8) (size 9 to 14) (size 15 to 20)
#    0.000    1.750    2.500    0.750    1.750    8.000 
#    6.750    0.625    0.000    0.000    0.000    0.000 
#    0.000    0.000    0.000    0.000    0.000    0.000 
#
# Total GULP energy -198231.959629 kJ/mol
# GULP energy per Si atom -12389.497477 kJ/mol
# Density = 2.332642 g / cm^3
# Si number density = 23.379631 Si / 1000 Ang^3
#
#
#
# Elastic Constant Matrix: (Units=GPa)
#
#
# Indices 1 2 3 4 5 6 
#
# 1 98.3599 14.2290 44.7480 -4.6746 -0.3633 -17.6155
# 2 14.2290 44.2917 17.0314 7.0814 2.6015 -9.2453
# 3 44.7480 17.0314 157.9689 -5.0337 6.7192 -12.3961
# 4 -4.6746 7.0814 -5.0337 26.2244 0.3980 -6.1969
# 5 -0.3633 2.6015 6.7192 0.3980 43.5376 -3.3501
# 6 -17.6155 -9.2453 -12.3961 -6.1969 -3.3501 30.4052
#
#
#
# Elastic Compliance Matrix: (Units=1/GPa)
#
#
# Indices 1 2 3 4 5 6 
#
# 1 0.013227 -0.002459 -0.002878 0.004033 0.001180 0.006694
# 2 -0.002459 0.026159 -0.001973 -0.006869 -0.000891 0.004227
# 3 -0.002878 -0.001973 0.007538 0.001730 -0.001005 0.001048
# 4 0.004033 -0.006869 0.001730 0.043357 0.000539 0.009849
# 5 0.001180 -0.000891 -0.001005 0.000539 0.023389 0.002690
# 6 0.006694 0.004227 0.001048 0.009849 0.002690 0.040784
#
#
# Mechanical properties :
#
#
# Convention : Reuss Voigt Hill
#
# Bulk Modulus (GPa) = 30.95626 50.29302 40.62464
# Shear Modulus (GPa) = 27.80212 35.00759 31.40486
#
# Velocity S-wave (km/s) = 3.45216 3.87376 3.66902
# Velocity P-wave (km/s) = 5.39994 6.44719 5.94666
#
# Compressibility (1/GPa) = 0.03230364
#
# Stress axis : x y z
#
# Youngs Moduli (GPa) = 75.60479 38.22755 132.65426
#
# Poissons Ratio (x) = 0.09402 0.38177
# Poissons Ratio (y) = 0.18594 0.26172
# Poissons Ratio (z) = 0.21759 0.07542
#
# Static dielectric constant tensor:
#      x y z
#    x 4.253090 -5.903310 3.822480 
#    y -5.903310 -59.896950 40.921400 
#    z 3.822480 40.921400 -22.175270 
# 
# 
# High freq. dielectric constant tensor:
#      x y z
#    x 1.935380 -0.004990 -0.003810 
#    y -0.004990 1.892170 -0.016270 
#    z -0.003810 -0.016270 1.946140 
# 
# From -- ./inp_files/206680.got.cif
#   From: 2010.06.25/outbox.cif.g09.slc.cpg/sg2_104_cif.got.tgz:206680.got - 2010.06.27 13:26:56.
