data_PCOD8014417
_publ_section_title
;
Structure prediction by ZEFSAII (Michael W. Deem and Ramdas Pophale) SiO2 
 PCOD8014417
Probable space group: P -1
;
_chemical_formula_sum "Si O2"
_cell_formula_units_Z 12
_cell_length_a 15.153620
_cell_length_b 9.561240
_cell_length_c 12.551380
_cell_angle_alpha 42.478141
_cell_angle_beta 28.930590
_cell_angle_gamma 34.847064
_cell_volume 501.436359
_symmetry_space_group_name_H-M "P -1"
_symmetry_group_IT_number 2
_symmetry_cell_setting 'triclinic'
loop_
_space_group_symop_operation_xyz
x,y,z
-x,-y,-z
loop_
_atom_site_type_symbol
_atom_site_label
_atom_site_fract_x
_atom_site_fract_y
_atom_site_fract_z
Si Si1 0.492326 0.953648 0.410160
Si Si2 0.114681 0.562756 0.739138
Si Si3 0.692981 0.145336 0.719915
Si Si4 0.202344 0.985991 0.072656
Si Si5 0.009949 0.145557 0.804970
Si Si6 0.212125 0.372237 0.116498
O O1 0.646546 0.671958 0.367419
O O2 0.500000 0.000000 0.500000
O O3 0.255067 0.043711 0.574077
O O4 0.576301 0.101907 0.174527
O O5 0.151282 0.772901 0.535628
O O6 0.976327 0.497927 0.845289
O O7 0.958866 0.709803 0.923958
O O8 0.727809 0.121075 0.823576
O O9 0.753810 0.889916 0.742819
O O10 0.437988 0.336939 0.857737
O O11 0.082314 0.885077 0.189883
O O12 0.877286 0.437664 0.798583
O O13 0.000000 0.000000 0.000000
#
# Coordination Sequence:
#
# PCOD8014417 Si02
#       6
#     2   2   2   2   2   2
#     4  12  24  43  68  96 132 175 216 271 327 379
#     4  11  23  46  70  94 135 172 219 269 322 395
#     4  10  24  44  69  96 132 176 216 267 328 389
#     4  11  25  42  66 104 129 170 223 265 329 387
#     4  12  24  41  66  98 134 173 218 270 329 383
#     4  10  21  41  67  93 133 171 216 264 326 386
#
# _framework density 23.931252000000001
#
# number of rings (size 3 to 8) (size 9 to 14) (size 15 to 20)
#    0.000    1.000    3.333    3.500    0.000    8.000 
#    0.000    4.167    0.000    0.000    0.000    0.000 
#    0.000    0.000    0.000    0.000    0.000    0.000 
#
# Total GULP energy -148766.086092 kJ/mol
# GULP energy per Si atom -12397.173841 kJ/mol
# Density = 2.387678 g / cm^3
# Si number density = 23.931252 Si / 1000 Ang^3
#
#
#
# Elastic Constant Matrix: (Units=GPa)
#
#
# Indices 1 2 3 4 5 6 
#
# 1 99.1529 47.6606 41.9915 6.1970 -35.1976 28.0019
# 2 47.6606 117.2138 29.5811 36.3054 -10.4359 20.1009
# 3 41.9915 29.5811 133.2254 33.9822 -27.5766 4.0579
# 4 6.1970 36.3054 33.9822 33.0337 -4.6511 -1.1094
# 5 -35.1976 -10.4359 -27.5766 -4.6511 41.6905 4.5664
# 6 28.0019 20.1009 4.0579 -1.1094 4.5664 41.7442
#
#
#
# Elastic Compliance Matrix: (Units=1/GPa)
#
#
# Indices 1 2 3 4 5 6 
#
# 1 0.027803 -0.009502 -0.005181 0.012967 0.020812 -0.015503
# 2 -0.009502 0.019273 0.004585 -0.024593 -0.002500 -0.003732
# 3 -0.005181 0.004585 0.013338 -0.017288 0.003766 -0.000900
# 4 0.012967 -0.024593 -0.017288 0.072984 0.000767 0.006680
# 5 0.020812 -0.002500 0.003766 0.000767 0.045488 -0.018078
# 6 -0.015503 -0.003732 -0.000900 0.006680 -0.018078 0.038394
#
#
# Mechanical properties :
#
#
# Convention : Reuss Voigt Hill
#
# Bulk Modulus (GPa) = 24.86522 65.33983 45.10253
# Shear Modulus (GPa) = 19.92977 38.65095 29.29036
#
# Velocity S-wave (km/s) = 2.88895 4.02317 3.50228
# Velocity P-wave (km/s) = 4.64121 6.99597 5.93652
#
# Compressibility (1/GPa) = 0.04021682
#
# Stress axis : x y z
#
# Youngs Moduli (GPa) = 35.96794 51.88673 74.97635
#
# Poissons Ratio (x) = 0.49304 0.38843
# Poissons Ratio (y) = 0.34178 -0.34376
# Poissons Ratio (z) = 0.18634 -0.23789
#
# Static dielectric constant tensor:
#      x y z
#    x 4.172860 0.009930 -0.300040 
#    y 0.009930 4.441720 0.215870 
#    z -0.300040 0.215870 4.728420 
# 
# 
# High freq. dielectric constant tensor:
#      x y z
#    x 1.944120 0.008480 -0.019540 
#    y 0.008480 1.954290 0.013470 
#    z -0.019540 0.013470 1.969750 
# 
# From -- ./inp_files/149800.got.cif
#   From: 2010.06.25/outbox.cif.g09.slc.cpg/sg2_75_cif.got.tgz:149800.got - 2010.06.27 13:26:56.
