data_PCOD8014407
_publ_section_title
;
Structure prediction by ZEFSAII (Michael W. Deem and Ramdas Pophale) SiO2 
 PCOD8014407
Probable space group: P -1
;
_chemical_formula_sum "Si O2"
_cell_formula_units_Z 16
_cell_length_a 16.124497
_cell_length_b 9.241203
_cell_length_c 15.916936
_cell_angle_alpha 149.238150
_cell_angle_beta 140.793963
_cell_angle_gamma 39.547290
_cell_volume 725.043829
_symmetry_space_group_name_H-M "P -1"
_symmetry_group_IT_number 2
_symmetry_cell_setting 'triclinic'
loop_
_space_group_symop_operation_xyz
x,y,z
-x,-y,-z
loop_
_atom_site_type_symbol
_atom_site_label
_atom_site_fract_x
_atom_site_fract_y
_atom_site_fract_z
Si Si1 0.598496 0.680940 0.940556
Si Si2 0.621858 0.256011 0.589650
Si Si3 0.137718 0.510902 0.368010
Si Si4 0.637583 0.700394 0.688314
Si Si5 0.421051 0.705142 0.967437
Si Si6 0.114831 0.826335 0.740248
Si Si7 0.853612 0.893004 0.259604
Si Si8 0.877399 0.776365 0.623599
O O1 0.616934 0.456693 0.766714
O O2 0.521530 0.575713 0.903256
O O3 0.743735 0.719503 0.099314
O O4 0.500000 0.000000 0.000000
O O5 0.655329 0.391633 0.596381
O O6 0.473952 0.215078 0.433617
O O7 0.739040 0.941803 0.544327
O O8 0.215579 0.345792 0.263632
O O9 0.149687 0.234059 0.302988
O O10 0.980228 0.692592 0.313511
O O11 0.204262 0.760986 0.579978
O O12 0.599054 0.951207 0.855190
O O13 0.500000 0.500000 0.000000
O O14 0.269031 0.680145 0.824171
O O15 0.069284 0.575647 0.530955
O O16 0.997372 0.928009 0.772591
O O17 0.108136 0.094363 0.803324
#
# Coordination Sequence:
#
# PCOD8014407 Si02
#       8
#     2   2   2   2   2   2   2   2
#     4  12  23  44  67  93 127 169 215 255 318 379
#     4  11  24  41  67  94 128 169 208 263 313 379
#     4  10  23  39  65  96 127 165 211 262 315 372
#     4  11  24  42  64  96 129 164 214 259 315 378
#     4  12  27  42  65  97 129 168 208 267 317 373
#     4  10  21  43  64  90 131 167 212 254 316 379
#     4  10  21  41  67  92 126 170 210 258 311 382
#     4  10  23  40  65  95 126 170 208 261 318 371
#
# _framework density 22.067633000000001
#
# number of rings (size 3 to 8) (size 9 to 14) (size 15 to 20)
#    0.000    1.250    2.500    2.250    7.000    2.500 
#    0.000    3.750    0.000    0.000    0.000    0.000 
#    0.000    0.000    0.000    0.000    0.000    0.000 
#
# Total GULP energy -198339.074172 kJ/mol
# GULP energy per Si atom -12396.192136 kJ/mol
# Density = 2.201741 g / cm^3
# Si number density = 22.067633 Si / 1000 Ang^3
#
#
#
# Elastic Constant Matrix: (Units=GPa)
#
#
# Indices 1 2 3 4 5 6 
#
# 1 120.0777 37.1017 24.2145 -13.0870 -1.8833 0.9154
# 2 37.1017 100.1472 1.7457 -23.8099 3.5882 15.0110
# 3 24.2145 1.7457 80.0083 -15.7825 5.0146 -12.3187
# 4 -13.0870 -23.8099 -15.7825 33.0845 -3.5193 -5.6220
# 5 -1.8833 3.5882 5.0146 -3.5193 27.4123 -5.0912
# 6 0.9154 15.0110 -12.3187 -5.6220 -5.0912 31.6558
#
#
#
# Elastic Compliance Matrix: (Units=1/GPa)
#
#
# Indices 1 2 3 4 5 6 
#
# 1 0.010157 -0.003849 -0.002970 0.000153 0.001896 0.000708
# 2 -0.003849 0.014207 0.001971 0.008605 -0.002251 -0.004692
# 3 -0.002970 0.001971 0.016276 0.009083 -0.000985 0.006940
# 4 0.000153 0.008605 0.009083 0.042552 0.004110 0.007668
# 5 0.001896 -0.002251 -0.000985 0.004110 0.039031 0.007637
# 6 0.000708 -0.004692 0.006940 0.007668 0.007637 0.039085
#
#
# Mechanical properties :
#
#
# Convention : Reuss Voigt Hill
#
# Bulk Modulus (GPa) = 32.31540 47.37303 39.84421
# Shear Modulus (GPa) = 27.57587 34.24192 30.90890
#
# Velocity S-wave (km/s) = 3.53881 3.94341 3.74658
# Velocity P-wave (km/s) = 5.60118 6.49983 6.06717
#
# Compressibility (1/GPa) = 0.03094500
#
# Stress axis : x y z
#
# Youngs Moduli (GPa) = 98.45408 70.38986 61.43890
#
# Poissons Ratio (x) = 0.27091 0.18245
# Poissons Ratio (y) = 0.37892 -0.12109
# Poissons Ratio (z) = 0.29238 -0.13873
#
# Static dielectric constant tensor:
#      x y z
#    x 4.028630 0.099700 0.053440 
#    y 0.099700 3.813030 -0.103280 
#    z 0.053440 -0.103280 3.992210 
# 
# 
# High freq. dielectric constant tensor:
#      x y z
#    x 1.878170 0.005710 0.002210 
#    y 0.005710 1.868040 -0.014530 
#    z 0.002210 -0.014530 1.853720 
# 
# From -- ./inp_files/245659.got.cif
#   From: 2010.06.25/outbox.cif.g09.slc.cpg/sg2_123_cif.got.tgz:245659.got - 2010.06.27 13:26:56.
