data_PCOD8014096
_publ_section_title
;
Structure prediction by ZEFSAII (Michael W. Deem and Ramdas Pophale) SiO2 
 PCOD8014096
Probable space group: P -1
;
_chemical_formula_sum "Si O2"
_cell_formula_units_Z 14
_cell_length_a 7.735372
_cell_length_b 12.318651
_cell_length_c 17.092623
_cell_angle_alpha 149.447172
_cell_angle_beta 134.644527
_cell_angle_gamma 53.816913
_cell_volume 588.574012
_symmetry_space_group_name_H-M "P -1"
_symmetry_group_IT_number 2
_symmetry_cell_setting 'triclinic'
loop_
_space_group_symop_operation_xyz
x,y,z
-x,-y,-z
loop_
_atom_site_type_symbol
_atom_site_label
_atom_site_fract_x
_atom_site_fract_y
_atom_site_fract_z
Si Si1 0.310266 0.011155 0.015725
Si Si2 0.931457 0.119511 0.852177
Si Si3 0.858668 0.328125 0.613248
Si Si4 0.281518 0.023074 0.768445
Si Si5 0.049400 0.558878 0.669856
Si Si6 0.257916 0.433786 0.926177
Si Si7 0.669718 0.690248 0.510060
O O1 0.187263 0.784817 0.856559
O O2 0.464167 0.079855 0.185234
O O3 0.094842 0.160751 0.009362
O O4 0.500000 0.000000 0.000000
O O5 0.087322 0.003929 0.764396
O O6 0.708389 0.948518 0.692555
O O7 0.844073 0.346503 0.935501
O O8 0.610784 0.383288 0.613045
O O9 0.944770 0.508731 0.691151
O O10 0.066249 0.308355 0.731601
O O11 0.819028 0.103434 0.416797
O O12 0.323484 0.274319 0.917836
O O13 0.240226 0.384174 0.593206
O O14 0.819095 0.558896 0.539149
O O15 0.500000 0.500000 0.000000
#
# Coordination Sequence:
#
# PCOD8014096 Si02
#       7
#     2   2   2   2   2   2   2
#     4   9  21  39  74  99 137 176 228 276 341 408
#     4  10  22  45  69 101 135 184 226 281 344 405
#     4  12  25  42  69 101 136 181 232 281 341 403
#     4  11  23  45  68 102 138 182 228 282 340 409
#     4  10  21  41  65 104 142 180 219 281 346 400
#     4  12  27  46  66  97 142 179 236 284 338 410
#     4  10  22  40  68 101 142 176 227 282 339 407
#
# _framework density 23.786303
#
# number of rings (size 3 to 8) (size 9 to 14) (size 15 to 20)
#    0.000    1.429    1.429    3.000    6.000    1.143 
#    2.571    5.000    0.000    0.000    0.000    0.000 
#    0.000    0.000    0.000    0.000    0.000    0.000 
#
# Total GULP energy -173567.039424 kJ/mol
# GULP energy per Si atom -12397.645673 kJ/mol
# Density = 2.373216 g / cm^3
# Si number density = 23.786303 Si / 1000 Ang^3
#
#
#
# Elastic Constant Matrix: (Units=GPa)
#
#
# Indices 1 2 3 4 5 6 
#
# 1 108.6026 22.5450 35.1567 -7.2396 28.8694 -0.6599
# 2 22.5450 65.9461 -3.0687 2.5104 12.2219 2.3614
# 3 35.1567 -3.0687 50.8706 -10.2953 13.6369 -9.1449
# 4 -7.2396 2.5104 -10.2953 42.5452 1.5355 8.7060
# 5 28.8694 12.2219 13.6369 1.5355 43.0500 6.8089
# 6 -0.6599 2.3614 -9.1449 8.7060 6.8089 34.2996
#
#
#
# Elastic Compliance Matrix: (Units=1/GPa)
#
#
# Indices 1 2 3 4 5 6 
#
# 1 0.014483 -0.004322 -0.008722 0.000993 -0.005617 -0.000886
# 2 -0.004322 0.017583 0.005140 -0.000593 -0.003858 0.000993
# 3 -0.008722 0.005140 0.029945 0.004116 -0.006460 0.007700
# 4 0.000993 -0.000593 0.004116 0.025799 -0.001929 -0.005008
# 5 -0.005617 -0.003858 -0.006460 -0.001929 0.031361 -0.007301
# 6 -0.000886 0.000993 0.007700 -0.005008 -0.007301 0.033843
#
#
# Mechanical properties :
#
#
# Convention : Reuss Voigt Hill
#
# Bulk Modulus (GPa) = 21.64408 37.18725 29.41567
# Shear Modulus (GPa) = 27.14123 35.36472 31.25298
#
# Velocity S-wave (km/s) = 3.38160 3.86005 3.62872
# Velocity P-wave (km/s) = 4.93620 5.96108 5.47268
#
# Compressibility (1/GPa) = 0.04620200
#
# Stress axis : x y z
#
# Youngs Moduli (GPa) = 69.04783 56.87436 33.39474
#
# Poissons Ratio (x) = 0.24581 0.29128
# Poissons Ratio (y) = 0.29843 -0.17166
# Poissons Ratio (z) = 0.60225 -0.29235
#
# Static dielectric constant tensor:
#      x y z
#    x 4.202390 0.008750 0.236560 
#    y 0.008750 4.621350 -0.084930 
#    z 0.236560 -0.084930 4.211540 
# 
# 
# High freq. dielectric constant tensor:
#      x y z
#    x 1.947790 0.005330 0.018500 
#    y 0.005330 1.932570 0.004180 
#    z 0.018500 0.004180 1.946250 
# 
# From -- ./inp_files/560218.got.cif
#   From: 2010.06.25/outbox.cif.g09.slc.cpg/sg2_281_cif.got.tgz:560218.got - 2010.06.27 13:26:56.
