data_PCOD8014804
_publ_section_title
;
Structure prediction by ZEFSAII (Michael W. Deem and Ramdas Pophale) SiO2 
 PCOD8014804
Probable space group: P -1
;
_chemical_formula_sum "Si O2"
_cell_formula_units_Z 12
_cell_length_a 13.045451
_cell_length_b 14.475337
_cell_length_c 5.115372
_cell_angle_alpha 69.943985
_cell_angle_beta 89.779805
_cell_angle_gamma 142.673480
_cell_volume 481.002669
_symmetry_space_group_name_H-M "P -1"
_symmetry_group_IT_number 2
_symmetry_cell_setting 'triclinic'
loop_
_space_group_symop_operation_xyz
x,y,z
-x,-y,-z
loop_
_atom_site_type_symbol
_atom_site_label
_atom_site_fract_x
_atom_site_fract_y
_atom_site_fract_z
Si Si1 0.402143 0.255984 0.983310
Si Si2 0.575488 0.315903 0.424848
Si Si3 0.404603 0.969727 0.777416
Si Si4 0.005243 0.394717 0.708073
Si Si5 0.125773 0.189678 0.194040
Si Si6 0.983500 0.175238 0.679909
O O1 0.546894 0.348100 0.124477
O O2 0.327378 0.306651 0.980954
O O3 0.528110 0.353413 0.622614
O O4 0.226593 0.034843 0.199280
O O5 0.796113 0.459882 0.281766
O O6 0.430926 0.107481 0.656101
O O7 0.500000 0.000000 0.500000
O O8 0.177500 0.764142 0.945255
O O9 0.500000 0.000000 0.000000
O O10 0.000000 0.500000 0.500000
O O11 0.980943 0.291514 0.584800
O O12 0.141718 0.278702 0.350600
O O13 0.030617 0.164502 0.969740
O O14 0.000000 0.000000 0.500000
#
# Coordination Sequence:
#
# PCOD8014804 Si02
#       6
#     2   2   2   2   2   2
#     4  11  22  45  74 107 146 188 243 301 367 437
#     4  12  26  45  72 111 147 190 243 303 367 437
#     4  12  27  49  75 102 145 202 251 301 368 433
#     4  12  29  50  75 112 155 195 249 311 365 443
#     4  10  21  41  75 109 141 191 251 301 365 439
#     4  11  23  44  72 109 145 196 246 301 366 439
#
# _framework density 24.947887999999999
#
# number of rings (size 3 to 8) (size 9 to 14) (size 15 to 20)
#    0.000    0.667    3.333    6.000    0.000    3.333 
#    0.000    5.000    0.000    0.000    0.000    0.000 
#    0.000    0.000    0.000    0.000    0.000    0.000 
#
# Total GULP energy -148805.692696 kJ/mol
# GULP energy per Si atom -12400.474391 kJ/mol
# Density = 2.489111 g / cm^3
# Si number density = 24.947888 Si / 1000 Ang^3
#
#
#
# Elastic Constant Matrix: (Units=GPa)
#
#
# Indices 1 2 3 4 5 6 
#
# 1 177.9813 72.3305 72.7256 10.6394 -25.0284 -3.0590
# 2 72.3305 101.0225 80.3925 14.0827 -5.2041 14.6729
# 3 72.7256 80.3925 123.1829 20.4967 -21.2567 1.0596
# 4 10.6394 14.0827 20.4967 59.8253 0.5811 -5.3300
# 5 -25.0284 -5.2041 -21.2567 0.5811 35.1857 4.3106
# 6 -3.0590 14.6729 1.0596 -5.3300 4.3106 53.9101
#
#
#
# Elastic Compliance Matrix: (Units=1/GPa)
#
#
# Indices 1 2 3 4 5 6 
#
# 1 0.009021 -0.006019 -0.000578 0.000121 0.004958 0.001777
# 2 -0.006019 0.027216 -0.015589 -0.000514 -0.008834 -0.006787
# 3 -0.000578 -0.015589 0.020793 -0.003202 0.009564 0.002720
# 4 0.000121 -0.000514 -0.003202 0.018132 -0.002494 0.002202
# 5 0.004958 -0.008834 0.009564 -0.002494 0.036542 -0.000671
# 6 0.001777 -0.006787 0.002720 0.002202 -0.000671 0.020715
#
#
# Mechanical properties :
#
#
# Convention : Reuss Voigt Hill
#
# Bulk Modulus (GPa) = 78.99485 94.78711 86.89098
# Shear Modulus (GPa) = 27.62270 41.56675 34.59472
#
# Velocity S-wave (km/s) = 3.33110 4.08627 3.72785
# Velocity P-wave (km/s) = 6.82111 7.76788 7.30984
#
# Compressibility (1/GPa) = 0.01265905
#
# Stress axis : x y z
#
# Youngs Moduli (GPa) = 110.85042 36.74316 48.09368
#
# Poissons Ratio (x) = 0.22114 0.02779
# Poissons Ratio (y) = 0.66717 0.74973
# Poissons Ratio (z) = 0.06405 0.57279
#
# Static dielectric constant tensor:
#      x y z
#    x 5.152400 -0.243750 -0.377600 
#    y -0.243750 4.999540 0.139220 
#    z -0.377600 0.139220 4.710630 
# 
# 
# High freq. dielectric constant tensor:
#      x y z
#    x 2.014920 -0.002710 -0.011630 
#    y -0.002710 1.994250 0.000940 
#    z -0.011630 0.000940 1.997900 
# 
# From -- ./inp_files/75792.got.cif
#   From: 2010.06.25/outbox.cif.g09.slc.cpg/sg2_38_cif.got.tgz:75792.got - 2010.06.27 13:26:56.
