data_PCOD8014265
_publ_section_title
;
Structure prediction by ZEFSAII (Michael W. Deem and Ramdas Pophale) SiO2 
 PCOD8014265
Probable space group: P -1
;
_chemical_formula_sum "Si O2"
_cell_formula_units_Z 16
_cell_length_a 9.394972
_cell_length_b 20.862974
_cell_length_c 12.281783
_cell_angle_alpha 39.701644
_cell_angle_beta 110.806687
_cell_angle_gamma 141.100708
_cell_volume 767.274039
_symmetry_space_group_name_H-M "P -1"
_symmetry_group_IT_number 2
_symmetry_cell_setting 'triclinic'
loop_
_space_group_symop_operation_xyz
x,y,z
-x,-y,-z
loop_
_atom_site_type_symbol
_atom_site_label
_atom_site_fract_x
_atom_site_fract_y
_atom_site_fract_z
Si Si1 0.077850 0.255220 0.217477
Si Si2 0.557651 0.400941 0.256852
Si Si3 0.542467 0.884107 0.441168
Si Si4 0.679374 0.120425 0.996127
Si Si5 0.756446 0.134499 0.478526
Si Si6 0.679171 0.527681 0.353404
Si Si7 0.704698 0.732871 0.220292
Si Si8 0.747548 0.983047 0.865280
O O1 0.331215 0.317215 0.218653
O O2 0.037372 0.291056 0.274968
O O3 0.143107 0.377364 0.984553
O O4 0.803576 0.034990 0.400311
O O5 0.564689 0.285665 0.396396
O O6 0.486683 0.390149 0.376485
O O7 0.265295 0.785096 0.547554
O O8 0.658752 0.006064 0.207678
O O9 0.999599 0.326579 0.777925
O O10 0.542669 0.138258 0.999856
O O11 0.500000 0.000000 0.000000
O O12 0.500000 0.000000 0.500000
O O13 0.762017 0.035289 0.679533
O O14 0.643397 0.625937 0.241207
O O15 0.560874 0.404410 0.588989
O O16 0.753784 0.867278 0.004369
O O17 0.976713 0.836434 0.222038
#
# Coordination Sequence:
#
# PCOD8014265 Si02
#       8
#     2   2   2   2   2   2   2   2
#     4  10  21  42  63  92 129 161 211 261 306 373
#     4  11  23  39  65  96 125 164 208 260 318 371
#     4  10  22  41  65  90 126 168 206 255 317 375
#     4  11  22  40  62  89 127 169 204 262 317 378
#     4   9  20  40  63  89 124 163 208 260 304 377
#     4  11  23  41  60  94 135 159 213 269 312 382
#     4  10  23  41  64  92 125 169 210 268 319 378
#     4  10  21  41  66  91 121 171 218 251 327 383
#
# _framework density 20.853043
#
# number of rings (size 3 to 8) (size 9 to 14) (size 15 to 20)
#    0.000    1.750    2.500    1.125    1.750    2.000 
#    9.000    0.000    0.000    0.000    0.000    0.000 
#    0.000    0.000    0.000    0.000    0.000    0.000 
#
# Total GULP energy -198326.189830 kJ/mol
# GULP energy per Si atom -12395.386864 kJ/mol
# Density = 2.080558 g / cm^3
# Si number density = 20.853043 Si / 1000 Ang^3
#
#
#
# Elastic Constant Matrix: (Units=GPa)
#
#
# Indices 1 2 3 4 5 6 
#
# 1 106.2663 37.1986 59.7591 8.4400 4.4335 -10.7491
# 2 37.1986 73.7772 30.1927 15.3400 14.8916 -9.3506
# 3 59.7591 30.1927 82.2787 6.8748 1.1202 -5.6892
# 4 8.4400 15.3400 6.8748 29.0900 -0.8223 1.2666
# 5 4.4335 14.8916 1.1202 -0.8223 44.0385 -0.9675
# 6 -10.7491 -9.3506 -5.6892 1.2666 -0.9675 37.5057
#
#
#
# Elastic Compliance Matrix: (Units=1/GPa)
#
#
# Indices 1 2 3 4 5 6 
#
# 1 0.017102 -0.003756 -0.010836 -0.000526 -0.000135 0.002336
# 2 -0.003756 0.020719 -0.003755 -0.009295 -0.006626 0.003662
# 3 -0.010836 -0.003755 0.021310 0.000172 0.001805 -0.000769
# 4 -0.000526 -0.009295 0.000172 0.039659 0.003851 -0.003682
# 5 -0.000135 -0.006626 0.001805 0.003851 0.024968 -0.000903
# 6 0.002336 0.003662 -0.000769 -0.003682 -0.000903 0.028230
#
#
# Mechanical properties :
#
#
# Convention : Reuss Voigt Hill
#
# Bulk Modulus (GPa) = 44.56817 57.40256 50.98537
# Shear Modulus (GPa) = 25.48944 31.13830 28.31387
#
# Velocity S-wave (km/s) = 3.49999 3.86842 3.68881
# Velocity P-wave (km/s) = 6.14427 6.89491 6.53039
#
# Compressibility (1/GPa) = 0.02243754
#
# Stress axis : x y z
#
# Youngs Moduli (GPa) = 58.47157 48.26490 46.92701
#
# Poissons Ratio (x) = 0.18128 0.50849
# Poissons Ratio (y) = 0.21962 0.17621
# Poissons Ratio (z) = 0.63359 0.18123
#
# Static dielectric constant tensor:
#      x y z
#    x 3.927850 -0.015230 -0.287900 
#    y -0.015230 3.762910 0.100060 
#    z -0.287900 0.100060 3.811690 
# 
# 
# High freq. dielectric constant tensor:
#      x y z
#    x 1.817430 0.000150 -0.016070 
#    y 0.000150 1.815880 0.012370 
#    z -0.016070 0.012370 1.811400 
# 
# From -- ./inp_files/180591.got.cif
#   From: 2010.06.25/outbox.cif.g09.slc.cpg/sg2_91_cif.got.tgz:180591.got - 2010.06.27 13:26:56.
