data_PCOD8014836
_publ_section_title
;
Structure prediction by ZEFSAII (Michael W. Deem and Ramdas Pophale) SiO2 
 PCOD8014836
Probable space group: P -1
;
_chemical_formula_sum "Si O2"
_cell_formula_units_Z 14
_cell_length_a 8.252751
_cell_length_b 13.881687
_cell_length_c 11.453824
_cell_angle_alpha 126.833991
_cell_angle_beta 138.344658
_cell_angle_gamma 52.092095
_cell_volume 662.974596
_symmetry_space_group_name_H-M "P -1"
_symmetry_group_IT_number 2
_symmetry_cell_setting 'triclinic'
loop_
_space_group_symop_operation_xyz
x,y,z
-x,-y,-z
loop_
_atom_site_type_symbol
_atom_site_label
_atom_site_fract_x
_atom_site_fract_y
_atom_site_fract_z
Si Si1 0.313187 0.183756 0.578277
Si Si2 0.489377 0.582193 0.441010
Si Si3 0.628043 0.531511 0.924551
Si Si4 0.920516 0.709290 0.247755
Si Si5 0.264123 0.706136 0.043626
Si Si6 0.731456 0.980535 0.370528
Si Si7 0.256404 0.211962 0.297755
O O1 0.118987 0.295810 0.635223
O O2 0.218697 0.194961 0.402864
O O3 0.307890 0.048491 0.532964
O O4 0.595548 0.201500 0.753729
O O5 0.500000 0.500000 0.500000
O O6 0.531115 0.485025 0.285690
O O7 0.704511 0.652115 0.605833
O O8 0.214639 0.690775 0.362660
O O9 0.424963 0.625160 0.966804
O O10 0.841712 0.599355 0.058967
O O11 0.774007 0.392793 0.953877
O O12 0.742578 0.850184 0.212527
O O13 0.992463 0.793152 0.910435
O O14 0.494397 0.099513 0.290922
O O15 0.000000 0.000000 0.500000
#
# Coordination Sequence:
#
# PCOD8014836 Si02
#       7
#     2   2   2   2   2   2   2
#     4   9  21  41  63  92 128 167 205 265 314 365
#     4  12  24  37  64  96 127 171 211 256 322 380
#     4  10  21  42  61  90 137 164 205 272 311 374
#     4   9  21  40  62  86 128 169 206 258 327 357
#     4  10  22  39  65  98 127 164 214 262 318 370
#     4  10  21  42  66  89 129 167 212 264 320 373
#     4  12  22  39  69  95 123 172 215 259 313 386
#
# _framework density 21.116948000000001
#
# number of rings (size 3 to 8) (size 9 to 14) (size 15 to 20)
#    0.857    0.857    2.857    1.714    2.000    1.143 
#    0.000    0.000    0.000    3.429    0.000    0.000 
#    0.000    0.000    0.000    0.000    0.000    0.000 
#
# Total GULP energy -173496.226930 kJ/mol
# GULP energy per Si atom -12392.587638 kJ/mol
# Density = 2.106888 g / cm^3
# Si number density = 21.116948 Si / 1000 Ang^3
#
#
#
# Elastic Constant Matrix: (Units=GPa)
#
#
# Indices 1 2 3 4 5 6 
#
# 1 54.6784 24.2940 25.7763 -4.0037 12.2750 15.6214
# 2 24.2940 90.0379 30.1430 -2.0882 0.5588 11.9182
# 3 25.7763 30.1430 84.5809 -5.4718 5.3943 9.6222
# 4 -4.0037 -2.0882 -5.4718 30.1573 1.3737 6.4431
# 5 12.2750 0.5588 5.3943 1.3737 33.0611 2.2858
# 6 15.6214 11.9182 9.6222 6.4431 2.2858 38.1632
#
#
#
# Elastic Compliance Matrix: (Units=1/GPa)
#
#
# Indices 1 2 3 4 5 6 
#
# 1 0.027451 -0.004423 -0.004903 0.004753 -0.008900 -0.008888
# 2 -0.004423 0.013673 -0.003464 0.000001 0.002095 -0.001712
# 3 -0.004903 -0.003464 0.014828 0.002030 -0.000558 -0.000959
# 4 0.004753 0.000001 0.002030 0.036084 -0.003017 -0.008369
# 5 -0.008900 0.002095 -0.000558 -0.003017 0.033620 0.001625
# 6 -0.008888 -0.001712 -0.000959 -0.008369 0.001625 0.031934
#
#
# Mechanical properties :
#
#
# Convention : Reuss Voigt Hill
#
# Bulk Modulus (GPa) = 32.92544 43.30264 38.11404
# Shear Modulus (GPa) = 25.86740 30.21524 28.04132
#
# Velocity S-wave (km/s) = 3.50374 3.78676 3.64800
# Velocity P-wave (km/s) = 5.65633 6.29842 5.98599
#
# Compressibility (1/GPa) = 0.03037165
#
# Stress axis : x y z
#
# Youngs Moduli (GPa) = 36.42877 73.13633 67.44168
#
# Poissons Ratio (x) = 0.32351 0.33067
# Poissons Ratio (y) = 0.16114 0.23359
# Poissons Ratio (z) = 0.17861 0.25331
#
# Static dielectric constant tensor:
#      x y z
#    x 3.929030 0.070280 0.108930 
#    y 0.070280 3.750120 0.192930 
#    z 0.108930 0.192930 3.638880 
# 
# 
# High freq. dielectric constant tensor:
#      x y z
#    x 1.837400 0.000780 0.009380 
#    y 0.000780 1.820890 0.018830 
#    z 0.009380 0.018830 1.804160 
# 
# From -- ./inp_files/399689.got.cif
#   From: 2010.06.25/outbox.cif.g09.slc.cpg/sg2_200_cif.got.tgz:399689.got - 2010.06.27 13:26:56.
