data_PCOD8014274
_publ_section_title
;
Structure prediction by ZEFSAII (Michael W. Deem and Ramdas Pophale) SiO2 
 PCOD8014274
Probable space group: P -1
;
_chemical_formula_sum "Si O2"
_cell_formula_units_Z 14
_cell_length_a 18.151083
_cell_length_b 8.908130
_cell_length_c 11.531435
_cell_angle_alpha 43.258947
_cell_angle_beta 137.744304
_cell_angle_gamma 104.385595
_cell_volume 666.870581
_symmetry_space_group_name_H-M "P -1"
_symmetry_group_IT_number 2
_symmetry_cell_setting 'triclinic'
loop_
_space_group_symop_operation_xyz
x,y,z
-x,-y,-z
loop_
_atom_site_type_symbol
_atom_site_label
_atom_site_fract_x
_atom_site_fract_y
_atom_site_fract_z
Si Si1 0.184992 0.332185 0.198821
Si Si2 0.341312 0.117157 0.267726
Si Si3 0.108433 0.555822 0.583170
Si Si4 0.375088 0.007246 0.808046
Si Si5 0.442575 0.534031 0.784972
Si Si6 0.207620 0.489511 0.491197
Si Si7 0.998960 0.161262 0.140156
O O1 0.247631 0.322079 0.152047
O O2 0.319710 0.172845 0.528895
O O3 0.117459 0.172423 0.215694
O O4 0.064805 0.655599 0.918537
O O5 0.500000 0.000000 0.500000
O O6 0.353899 0.842361 0.454999
O O7 0.258529 0.288874 0.958968
O O8 0.107252 0.581608 0.429697
O O9 0.000000 0.500000 0.500000
O O10 0.064743 0.842583 0.428446
O O11 0.252709 0.192285 0.658465
O O12 0.500000 0.000000 0.000000
O O13 0.426375 0.692399 0.021941
O O14 0.342084 0.451367 0.716331
O O15 0.500000 0.500000 0.000000
O O16 0.123993 0.724759 0.161476
#
# Coordination Sequence:
#
# PCOD8014274 Si02
#       7
#     2   2   2   2   2   2   2
#     4  10  21  42  67  94 124 164 229 266 312 382
#     4  12  26  38  59 100 136 166 204 263 336 388
#     4  12  25  41  61  94 137 170 208 262 336 389
#     4   9  20  36  67  91 117 156 217 266 304 361
#     4  11  20  39  66  89 122 170 219 257 307 384
#     4  10  21  41  66  92 120 163 224 263 306 377
#     4  10  22  42  71  92 119 174 227 270 305 378
#
# _framework density 20.993580000000001
#
# number of rings (size 3 to 8) (size 9 to 14) (size 15 to 20)
#    0.000    1.429    1.429    3.857    4.000    0.571 
#    2.571    0.714    0.000    0.000    0.000    0.000 
#    0.000    0.000    0.000    0.000    0.000    0.000 
#
# Total GULP energy -173477.756383 kJ/mol
# GULP energy per Si atom -12391.268313 kJ/mol
# Density = 2.094580 g / cm^3
# Si number density = 20.993580 Si / 1000 Ang^3
#
#
#
# Elastic Constant Matrix: (Units=GPa)
#
#
# Indices 1 2 3 4 5 6 
#
# 1 95.4086 41.2439 16.7476 -15.1211 15.4427 -5.0734
# 2 41.2439 115.9146 53.0313 -15.5357 2.4645 -5.6048
# 3 16.7476 53.0313 119.3806 -10.3677 -0.6497 -0.2159
# 4 -15.1211 -15.5357 -10.3677 51.9505 1.6859 9.1853
# 5 15.4427 2.4645 -0.6497 1.6859 29.0323 -0.1659
# 6 -5.0734 -5.6048 -0.2159 9.1853 -0.1659 29.6428
#
#
#
# Elastic Compliance Matrix: (Units=1/GPa)
#
#
# Indices 1 2 3 4 5 6 
#
# 1 0.014072 -0.004553 0.000263 0.002915 -0.007259 0.000605
# 2 -0.004553 0.012678 -0.004877 0.001242 0.001171 0.001204
# 3 0.000263 -0.004877 0.010585 0.000907 0.000452 -0.001078
# 4 0.002915 0.001242 0.000907 0.021812 -0.002937 -0.006035
# 5 -0.007259 0.001171 0.000452 -0.002937 0.038387 0.000107
# 6 0.000605 0.001204 -0.001078 -0.006035 0.000107 0.035929
#
#
# Mechanical properties :
#
#
# Convention : Reuss Voigt Hill
#
# Bulk Modulus (GPa) = 52.62502 61.41658 57.02080
# Shear Modulus (GPa) = 31.61919 36.77054 34.19486
#
# Velocity S-wave (km/s) = 3.88511 4.18965 4.04025
# Velocity P-wave (km/s) = 6.72659 7.26104 6.99892
#
# Compressibility (1/GPa) = 0.01900237
#
# Stress axis : x y z
#
# Youngs Moduli (GPa) = 71.06061 78.87684 94.47142
#
# Poissons Ratio (x) = 0.35915 -0.02487
# Poissons Ratio (y) = 0.32356 0.46070
# Poissons Ratio (z) = -0.01871 0.38466
#
# Static dielectric constant tensor:
#      x y z
#    x 2.773490 0.084190 0.657710 
#    y 0.084190 3.872170 -0.486940 
#    z 0.657710 -0.486940 3.823230 
# 
# 
# High freq. dielectric constant tensor:
#      x y z
#    x 1.796980 -0.021340 0.022140 
#    y -0.021340 1.831660 0.003820 
#    z 0.022140 0.003820 1.840000 
# 
# From -- ./inp_files/257262.got.cif
#   From: 2010.06.25/outbox.cif.g09.slc.cpg/sg2_129_cif.got.tgz:257262.got - 2010.06.27 13:26:56.
