data_PCOD8014170
_publ_section_title
;
Structure prediction by ZEFSAII (Michael W. Deem and Ramdas Pophale) SiO2 
 PCOD8014170
Probable space group: P -1
;
_chemical_formula_sum "Si O2"
_cell_formula_units_Z 16
_cell_length_a 11.437536
_cell_length_b 18.503364
_cell_length_c 5.444849
_cell_angle_alpha 118.377868
_cell_angle_beta 81.468387
_cell_angle_gamma 132.932033
_cell_volume 714.256175
_symmetry_space_group_name_H-M "P -1"
_symmetry_group_IT_number 2
_symmetry_cell_setting 'triclinic'
loop_
_space_group_symop_operation_xyz
x,y,z
-x,-y,-z
loop_
_atom_site_type_symbol
_atom_site_label
_atom_site_fract_x
_atom_site_fract_y
_atom_site_fract_z
Si Si1 0.882499 0.903357 0.181352
Si Si2 0.594507 0.454873 0.655898
Si Si3 0.599473 0.644928 0.948451
Si Si4 0.751702 0.150924 0.577788
Si Si5 0.419832 0.021389 0.250053
Si Si6 0.838200 0.364291 0.849150
Si Si7 0.184486 0.984090 0.938789
Si Si8 0.195587 0.590516 0.566881
O O1 0.758814 0.780010 0.149593
O O2 0.776722 0.925443 0.123548
O O3 0.000000 0.000000 0.500000
O O4 0.997239 0.908638 0.965407
O O5 0.655176 0.577773 0.842902
O O6 0.474774 0.377472 0.336683
O O7 0.757734 0.481116 0.604005
O O8 0.517913 0.392070 0.842507
O O9 0.575012 0.114609 0.531715
O O10 0.885381 0.290339 0.750244
O O11 0.733368 0.100157 0.765871
O O12 0.805401 0.104693 0.302882
O O13 0.331851 0.059511 0.220552
O O14 0.500000 0.000000 0.000000
O O15 0.740250 0.326543 0.558065
O O16 0.731053 0.339319 0.083613
O O17 0.000000 0.500000 0.000000
O O18 0.000000 0.500000 0.500000
#
# Coordination Sequence:
#
# PCOD8014170 Si02
#       8
#     2   2   2   2   2   2   2   2
#     4  11  25  44  63 101 131 175 233 288 348 399
#     4  10  22  47  69 105 132 181 227 274 351 404
#     4  10  24  44  74  96 138 178 232 285 335 415
#     4  10  21  41  65  93 130 175 217 275 336 410
#     4   9  20  40  62  92 123 168 219 268 328 402
#     4  10  23  40  61  96 137 170 216 262 326 404
#     4  10  23  42  65  94 128 174 225 279 341 401
#     4  10  22  42  64 100 139 173 215 275 332 409
#
# _framework density 22.400925000000001
#
# number of rings (size 3 to 8) (size 9 to 14) (size 15 to 20)
#    0.000    2.000    0.000    1.500    7.000    3.000 
#   20.250    0.000    0.000    0.000    0.000    0.000 
#    0.000    0.000    0.000    0.000    0.000    0.000 
#
# Total GULP energy -198217.778243 kJ/mol
# GULP energy per Si atom -12388.611140 kJ/mol
# Density = 2.234994 g / cm^3
# Si number density = 22.400925 Si / 1000 Ang^3
#
#
#
# Elastic Constant Matrix: (Units=GPa)
#
#
# Indices 1 2 3 4 5 6 
#
# 1 141.7501 45.7053 41.7131 -1.5855 -13.9490 -17.1415
# 2 45.7053 126.7364 66.3020 1.8580 -5.3372 -15.6298
# 3 41.7131 66.3020 125.3583 -20.7907 -9.6025 -12.2098
# 4 -1.5855 1.8580 -20.7907 49.0645 -8.1149 5.0849
# 5 -13.9490 -5.3372 -9.6025 -8.1149 38.7179 -4.8254
# 6 -17.1415 -15.6298 -12.2098 5.0849 -4.8254 23.8258
#
#
#
# Elastic Compliance Matrix: (Units=1/GPa)
#
#
# Indices 1 2 3 4 5 6 
#
# 1 0.008974 -0.001740 -0.001330 -0.000219 0.003284 0.005345
# 2 -0.001740 0.012305 -0.006178 -0.003702 -0.000703 0.004302
# 3 -0.001330 -0.006178 0.013068 0.006172 0.003334 0.001045
# 4 -0.000219 -0.003702 0.006172 0.024422 0.005624 -0.003496
# 5 0.003284 -0.000703 0.003334 0.005624 0.029977 0.008481
# 6 0.005345 0.004302 0.001045 -0.003496 0.008481 0.051639
#
#
# Mechanical properties :
#
#
# Convention : Reuss Voigt Hill
#
# Bulk Modulus (GPa) = 63.08570 77.92061 70.50316
# Shear Modulus (GPa) = 30.45721 38.32993 34.39357
#
# Velocity S-wave (km/s) = 3.69133 4.14102 3.92262
# Velocity P-wave (km/s) = 6.81110 7.59764 7.21510
#
# Compressibility (1/GPa) = 0.01585145
#
# Stress axis : x y z
#
# Youngs Moduli (GPa) = 111.43127 81.26681 76.52275
#
# Poissons Ratio (x) = 0.14139 0.10178
# Poissons Ratio (y) = 0.19388 0.47276
# Poissons Ratio (z) = 0.14821 0.50207
#
# Static dielectric constant tensor:
#      x y z
#    x 4.643850 -0.358160 0.369310 
#    y -0.358160 4.182070 -0.527100 
#    z 0.369310 -0.527100 4.638040 
# 
# 
# High freq. dielectric constant tensor:
#      x y z
#    x 1.876760 -0.021220 -0.007510 
#    y -0.021220 1.877460 -0.026120 
#    z -0.007510 -0.026120 1.888910 
# 
# From -- ./inp_files/80935.got.cif
#   From: 2010.06.25/outbox.cif.g09.slc.cpg/sg2_41_cif.got.tgz:80935.got - 2010.06.27 13:26:56.
