data_PCOD8014571
_publ_section_title
;
Structure prediction by ZEFSAII (Michael W. Deem and Ramdas Pophale) SiO2 
 PCOD8014571
Probable space group: P -1
;
_chemical_formula_sum "Si O2"
_cell_formula_units_Z 16
_cell_length_a 8.904261
_cell_length_b 13.893077
_cell_length_c 11.133842
_cell_angle_alpha 118.905807
_cell_angle_beta 41.053161
_cell_angle_gamma 133.217285
_cell_volume 657.654311
_symmetry_space_group_name_H-M "P -1"
_symmetry_group_IT_number 2
_symmetry_cell_setting 'triclinic'
loop_
_space_group_symop_operation_xyz
x,y,z
-x,-y,-z
loop_
_atom_site_type_symbol
_atom_site_label
_atom_site_fract_x
_atom_site_fract_y
_atom_site_fract_z
Si Si1 0.485616 0.754833 0.388024
Si Si2 0.572636 0.670632 0.518885
Si Si3 0.435855 0.543682 0.756705
Si Si4 0.910394 0.092800 0.560316
Si Si5 0.875110 0.670526 0.015630
Si Si6 0.934258 0.044173 0.250107
Si Si7 0.070261 0.307279 0.270172
Si Si8 0.354674 0.963785 0.938205
O O1 0.509839 0.757324 0.521601
O O2 0.611529 0.680088 0.205376
O O3 0.160962 0.682598 0.513937
O O4 0.642222 0.904582 0.335157
O O5 0.410220 0.633324 0.723938
O O6 0.475608 0.537616 0.425074
O O7 0.902164 0.762813 0.402083
O O8 0.159174 0.441782 0.938328
O O9 0.665450 0.632519 0.770042
O O10 0.978495 0.114757 0.393057
O O11 0.000000 0.000000 0.500000
O O12 0.588844 0.028768 0.735273
O O13 0.856607 0.621115 0.860608
O O14 0.163094 0.805395 0.951034
O O15 0.953173 0.152790 0.213305
O O16 0.178032 0.025680 0.062658
O O17 0.500000 0.000000 0.000000
#
# Coordination Sequence:
#
# PCOD8014571 Si02
#       8
#     2   2   2   2   2   2   2   2
#     4  10  22  41  67  94 133 167 214 275 331 377
#     4  10  21  41  68  98 127 168 217 277 321 379
#     4  10  22  43  66  91 135 171 224 269 314 383
#     4  12  20  38  72  96 127 163 211 270 333 384
#     4  10  24  42  65  93 134 175 217 268 321 387
#     4  11  23  38  62 102 130 167 213 265 328 391
#     4  12  24  41  67  94 131 180 221 258 322 396
#     4  11  22  39  67  98 133 164 207 274 335 378
#
# _framework density 24.328893000000001
#
# number of rings (size 3 to 8) (size 9 to 14) (size 15 to 20)
#    0.000    1.250    3.750    3.000    0.000    5.000 
#    0.000    0.625    5.500    0.000    0.000    0.000 
#    0.000    0.000    0.000    0.000    0.000    0.000 
#
# Total GULP energy -198316.002595 kJ/mol
# GULP energy per Si atom -12394.750162 kJ/mol
# Density = 2.427352 g / cm^3
# Si number density = 24.328893 Si / 1000 Ang^3
#
#
#
# Elastic Constant Matrix: (Units=GPa)
#
#
# Indices 1 2 3 4 5 6 
#
# 1 37.1234 3.5938 23.3546 -16.4492 19.2907 3.5495
# 2 3.5938 71.1326 40.3282 -23.7272 7.2267 3.1469
# 3 23.3546 40.3282 122.7635 -19.9810 1.1660 -1.0710
# 4 -16.4492 -23.7272 -19.9810 33.5804 -3.5373 8.9322
# 5 19.2907 7.2267 1.1660 -3.5373 39.3265 -5.6033
# 6 3.5495 3.1469 -1.0710 8.9322 -5.6033 32.0048
#
#
#
# Elastic Compliance Matrix: (Units=1/GPa)
#
#
# Indices 1 2 3 4 5 6 
#
# 1 0.097973 0.036053 -0.019306 0.067834 -0.054204 -0.043478
# 2 0.036053 0.035631 -0.012154 0.039232 -0.023619 -0.022993
# 3 -0.019306 -0.012154 0.014014 -0.010843 0.011575 0.008858
# 4 0.067834 0.039232 -0.010843 0.091985 -0.038171 -0.044099
# 5 -0.054204 -0.023619 0.011575 -0.038171 0.056757 0.029311
# 6 -0.043478 -0.022993 0.008858 -0.044099 0.029311 0.056064
#
#
# Mechanical properties :
#
#
# Convention : Reuss Voigt Hill
#
# Bulk Modulus (GPa) = 6.37745 40.61919 23.49832
# Shear Modulus (GPa) = 12.64205 31.89853 22.27029
#
# Velocity S-wave (km/s) = 2.28201 3.62489 3.02881
# Velocity P-wave (km/s) = 3.09362 5.85251 4.68094
#
# Compressibility (1/GPa) = 0.15680258
#
# Stress axis : x y z
#
# Youngs Moduli (GPa) = 10.20691 28.06556 71.35883
#
# Poissons Ratio (x) = -1.01184 1.37763
# Poissons Ratio (y) = -0.36799 0.86732
# Poissons Ratio (z) = 0.19705 0.34112
#
# Static dielectric constant tensor:
#      x y z
#    x 4.256240 -0.177410 0.264770 
#    y -0.177410 4.486210 -0.431390 
#    z 0.264770 -0.431390 4.530990 
# 
# 
# High freq. dielectric constant tensor:
#      x y z
#    x 1.961170 -0.000490 0.021680 
#    y -0.000490 1.966680 -0.023620 
#    z 0.021680 -0.023620 1.961250 
# 
# From -- ./inp_files/314740.got.cif
#   From: 2010.06.25/outbox.cif.g09.slc.cpg/sg2_158_cif.got.tgz:314740.got - 2010.06.27 13:26:56.
