data_PCOD8014612
_publ_section_title
;
Structure prediction by ZEFSAII (Michael W. Deem and Ramdas Pophale) SiO2 
 PCOD8014612
Probable space group: P -1
;
_chemical_formula_sum "Si O2"
_cell_formula_units_Z 10
_cell_length_a 9.726775
_cell_length_b 8.016351
_cell_length_c 9.594131
_cell_angle_alpha 120.570680
_cell_angle_beta 113.700293
_cell_angle_gamma 109.987709
_cell_volume 425.266178
_symmetry_space_group_name_H-M "P -1"
_symmetry_group_IT_number 2
_symmetry_cell_setting 'triclinic'
loop_
_space_group_symop_operation_xyz
x,y,z
-x,-y,-z
loop_
_atom_site_type_symbol
_atom_site_label
_atom_site_fract_x
_atom_site_fract_y
_atom_site_fract_z
Si Si1 0.588550 0.293073 0.657621
Si Si2 0.133067 0.495501 0.398751
Si Si3 0.294569 0.930501 0.846379
Si Si4 0.234448 0.288165 0.872237
Si Si5 0.767849 0.754175 0.462874
O O1 0.770312 0.478936 0.697115
O O2 0.396927 0.261659 0.528032
O O3 0.500000 0.000000 0.500000
O O4 0.688663 0.444475 0.910617
O O5 0.207147 0.776457 0.595280
O O6 0.212320 0.429415 0.527542
O O7 0.881751 0.262919 0.188313
O O8 0.331669 0.192979 0.957082
O O9 0.500000 0.000000 0.000000
O O10 0.314909 0.358108 0.775841
O O11 0.985008 0.062799 0.678786
#
# Coordination Sequence:
#
# PCOD8014612 Si02
#       5
#     2   2   2   2   2
#     4  12  25  40  61  95 135 171 212 262 316 374
#     4  10  23  40  64  99 126 162 215 261 318 383
#     4  10  21  41  69  93 125 166 211 265 320 380
#     4  10  23  43  66  93 125 171 217 259 320 382
#     4  10  22  43  67  91 128 168 212 266 318 381
#
# _framework density 23.514683999999999
#
# number of rings (size 3 to 8) (size 9 to 14) (size 15 to 20)
#    0.000    1.600    0.000    3.600    0.000    8.800 
#    0.000    0.000    0.000    0.000    0.000    0.000 
#    0.000    0.000    0.000    0.000    0.000    0.000 
#
# Total GULP energy -124041.139874 kJ/mol
# GULP energy per Si atom -12404.113987 kJ/mol
# Density = 2.346116 g / cm^3
# Si number density = 23.514684 Si / 1000 Ang^3
#
#
#
# Elastic Constant Matrix: (Units=GPa)
#
#
# Indices 1 2 3 4 5 6 
#
# 1 187.3380 55.5810 55.4786 -3.8397 6.3185 29.5465
# 2 55.5810 86.9727 59.9172 4.6899 -3.6710 13.8944
# 3 55.4786 59.9172 125.4446 15.3184 -16.0063 -2.3326
# 4 -3.8397 4.6899 15.3184 34.4105 -6.0850 -3.8528
# 5 6.3185 -3.6710 -16.0063 -6.0850 39.9582 0.5938
# 6 29.5465 13.8944 -2.3326 -3.8528 0.5938 41.7281
#
#
#
# Elastic Compliance Matrix: (Units=1/GPa)
#
#
# Indices 1 2 3 4 5 6 
#
# 1 0.007738 -0.002436 -0.002822 0.001529 -0.002276 -0.004652
# 2 -0.002436 0.019804 -0.008638 0.000072 -0.001166 -0.005329
# 3 -0.002822 -0.008638 0.014564 -0.004191 0.004771 0.005234
# 4 0.001529 0.000072 -0.004191 0.031774 0.002902 0.001552
# 5 -0.002276 -0.001166 0.004771 0.002902 0.027600 0.002142
# 6 -0.004652 -0.005329 0.005234 0.001552 0.002142 0.029439
#
#
# Mechanical properties :
#
#
# Convention : Reuss Voigt Hill
#
# Bulk Modulus (GPa) = 69.86933 82.41210 76.14072
# Shear Modulus (GPa) = 30.58405 38.47126 34.52766
#
# Velocity S-wave (km/s) = 3.61035 4.04920 3.83606
# Velocity P-wave (km/s) = 6.86710 7.54881 7.21601
#
# Compressibility (1/GPa) = 0.01431243
#
# Stress axis : x y z
#
# Youngs Moduli (GPa) = 129.22548 50.49446 68.66404
#
# Poissons Ratio (x) = 0.12302 0.19379
# Poissons Ratio (y) = 0.31482 0.59314
# Poissons Ratio (z) = 0.36471 0.43619
#
# Static dielectric constant tensor:
#      x y z
#    x 4.620160 0.247570 0.085130 
#    y 0.247570 4.160220 0.244800 
#    z 0.085130 0.244800 4.116960 
# 
# 
# High freq. dielectric constant tensor:
#      x y z
#    x 1.954220 0.009980 0.010870 
#    y 0.009980 1.923710 0.024260 
#    z 0.010870 0.024260 1.925110 
# 
# From -- ./inp_files/144209.got.cif
#   From: 2010.06.25/outbox.cif.g09.slc.cpg/sg2_73_cif.got.tgz:144209.got - 2010.06.27 13:26:56.
