data_PCOD8014131
_publ_section_title
;
Structure prediction by ZEFSAII (Michael W. Deem and Ramdas Pophale) SiO2 
 PCOD8014131
Probable space group: P -1
;
_chemical_formula_sum "Si O2"
_cell_formula_units_Z 16
_cell_length_a 13.038689
_cell_length_b 13.804701
_cell_length_c 20.455822
_cell_angle_alpha 22.632036
_cell_angle_beta 145.519341
_cell_angle_gamma 148.214580
_cell_volume 731.825140
_symmetry_space_group_name_H-M "P -1"
_symmetry_group_IT_number 2
_symmetry_cell_setting 'triclinic'
loop_
_space_group_symop_operation_xyz
x,y,z
-x,-y,-z
loop_
_atom_site_type_symbol
_atom_site_label
_atom_site_fract_x
_atom_site_fract_y
_atom_site_fract_z
Si Si1 0.538277 0.397977 0.909903
Si Si2 0.370729 0.201341 0.399143
Si Si3 0.294274 0.846106 0.311233
Si Si4 0.224062 0.358881 0.995613
Si Si5 0.320872 0.581725 0.366348
Si Si6 0.194303 0.896526 0.003996
Si Si7 0.946620 0.378421 0.366663
Si Si8 0.776286 0.357555 0.949834
O O1 0.585919 0.701714 0.714715
O O2 0.604792 0.426429 0.002279
O O3 0.647368 0.241285 0.020839
O O4 0.304924 0.202531 0.901796
O O5 0.576768 0.224749 0.522877
O O6 0.199328 0.893952 0.503768
O O7 0.293615 0.414261 0.261374
O O8 0.386723 0.835342 0.295039
O O9 0.063167 0.617627 0.332599
O O10 0.305718 0.149421 0.138228
O O11 0.179737 0.521141 0.811911
O O12 0.037511 0.197132 0.045381
O O13 0.500000 0.500000 0.500000
O O14 0.268083 0.680772 0.209198
O O15 0.120315 0.331946 0.445278
O O16 0.242337 0.886787 0.958103
O O17 0.000000 0.500000 0.000000
#
# Coordination Sequence:
#
# PCOD8014131 Si02
#       8
#     2   2   2   2   2   2   2   2
#     4  10  25  40  65  94 129 171 215 263 322 379
#     4  10  23  42  63  96 130 166 216 262 330 375
#     4  10  23  41  67  93 131 170 212 269 323 381
#     4  11  23  43  64  97 125 172 224 259 320 389
#     4   9  21  40  64  95 123 162 209 262 324 373
#     4  11  21  41  64  93 126 169 218 263 315 384
#     4   9  23  40  68  93 130 169 209 273 323 375
#     4  10  21  41  65  90 131 168 213 263 318 383
#
# _framework density 21.863147000000001
#
# number of rings (size 3 to 8) (size 9 to 14) (size 15 to 20)
#    1.500    0.500    1.250    1.500    1.750    5.000 
#    0.000    3.125    0.000    0.000    0.000    0.000 
#    0.000    0.000    0.000    0.000    0.000    0.000 
#
# Total GULP energy -198218.126013 kJ/mol
# GULP energy per Si atom -12388.632876 kJ/mol
# Density = 2.181339 g / cm^3
# Si number density = 21.863147 Si / 1000 Ang^3
#
#
#
# Elastic Constant Matrix: (Units=GPa)
#
#
# Indices 1 2 3 4 5 6 
#
# 1 43.7555 16.3886 17.1139 -3.3395 16.4034 -8.6644
# 2 16.3886 135.3777 34.9047 -1.9832 -2.1772 -10.2556
# 3 17.1139 34.9047 83.6538 11.0715 14.1468 2.0862
# 4 -3.3395 -1.9832 11.0715 38.3526 3.3482 -5.6059
# 5 16.4034 -2.1772 14.1468 3.3482 33.1361 -9.7313
# 6 -8.6644 -10.2556 2.0862 -5.6059 -9.7313 20.6934
#
#
#
# Elastic Compliance Matrix: (Units=1/GPa)
#
#
# Indices 1 2 3 4 5 6 
#
# 1 0.032326 -0.002099 -0.004771 0.006461 -0.012103 0.009035
# 2 -0.002099 0.009696 -0.005142 0.002439 0.005945 0.007902
# 3 -0.004771 -0.005142 0.017704 -0.006832 -0.008408 -0.012136
# 4 0.006461 0.002439 -0.006832 0.030607 0.000665 0.013207
# 5 -0.012103 0.005945 -0.008408 0.000665 0.046133 0.020601
# 6 0.009035 0.007902 -0.012136 0.013207 0.020601 0.070513
#
#
# Mechanical properties :
#
#
# Convention : Reuss Voigt Hill
#
# Bulk Modulus (GPa) = 28.00870 44.40015 36.20442
# Shear Modulus (GPa) = 20.58427 31.39507 25.98967
#
# Velocity S-wave (km/s) = 3.07172 3.79355 3.45156
# Velocity P-wave (km/s) = 5.04176 6.28811 5.69911
#
# Compressibility (1/GPa) = 0.03570320
#
# Stress axis : x y z
#
# Youngs Moduli (GPa) = 30.93505 103.13042 56.48354
#
# Poissons Ratio (x) = 0.21644 0.26949
# Poissons Ratio (y) = 0.06492 0.29043
# Poissons Ratio (z) = 0.14760 0.53027
#
# Static dielectric constant tensor:
#      x y z
#    x 3.878380 0.045150 0.038780 
#    y 0.045150 4.051330 0.075080 
#    z 0.038780 0.075080 3.705300 
# 
# 
# High freq. dielectric constant tensor:
#      x y z
#    x 1.849160 0.004340 0.001880 
#    y 0.004340 1.868570 0.015230 
#    z 0.001880 0.015230 1.837580 
# 
# From -- ./inp_files/612088.got.cif
#   From: 2010.06.25/outbox.cif.g09.slc.cpg/sg2_307_cif.got.tgz:612088.got - 2010.06.27 13:26:56.
