data_PCOD8014144
_publ_section_title
;
Structure prediction by ZEFSAII (Michael W. Deem and Ramdas Pophale) SiO2 
 PCOD8014144
Probable space group: P -1
;
_chemical_formula_sum "Si O2"
_cell_formula_units_Z 16
_cell_length_a 8.897476
_cell_length_b 13.536766
_cell_length_c 15.034272
_cell_angle_alpha 51.144236
_cell_angle_beta 143.879694
_cell_angle_gamma 110.849984
_cell_volume 785.066626
_symmetry_space_group_name_H-M "P -1"
_symmetry_group_IT_number 2
_symmetry_cell_setting 'triclinic'
loop_
_space_group_symop_operation_xyz
x,y,z
-x,-y,-z
loop_
_atom_site_type_symbol
_atom_site_label
_atom_site_fract_x
_atom_site_fract_y
_atom_site_fract_z
Si Si1 0.600960 0.568213 0.245430
Si Si2 0.505950 0.037466 0.618349
Si Si3 0.177947 0.271220 0.442309
Si Si4 0.323428 0.849054 0.529401
Si Si5 0.677106 0.484160 0.682625
Si Si6 0.233151 0.252938 0.069685
Si Si7 0.068196 0.309372 0.561810
Si Si8 0.414330 0.638450 0.933158
O O1 0.494269 0.510385 0.313094
O O2 0.718547 0.687386 0.261632
O O3 0.380461 0.625933 0.030513
O O4 0.828553 0.449906 0.371186
O O5 0.376120 0.125700 0.591446
O O6 0.613905 0.131424 0.553965
O O7 0.283213 0.988449 0.485704
O O8 0.749834 0.903812 0.841425
O O9 0.210645 0.390979 0.329453
O O10 0.234777 0.297392 0.556748
O O11 0.874173 0.267669 0.292815
O O12 0.578432 0.733465 0.763236
O O13 0.048533 0.813314 0.416942
O O14 0.500000 0.500000 0.500000
O O15 0.924260 0.344549 0.880447
O O16 0.360560 0.292001 0.019222
O O17 0.500000 0.500000 0.000000
#
# Coordination Sequence:
#
# PCOD8014144 Si02
#       8
#     2   2   2   2   2   2   2   2
#     4  11  25  38  61  97 134 173 207 272 331 384
#     4   9  22  39  67 100 128 168 219 267 325 376
#     4  12  22  40  69  97 129 168 220 271 320 388
#     4   9  19  41  67  93 129 170 216 263 325 382
#     4  12  25  41  66  95 132 170 219 268 326 387
#     4  10  21  41  65  91 131 166 212 268 316 383
#     4  11  21  40  63  91 135 170 214 265 332 380
#     4  12  22  39  63  98 130 165 216 268 319 381
#
# _framework density 20.380436
#
# number of rings (size 3 to 8) (size 9 to 14) (size 15 to 20)
#    0.750    0.500    5.000    0.750    3.500    2.500 
#    0.000    0.625    0.000    2.250    0.000    0.000 
#    0.000    0.000    0.000    0.000    0.000    0.000 
#
# Total GULP energy -198314.735493 kJ/mol
# GULP energy per Si atom -12394.670968 kJ/mol
# Density = 2.033405 g / cm^3
# Si number density = 20.380436 Si / 1000 Ang^3
#
#
#
# Elastic Constant Matrix: (Units=GPa)
#
#
# Indices 1 2 3 4 5 6 
#
# 1 116.0557 53.6053 34.1862 -4.9358 -13.6026 -10.1656
# 2 53.6053 90.4738 31.8515 -6.9112 0.3427 -4.2492
# 3 34.1862 31.8515 80.7036 -6.3347 -2.2663 -11.7516
# 4 -4.9358 -6.9112 -6.3347 29.7984 -6.6012 2.3568
# 5 -13.6026 0.3427 -2.2663 -6.6012 35.1626 -3.6999
# 6 -10.1656 -4.2492 -11.7516 2.3568 -3.6999 38.9637
#
#
#
# Elastic Compliance Matrix: (Units=1/GPa)
#
#
# Indices 1 2 3 4 5 6 
#
# 1 0.013443 -0.006958 -0.002335 0.001159 0.005599 0.002506
# 2 -0.006958 0.016550 -0.003785 0.001335 -0.003006 -0.001518
# 3 -0.002335 -0.003785 0.015583 0.001957 0.000889 0.003644
# 4 0.001159 0.001335 0.001957 0.036129 0.007296 -0.000454
# 5 0.005599 -0.003006 0.000889 0.007296 0.032487 0.004044
# 6 0.002506 -0.001518 0.003644 -0.000454 0.004044 0.027664
#
#
# Mechanical properties :
#
#
# Convention : Reuss Voigt Hill
#
# Bulk Modulus (GPa) = 51.49402 58.50211 54.99806
# Shear Modulus (GPa) = 28.65549 31.95761 30.30655
#
# Velocity S-wave (km/s) = 3.75377 3.96416 3.86040
# Velocity P-wave (km/s) = 6.64146 7.05125 6.84942
#
# Compressibility (1/GPa) = 0.01941973
#
# Stress axis : x y z
#
# Youngs Moduli (GPa) = 74.38635 60.42252 64.17098
#
# Poissons Ratio (x) = 0.42041 0.14987
# Poissons Ratio (y) = 0.51757 0.24290
# Poissons Ratio (z) = 0.17373 0.22871
#
# Static dielectric constant tensor:
#      x y z
#    x 3.851840 0.114910 -0.140710 
#    y 0.114910 3.675780 0.047930 
#    z -0.140710 0.047930 3.475130 
# 
# 
# High freq. dielectric constant tensor:
#      x y z
#    x 1.803210 0.004950 -0.013260 
#    y 0.004950 1.791510 0.002100 
#    z -0.013260 0.002100 1.766570 
# 
# From -- ./inp_files/504027.got.cif
#   From: 2010.06.25/outbox.cif.g09.slc.cpg/sg2_253_cif.got.tgz:504027.got - 2010.06.27 13:26:56.
