data_PCOD8014971
_publ_section_title
;
Structure prediction by ZEFSAII (Michael W. Deem and Ramdas Pophale) SiO2 
 PCOD8014971
Probable space group: P -1
;
_chemical_formula_sum "Si O2"
_cell_formula_units_Z 16
_cell_length_a 8.983370
_cell_length_b 6.819515
_cell_length_c 20.386108
_cell_angle_alpha 55.157880
_cell_angle_beta 77.267107
_cell_angle_gamma 51.118726
_cell_volume 779.020501
_symmetry_space_group_name_H-M "P -1"
_symmetry_group_IT_number 2
_symmetry_cell_setting 'triclinic'
loop_
_space_group_symop_operation_xyz
x,y,z
-x,-y,-z
loop_
_atom_site_type_symbol
_atom_site_label
_atom_site_fract_x
_atom_site_fract_y
_atom_site_fract_z
Si Si1 0.350321 0.337748 0.331834
Si Si2 0.124963 0.703457 0.406622
Si Si3 0.327368 0.615279 0.148753
Si Si4 0.637402 0.409005 0.065650
Si Si5 0.220691 0.307802 0.594342
Si Si6 0.801599 0.748929 0.007044
Si Si7 0.051828 0.260224 0.865273
Si Si8 0.999237 0.358005 0.322484
O O1 0.300759 0.509718 0.373385
O O2 0.326307 0.566171 0.235586
O O3 0.198247 0.273936 0.347336
O O4 0.566182 0.017909 0.368666
O O5 0.209963 0.531576 0.500250
O O6 0.936909 0.739781 0.396137
O O7 0.050221 0.043868 0.355194
O O8 0.541433 0.361595 0.145620
O O9 0.175548 0.586501 0.131792
O O10 0.286257 0.931537 0.078540
O O11 0.650750 0.678834 0.025759
O O12 0.851029 0.088236 0.096862
O O13 0.500000 0.500000 0.000000
O O14 0.173307 0.467887 0.639510
O O15 0.845246 0.736411 0.081798
O O16 0.000000 0.500000 0.000000
O O17 0.081448 0.423414 0.774312
#
# Coordination Sequence:
#
# PCOD8014971 Si02
#       8
#     2   2   2   2   2   2   2   2
#     4  10  23  40  61  92 127 158 203 260 304 363
#     4  10  22  40  65  93 123 164 204 248 308 375
#     4  11  23  42  60  89 124 160 207 256 304 362
#     4  12  24  42  62  87 120 161 211 256 301 361
#     4  10  21  42  64  91 128 160 202 254 307 366
#     4  12  24  40  65  87 119 169 205 250 310 359
#     4  11  24  42  60  87 126 160 205 258 303 360
#     4  10  23  39  62  93 123 162 204 253 309 365
#
# _framework density 20.538613000000002
#
# number of rings (size 3 to 8) (size 9 to 14) (size 15 to 20)
#    0.000    1.250    2.500    3.000    1.750    3.500 
#    0.000    0.000    0.000    0.000    0.000    0.000 
#    0.000    0.000    0.000    0.000    0.000    0.000 
#
# Total GULP energy -198429.199804 kJ/mol
# GULP energy per Si atom -12401.824988 kJ/mol
# Density = 2.049187 g / cm^3
# Si number density = 20.538613 Si / 1000 Ang^3
#
#
#
# Elastic Constant Matrix: (Units=GPa)
#
#
# Indices 1 2 3 4 5 6 
#
# 1 65.4810 28.8348 30.0811 -0.4625 -6.3396 -3.0509
# 2 28.8348 126.0217 43.8664 0.1430 -4.2072 -5.0226
# 3 30.0811 43.8664 121.4623 -3.5685 -5.3974 6.5065
# 4 -0.4625 0.1430 -3.5685 29.8126 -10.3580 -8.0223
# 5 -6.3396 -4.2072 -5.3974 -10.3580 25.7346 -5.9922
# 6 -3.0509 -5.0226 6.5065 -8.0223 -5.9922 38.4541
#
#
#
# Elastic Compliance Matrix: (Units=1/GPa)
#
#
# Indices 1 2 3 4 5 6 
#
# 1 0.018764 -0.002784 -0.003503 0.002489 0.005142 0.003038
# 2 -0.002784 0.009658 -0.002844 0.000318 0.000824 0.001717
# 3 -0.003503 -0.002844 0.010296 0.000866 0.000690 -0.002103
# 4 0.002489 0.000318 0.000866 0.044720 0.021832 0.012824
# 5 0.005142 0.000824 0.000690 0.021832 0.052241 0.013094
# 6 0.003038 0.001717 -0.002103 0.012824 0.013094 0.031542
#
#
# Mechanical properties :
#
#
# Convention : Reuss Voigt Hill
#
# Bulk Modulus (GPa) = 48.88616 57.61440 53.25028
# Shear Modulus (GPa) = 26.00082 32.81243 29.40662
#
# Velocity S-wave (km/s) = 3.56188 4.00133 3.78798
# Velocity P-wave (km/s) = 6.38512 7.03279 6.71677
#
# Compressibility (1/GPa) = 0.02045569
#
# Stress axis : x y z
#
# Youngs Moduli (GPa) = 53.29459 103.54266 97.12041
#
# Poissons Ratio (x) = 0.28828 0.34017
# Poissons Ratio (y) = 0.14838 0.27625
# Poissons Ratio (z) = 0.18667 0.29452
#
# Static dielectric constant tensor:
#      x y z
#    x 3.709380 -0.100120 -0.051960 
#    y -0.100120 4.132790 0.157660 
#    z -0.051960 0.157660 3.912070 
# 
# 
# High freq. dielectric constant tensor:
#      x y z
#    x 1.802340 -0.012230 -0.005510 
#    y -0.012230 1.815200 0.005440 
#    z -0.005510 0.005440 1.813080 
# 
# From -- ./inp_files/117307.got.cif
#   From: 2010.06.25/outbox.cif.g09.slc.cpg/sg2_59_cif.got.tgz:117307.got - 2010.06.27 13:26:56.
