data_PCOD8014032
_publ_section_title
;
Structure prediction by ZEFSAII (Michael W. Deem and Ramdas Pophale) SiO2 
 PCOD8014032
Probable space group: P -1
;
_chemical_formula_sum "Si O2"
_cell_formula_units_Z 16
_cell_length_a 6.287213
_cell_length_b 15.393381
_cell_length_c 11.876808
_cell_angle_alpha 135.932152
_cell_angle_beta 77.972269
_cell_angle_gamma 117.350411
_cell_volume 696.167373
_symmetry_space_group_name_H-M "P -1"
_symmetry_group_IT_number 2
_symmetry_cell_setting 'triclinic'
loop_
_space_group_symop_operation_xyz
x,y,z
-x,-y,-z
loop_
_atom_site_type_symbol
_atom_site_label
_atom_site_fract_x
_atom_site_fract_y
_atom_site_fract_z
Si Si1 0.798697 0.300377 0.224698
Si Si2 0.659125 0.880939 0.016176
Si Si3 0.226312 0.509664 0.237736
Si Si4 0.527359 0.615109 0.514565
Si Si5 0.235739 0.246802 0.898975
Si Si6 0.177879 0.945696 0.377689
Si Si7 0.027018 0.169132 0.236260
Si Si8 0.599582 0.211561 0.651013
O O1 0.626057 0.184260 0.044805
O O2 0.650381 0.323206 0.363739
O O3 0.980115 0.251393 0.216516
O O4 0.967783 0.441688 0.268767
O O5 0.796189 0.887889 0.890970
O O6 0.695113 0.785665 0.016913
O O7 0.776269 0.043542 0.196690
O O8 0.452077 0.556143 0.343050
O O9 0.239240 0.645743 0.300346
O O10 0.249583 0.401092 0.046257
O O11 0.500000 0.500000 0.500000
O O12 0.814181 0.729528 0.585570
O O13 0.423039 0.240879 0.782151
O O14 0.954216 0.134859 0.797144
O O15 0.217245 0.833021 0.345434
O O16 0.438571 0.084520 0.463126
O O17 0.000000 0.000000 0.500000
#
# Coordination Sequence:
#
# PCOD8014032 Si02
#       8
#     2   2   2   2   2   2   2   2
#     4  11  22  43  61  96 136 172 220 277 325 398
#     4  10  22  39  66  95 130 174 218 274 331 387
#     4  12  24  42  68 102 137 181 219 275 339 393
#     4  11  23  43  62  93 139 174 223 272 326 396
#     4  11  23  44  67  99 137 173 222 280 329 393
#     4   9  22  49  68  90 133 167 223 285 326 392
#     4  10  21  41  64  93 130 177 223 269 327 392
#     4  10  24  46  70  99 130 175 226 272 337 404
#
# _framework density 22.982980000000001
#
# number of rings (size 3 to 8) (size 9 to 14) (size 15 to 20)
#    0.000    1.500    2.500    1.875    3.500    0.500 
#   15.750    0.000    0.000    0.000    0.000    0.000 
#    0.000    0.000    0.000    0.000    0.000    0.000 
#
# Total GULP energy -198307.431113 kJ/mol
# GULP energy per Si atom -12394.214445 kJ/mol
# Density = 2.293067 g / cm^3
# Si number density = 22.982980 Si / 1000 Ang^3
#
#
#
# Elastic Constant Matrix: (Units=GPa)
#
#
# Indices 1 2 3 4 5 6 
#
# 1 96.8514 24.5056 54.1178 9.6616 20.2324 -5.7039
# 2 24.5056 102.2712 33.5797 31.4069 2.0967 -2.4684
# 3 54.1178 33.5797 131.0754 22.2492 30.4580 2.2978
# 4 9.6616 31.4069 22.2492 35.0170 2.9539 2.9673
# 5 20.2324 2.0967 30.4580 2.9539 44.6102 10.8275
# 6 -5.7039 -2.4684 2.2978 2.9673 10.8275 25.7259
#
#
#
# Elastic Compliance Matrix: (Units=1/GPa)
#
#
# Indices 1 2 3 4 5 6 
#
# 1 0.014664 -0.001940 -0.004652 0.000592 -0.004734 0.005405
# 2 -0.001940 0.014268 -0.001207 -0.011765 0.001369 0.001827
# 3 -0.004652 -0.001207 0.012050 -0.004860 -0.005942 0.000838
# 4 0.000592 -0.011765 -0.004860 0.042381 0.002361 -0.006446
# 5 -0.004734 0.001369 -0.005942 0.002361 0.031809 -0.014048
# 6 0.005405 0.001827 0.000838 -0.006446 -0.014048 0.046826
#
#
# Mechanical properties :
#
#
# Convention : Reuss Voigt Hill
#
# Bulk Modulus (GPa) = 39.39740 61.62270 50.51005
# Shear Modulus (GPa) = 26.87296 35.60363 31.23830
#
# Velocity S-wave (km/s) = 3.42315 3.94017 3.69072
# Velocity P-wave (km/s) = 5.72740 6.89713 6.33930
#
# Compressibility (1/GPa) = 0.02538238
#
# Stress axis : x y z
#
# Youngs Moduli (GPa) = 68.19473 70.08530 82.98454
#
# Poissons Ratio (x) = 0.13599 0.38608
# Poissons Ratio (y) = 0.13232 0.10019
# Poissons Ratio (z) = 0.31727 0.08462
#
# Static dielectric constant tensor:
#      x y z
#    x 3.926110 -0.084570 0.706490 
#    y -0.084570 3.807910 0.594900 
#    z 0.706490 0.594900 4.257130 
# 
# 
# High freq. dielectric constant tensor:
#      x y z
#    x 1.912980 -0.004490 0.015090 
#    y -0.004490 1.886790 0.022270 
#    z 0.015090 0.022270 1.917840 
# 
# From -- ./inp_files/368076.got.cif
#   From: 2010.06.25/outbox.cif.g09.slc.cpg/sg2_185_cif.got.tgz:368076.got - 2010.06.27 13:26:56.
