data_PCOD8014042
_publ_section_title
;
Structure prediction by ZEFSAII (Michael W. Deem and Ramdas Pophale) SiO2 
 PCOD8014042
Probable space group: P -1
;
_chemical_formula_sum "Si O2"
_cell_formula_units_Z 14
_cell_length_a 19.062568
_cell_length_b 22.129135
_cell_length_c 9.016579
_cell_angle_alpha 34.383580
_cell_angle_beta 34.104451
_cell_angle_gamma 17.881099
_cell_volume 639.300397
_symmetry_space_group_name_H-M "P -1"
_symmetry_group_IT_number 2
_symmetry_cell_setting 'triclinic'
loop_
_space_group_symop_operation_xyz
x,y,z
-x,-y,-z
loop_
_atom_site_type_symbol
_atom_site_label
_atom_site_fract_x
_atom_site_fract_y
_atom_site_fract_z
Si Si1 0.153935 0.996386 0.962479
Si Si2 0.584558 0.668674 0.671275
Si Si3 0.324195 0.702338 0.486474
Si Si4 0.220028 0.292886 0.947519
Si Si5 0.725466 0.935873 0.884414
Si Si6 0.310625 0.791868 0.646795
Si Si7 0.980705 0.260296 0.960505
O O1 0.276384 0.839160 0.194671
O O2 0.330356 0.885546 0.742630
O O3 0.908918 0.119774 0.090370
O O4 0.106531 0.148401 0.808475
O O5 0.714822 0.678759 0.362585
O O6 0.524535 0.629555 0.720980
O O7 0.745611 0.499692 0.858928
O O8 0.500000 0.500000 0.500000
O O9 0.418559 0.672712 0.542553
O O10 0.086070 0.808155 0.717832
O O11 0.443497 0.122044 0.012940
O O12 0.163066 0.217462 0.131894
O O13 0.000000 0.500000 0.000000
O O14 0.844954 0.810910 0.082781
O O15 0.778225 0.021101 0.584957
#
# Coordination Sequence:
#
# PCOD8014042 Si02
#       7
#     2   2   2   2   2   2   2
#     4  11  21  40  62  97 133 165 209 253 311 386
#     4  11  25  40  61  99 128 162 212 269 312 364
#     4  11  20  37  65  96 132 174 209 242 312 394
#     4  10  25  46  66  91 123 166 221 262 317 374
#     4  10  21  43  70  89 121 173 212 254 314 380
#     4  10  21  41  64  94 132 171 208 251 316 379
#     4  11  22  38  65  95 132 164 205 258 319 372
#
# _framework density 21.898937
#
# number of rings (size 3 to 8) (size 9 to 14) (size 15 to 20)
#    0.000    1.429    4.286    1.286    0.000    9.714 
#    2.571    1.429    0.000    0.000    0.000    0.000 
#    0.000    0.000    0.000    0.000    0.000    0.000 
#
# Total GULP energy -173564.831196 kJ/mol
# GULP energy per Si atom -12397.487943 kJ/mol
# Density = 2.184909 g / cm^3
# Si number density = 21.898937 Si / 1000 Ang^3
#
#
#
# Elastic Constant Matrix: (Units=GPa)
#
#
# Indices 1 2 3 4 5 6 
#
# 1 154.0926 67.3343 24.1952 -3.2132 -1.0827 -5.1155
# 2 67.3343 124.4761 21.6570 3.0528 0.1324 14.3105
# 3 24.1952 21.6570 62.1965 11.1244 1.5815 3.2516
# 4 -3.2132 3.0528 11.1244 26.3258 2.0735 12.6676
# 5 -1.0827 0.1324 1.5815 2.0735 25.4465 -8.3640
# 6 -5.1155 14.3105 3.2516 12.6676 -8.3640 49.3914
#
#
#
# Elastic Compliance Matrix: (Units=1/GPa)
#
#
# Indices 1 2 3 4 5 6 
#
# 1 0.009061 -0.004813 -0.002252 0.001402 0.001200 0.002325
# 2 -0.004813 0.011457 -0.002055 0.001123 -0.001624 -0.004246
# 3 -0.002252 -0.002055 0.019171 -0.008766 -0.000126 0.001327
# 4 0.001402 0.001123 -0.008766 0.048814 -0.007797 -0.013443
# 5 0.001200 -0.001624 -0.000126 -0.007797 0.043264 0.009929
# 6 0.002325 -0.004246 0.001327 -0.013443 0.009929 0.026759
#
#
# Mechanical properties :
#
#
# Convention : Reuss Voigt Hill
#
# Bulk Modulus (GPa) = 46.61900 63.01536 54.81718
# Shear Modulus (GPa) = 27.18642 35.40466 31.29554
#
# Velocity S-wave (km/s) = 3.52724 4.02522 3.78443
# Velocity P-wave (km/s) = 6.15817 7.10220 6.64696
#
# Compressibility (1/GPa) = 0.02145048
#
# Stress axis : x y z
#
# Youngs Moduli (GPa) = 110.36265 87.28440 52.16106
#
# Poissons Ratio (x) = 0.42007 0.11747
# Poissons Ratio (y) = 0.53113 0.10718
# Poissons Ratio (z) = 0.24854 0.17935
#
# Static dielectric constant tensor:
#      x y z
#    x 4.326710 0.212090 0.053940 
#    y 0.212090 4.258610 -0.017250 
#    z 0.053940 -0.017250 3.695750 
# 
# 
# High freq. dielectric constant tensor:
#      x y z
#    x 1.871590 0.004510 0.004410 
#    y 0.004510 1.859610 -0.008620 
#    z 0.004410 -0.008620 1.836550 
# 
# From -- ./inp_files/199960.got.cif
#   From: 2010.06.25/outbox.cif.g09.slc.cpg/sg2_100_cif.got.tgz:199960.got - 2010.06.27 13:26:56.
