data_PCOD8014400
_publ_section_title
;
Structure prediction by ZEFSAII (Michael W. Deem and Ramdas Pophale) SiO2 
 PCOD8014400
Probable space group: P -1
;
_chemical_formula_sum "Si O2"
_cell_formula_units_Z 16
_cell_length_a 18.934962
_cell_length_b 19.886183
_cell_length_c 8.578528
_cell_angle_alpha 41.731378
_cell_angle_beta 51.482259
_cell_angle_gamma 21.750288
_cell_volume 763.632011
_symmetry_space_group_name_H-M "P -1"
_symmetry_group_IT_number 2
_symmetry_cell_setting 'triclinic'
loop_
_space_group_symop_operation_xyz
x,y,z
-x,-y,-z
loop_
_atom_site_type_symbol
_atom_site_label
_atom_site_fract_x
_atom_site_fract_y
_atom_site_fract_z
Si Si1 0.028254 0.885173 0.783048
Si Si2 0.654565 0.576592 0.008546
Si Si3 0.380168 0.201511 0.718004
Si Si4 0.973266 0.603330 0.716020
Si Si5 0.707541 0.750270 0.594724
Si Si6 0.337855 0.919432 0.592646
Si Si7 0.677913 0.265230 0.238672
Si Si8 0.411977 0.689777 0.360526
O O1 0.146779 0.825933 0.858045
O O2 0.159552 0.666591 0.902566
O O3 0.000000 0.000000 0.500000
O O4 0.810708 0.063071 0.829834
O O5 0.730842 0.613666 0.863237
O O6 0.462210 0.760851 0.844798
O O7 0.572757 0.614928 0.219455
O O8 0.297110 0.238867 0.604919
O O9 0.517944 0.161316 0.578619
O O10 0.190070 0.429087 0.680264
O O11 0.500000 0.000000 0.000000
O O12 0.882501 0.640228 0.623152
O O13 0.845950 0.827206 0.548381
O O14 0.000000 0.500000 0.000000
O O15 0.500000 0.000000 0.500000
O O16 0.253840 0.903887 0.651226
O O17 0.608933 0.299130 0.445614
O O18 0.500000 0.500000 0.000000
O O19 0.500000 0.500000 0.500000
#
# Coordination Sequence:
#
# PCOD8014400 Si02
#       8
#     2   2   2   2   2   2   2   2
#     4  10  21  41  67  91 131 165 212 267 322 382
#     4  11  22  43  69  92 133 167 220 272 323 394
#     4  11  23  45  69  96 138 174 220 277 334 397
#     4  12  24  45  68  96 138 174 224 280 329 398
#     4  11  23  44  69  98 134 177 219 277 337 392
#     4  11  24  45  64  97 134 172 216 275 331 389
#     4  11  22  43  67  93 136 171 211 273 329 386
#     4  11  22  42  68  95 129 172 218 268 325 393
#
# _framework density 20.952501000000002
#
# number of rings (size 3 to 8) (size 9 to 14) (size 15 to 20)
#    0.000    1.000    7.500    0.375    0.000    6.000 
#    4.500    1.250    0.000    0.000    0.000    0.000 
#    0.000    0.000    0.000    0.000    0.000    0.000 
#
# Total GULP energy -198311.237977 kJ/mol
# GULP energy per Si atom -12394.452374 kJ/mol
# Density = 2.090481 g / cm^3
# Si number density = 20.952501 Si / 1000 Ang^3
#
#
#
# Elastic Constant Matrix: (Units=GPa)
#
#
# Indices 1 2 3 4 5 6 
#
# 1 108.9041 39.7402 34.2781 -15.0982 -14.0636 5.4548
# 2 39.7402 162.7823 45.0731 -25.8813 -15.6890 -2.5195
# 3 34.2781 45.0731 104.9684 -17.1729 -6.0057 6.9984
# 4 -15.0982 -25.8813 -17.1729 45.2895 5.7733 -3.1057
# 5 -14.0636 -15.6890 -6.0057 5.7733 38.8810 -6.6299
# 6 5.4548 -2.5195 6.9984 -3.1057 -6.6299 32.8351
#
#
#
# Elastic Compliance Matrix: (Units=1/GPa)
#
#
# Indices 1 2 3 4 5 6 
#
# 1 0.011126 -0.001535 -0.002529 0.001482 0.002667 -0.000748
# 2 -0.001535 0.007900 -0.002424 0.002950 0.002178 0.002097
# 3 -0.002529 -0.002424 0.011861 0.002214 -0.000772 -0.002240
# 4 0.001482 0.002950 0.002214 0.025392 -0.001425 0.001622
# 5 0.002667 0.002178 -0.000772 -0.001425 0.028598 0.005528
# 6 -0.000748 0.002097 -0.002240 0.001622 0.005528 0.032488
#
#
# Mechanical properties :
#
#
# Convention : Reuss Voigt Hill
#
# Bulk Modulus (GPa) = 55.83061 68.31529 62.07295
# Shear Modulus (GPa) = 36.68080 40.57201 38.62640
#
# Velocity S-wave (km/s) = 4.18863 4.40521 4.29828
# Velocity P-wave (km/s) = 7.07792 7.65180 7.37045
#
# Compressibility (1/GPa) = 0.01791132
#
# Stress axis : x y z
#
# Youngs Moduli (GPa) = 89.88088 126.57596 84.31157
#
# Poissons Ratio (x) = 0.19427 0.21325
# Poissons Ratio (y) = 0.13795 0.20435
# Poissons Ratio (z) = 0.22734 0.30678
#
# Static dielectric constant tensor:
#      x y z
#    x 3.973560 -0.986050 0.072000 
#    y -0.986050 6.113130 -0.586940 
#    z 0.072000 -0.586940 4.035340 
# 
# 
# High freq. dielectric constant tensor:
#      x y z
#    x 1.814730 -0.001930 -0.000890 
#    y -0.001930 1.829980 -0.012600 
#    z -0.000890 -0.012600 1.831390 
# 
# From -- ./inp_files/201072.got.cif
#   From: 2010.06.25/outbox.cif.g09.slc.cpg/sg2_101_cif.got.tgz:201072.got - 2010.06.27 13:26:56.
