data_PCOD8014276
_publ_section_title
;
Structure prediction by ZEFSAII (Michael W. Deem and Ramdas Pophale) SiO2 
 PCOD8014276
Probable space group: P -1
;
_chemical_formula_sum "Si O2"
_cell_formula_units_Z 12
_cell_length_a 9.453601
_cell_length_b 8.562829
_cell_length_c 9.912823
_cell_angle_alpha 133.415698
_cell_angle_beta 102.295181
_cell_angle_gamma 73.716219
_cell_volume 559.262462
_symmetry_space_group_name_H-M "P -1"
_symmetry_group_IT_number 2
_symmetry_cell_setting 'triclinic'
loop_
_space_group_symop_operation_xyz
x,y,z
-x,-y,-z
loop_
_atom_site_type_symbol
_atom_site_label
_atom_site_fract_x
_atom_site_fract_y
_atom_site_fract_z
Si Si1 0.737028 0.275896 0.933299
Si Si2 0.945248 0.720498 0.038277
Si Si3 0.615303 0.434512 0.281468
Si Si4 0.261585 0.880434 0.655198
Si Si5 0.554038 0.925588 0.614966
Si Si6 0.284131 0.512631 0.234369
O O1 0.704821 0.423189 0.881345
O O2 0.674565 0.054461 0.773188
O O3 0.656567 0.418243 0.123523
O O4 0.912414 0.212397 0.963620
O O5 0.822380 0.665532 0.875042
O O6 0.000000 0.500000 0.000000
O O7 0.872162 0.915062 0.238317
O O8 0.722748 0.252243 0.280058
O O9 0.632083 0.672108 0.479187
O O10 0.446773 0.405146 0.254729
O O11 0.411768 0.967520 0.707761
O O12 0.221205 0.729973 0.436288
O O13 0.500000 0.000000 0.500000
#
# Coordination Sequence:
#
# PCOD8014276 Si02
#       6
#     2   2   2   2   2   2
#     4  11  23  39  64  96 128 164 213 255 307 376
#     4  10  25  40  64  92 130 170 209 251 314 381
#     4  11  24  40  67  96 128 160 210 267 316 360
#     4  11  24  43  64  95 128 166 207 263 318 364
#     4  11  22  39  69  95 121 159 216 260 305 366
#     4  10  21  41  66  92 126 165 213 257 312 370
#
# _framework density 21.456831999999999
#
# number of rings (size 3 to 8) (size 9 to 14) (size 15 to 20)
#    0.000    1.333    3.333    3.500    4.667    8.667 
#    0.000    1.667    0.000    0.000    0.000    0.000 
#    0.000    0.000    0.000    0.000    0.000    0.000 
#
# Total GULP energy -148822.697152 kJ/mol
# GULP energy per Si atom -12401.891429 kJ/mol
# Density = 2.140800 g / cm^3
# Si number density = 21.456832 Si / 1000 Ang^3
#
#
#
# Elastic Constant Matrix: (Units=GPa)
#
#
# Indices 1 2 3 4 5 6 
#
# 1 135.2083 3.9228 56.8823 27.9481 12.7296 4.1509
# 2 3.9228 76.2466 8.1416 4.7839 -17.7947 -9.4045
# 3 56.8823 8.1416 91.8787 17.9294 -14.3671 -8.9489
# 4 27.9481 4.7839 17.9294 30.1272 -6.0388 -7.1395
# 5 12.7296 -17.7947 -14.3671 -6.0388 31.6123 11.9393
# 6 4.1509 -9.4045 -8.9489 -7.1395 11.9393 23.8448
#
#
#
# Elastic Compliance Matrix: (Units=1/GPa)
#
#
# Indices 1 2 3 4 5 6 
#
# 1 0.014951 -0.002432 -0.009107 -0.011523 -0.012074 -0.004385
# 2 -0.002432 0.015586 0.001639 0.001405 0.009734 0.002732
# 3 -0.009107 0.001639 0.018479 0.000352 0.011781 0.003373
# 4 -0.011523 0.001405 0.000352 0.048360 0.010289 0.012020
# 5 -0.012074 0.009734 0.011781 0.010289 0.054529 -0.013860
# 6 -0.004385 0.002732 0.003373 0.012020 -0.013860 0.055583
#
#
# Mechanical properties :
#
#
# Convention : Reuss Voigt Hill
#
# Bulk Modulus (GPa) = 34.22899 49.02522 41.62710
# Shear Modulus (GPa) = 21.09447 32.74267 26.91857
#
# Velocity S-wave (km/s) = 3.13886 3.91062 3.54580
# Velocity P-wave (km/s) = 5.39664 6.57940 6.01715
#
# Compressibility (1/GPa) = 0.02921501
#
# Stress axis : x y z
#
# Youngs Moduli (GPa) = 66.88459 64.15933 54.11504
#
# Poissons Ratio (x) = 0.15607 0.49284
# Poissons Ratio (y) = 0.16269 -0.08869
# Poissons Ratio (z) = 0.60913 -0.10515
#
# Static dielectric constant tensor:
#      x y z
#    x 4.555060 0.106560 0.392180 
#    y 0.106560 3.632260 0.121720 
#    z 0.392180 0.121720 4.168610 
# 
# 
# High freq. dielectric constant tensor:
#      x y z
#    x 1.844560 0.002510 0.004360 
#    y 0.002510 1.826860 0.008850 
#    z 0.004360 0.008850 1.851010 
# 
# From -- ./inp_files/156408.got.cif
#   From: 2010.06.25/outbox.cif.g09.slc.cpg/sg2_79_cif.got.tgz:156408.got - 2010.06.27 13:26:56.
