data_PCOD8014040
_publ_section_title
;
Structure prediction by ZEFSAII (Michael W. Deem and Ramdas Pophale) SiO2 
 PCOD8014040
Probable space group: P -1
;
_chemical_formula_sum "Si O2"
_cell_formula_units_Z 16
_cell_length_a 12.761210
_cell_length_b 11.826287
_cell_length_c 8.559860
_cell_angle_alpha 115.413833
_cell_angle_beta 61.158285
_cell_angle_gamma 65.928258
_cell_volume 643.174129
_symmetry_space_group_name_H-M "P -1"
_symmetry_group_IT_number 2
_symmetry_cell_setting 'triclinic'
loop_
_space_group_symop_operation_xyz
x,y,z
-x,-y,-z
loop_
_atom_site_type_symbol
_atom_site_label
_atom_site_fract_x
_atom_site_fract_y
_atom_site_fract_z
Si Si1 0.713538 0.355890 0.459500
Si Si2 0.630615 0.851092 0.173650
Si Si3 0.536930 0.813258 0.726800
Si Si4 0.835597 0.117051 0.500600
Si Si5 0.033543 0.459266 0.767605
Si Si6 0.520479 0.706156 0.989818
Si Si7 0.954009 0.248526 0.690767
Si Si8 0.361060 0.498694 0.711286
O O1 0.818761 0.153450 0.346349
O O2 0.492286 0.507197 0.671017
O O3 0.788848 0.336322 0.222779
O O4 0.704774 0.476965 0.663565
O O5 0.582505 0.746316 0.108875
O O6 0.500000 0.000000 0.500000
O O7 0.578307 0.975030 0.131509
O O8 0.856957 0.675610 0.940645
O O9 0.764302 0.647392 0.488094
O O10 0.510469 0.721907 0.568951
O O11 0.444001 0.849962 0.981716
O O12 0.632007 0.269313 0.821458
O O13 0.948887 0.146879 0.500664
O O14 0.940377 0.901133 0.325884
O O15 0.050334 0.300656 0.604304
O O16 0.000000 0.500000 0.000000
O O17 0.748789 0.454608 0.027200
#
# Coordination Sequence:
#
# PCOD8014040 Si02
#       8
#     2   2   2   2   2   2   2   2
#     4  10  22  39  67  94 123 172 210 264 321 388
#     4  12  25  41  69  98 125 180 222 259 330 395
#     4  11  25  45  66  96 136 175 215 273 324 381
#     4  11  24  39  68  94 127 171 214 266 326 387
#     4  12  24  42  68  95 136 170 218 275 317 388
#     4  11  24  43  67  95 132 171 219 271 321 389
#     4  11  23  41  61  97 131 164 214 272 322 381
#     4  10  21  41  64  94 131 162 214 264 324 382
#
# _framework density 24.876621
#
# number of rings (size 3 to 8) (size 9 to 14) (size 15 to 20)
#    0.000    1.000    3.750    2.250    3.500    1.000 
#    0.000    5.000    0.000    0.000    0.000    0.000 
#    0.000    0.000    0.000    0.000    0.000    0.000 
#
# Total GULP energy -198285.609744 kJ/mol
# GULP energy per Si atom -12392.850609 kJ/mol
# Density = 2.482000 g / cm^3
# Si number density = 24.876621 Si / 1000 Ang^3
#
#
#
# Elastic Constant Matrix: (Units=GPa)
#
#
# Indices 1 2 3 4 5 6 
#
# 1 77.0584 17.8031 11.4953 12.2514 2.3658 4.1907
# 2 17.8031 125.2846 -6.6594 24.2590 -12.4366 -10.3713
# 3 11.4953 -6.6594 31.4701 8.2348 6.5513 -2.2000
# 4 12.2514 24.2590 8.2348 34.3490 -1.1538 -7.6954
# 5 2.3658 -12.4366 6.5513 -1.1538 26.2264 5.8755
# 6 4.1907 -10.3713 -2.2000 -7.6954 5.8755 35.5283
#
#
#
# Elastic Compliance Matrix: (Units=1/GPa)
#
#
# Indices 1 2 3 4 5 6 
#
# 1 0.014960 -0.002060 -0.005150 -0.003412 -0.000439 -0.003351
# 2 -0.002060 0.010335 0.004197 -0.007140 0.003408 0.001410
# 3 -0.005150 0.004197 0.039197 -0.010027 -0.008563 0.003504
# 4 -0.003412 -0.007140 -0.010027 0.039162 -0.000244 0.006220
# 5 -0.000439 0.003408 -0.008563 -0.000244 0.043418 -0.006717
# 6 -0.003351 0.001410 0.003504 0.006220 -0.006717 0.031628
#
#
# Mechanical properties :
#
#
# Convention : Reuss Voigt Hill
#
# Bulk Modulus (GPa) = 17.10430 31.01012 24.05721
# Shear Modulus (GPa) = 24.48397 33.29901 28.89149
#
# Velocity S-wave (km/s) = 3.14063 3.66261 3.41162
# Velocity P-wave (km/s) = 4.47682 5.51171 5.02100
#
# Compressibility (1/GPa) = 0.05846483
#
# Stress axis : x y z
#
# Youngs Moduli (GPa) = 66.84697 96.75586 25.51226
#
# Poissons Ratio (x) = 0.19931 0.13140
# Poissons Ratio (y) = 0.13770 -0.10707
# Poissons Ratio (z) = 0.34429 -0.40608
#
# Static dielectric constant tensor:
#      x y z
#    x 4.473360 -0.025230 0.088610 
#    y -0.025230 4.805240 -0.023070 
#    z 0.088610 -0.023070 4.194230 
# 
# 
# High freq. dielectric constant tensor:
#      x y z
#    x 1.986670 0.003980 0.017490 
#    y 0.003980 2.005660 -0.001630 
#    z 0.017490 -0.001630 1.966600 
# 
# From -- ./inp_files/259960.got.cif
#   From: 2010.06.25/outbox.cif.g09.slc.cpg/sg2_130_cif.got.tgz:259960.got - 2010.06.27 13:26:56.
