data_PCOD8014943
_publ_section_title
;
Structure prediction by ZEFSAII (Michael W. Deem and Ramdas Pophale) SiO2 
 PCOD8014943
Probable space group: P -1
;
_chemical_formula_sum "Si O2"
_cell_formula_units_Z 14
_cell_length_a 21.675409
_cell_length_b 15.804098
_cell_length_c 12.729004
_cell_angle_alpha 151.960235
_cell_angle_beta 18.857066
_cell_angle_gamma 155.063681
_cell_volume 584.497246
_symmetry_space_group_name_H-M "P -1"
_symmetry_group_IT_number 2
_symmetry_cell_setting 'triclinic'
loop_
_space_group_symop_operation_xyz
x,y,z
-x,-y,-z
loop_
_atom_site_type_symbol
_atom_site_label
_atom_site_fract_x
_atom_site_fract_y
_atom_site_fract_z
Si Si1 0.708134 0.339758 0.834804
Si Si2 0.119789 0.969196 0.030206
Si Si3 0.298437 0.615208 0.714280
Si Si4 0.319804 0.338297 0.542299
Si Si5 0.761568 0.952305 0.302016
Si Si6 0.096117 0.563669 0.595066
Si Si7 0.907034 0.666300 0.449945
O O1 0.773028 0.438562 0.722447
O O2 0.851602 0.496161 0.869661
O O3 0.751116 0.150691 0.572415
O O4 0.452730 0.259737 0.167977
O O5 0.857808 0.849117 0.309384
O O6 0.155134 0.147375 0.252300
O O7 0.185174 0.789491 0.754180
O O8 0.254413 0.079949 0.832168
O O9 0.210073 0.441546 0.757150
O O10 0.556093 0.759677 0.473932
O O11 0.262773 0.512915 0.545499
O O12 0.153311 0.732582 0.086721
O O13 0.500000 0.500000 0.500000
O O14 0.000000 0.000000 0.000000
O O15 0.116337 0.409546 0.474927
#
# Coordination Sequence:
#
# PCOD8014943 Si02
#       7
#     2   2   2   2   2   2   2
#     4  10  22  39  67  96 138 174 219 281 344 384
#     4  11  23  40  68  96 131 177 223 273 334 398
#     4  11  26  44  68 100 136 181 224 277 336 404
#     4  12  22  41  67 100 133 173 228 280 336 394
#     4  11  24  42  67 104 133 172 228 280 340 400
#     4  10  21  42  64 100 132 174 220 284 330 398
#     4  11  24  47  68  94 142 179 229 271 334 402
#
# _framework density 23.952207000000001
#
# number of rings (size 3 to 8) (size 9 to 14) (size 15 to 20)
#    0.000    1.143    2.857    2.571    6.000    1.143 
#    2.571    5.714    0.000    0.000    0.000    0.000 
#    0.000    0.000    0.000    0.000    0.000    0.000 
#
# Total GULP energy -173448.740015 kJ/mol
# GULP energy per Si atom -12389.195715 kJ/mol
# Density = 2.389769 g / cm^3
# Si number density = 23.952207 Si / 1000 Ang^3
#
#
#
# Elastic Constant Matrix: (Units=GPa)
#
#
# Indices 1 2 3 4 5 6 
#
# 1 78.8848 23.3932 -2.1421 4.2900 11.8674 0.9738
# 2 23.3932 87.6847 21.0342 3.9664 11.3949 -2.5051
# 3 -2.1421 21.0342 69.2237 12.9438 1.3230 3.1917
# 4 4.2900 3.9664 12.9438 40.4618 8.8972 8.0209
# 5 11.8674 11.3949 1.3230 8.8972 28.2180 -1.8242
# 6 0.9738 -2.5051 3.1917 8.0209 -1.8242 24.1233
#
#
#
# Elastic Compliance Matrix: (Units=1/GPa)
#
#
# Indices 1 2 3 4 5 6 
#
# 1 0.014579 -0.003743 0.001829 -0.000460 -0.004652 -0.001418
# 2 -0.003743 0.014031 -0.004574 0.001085 -0.004120 0.001541
# 3 0.001829 -0.004574 0.016906 -0.005414 0.001938 -0.000839
# 4 -0.000460 0.001085 -0.005414 0.030665 -0.010315 -0.010128
# 5 -0.004652 -0.004120 0.001938 -0.010315 0.042618 0.006156
# 6 -0.001418 0.001541 -0.000839 -0.010128 0.006156 0.045615
#
#
# Mechanical properties :
#
#
# Convention : Reuss Voigt Hill
#
# Bulk Modulus (GPa) = 30.73314 35.59598 33.16456
# Shear Modulus (GPa) = 26.56216 31.46114 29.01165
#
# Velocity S-wave (km/s) = 3.33373 3.62815 3.48405
# Velocity P-wave (km/s) = 5.26091 5.69604 5.48279
#
# Compressibility (1/GPa) = 0.03253816
#
# Stress axis : x y z
#
# Youngs Moduli (GPa) = 68.59262 71.27169 59.14909
#
# Poissons Ratio (x) = 0.26679 -0.10817
# Poissons Ratio (y) = 0.25676 0.27057
# Poissons Ratio (z) = -0.12544 0.32603
#
# Static dielectric constant tensor:
#      x y z
#    x -26.632480 27.764340 -6.523370 
#    y 27.764340 -21.137890 5.916710 
#    z -6.523370 5.916710 3.804240 
# 
# 
# High freq. dielectric constant tensor:
#      x y z
#    x 1.919150 -0.006920 0.023990 
#    y -0.006920 1.940130 0.002540 
#    z 0.023990 0.002540 1.979480 
# 
# From -- ./inp_files/471973.got.cif
#   From: 2010.06.25/outbox.cif.g09.slc.cpg/sg2_236_cif.got.tgz:471973.got - 2010.06.27 13:26:56.
