data_PCOD8014326
_publ_section_title
;
Structure prediction by ZEFSAII (Michael W. Deem and Ramdas Pophale) SiO2 
 PCOD8014326
Probable space group: P -1
;
_chemical_formula_sum "Si O2"
_cell_formula_units_Z 16
_cell_length_a 16.067613
_cell_length_b 8.661823
_cell_length_c 11.728954
_cell_angle_alpha 103.872809
_cell_angle_beta 144.951562
_cell_angle_gamma 57.184572
_cell_volume 714.069169
_symmetry_space_group_name_H-M "P -1"
_symmetry_group_IT_number 2
_symmetry_cell_setting 'triclinic'
loop_
_space_group_symop_operation_xyz
x,y,z
-x,-y,-z
loop_
_atom_site_type_symbol
_atom_site_label
_atom_site_fract_x
_atom_site_fract_y
_atom_site_fract_z
Si Si1 0.749375 0.777431 0.052846
Si Si2 0.031014 0.119988 0.969947
Si Si3 0.031502 0.845036 0.350280
Si Si4 0.725530 0.499978 0.813857
Si Si5 0.740789 0.281166 0.206826
Si Si6 0.210593 0.399960 0.709372
Si Si7 0.576702 0.260742 0.667692
Si Si8 0.473608 0.238143 0.787876
O O1 0.761541 0.607338 0.966698
O O2 0.602381 0.998250 0.875556
O O3 0.689202 0.777607 0.114774
O O4 0.950116 0.724725 0.262542
O O5 0.935721 0.148708 0.745926
O O6 0.919822 0.346830 0.935986
O O7 0.254759 0.985116 0.185865
O O8 0.000000 0.000000 0.000000
O O9 0.221084 0.730848 0.615636
O O10 0.891149 0.072080 0.276128
O O11 0.664405 0.376946 0.782914
O O12 0.560294 0.675384 0.579198
O O13 0.757711 0.438759 0.192811
O O14 0.545404 0.327148 0.972685
O O15 0.283874 0.311291 0.647727
O O16 0.000000 0.500000 0.500000
O O17 0.453722 0.326779 0.656023
#
# Coordination Sequence:
#
# PCOD8014326 Si02
#       8
#     2   2   2   2   2   2   2   2
#     4  11  23  44  63  95 140 170 222 280 334 404
#     4  10  21  42  67  94 134 173 225 279 326 393
#     4  10  21  41  66  96 133 174 221 276 334 402
#     4  10  24  40  70 100 132 180 230 281 333 400
#     4  10  21  41  69  93 130 179 224 270 335 408
#     4  12  25  42  65 101 136 171 224 281 341 401
#     4  10  21  46  66  95 135 179 234 274 332 410
#     4  11  24  45  69  93 138 179 220 279 341 407
#
# _framework density 22.406793
#
# number of rings (size 3 to 8) (size 9 to 14) (size 15 to 20)
#    0.000    1.500    3.750    1.500    3.500    1.000 
#    6.750    0.000    0.000    0.000    0.000    0.000 
#    0.000    0.000    0.000    0.000    0.000    0.000 
#
# Total GULP energy -198328.594649 kJ/mol
# GULP energy per Si atom -12395.537166 kJ/mol
# Density = 2.235579 g / cm^3
# Si number density = 22.406793 Si / 1000 Ang^3
#
#
#
# Elastic Constant Matrix: (Units=GPa)
#
#
# Indices 1 2 3 4 5 6 
#
# 1 167.3710 30.4686 41.2118 -2.0022 -16.4102 -10.3260
# 2 30.4686 75.3267 21.8917 7.6213 1.8490 -0.5588
# 3 41.2118 21.8917 67.7574 -15.3529 1.6919 -5.5605
# 4 -2.0022 7.6213 -15.3529 20.5090 1.5122 -3.3976
# 5 -16.4102 1.8490 1.6919 1.5122 35.0892 -5.8343
# 6 -10.3260 -0.5588 -5.5605 -3.3976 -5.8343 33.2513
#
#
#
# Elastic Compliance Matrix: (Units=1/GPa)
#
#
# Indices 1 2 3 4 5 6 
#
# 1 0.008010 -0.001766 -0.004689 -0.002031 0.004529 0.002261
# 2 -0.001766 0.017556 -0.007744 -0.012909 -0.001337 -0.003102
# 3 -0.004689 -0.007744 0.025686 0.022626 -0.003259 0.004449
# 4 -0.002031 -0.012909 0.022626 0.072130 -0.002838 0.009808
# 5 0.004529 -0.001337 -0.003259 -0.002838 0.031991 0.006162
# 6 0.002261 -0.003102 0.004449 0.009808 0.006162 0.033551
#
#
# Mechanical properties :
#
#
# Convention : Reuss Voigt Hill
#
# Bulk Modulus (GPa) = 43.75757 55.28881 49.52319
# Shear Modulus (GPa) = 22.22796 32.22875 27.22835
#
# Velocity S-wave (km/s) = 3.15305 3.79667 3.48973
# Velocity P-wave (km/s) = 5.72946 6.62934 6.19576
#
# Compressibility (1/GPa) = 0.02285319
#
# Stress axis : x y z
#
# Youngs Moduli (GPa) = 124.84310 56.95905 38.93177
#
# Poissons Ratio (x) = 0.10059 0.18256
# Poissons Ratio (y) = 0.22048 0.30150
# Poissons Ratio (z) = 0.58541 0.44112
#
# Static dielectric constant tensor:
#      x y z
#    x 4.894230 0.060710 0.181690 
#    y 0.060710 4.143960 -0.242520 
#    z 0.181690 -0.242520 4.290440 
# 
# 
# High freq. dielectric constant tensor:
#      x y z
#    x 1.891750 -0.001480 -0.010830 
#    y -0.001480 1.884690 -0.020330 
#    z -0.010830 -0.020330 1.872930 
# 
# From -- ./inp_files/307872.got.cif
#   From: 2010.06.25/outbox.cif.g09.slc.cpg/sg2_154_cif.got.tgz:307872.got - 2010.06.27 13:26:56.
