data_PCOD8014350
_publ_section_title
;
Structure prediction by ZEFSAII (Michael W. Deem and Ramdas Pophale) SiO2 
 PCOD8014350
Probable space group: P -1
;
_chemical_formula_sum "Si O2"
_cell_formula_units_Z 10
_cell_length_a 9.252520
_cell_length_b 11.315690
_cell_length_c 8.314321
_cell_angle_alpha 89.080774
_cell_angle_beta 148.083301
_cell_angle_gamma 100.046937
_cell_volume 438.344017
_symmetry_space_group_name_H-M "P -1"
_symmetry_group_IT_number 2
_symmetry_cell_setting 'triclinic'
loop_
_space_group_symop_operation_xyz
x,y,z
-x,-y,-z
loop_
_atom_site_type_symbol
_atom_site_label
_atom_site_fract_x
_atom_site_fract_y
_atom_site_fract_z
Si Si1 0.243919 0.203788 0.076325
Si Si2 0.629012 0.422926 0.248129
Si Si3 0.643492 0.788312 0.439556
Si Si4 0.382152 0.954342 0.563505
Si Si5 0.074930 0.658239 0.744458
O O1 0.377539 0.339044 0.123167
O O2 0.285392 0.213362 0.306290
O O3 0.389881 0.105170 0.139725
O O4 0.911148 0.157053 0.722150
O O5 0.783953 0.337116 0.299041
O O6 0.863697 0.519086 0.580880
O O7 0.500000 0.500000 0.000000
O O8 0.887293 0.753203 0.568442
O O9 0.648911 0.924723 0.376668
O O10 0.327202 0.692484 0.114491
O O11 0.500000 0.000000 0.500000
#
# Coordination Sequence:
#
# PCOD8014350 Si02
#       5
#     2   2   2   2   2
#     4  11  24  40  72  95 126 172 213 253 324 383
#     4  11  26  47  63  89 136 177 209 258 323 381
#     4  11  21  42  67  99 123 161 218 271 309 372
#     4  10  21  41  66  99 132 160 203 270 326 373
#     4  11  24  42  67  88 135 169 209 268 319 362
#
# _framework density 22.813132
#
# number of rings (size 3 to 8) (size 9 to 14) (size 15 to 20)
#    0.000    1.200    2.000    6.000    5.600    1.600 
#    0.000    6.000    0.000    0.000    0.000    0.000 
#    0.000    0.000    0.000    0.000    0.000    0.000 
#
# Total GULP energy -123982.785982 kJ/mol
# GULP energy per Si atom -12398.278598 kJ/mol
# Density = 2.276121 g / cm^3
# Si number density = 22.813132 Si / 1000 Ang^3
#
#
#
# Elastic Constant Matrix: (Units=GPa)
#
#
# Indices 1 2 3 4 5 6 
#
# 1 46.9780 31.3565 25.2501 12.6929 14.0579 -22.8561
# 2 31.3565 71.5207 18.4511 9.9084 3.5112 -12.5218
# 3 25.2501 18.4511 107.4989 15.7782 23.9287 -4.1280
# 4 12.6929 9.9084 15.7782 45.4701 -1.2198 14.6683
# 5 14.0579 3.5112 23.9287 -1.2198 33.7338 0.6695
# 6 -22.8561 -12.5218 -4.1280 14.6683 0.6695 49.0492
#
#
#
# Elastic Compliance Matrix: (Units=1/GPa)
#
#
# Indices 1 2 3 4 5 6 
#
# 1 0.064033 -0.017176 -0.001500 -0.024986 -0.025394 0.033146
# 2 -0.017176 0.020645 -0.001298 0.002051 0.006074 -0.003538
# 3 -0.001500 -0.001298 0.012384 -0.004268 -0.008207 0.001400
# 4 -0.024986 0.002051 -0.004268 0.037823 0.015050 -0.022995
# 5 -0.025394 0.006074 -0.008207 0.015050 0.046279 -0.016106
# 6 0.033146 -0.003538 0.001400 -0.022995 -0.016106 0.042144
#
#
# Mechanical properties :
#
#
# Convention : Reuss Voigt Hill
#
# Bulk Modulus (GPa) = 17.50815 41.79031 29.64923
# Shear Modulus (GPa) = 17.71190 35.71329 26.71260
#
# Velocity S-wave (km/s) = 2.78940 3.96090 3.42560
# Velocity P-wave (km/s) = 4.25037 6.26710 5.35454
#
# Compressibility (1/GPa) = 0.05711625
#
# Stress axis : x y z
#
# Youngs Moduli (GPa) = 15.61684 48.43721 80.74615
#
# Poissons Ratio (x) = 0.83194 0.12111
# Poissons Ratio (y) = 0.26823 0.10482
# Poissons Ratio (z) = 0.02342 0.06288
#
# Static dielectric constant tensor:
#      x y z
#    x 4.033110 -0.579190 0.296600 
#    y -0.579190 4.652420 0.087240 
#    z 0.296600 0.087240 4.338850 
# 
# 
# High freq. dielectric constant tensor:
#      x y z
#    x 1.876240 -0.026740 0.025690 
#    y -0.026740 1.902310 0.008740 
#    z 0.025690 0.008740 1.915920 
# 
# From -- ./inp_files/32889.got.cif
#   From: 2010.06.25/outbox.cif.g09.slc.cpg/sg2_17_cif.got.tgz:32889.got - 2010.06.27 13:26:56.
