data_PCOD8014436
_publ_section_title
;
Structure prediction by ZEFSAII (Michael W. Deem and Ramdas Pophale) SiO2 
 PCOD8014436
Probable space group: P -1
;
_chemical_formula_sum "Si O2"
_cell_formula_units_Z 16
_cell_length_a 5.176572
_cell_length_b 6.948922
_cell_length_c 22.633752
_cell_angle_alpha 117.527158
_cell_angle_beta 92.770432
_cell_angle_gamma 63.125199
_cell_volume 630.611552
_symmetry_space_group_name_H-M "P -1"
_symmetry_group_IT_number 2
_symmetry_cell_setting 'triclinic'
loop_
_space_group_symop_operation_xyz
x,y,z
-x,-y,-z
loop_
_atom_site_type_symbol
_atom_site_label
_atom_site_fract_x
_atom_site_fract_y
_atom_site_fract_z
Si Si1 0.799585 0.813736 0.316893
Si Si2 0.987174 0.730371 0.792075
Si Si3 0.136947 0.072657 0.304908
Si Si4 0.806311 0.470017 0.445445
Si Si5 0.728104 0.088003 0.465901
Si Si6 0.400362 0.801681 0.086807
Si Si7 0.709108 0.340970 0.098770
Si Si8 0.849353 0.825857 0.014746
O O1 0.998515 0.521334 0.265193
O O2 0.024335 0.907592 0.313242
O O3 0.736057 0.865680 0.394404
O O4 0.493832 0.938829 0.294269
O O5 0.990413 0.884451 0.756785
O O6 0.260412 0.661937 0.830191
O O7 0.682874 0.925737 0.849966
O O8 0.996969 0.346847 0.371565
O O9 0.688399 0.290402 0.444209
O O10 0.554400 0.758819 0.472089
O O11 0.000000 0.500000 0.500000
O O12 0.000000 0.000000 0.500000
O O13 0.459932 0.610255 0.113829
O O14 0.690696 0.699733 0.032746
O O15 0.125358 0.814820 0.051435
O O16 0.626123 0.125745 0.046658
O O17 0.021107 0.293885 0.064771
#
# Coordination Sequence:
#
# PCOD8014436 Si02
#       8
#     2   2   2   2   2   2   2   2
#     4  11  26  47  67  98 136 180 226 278 341 415
#     4  11  27  43  70  97 138 184 226 274 336 412
#     4  11  26  47  69  97 140 179 226 283 346 404
#     4  10  21  41  67  95 129 171 223 286 342 404
#     4  10  23  40  67  99 129 171 225 287 347 404
#     4  11  24  44  68 100 135 179 221 280 339 395
#     4  10  23  44  69 103 134 175 229 277 336 402
#     4  10  24  43  71 101 135 174 224 283 337 396
#
# _framework density 25.372197
#
# number of rings (size 3 to 8) (size 9 to 14) (size 15 to 20)
#    0.000    1.500    1.250    1.500    1.750   17.000 
#    0.000    0.000    0.000    0.000    0.000    0.000 
#    0.000    0.000    0.000    0.000    0.000    0.000 
#
# Total GULP energy -198265.745952 kJ/mol
# GULP energy per Si atom -12391.609122 kJ/mol
# Density = 2.531445 g / cm^3
# Si number density = 25.372197 Si / 1000 Ang^3
#
#
#
# Elastic Constant Matrix: (Units=GPa)
#
#
# Indices 1 2 3 4 5 6 
#
# 1 42.5363 2.7303 2.0750 7.6999 -5.9810 -11.3144
# 2 2.7303 111.5467 47.1768 5.1566 9.7280 -14.9250
# 3 2.0750 47.1768 136.2273 10.2343 3.9492 -3.2758
# 4 7.6999 5.1566 10.2343 55.8928 4.8971 2.6438
# 5 -5.9810 9.7280 3.9492 4.8971 25.7120 5.3297
# 6 -11.3144 -14.9250 -3.2758 2.6438 5.3297 34.8579
#
#
#
# Elastic Compliance Matrix: (Units=1/GPa)
#
#
# Indices 1 2 3 4 5 6 
#
# 1 0.027363 0.000258 -0.000109 -0.004650 0.005406 0.008508
# 2 0.000258 0.011731 -0.003773 -0.000259 -0.004894 0.005520
# 3 -0.000109 -0.003773 0.008708 -0.001234 0.000467 -0.000810
# 4 -0.004650 -0.000259 -0.001234 0.019248 -0.003922 -0.002596
# 5 0.005406 -0.004894 0.000467 -0.003922 0.044073 -0.006738
# 6 0.008508 0.005520 -0.000810 -0.002596 -0.006738 0.034964
#
#
# Mechanical properties :
#
#
# Convention : Reuss Voigt Hill
#
# Bulk Modulus (GPa) = 24.65714 43.80829 34.23272
# Shear Modulus (GPa) = 29.96630 39.18108 34.57369
#
# Velocity S-wave (km/s) = 3.44040 3.93396 3.69543
# Velocity P-wave (km/s) = 5.05183 6.15942 5.63292
#
# Compressibility (1/GPa) = 0.04055620
#
# Stress axis : x y z
#
# Youngs Moduli (GPa) = 36.54569 85.24076 114.83046
#
# Poissons Ratio (x) = -0.02201 0.01252
# Poissons Ratio (y) = -0.00944 0.43320
# Poissons Ratio (z) = 0.00399 0.32158
#
# Static dielectric constant tensor:
#      x y z
#    x 4.132450 0.008090 -0.150740 
#    y 0.008090 4.754180 0.249890 
#    z -0.150740 0.249890 5.112800 
# 
# 
# High freq. dielectric constant tensor:
#      x y z
#    x 1.983720 -0.001180 -0.000860 
#    y -0.001180 2.037480 0.006680 
#    z -0.000860 0.006680 2.025930 
# 
# From -- ./inp_files/603847.got.cif
#   From: 2010.06.25/outbox.cif.g09.slc.cpg/sg2_302_cif.got.tgz:603847.got - 2010.06.27 13:26:56.
