data_PCOD8014140
_publ_section_title
;
Structure prediction by ZEFSAII (Michael W. Deem and Ramdas Pophale) SiO2 
 PCOD8014140
Probable space group: P -1
;
_chemical_formula_sum "Si O2"
_cell_formula_units_Z 16
_cell_length_a 11.324601
_cell_length_b 16.723274
_cell_length_c 9.149625
_cell_angle_alpha 114.005218
_cell_angle_beta 80.865311
_cell_angle_gamma 43.672148
_cell_volume 760.652224
_symmetry_space_group_name_H-M "P -1"
_symmetry_group_IT_number 2
_symmetry_cell_setting 'triclinic'
loop_
_space_group_symop_operation_xyz
x,y,z
-x,-y,-z
loop_
_atom_site_type_symbol
_atom_site_label
_atom_site_fract_x
_atom_site_fract_y
_atom_site_fract_z
Si Si1 0.184955 0.954856 0.485367
Si Si2 0.216438 0.298309 0.284849
Si Si3 0.378717 0.916321 0.154908
Si Si4 0.875171 0.817351 0.241873
Si Si5 0.347731 0.802035 0.653031
Si Si6 0.881254 0.389855 0.245545
Si Si7 0.622680 0.893241 0.594379
Si Si8 0.002968 0.864126 0.839011
O O1 0.383286 0.844276 0.233822
O O2 0.324017 0.828991 0.504719
O O3 0.044947 0.137254 0.680564
O O4 0.000000 0.000000 0.500000
O O5 0.305955 0.210427 0.359510
O O6 0.000000 0.500000 0.500000
O O7 0.123638 0.276389 0.188376
O O8 0.418427 0.231094 0.117805
O O9 0.455515 0.961475 0.230883
O O10 0.109105 0.085891 0.260663
O O11 0.847245 0.763805 0.338613
O O12 0.608013 0.005399 0.361744
O O13 0.072740 0.651091 0.967516
O O14 0.638428 0.603768 0.481767
O O15 0.208387 0.806059 0.741257
O O16 0.221042 0.965120 0.881388
O O17 0.852238 0.311943 0.259570
#
# Coordination Sequence:
#
# PCOD8014140 Si02
#       8
#     2   2   2   2   2   2   2   2
#     4  11  23  43  66  93 126 170 221 268 318 382
#     4  12  25  38  61 100 134 164 214 272 322 389
#     4  11  21  40  68  90 124 178 212 258 333 380
#     4  10  22  40  67  92 125 175 214 261 325 389
#     4  11  25  41  67  97 128 174 220 270 320 386
#     4  12  23  42  65  99 133 168 216 269 330 384
#     4  10  21  41  65  91 126 172 215 253 326 390
#     4  11  22  43  67  92 132 173 219 267 323 387
#
# _framework density 21.034578
#
# number of rings (size 3 to 8) (size 9 to 14) (size 15 to 20)
#    0.000    1.000    5.000    2.250    1.750    1.000 
#    0.000    1.875    0.000    0.000    0.000    0.000 
#    0.000    0.000    0.000    0.000    0.000    0.000 
#
# Total GULP energy -198347.072331 kJ/mol
# GULP energy per Si atom -12396.692021 kJ/mol
# Density = 2.098670 g / cm^3
# Si number density = 21.034578 Si / 1000 Ang^3
#
#
#
# Elastic Constant Matrix: (Units=GPa)
#
#
# Indices 1 2 3 4 5 6 
#
# 1 68.9056 17.1076 6.9387 -3.4097 2.1839 -1.9977
# 2 17.1076 108.0698 49.2599 -21.2900 -9.9692 7.9330
# 3 6.9387 49.2599 91.8907 -14.6506 -9.7592 10.9514
# 4 -3.4097 -21.2900 -14.6506 36.3347 1.3903 -1.9541
# 5 2.1839 -9.9692 -9.7592 1.3903 27.5022 -5.1635
# 6 -1.9977 7.9330 10.9514 -1.9541 -5.1635 34.2294
#
#
#
# Elastic Compliance Matrix: (Units=1/GPa)
#
#
# Indices 1 2 3 4 5 6 
#
# 1 0.015278 -0.002653 -0.000091 -0.000015 -0.001974 0.001237
# 2 -0.002653 0.013718 -0.005946 0.005250 0.002671 -0.000729
# 3 -0.000091 -0.005946 0.015066 0.002328 0.002530 -0.002933
# 4 -0.000015 0.005250 0.002328 0.031492 0.001140 0.000007
# 5 -0.001974 0.002671 0.002530 0.001140 0.039157 0.004428
# 6 0.001237 -0.000729 -0.002933 0.000007 0.004428 0.031063
#
#
# Mechanical properties :
#
#
# Convention : Reuss Voigt Hill
#
# Bulk Modulus (GPa) = 37.47794 46.16430 41.82112
# Shear Modulus (GPa) = 29.06181 32.65058 30.85619
#
# Velocity S-wave (km/s) = 3.72105 3.94411 3.83420
# Velocity P-wave (km/s) = 6.02641 6.53727 6.28703
#
# Compressibility (1/GPa) = 0.02668236
#
# Stress axis : x y z
#
# Youngs Moduli (GPa) = 65.45309 72.89937 66.37437
#
# Poissons Ratio (x) = 0.19340 0.00604
# Poissons Ratio (y) = 0.17365 0.39464
# Poissons Ratio (z) = 0.00596 0.43343
#
# Static dielectric constant tensor:
#      x y z
#    x 5.765260 -0.572970 -0.121020 
#    y -0.572970 3.780150 -0.396350 
#    z -0.121020 -0.396350 3.898720 
# 
# 
# High freq. dielectric constant tensor:
#      x y z
#    x 1.841530 -0.001210 -0.003990 
#    y -0.001210 1.813420 -0.033440 
#    z -0.003990 -0.033440 1.817060 
# 
# From -- ./inp_files/177785.got.cif
#   From: 2010.06.25/outbox.cif.g09.slc.cpg/sg2_89_cif.got.tgz:177785.got - 2010.06.27 13:26:56.
