data_PCOD8014039
_publ_section_title
;
Structure prediction by ZEFSAII (Michael W. Deem and Ramdas Pophale) SiO2 
 PCOD8014039
Probable space group: P -1
;
_chemical_formula_sum "Si O2"
_cell_formula_units_Z 16
_cell_length_a 9.437452
_cell_length_b 24.536483
_cell_length_c 9.499341
_cell_angle_alpha 48.052156
_cell_angle_beta 47.982296
_cell_angle_gamma 27.474293
_cell_volume 735.885718
_symmetry_space_group_name_H-M "P -1"
_symmetry_group_IT_number 2
_symmetry_cell_setting 'triclinic'
loop_
_space_group_symop_operation_xyz
x,y,z
-x,-y,-z
loop_
_atom_site_type_symbol
_atom_site_label
_atom_site_fract_x
_atom_site_fract_y
_atom_site_fract_z
Si Si1 0.812114 0.229114 0.505949
Si Si2 0.080533 0.003645 0.591026
Si Si3 0.775723 0.003567 0.030532
Si Si4 0.442184 0.542245 0.806189
Si Si5 0.823488 0.394176 0.552633
Si Si6 0.753180 0.856859 0.388965
Si Si7 0.063311 0.396058 0.136763
Si Si8 0.431515 0.794200 0.081043
O O1 0.671161 0.339231 0.320287
O O2 0.522194 0.284644 0.698536
O O3 0.924125 0.130876 0.497271
O O4 0.106517 0.168051 0.507853
O O5 0.937593 0.983113 0.817523
O O6 0.456154 0.895342 0.548599
O O7 0.000000 0.000000 0.500000
O O8 0.491187 0.146303 0.019885
O O9 0.641776 0.961422 0.188694
O O10 0.049384 0.913499 0.121956
O O11 0.763802 0.437104 0.679685
O O12 0.184312 0.568791 0.860474
O O13 0.500000 0.500000 0.000000
O O14 0.500000 0.500000 0.500000
O O15 0.971597 0.267502 0.670083
O O16 0.065074 0.370307 0.342960
O O17 0.406050 0.275317 0.052846
O O18 0.000000 0.500000 0.000000
#
# Coordination Sequence:
#
# PCOD8014039 Si02
#       8
#     2   2   2   2   2   2   2   2
#     4  10  21  43  68  89 133 174 221 278 319 407
#     4  11  25  42  61 103 140 170 214 276 346 396
#     4   9  21  36  64  94 130 165 216 269 320 399
#     4  11  25  44  62  95 132 178 220 272 341 399
#     4  10  21  41  64  94 129 165 229 270 318 392
#     4  11  21  40  74  93 126 181 223 273 331 396
#     4  11  22  37  68  94 121 170 222 279 323 387
#     4   9  19  38  62  98 122 158 223 277 318 377
#
# _framework density 21.742505999999999
#
# number of rings (size 3 to 8) (size 9 to 14) (size 15 to 20)
#    0.000    1.750    2.500    2.625    7.000    1.500 
#    6.750    1.250    0.000    0.000    0.000    0.000 
#    0.000    0.000    0.000    0.000    0.000    0.000 
#
# Total GULP energy -198249.967063 kJ/mol
# GULP energy per Si atom -12390.622941 kJ/mol
# Density = 2.169302 g / cm^3
# Si number density = 21.742506 Si / 1000 Ang^3
#
#
#
# Elastic Constant Matrix: (Units=GPa)
#
#
# Indices 1 2 3 4 5 6 
#
# 1 76.0598 31.9523 48.4456 -2.7833 9.5266 27.2237
# 2 31.9523 105.7440 63.9598 5.7978 -1.1450 34.5590
# 3 48.4456 63.9598 165.3710 -9.9925 8.4176 24.2818
# 4 -2.7833 5.7978 -9.9925 42.8976 9.5622 -1.5692
# 5 9.5266 -1.1450 8.4176 9.5622 33.9240 1.7938
# 6 27.2237 34.5590 24.2818 -1.5692 1.7938 26.7780
#
#
#
# Elastic Compliance Matrix: (Units=1/GPa)
#
#
# Indices 1 2 3 4 5 6 
#
# 1 0.023775 0.003396 -0.004510 0.000082 -0.004187 -0.024179
# 2 0.003396 0.020593 -0.005790 -0.005765 0.004146 -0.025395
# 3 -0.004510 -0.005790 0.009355 0.003348 -0.002402 0.003932
# 4 0.000082 -0.005765 0.003348 0.027129 -0.009040 0.006516
# 5 -0.004187 0.004146 -0.002402 -0.009040 0.034029 -0.001725
# 6 -0.024179 -0.025395 0.003932 0.006516 -0.001725 0.091631
#
#
# Mechanical properties :
#
#
# Convention : Reuss Voigt Hill
#
# Bulk Modulus (GPa) = 25.05318 70.65445 47.85381
# Shear Modulus (GPa) = 21.40169 34.24106 27.82137
#
# Velocity S-wave (km/s) = 3.14080 3.97274 3.58101
# Velocity P-wave (km/s) = 4.96996 7.32189 6.25742
#
# Compressibility (1/GPa) = 0.03991510
#
# Stress axis : x y z
#
# Youngs Moduli (GPa) = 42.06049 48.55927 106.89526
#
# Poissons Ratio (x) = -0.16492 0.48211
# Poissons Ratio (y) = -0.14285 0.61895
# Poissons Ratio (z) = 0.18970 0.28117
#
# Static dielectric constant tensor:
#      x y z
#    x 3.577730 0.302470 -0.108570 
#    y 0.302470 4.117840 0.183330 
#    z -0.108570 0.183330 4.386030 
# 
# 
# High freq. dielectric constant tensor:
#      x y z
#    x 1.810930 0.031430 -0.018920 
#    y 0.031430 1.858020 0.002250 
#    z -0.018920 0.002250 1.873830 
# 
# From -- ./inp_files/226079.got.cif
#   From: 2010.06.25/outbox.cif.g09.slc.cpg/sg2_114_cif.got.tgz:226079.got - 2010.06.27 13:26:56.
