data_PCOD8014944
_publ_section_title
;
Structure prediction by ZEFSAII (Michael W. Deem and Ramdas Pophale) SiO2 
 PCOD8014944
Probable space group: P -1
;
_chemical_formula_sum "Si O2"
_cell_formula_units_Z 14
_cell_length_a 15.134590
_cell_length_b 24.616295
_cell_length_c 5.538949
_cell_angle_alpha 116.716768
_cell_angle_beta 59.367525
_cell_angle_gamma 160.972214
_cell_volume 575.092494
_symmetry_space_group_name_H-M "P -1"
_symmetry_group_IT_number 2
_symmetry_cell_setting 'triclinic'
loop_
_space_group_symop_operation_xyz
x,y,z
-x,-y,-z
loop_
_atom_site_type_symbol
_atom_site_label
_atom_site_fract_x
_atom_site_fract_y
_atom_site_fract_z
Si Si1 0.755912 0.601658 0.255098
Si Si2 0.373879 0.307109 0.973314
Si Si3 0.103018 0.902766 0.460583
Si Si4 0.015202 0.631041 0.147346
Si Si5 0.890525 0.003432 0.741200
Si Si6 0.400771 0.687946 0.116594
Si Si7 0.683459 0.229467 0.492023
O O1 0.500000 0.500000 0.500000
O O2 0.640059 0.501146 0.976564
O O3 0.019962 0.792988 0.226361
O O4 0.838753 0.596548 0.329330
O O5 0.176231 0.217190 0.293996
O O6 0.494978 0.305461 0.826924
O O7 0.172077 0.197956 0.805746
O O8 0.256560 0.035527 0.331772
O O9 0.348919 0.026746 0.563378
O O10 0.193084 0.726980 0.338231
O O11 0.187308 0.728637 0.847994
O O12 0.799692 0.454461 0.089130
O O13 0.000000 0.000000 0.500000
O O14 0.671715 0.871532 0.994566
O O15 0.247882 0.660219 0.405255
#
# Coordination Sequence:
#
# PCOD8014944 Si02
#       7
#     2   2   2   2   2   2   2
#     4   9  23  49  71  98 134 179 237 295 351 412
#     4  10  21  42  64 100 136 177 232 295 347 409
#     4  11  23  42  66 100 135 182 238 282 351 408
#     4  11  27  48  69 104 140 188 237 286 348 423
#     4  12  22  36  68 103 141 178 226 295 355 414
#     4  11  22  43  67 102 143 180 236 290 355 414
#     4  12  25  44  71 101 146 189 231 285 351 423
#
# _framework density 24.343909
#
# number of rings (size 3 to 8) (size 9 to 14) (size 15 to 20)
#    0.000    1.143    2.857    3.000    0.000    5.143 
#    5.143    0.000    0.000    0.000    0.000    0.000 
#    0.000    0.000    0.000    0.000    0.000    0.000 
#
# Total GULP energy -173439.174906 kJ/mol
# GULP energy per Si atom -12388.512493 kJ/mol
# Density = 2.428850 g / cm^3
# Si number density = 24.343909 Si / 1000 Ang^3
#
#
#
# Elastic Constant Matrix: (Units=GPa)
#
#
# Indices 1 2 3 4 5 6 
#
# 1 123.9610 44.8963 50.7727 17.3253 -12.7027 10.9874
# 2 44.8963 114.8441 19.6168 41.1615 1.2570 -3.4029
# 3 50.7727 19.6168 79.2851 11.4083 5.5517 -5.6846
# 4 17.3253 41.1615 11.4083 36.7551 1.0636 -3.1432
# 5 -12.7027 1.2570 5.5517 1.0636 37.2746 14.0890
# 6 10.9874 -3.4029 -5.6846 -3.1432 14.0890 30.1663
#
#
#
# Elastic Compliance Matrix: (Units=1/GPa)
#
#
# Indices 1 2 3 4 5 6 
#
# 1 0.018047 -0.005453 -0.012320 -0.000379 0.014317 -0.016236
# 2 -0.005453 0.016331 0.002347 -0.015948 -0.003994 0.004474
# 3 -0.012320 0.002347 0.022204 -0.002061 -0.013142 0.014859
# 4 -0.000379 -0.015948 -0.002061 0.046261 -0.002006 0.003708
# 5 0.014317 -0.003994 -0.013142 -0.002006 0.044947 -0.029343
# 6 -0.016236 0.004474 0.014859 0.003708 -0.029343 0.056459
#
#
# Mechanical properties :
#
#
# Convention : Reuss Voigt Hill
#
# Bulk Modulus (GPa) = 38.86598 60.96243 49.91420
# Shear Modulus (GPa) = 20.51892 34.35949 27.43921
#
# Velocity S-wave (km/s) = 2.90638 3.76096 3.36095
# Velocity P-wave (km/s) = 5.22138 6.62996 5.96737
#
# Compressibility (1/GPa) = 0.02572945
#
# Stress axis : x y z
#
# Youngs Moduli (GPa) = 55.41030 61.23476 45.03722
#
# Poissons Ratio (x) = 0.33389 0.55486
# Poissons Ratio (y) = 0.30213 -0.10568
# Poissons Ratio (z) = 0.68265 -0.14369
#
# Static dielectric constant tensor:
#      x y z
#    x 4.205010 -0.024400 -0.079020 
#    y -0.024400 4.767140 0.874080 
#    z -0.079020 0.874080 3.891320 
# 
# 
# High freq. dielectric constant tensor:
#      x y z
#    x 1.962650 0.018970 -0.022440 
#    y 0.018970 1.978400 0.024090 
#    z -0.022440 0.024090 1.952950 
# 
# From -- ./inp_files/80627.got.cif
#   From: 2010.06.25/outbox.cif.g09.slc.cpg/sg2_41_cif.got.tgz:80627.got - 2010.06.27 13:26:56.
