data_PCOD8014151
_publ_section_title
;
Structure prediction by ZEFSAII (Michael W. Deem and Ramdas Pophale) SiO2 
 PCOD8014151
Probable space group: P -1
;
_chemical_formula_sum "Si O2"
_cell_formula_units_Z 14
_cell_length_a 8.594261
_cell_length_b 14.539036
_cell_length_c 9.076777
_cell_angle_alpha 83.549619
_cell_angle_beta 136.900273
_cell_angle_gamma 120.822149
_cell_volume 595.590885
_symmetry_space_group_name_H-M "P -1"
_symmetry_group_IT_number 2
_symmetry_cell_setting 'triclinic'
loop_
_space_group_symop_operation_xyz
x,y,z
-x,-y,-z
loop_
_atom_site_type_symbol
_atom_site_label
_atom_site_fract_x
_atom_site_fract_y
_atom_site_fract_z
Si Si1 0.843248 0.489543 0.162137
Si Si2 0.496334 0.895551 0.388012
Si Si3 0.309750 0.340663 0.021652
Si Si4 0.328063 0.052070 0.185455
Si Si5 0.153279 0.124038 0.804067
Si Si6 0.492637 0.719902 0.252572
Si Si7 0.497643 0.601564 0.541880
O O1 0.637024 0.403184 0.170730
O O2 0.179829 0.547839 0.397760
O O3 0.813743 0.592228 0.123228
O O4 0.738336 0.410531 0.954895
O O5 0.453827 0.866949 0.540728
O O6 0.346292 0.772749 0.216832
O O7 0.340931 0.944869 0.201328
O O8 0.848754 0.992665 0.589950
O O9 0.290753 0.332738 0.185179
O O10 0.093732 0.203947 0.839222
O O11 0.393110 0.121748 0.061913
O O12 0.000000 0.000000 0.000000
O O13 0.267591 0.182398 0.713071
O O14 0.633320 0.701275 0.490585
O O15 0.500000 0.500000 0.500000
#
# Coordination Sequence:
#
# PCOD8014151 Si02
#       7
#     2   2   2   2   2   2   2
#     4  10  23  44  63  93 126 167 216 262 321 375
#     4  10  21  41  65  92 125 165 206 259 311 374
#     4  10  22  42  68  89 126 170 212 264 312 382
#     4   9  20  40  60  87 122 162 214 249 303 373
#     4  10  22  41  62  94 129 164 210 254 315 378
#     4  11  23  41  62  94 131 163 206 267 315 373
#     4  12  24  42  63  95 128 166 215 266 321 371
#
# _framework density 23.506067000000002
#
# number of rings (size 3 to 8) (size 9 to 14) (size 15 to 20)
#    0.000    1.714    1.429    2.143    0.000    5.143 
#   10.286    0.000    0.000    0.000    0.000    0.000 
#    0.000    0.000    0.000    0.000    0.000    0.000 
#
# Total GULP energy -173444.556688 kJ/mol
# GULP energy per Si atom -12388.896906 kJ/mol
# Density = 2.345257 g / cm^3
# Si number density = 23.506067 Si / 1000 Ang^3
#
#
#
# Elastic Constant Matrix: (Units=GPa)
#
#
# Indices 1 2 3 4 5 6 
#
# 1 97.0912 45.2823 34.3495 -16.8779 -13.7417 -15.5730
# 2 45.2823 110.4364 29.8429 -30.8834 -8.7854 -15.5899
# 3 34.3495 29.8429 51.5973 -24.0398 -4.0181 -0.2790
# 4 -16.8779 -30.8834 -24.0398 37.4155 -0.2684 -4.5898
# 5 -13.7417 -8.7854 -4.0181 -0.2684 43.7162 1.3525
# 6 -15.5730 -15.5899 -0.2790 -4.5898 1.3525 66.1720
#
#
#
# Elastic Compliance Matrix: (Units=1/GPa)
#
#
# Indices 1 2 3 4 5 6 
#
# 1 0.015824 -0.003879 -0.008597 -0.001242 0.003316 0.002620
# 2 -0.003879 0.014175 -0.000951 0.009727 0.001507 0.003067
# 3 -0.008597 -0.000951 0.033466 0.016725 0.000315 -0.000953
# 4 -0.001242 0.009727 0.016725 0.045598 0.003222 0.005167
# 5 0.003316 0.001507 0.000315 0.003222 0.024242 0.000865
# 6 0.002620 0.003067 -0.000953 0.005167 0.000865 0.016788
#
#
# Mechanical properties :
#
#
# Convention : Reuss Voigt Hill
#
# Bulk Modulus (GPa) = 27.31399 53.11937 40.21668
# Shear Modulus (GPa) = 26.43415 39.43742 32.93579
#
# Velocity S-wave (km/s) = 3.35709 4.10048 3.74727
# Velocity P-wave (km/s) = 5.16449 6.71311 5.98907
#
# Compressibility (1/GPa) = 0.03661127
#
# Stress axis : x y z
#
# Youngs Moduli (GPa) = 63.19611 70.54558 29.88147
#
# Poissons Ratio (x) = 0.27363 0.25690
# Poissons Ratio (y) = 0.24513 0.02841
# Poissons Ratio (z) = 0.54331 0.06706
#
# Static dielectric constant tensor:
#      x y z
#    x 4.474070 0.017630 -0.412450 
#    y 0.017630 4.803400 -0.498930 
#    z -0.412450 -0.498930 4.401300 
# 
# 
# High freq. dielectric constant tensor:
#      x y z
#    x 1.932190 -0.008370 -0.016210 
#    y -0.008370 1.944150 -0.010040 
#    z -0.016210 -0.010040 1.916170 
# 
# From -- ./inp_files/107448.got.cif
#   From: 2010.06.25/outbox.cif.g09.slc.cpg/sg2_54_cif.got.tgz:107448.got - 2010.06.27 13:26:56.
