data_PCOD8014358
_publ_section_title
;
Structure prediction by ZEFSAII (Michael W. Deem and Ramdas Pophale) SiO2 
 PCOD8014358
Probable space group: P -1
;
_chemical_formula_sum "Si O2"
_cell_formula_units_Z 16
_cell_length_a 8.975948
_cell_length_b 10.859492
_cell_length_c 11.546727
_cell_angle_alpha 52.989884
_cell_angle_beta 55.346602
_cell_angle_gamma 87.445487
_cell_volume 659.028228
_symmetry_space_group_name_H-M "P -1"
_symmetry_group_IT_number 2
_symmetry_cell_setting 'triclinic'
loop_
_space_group_symop_operation_xyz
x,y,z
-x,-y,-z
loop_
_atom_site_type_symbol
_atom_site_label
_atom_site_fract_x
_atom_site_fract_y
_atom_site_fract_z
Si Si1 0.696248 0.275465 0.771859
Si Si2 0.938604 0.587759 0.633720
Si Si3 0.802034 0.550192 0.277251
Si Si4 0.687845 0.950357 0.055434
Si Si5 0.898466 0.819707 0.881688
Si Si6 0.668500 0.697356 0.822055
Si Si7 0.364402 0.259600 0.595950
Si Si8 0.662079 0.933802 0.504225
O O1 0.744238 0.444393 0.730957
O O2 0.501097 0.229916 0.803697
O O3 0.885232 0.298709 0.596518
O O4 0.646698 0.114832 0.970503
O O5 0.872071 0.714516 0.659082
O O6 0.013183 0.489292 0.748414
O O7 0.604149 0.374328 0.438436
O O8 0.762480 0.643380 0.354862
O O9 0.867831 0.663124 0.068494
O O10 0.710762 0.920007 0.197410
O O11 0.879376 0.967691 0.884482
O O12 0.722075 0.753527 0.899662
O O13 0.119213 0.898396 0.680207
O O14 0.603259 0.832439 0.710907
O O15 0.500000 0.500000 0.000000
O O16 0.321988 0.204588 0.512819
O O17 0.500000 0.000000 0.500000
#
# Coordination Sequence:
#
# PCOD8014358 Si02
#       8
#     2   2   2   2   2   2   2   2
#     4  10  22  37  65 104 135 171 223 286 348 408
#     4  11  24  39  70  99 139 178 234 282 343 408
#     4  10  23  42  72 102 137 179 227 294 339 413
#     4  10  21  41  66  99 137 176 219 286 347 409
#     4  11  26  45  71  99 140 183 236 279 349 408
#     4  12  28  49  73  98 140 189 236 285 340 417
#     4  10  23  43  67 100 139 175 227 283 352 403
#     4  12  30  47  72 101 143 186 231 287 346 416
#
# _framework density 24.278171
#
# number of rings (size 3 to 8) (size 9 to 14) (size 15 to 20)
#    0.000    1.250    1.250    2.625   10.500    3.500 
#    0.000    0.000    0.000    0.000    0.000    0.000 
#    0.000    0.000    0.000    0.000    0.000    0.000 
#
# Total GULP energy -198448.826664 kJ/mol
# GULP energy per Si atom -12403.051667 kJ/mol
# Density = 2.422291 g / cm^3
# Si number density = 24.278171 Si / 1000 Ang^3
#
#
#
# Elastic Constant Matrix: (Units=GPa)
#
#
# Indices 1 2 3 4 5 6 
#
# 1 92.8306 4.0947 29.5180 -3.2757 15.0015 -1.1219
# 2 4.0947 54.7094 12.8426 7.0174 10.4919 5.7521
# 3 29.5180 12.8426 101.8360 -8.8891 11.9899 9.4863
# 4 -3.2757 7.0174 -8.8891 20.8902 -0.2353 6.3498
# 5 15.0015 10.4919 11.9899 -0.2353 41.3766 3.8810
# 6 -1.1219 5.7521 9.4863 6.3498 3.8810 33.6989
#
#
#
# Elastic Compliance Matrix: (Units=1/GPa)
#
#
# Indices 1 2 3 4 5 6 
#
# 1 0.012465 0.000439 -0.003405 -0.000226 -0.003812 0.001780
# 2 0.000439 0.020901 -0.002852 -0.008001 -0.004611 -0.000711
# 3 -0.003405 -0.002852 0.012308 0.006944 -0.001169 -0.004265
# 4 -0.000226 -0.008001 0.006944 0.056992 0.001502 -0.011508
# 5 -0.003812 -0.004611 -0.001169 0.001502 0.027296 -0.002437
# 6 0.001780 -0.000711 -0.004265 -0.011508 -0.002437 0.033505
#
#
# Mechanical properties :
#
#
# Convention : Reuss Voigt Hill
#
# Bulk Modulus (GPa) = 29.38002 38.03185 33.70594
# Shear Modulus (GPa) = 26.81709 32.72118 29.76914
#
# Velocity S-wave (km/s) = 3.32712 3.67517 3.50547
# Velocity P-wave (km/s) = 5.18530 5.80588 5.50434
#
# Compressibility (1/GPa) = 0.03403674
#
# Stress axis : x y z
#
# Youngs Moduli (GPa) = 80.22228 47.84571 81.25077
#
# Poissons Ratio (x) = -0.02102 0.27668
# Poissons Ratio (y) = -0.03524 0.23176
# Poissons Ratio (z) = 0.27318 0.13647
#
# Static dielectric constant tensor:
#      x y z
#    x 4.339310 0.095340 -0.006260 
#    y 0.095340 4.137090 0.093110 
#    z -0.006260 0.093110 4.416200 
# 
# 
# High freq. dielectric constant tensor:
#      x y z
#    x 1.971150 0.004500 0.004710 
#    y 0.004500 1.946670 -0.000830 
#    z 0.004710 -0.000830 1.977240 
# 
# From -- ./inp_files/392041.got.cif
#   From: 2010.06.25/outbox.cif.g09.slc.cpg/sg2_197_cif.got.tgz:392041.got - 2010.06.27 13:26:56.
