data_PCOD8014972
_publ_section_title
;
Structure prediction by ZEFSAII (Michael W. Deem and Ramdas Pophale) SiO2 
 PCOD8014972
Probable space group: P -1
;
_chemical_formula_sum "Si O2"
_cell_formula_units_Z 14
_cell_length_a 24.433789
_cell_length_b 7.774598
_cell_length_c 7.897432
_cell_angle_alpha 57.679863
_cell_angle_beta 37.071536
_cell_angle_gamma 69.476865
_cell_volume 755.688838
_symmetry_space_group_name_H-M "P -1"
_symmetry_group_IT_number 2
_symmetry_cell_setting 'triclinic'
loop_
_space_group_symop_operation_xyz
x,y,z
-x,-y,-z
loop_
_atom_site_type_symbol
_atom_site_label
_atom_site_fract_x
_atom_site_fract_y
_atom_site_fract_z
Si Si1 0.402413 0.917240 0.210770
Si Si2 0.891973 0.952538 0.804499
Si Si3 0.217804 0.791215 0.861356
Si Si4 0.788988 0.505926 0.287147
Si Si5 0.402437 0.051087 0.763166
Si Si6 0.774857 0.220755 0.784351
Si Si7 0.404515 0.466915 0.353430
O O1 0.313544 0.951252 0.520684
O O2 0.398351 0.673724 0.358092
O O3 0.500000 0.000000 0.000000
O O4 0.388008 0.020051 0.013545
O O5 0.844718 0.051259 0.708712
O O6 0.863919 0.707454 0.995061
O O7 0.000000 0.000000 0.500000
O O8 0.859319 0.056758 0.004328
O O9 0.197341 0.633283 0.839080
O O10 0.224101 0.670026 0.089419
O O11 0.808714 0.382532 0.470722
O O12 0.686444 0.568805 0.521838
O O13 0.398169 0.285315 0.600382
O O14 0.500000 0.000000 0.500000
O O15 0.327328 0.893673 0.935489
O O16 0.500000 0.500000 0.000000
#
# Coordination Sequence:
#
# PCOD8014972 Si02
#       7
#     2   2   2   2   2   2   2
#     4  11  23  37  58  91 133 163 214 261 309 382
#     4  10  24  44  69  96 129 167 214 271 324 375
#     4   9  22  42  61  96 128 161 219 260 314 379
#     4  11  21  43  67  90 133 167 210 270 317 380
#     4  12  20  37  64  88 129 173 205 261 319 371
#     4  10  21  42  64  91 128 165 214 265 316 379
#     4  11  21  35  60  90 120 176 208 245 324 372
#
# _framework density 18.526145
#
# number of rings (size 3 to 8) (size 9 to 14) (size 15 to 20)
#    0.857    0.571    5.714    0.857    2.000    1.714 
#    7.714    0.714    0.000    0.000    0.000    0.000 
#    0.000    0.000    0.000    0.000    0.000    0.000 
#
# Total GULP energy -173439.301980 kJ/mol
# GULP energy per Si atom -12388.521570 kJ/mol
# Density = 1.848398 g / cm^3
# Si number density = 18.526145 Si / 1000 Ang^3
#
#
#
# Elastic Constant Matrix: (Units=GPa)
#
#
# Indices 1 2 3 4 5 6 
#
# 1 104.9047 42.8694 67.5766 -6.1688 17.8844 -2.9826
# 2 42.8694 91.3832 70.3735 -12.7457 9.1996 -9.7570
# 3 67.5766 70.3735 143.7751 0.6985 -10.7841 -0.8791
# 4 -6.1688 -12.7457 0.6985 43.5602 -7.9721 3.6577
# 5 17.8844 9.1996 -10.7841 -7.9721 49.4961 -1.2819
# 6 -2.9826 -9.7570 -0.8791 3.6577 -1.2819 30.2389
#
#
#
# Elastic Compliance Matrix: (Units=1/GPa)
#
#
# Indices 1 2 3 4 5 6 
#
# 1 0.016136 -0.000610 -0.007830 0.000838 -0.007268 0.000757
# 2 -0.000610 0.020970 -0.010342 0.004828 -0.005008 0.005609
# 3 -0.007830 -0.010342 0.016276 -0.002722 0.007782 -0.002977
# 4 0.000838 0.004828 -0.002722 0.025051 0.002206 -0.001375
# 5 -0.007268 -0.005008 0.007782 0.002206 0.025778 -0.001280
# 6 0.000757 0.005609 -0.002977 -0.001375 -0.001280 0.034980
#
#
# Mechanical properties :
#
#
# Convention : Reuss Voigt Hill
#
# Bulk Modulus (GPa) = 63.22142 77.96689 70.59415
# Shear Modulus (GPa) = 27.46835 35.27528 31.37181
#
# Velocity S-wave (km/s) = 3.85474 4.36831 4.11953
# Velocity P-wave (km/s) = 7.34926 8.22308 7.79842
#
# Compressibility (1/GPa) = 0.01581742
#
# Stress axis : x y z
#
# Youngs Moduli (GPa) = 61.97502 47.68746 61.43897
#
# Poissons Ratio (x) = 0.02910 0.48106
# Poissons Ratio (y) = 0.03782 0.63540
# Poissons Ratio (z) = 0.48526 0.49319
#
# Static dielectric constant tensor:
#      x y z
#    x 4.906630 -0.483940 -0.765060 
#    y -0.483940 3.662130 0.012400 
#    z -0.765060 0.012400 2.903790 
# 
# 
# High freq. dielectric constant tensor:
#      x y z
#    x 1.712410 -0.008770 -0.001020 
#    y -0.008770 1.711760 -0.004200 
#    z -0.001020 -0.004200 1.724660 
# 
# From -- ./inp_files/327938.got.cif
#   From: 2010.06.25/outbox.cif.g09.slc.cpg/sg2_164_cif.got.tgz:327938.got - 2010.06.27 13:26:56.
