data_PCOD8014871
_publ_section_title
;
Structure prediction by ZEFSAII (Michael W. Deem and Ramdas Pophale) SiO2 
 PCOD8014871
Probable space group: P -1
;
_chemical_formula_sum "Si O2"
_cell_formula_units_Z 16
_cell_length_a 9.037244
_cell_length_b 20.659954
_cell_length_c 6.719459
_cell_angle_alpha 133.248425
_cell_angle_beta 123.065018
_cell_angle_gamma 76.316966
_cell_volume 746.219540
_symmetry_space_group_name_H-M "P -1"
_symmetry_group_IT_number 2
_symmetry_cell_setting 'triclinic'
loop_
_space_group_symop_operation_xyz
x,y,z
-x,-y,-z
loop_
_atom_site_type_symbol
_atom_site_label
_atom_site_fract_x
_atom_site_fract_y
_atom_site_fract_z
Si Si1 0.053389 0.676569 0.942794
Si Si2 0.338820 0.596048 0.163686
Si Si3 0.719337 0.611334 0.269235
Si Si4 0.387943 0.911978 0.343961
Si Si5 0.481788 0.765042 0.840175
Si Si6 0.314936 0.860322 0.597275
Si Si7 0.184812 0.275050 0.807056
Si Si8 0.929688 0.090455 0.145891
O O1 0.906830 0.650601 0.605620
O O2 0.955908 0.676251 0.084490
O O3 0.184779 0.604884 0.906220
O O4 0.178946 0.776711 0.209848
O O5 0.541060 0.624084 0.279871
O O6 0.335518 0.668954 0.493751
O O7 0.296209 0.495291 0.008803
O O8 0.718256 0.660166 0.160245
O O9 0.414815 0.925089 0.629238
O O10 0.500000 0.000000 0.500000
O O11 0.440558 0.817897 0.117776
O O12 0.178347 0.903992 0.124096
O O13 0.469879 0.827949 0.770896
O O14 0.676377 0.742089 0.958030
O O15 0.200923 0.912523 0.765275
O O16 0.094526 0.176991 0.445968
O O17 0.000000 0.000000 0.000000
#
# Coordination Sequence:
#
# PCOD8014871 Si02
#       8
#     2   2   2   2   2   2   2   2
#     4  10  21  42  62  92 129 168 217 261 326 384
#     4  10  23  43  62  95 131 170 218 269 323 389
#     4  11  23  42  64  94 131 169 219 270 326 378
#     4  11  23  41  64  95 124 166 218 261 327 389
#     4  10  22  40  61  91 127 162 218 257 320 384
#     4   9  22  41  65  90 129 169 207 270 320 380
#     4  11  23  40  65  94 125 171 217 263 323 390
#     4  10  22  42  60  95 130 162 218 263 322 395
#
# _framework density 21.441412
#
# number of rings (size 3 to 8) (size 9 to 14) (size 15 to 20)
#    0.000    1.750    1.250    2.625    3.500    3.500 
#    2.250    0.000    0.000    0.000    0.000    0.000 
#    0.000    0.000    0.000    0.000    0.000    0.000 
#
# Total GULP energy -198365.082725 kJ/mol
# GULP energy per Si atom -12397.817670 kJ/mol
# Density = 2.139261 g / cm^3
# Si number density = 21.441412 Si / 1000 Ang^3
#
#
#
# Elastic Constant Matrix: (Units=GPa)
#
#
# Indices 1 2 3 4 5 6 
#
# 1 75.7350 68.7502 30.4125 -9.8637 5.5388 -5.8803
# 2 68.7502 141.8204 52.2677 -7.8376 -4.7162 -1.7913
# 3 30.4125 52.2677 86.9720 -14.3810 3.2005 -4.3619
# 4 -9.8637 -7.8376 -14.3810 37.2226 -11.6420 -1.2338
# 5 5.5388 -4.7162 3.2005 -11.6420 37.9209 -6.6581
# 6 -5.8803 -1.7913 -4.3619 -1.2338 -6.6581 44.1551
#
#
#
# Elastic Compliance Matrix: (Units=1/GPa)
#
#
# Indices 1 2 3 4 5 6 
#
# 1 0.025055 -0.011720 -0.001025 0.002656 -0.003819 0.002258
# 2 -0.011720 0.014640 -0.005026 -0.000898 0.003513 -0.000959
# 3 -0.001025 -0.005026 0.015734 0.004759 -0.000109 0.001331
# 4 0.002656 -0.000898 0.004759 0.032316 0.009570 0.003134
# 5 -0.003819 0.003513 -0.000109 0.009570 0.031117 0.004583
# 6 0.002258 -0.000959 0.001331 0.003134 0.004583 0.023819
#
#
# Mechanical properties :
#
#
# Convention : Reuss Voigt Hill
#
# Bulk Modulus (GPa) = 50.28122 67.48757 58.88439
# Shear Modulus (GPa) = 27.04857 34.06619 30.55738
#
# Velocity S-wave (km/s) = 3.55563 3.99030 3.77922
# Velocity P-wave (km/s) = 6.35280 7.26455 6.82392
#
# Compressibility (1/GPa) = 0.01988814
#
# Stress axis : x y z
#
# Youngs Moduli (GPa) = 39.91210 68.30628 63.55489
#
# Poissons Ratio (x) = 0.80054 0.06514
# Poissons Ratio (y) = 0.46776 0.31941
# Poissons Ratio (z) = 0.04091 0.34329
#
# Static dielectric constant tensor:
#      x y z
#    x 3.778700 -0.253270 0.145640 
#    y -0.253270 3.809290 0.014410 
#    z 0.145640 0.014410 4.086100 
# 
# 
# High freq. dielectric constant tensor:
#      x y z
#    x 1.830140 -0.018960 0.008790 
#    y -0.018960 1.840800 0.001310 
#    z 0.008790 0.001310 1.854100 
# 
# From -- ./inp_files/46966.got.cif
#   From: 2010.06.25/outbox.cif.g09.slc.cpg/sg2_24_cif.got.tgz:46966.got - 2010.06.27 13:26:56.
