data_PCOD8014524
_publ_section_title
;
Structure prediction by ZEFSAII (Michael W. Deem and Ramdas Pophale) SiO2 
 PCOD8014524
Probable space group: P -1
;
_chemical_formula_sum "Si O2"
_cell_formula_units_Z 14
_cell_length_a 16.270554
_cell_length_b 9.122195
_cell_length_c 8.819218
_cell_angle_alpha 115.759261
_cell_angle_beta 141.289196
_cell_angle_gamma 82.025164
_cell_volume 689.038669
_symmetry_space_group_name_H-M "P -1"
_symmetry_group_IT_number 2
_symmetry_cell_setting 'triclinic'
loop_
_space_group_symop_operation_xyz
x,y,z
-x,-y,-z
loop_
_atom_site_type_symbol
_atom_site_label
_atom_site_fract_x
_atom_site_fract_y
_atom_site_fract_z
Si Si1 0.560844 0.189864 0.605072
Si Si2 0.639522 0.784839 0.932318
Si Si3 0.855219 0.062869 0.551953
Si Si4 0.408454 0.487808 0.009634
Si Si5 0.102510 0.309583 0.821647
Si Si6 0.150588 0.696160 0.085636
Si Si7 0.096105 0.272511 0.451183
O O1 0.479881 0.200346 0.340644
O O2 0.723726 0.235056 0.822030
O O3 0.500000 0.000000 0.500000
O O4 0.542916 0.321498 0.762459
O O5 0.564724 0.646091 0.893031
O O6 0.748623 0.717988 0.968415
O O7 0.723380 0.973541 0.210876
O O8 0.812544 0.190016 0.658119
O O9 0.991704 0.163862 0.696004
O O10 0.888634 0.915149 0.629606
O O11 0.244838 0.423973 0.699061
O O12 0.500000 0.500000 0.000000
O O13 0.048306 0.295782 0.563884
O O14 0.122897 0.498014 0.003441
O O15 0.012407 0.710659 0.818992
#
# Coordination Sequence:
#
# PCOD8014524 Si02
#       7
#     2   2   2   2   2   2   2
#     4  12  28  41  66  95 130 176 212 266 325 378
#     4  10  23  47  64  89 135 171 215 262 317 391
#     4  10  23  40  67  95 123 169 212 262 322 374
#     4  10  23  46  69  96 125 174 215 258 329 381
#     4  10  21  41  68  89 123 171 211 261 326 374
#     4  12  24  41  61 101 131 157 219 265 317 379
#     4  10  22  42  67  90 131 166 208 268 313 385
#
# _framework density 20.318162999999998
#
# number of rings (size 3 to 8) (size 9 to 14) (size 15 to 20)
#    0.000    1.714    2.857    3.429    8.000    1.714 
#    2.571    0.000    0.000    0.000    0.000    0.000 
#    0.000    0.000    0.000    0.000    0.000    0.000 
#
# Total GULP energy -173656.422553 kJ/mol
# GULP energy per Si atom -12404.030182 kJ/mol
# Density = 2.027192 g / cm^3
# Si number density = 20.318163 Si / 1000 Ang^3
#
#
#
# Elastic Constant Matrix: (Units=GPa)
#
#
# Indices 1 2 3 4 5 6 
#
# 1 111.0339 40.6950 39.5296 5.7935 -9.9245 2.6331
# 2 40.6950 95.4360 68.2423 18.9405 -6.9687 1.5677
# 3 39.5296 68.2423 120.5563 1.7714 -4.8807 -2.6938
# 4 5.7935 18.9405 1.7714 39.9808 -6.6058 -1.1702
# 5 -9.9245 -6.9687 -4.8807 -6.6058 28.2131 20.3559
# 6 2.6331 1.5677 -2.6938 -1.1702 20.3559 32.9002
#
#
#
# Elastic Compliance Matrix: (Units=1/GPa)
#
#
# Indices 1 2 3 4 5 6 
#
# 1 0.011514 -0.003216 -0.001805 0.000918 0.006857 -0.005126
# 2 -0.003216 0.021935 -0.011193 -0.009038 0.003063 -0.003921
# 3 -0.001805 -0.011193 0.015143 0.004636 -0.002162 0.003420
# 4 0.000918 -0.009038 0.004636 0.030249 0.008431 -0.003404
# 5 0.006857 0.003063 -0.002162 0.008431 0.073385 -0.045977
# 6 -0.005126 -0.003921 0.003420 -0.003404 -0.045977 0.059597
#
#
# Mechanical properties :
#
#
# Convention : Reuss Voigt Hill
#
# Bulk Modulus (GPa) = 61.86569 69.32888 65.59729
# Shear Modulus (GPa) = 20.02878 32.12277 26.07578
#
# Velocity S-wave (km/s) = 3.14308 3.98048 3.58631
# Velocity P-wave (km/s) = 6.60958 7.43783 7.03590
#
# Compressibility (1/GPa) = 0.01616405
#
# Stress axis : x y z
#
# Youngs Moduli (GPa) = 86.84850 45.58939 66.03552
#
# Poissons Ratio (x) = 0.14663 0.11921
# Poissons Ratio (y) = 0.27933 0.73912
# Poissons Ratio (z) = 0.15679 0.51027
#
# Static dielectric constant tensor:
#      x y z
#    x 3.640890 -0.045120 -0.051080 
#    y -0.045120 3.726620 0.236210 
#    z -0.051080 0.236210 3.889740 
# 
# 
# High freq. dielectric constant tensor:
#      x y z
#    x 1.792640 -0.003150 0.000940 
#    y -0.003150 1.795380 0.018050 
#    z 0.000940 0.018050 1.802620 
# 
# From -- ./inp_files/185239.got.cif
#   From: 2010.06.25/outbox.cif.g09.slc.cpg/sg2_93_cif.got.tgz:185239.got - 2010.06.27 13:26:56.
