data_PCOD8014391
_publ_section_title
;
Structure prediction by ZEFSAII (Michael W. Deem and Ramdas Pophale) SiO2 
 PCOD8014391
Probable space group: P -1
;
_chemical_formula_sum "Si O2"
_cell_formula_units_Z 16
_cell_length_a 10.986607
_cell_length_b 9.435134
_cell_length_c 14.411655
_cell_angle_alpha 109.296878
_cell_angle_beta 148.087256
_cell_angle_gamma 66.089613
_cell_volume 721.664432
_symmetry_space_group_name_H-M "P -1"
_symmetry_group_IT_number 2
_symmetry_cell_setting 'triclinic'
loop_
_space_group_symop_operation_xyz
x,y,z
-x,-y,-z
loop_
_atom_site_type_symbol
_atom_site_label
_atom_site_fract_x
_atom_site_fract_y
_atom_site_fract_z
Si Si1 0.980505 0.657228 0.212975
Si Si2 0.595933 0.765216 0.852007
Si Si3 0.271734 0.795234 0.174695
Si Si4 0.132127 0.360137 0.659921
Si Si5 0.371758 0.054318 0.656633
Si Si6 0.628121 0.490130 0.290765
Si Si7 0.354546 0.824310 0.444058
Si Si8 0.161357 0.315296 0.192914
O O1 0.235741 0.697118 0.388323
O O2 0.004696 0.480742 0.159518
O O3 0.838205 0.682805 0.222747
O O4 0.819687 0.776743 0.062098
O O5 0.443272 0.672264 0.793589
O O6 0.690965 0.667241 0.799875
O O7 0.435088 0.933630 0.756906
O O8 0.385457 0.899205 0.202650
O O9 0.427709 0.618354 0.241201
O O10 0.264199 0.861537 0.288820
O O11 0.010712 0.797984 0.966100
O O12 0.168121 0.201966 0.589272
O O13 0.324858 0.453048 0.770662
O O14 0.870239 0.470075 0.500901
O O15 0.275615 0.980633 0.488517
O O16 0.642621 0.761246 0.619184
#
# Coordination Sequence:
#
# PCOD8014391 Si02
#       8
#     2   2   2   2   2   2   2   2
#     4  12  22  39  65  98 126 168 214 262 321 376
#     4  11  22  39  64  93 129 164 208 263 323 370
#     4  11  21  44  68  96 129 164 214 266 322 375
#     4  10  23  42  65  90 127 170 217 261 313 377
#     4  10  25  43  61  93 132 176 208 259 315 383
#     4  10  21  41  67  90 121 166 213 269 314 366
#     4  11  23  38  67  99 127 169 210 258 327 385
#     4  11  22  40  68  98 130 160 209 278 316 371
#
# _framework density 22.170970000000001
#
# number of rings (size 3 to 8) (size 9 to 14) (size 15 to 20)
#    0.000    1.250    2.500    4.125    0.000    5.000 
#    2.250    0.000    0.000    0.000    0.000    0.000 
#    0.000    0.000    0.000    0.000    0.000    0.000 
#
# Total GULP energy -198411.500186 kJ/mol
# GULP energy per Si atom -12400.718762 kJ/mol
# Density = 2.212051 g / cm^3
# Si number density = 22.170970 Si / 1000 Ang^3
#
#
#
# Elastic Constant Matrix: (Units=GPa)
#
#
# Indices 1 2 3 4 5 6 
#
# 1 80.5905 28.1648 23.8662 3.0269 -3.6430 4.8286
# 2 28.1648 85.3961 22.2223 7.6748 -1.7451 9.4885
# 3 23.8662 22.2223 108.1318 13.7959 -0.8498 3.4065
# 4 3.0269 7.6748 13.7959 27.8455 4.1589 4.9377
# 5 -3.6430 -1.7451 -0.8498 4.1589 25.4650 2.0308
# 6 4.8286 9.4885 3.4065 4.9377 2.0308 32.1611
#
#
#
# Elastic Compliance Matrix: (Units=1/GPa)
#
#
# Indices 1 2 3 4 5 6 
#
# 1 0.014680 -0.004129 -0.002433 0.000659 0.001703 -0.000937
# 2 -0.004129 0.014046 -0.001587 -0.002230 0.000928 -0.003072
# 3 -0.002433 -0.001587 0.010713 -0.004772 0.000649 0.000390
# 4 0.000659 -0.002230 -0.004772 0.040631 -0.006474 -0.004765
# 5 0.001703 0.000928 0.000649 -0.006474 0.040830 -0.002183
# 6 -0.000937 -0.003072 0.000390 -0.004765 -0.002183 0.032969
#
#
# Mechanical properties :
#
#
# Convention : Reuss Voigt Hill
#
# Bulk Modulus (GPa) = 43.21219 46.95834 45.08527
# Shear Modulus (GPa) = 28.10902 30.41866 29.26384
#
# Velocity S-wave (km/s) = 3.56452 3.70808 3.63701
# Velocity P-wave (km/s) = 6.03936 6.28961 6.16575
#
# Compressibility (1/GPa) = 0.02314162
#
# Stress axis : x y z
#
# Youngs Moduli (GPa) = 68.11884 71.19684 93.34799
#
# Poissons Ratio (x) = 0.29397 0.22710
# Poissons Ratio (y) = 0.28126 0.14810
# Poissons Ratio (z) = 0.16572 0.11296
#
# Static dielectric constant tensor:
#      x y z
#    x 4.010280 0.103610 0.087170 
#    y 0.103610 3.883930 0.041710 
#    z 0.087170 0.041710 3.921500 
# 
# 
# High freq. dielectric constant tensor:
#      x y z
#    x 1.870740 0.011150 0.008400 
#    y 0.011150 1.866950 0.001610 
#    z 0.008400 0.001610 1.867260 
# 
# From -- ./inp_files/398579.got.cif
#   From: 2010.06.25/outbox.cif.g09.slc.cpg/sg2_200_cif.got.tgz:398579.got - 2010.06.27 13:26:56.
