data_PCOD8014411
_publ_section_title
;
Structure prediction by ZEFSAII (Michael W. Deem and Ramdas Pophale) SiO2 
 PCOD8014411
Probable space group: P -1
;
_chemical_formula_sum "Si O2"
_cell_formula_units_Z 16
_cell_length_a 16.253242
_cell_length_b 18.724761
_cell_length_c 12.475199
_cell_angle_alpha 43.048866
_cell_angle_beta 25.134566
_cell_angle_gamma 28.822801
_cell_volume 740.489288
_symmetry_space_group_name_H-M "P -1"
_symmetry_group_IT_number 2
_symmetry_cell_setting 'triclinic'
loop_
_space_group_symop_operation_xyz
x,y,z
-x,-y,-z
loop_
_atom_site_type_symbol
_atom_site_label
_atom_site_fract_x
_atom_site_fract_y
_atom_site_fract_z
Si Si1 0.299750 0.162828 0.000472
Si Si2 0.712005 0.636883 0.754067
Si Si3 0.547569 0.278913 0.566017
Si Si4 0.808621 0.956026 0.908526
Si Si5 0.648843 0.898521 0.540677
Si Si6 0.264759 0.660148 0.164611
Si Si7 0.797464 0.394729 0.477263
Si Si8 0.466595 0.712092 0.179266
O O1 0.458848 0.198012 0.718784
O O2 0.119558 0.162779 0.132184
O O3 0.105085 0.298441 0.169993
O O4 0.500000 0.000000 0.000000
O O5 0.653711 0.776988 0.642132
O O6 0.000000 0.500000 0.500000
O O7 0.428428 0.695011 0.978391
O O8 0.729818 0.611334 0.891239
O O9 0.415197 0.424462 0.492287
O O10 0.447587 0.336961 0.744126
O O11 0.885298 0.148539 0.282686
O O12 0.712894 0.107504 0.810097
O O13 0.563598 0.998206 0.222325
O O14 0.977953 0.807692 0.273732
O O15 0.500000 0.000000 0.500000
O O16 0.157690 0.630569 0.420769
O O17 0.500000 0.500000 0.000000
O O18 0.711376 0.318418 0.611290
#
# Coordination Sequence:
#
# PCOD8014411 Si02
#       8
#     2   2   2   2   2   2   2   2
#     4  12  23  41  67  94 135 177 221 265 343 406
#     4  10  22  43  70 100 131 184 225 271 347 403
#     4  12  24  41  65 101 135 176 223 280 335 399
#     4  11  24  43  65  95 135 180 219 272 344 402
#     4  11  26  46  70 101 133 171 234 285 331 404
#     4  11  24  45  72  94 133 181 221 277 347 401
#     4  11  25  42  65 101 135 171 229 282 333 403
#     4  10  21  41  67  92 137 179 219 271 337 402
#
# _framework density 21.607334999999999
#
# number of rings (size 3 to 8) (size 9 to 14) (size 15 to 20)
#    0.000    1.000    3.750    2.625    3.500    2.500 
#    2.250    0.000    0.000    0.000    0.000    0.000 
#    0.000    0.000    0.000    0.000    0.000    0.000 
#
# Total GULP energy -198214.620808 kJ/mol
# GULP energy per Si atom -12388.413801 kJ/mol
# Density = 2.155816 g / cm^3
# Si number density = 21.607335 Si / 1000 Ang^3
#
#
#
# Elastic Constant Matrix: (Units=GPa)
#
#
# Indices 1 2 3 4 5 6 
#
# 1 61.8954 46.8589 21.1010 -3.0567 -3.5580 -3.3445
# 2 46.8589 58.6780 41.5168 5.5152 -1.4813 -6.4031
# 3 21.1010 41.5168 119.5815 17.3613 -6.6028 0.2595
# 4 -3.0567 5.5152 17.3613 36.0698 9.7635 -3.3932
# 5 -3.5580 -1.4813 -6.6028 9.7635 40.6433 -0.4769
# 6 -3.3445 -6.4031 0.2595 -3.3932 -0.4769 41.1977
#
#
#
# Elastic Compliance Matrix: (Units=1/GPa)
#
#
# Indices 1 2 3 4 5 6 
#
# 1 0.045920 -0.041274 0.005308 0.006995 0.001673 -0.002125
# 2 -0.041274 0.060258 -0.012995 -0.005336 -0.002180 0.005632
# 3 0.005308 -0.012995 0.012814 -0.004787 0.003199 -0.002027
# 4 0.006995 -0.005336 -0.004787 0.033967 -0.008491 0.002468
# 5 0.001673 -0.002180 0.003199 -0.008491 0.027224 -0.000607
# 6 -0.002125 0.005632 -0.002027 0.002468 -0.000607 0.025185
#
#
# Mechanical properties :
#
#
# Convention : Reuss Voigt Hill
#
# Bulk Modulus (GPa) = 47.46067 51.01202 49.23635
# Shear Modulus (GPa) = 16.11273 32.29404 24.20339
#
# Velocity S-wave (km/s) = 2.73373 3.87018 3.35049
# Velocity P-wave (km/s) = 5.65483 6.60538 6.14850
#
# Compressibility (1/GPa) = 0.02107008
#
# Stress axis : x y z
#
# Youngs Moduli (GPa) = 21.77686 16.59528 78.04116
#
# Poissons Ratio (x) = 0.68495 -0.41424
# Poissons Ratio (y) = 0.89881 1.01418
# Poissons Ratio (z) = -0.11559 0.21566
#
# Static dielectric constant tensor:
#      x y z
#    x 4.133500 0.131690 0.060690 
#    y 0.131690 3.569080 -0.192080 
#    z 0.060690 -0.192080 4.025060 
# 
# 
# High freq. dielectric constant tensor:
#      x y z
#    x 1.846180 0.019270 -0.002640 
#    y 0.019270 1.843730 -0.004390 
#    z -0.002640 -0.004390 1.866750 
# 
# From -- ./inp_files/456937.got.cif
#   From: 2010.06.25/outbox.cif.g09.slc.cpg/sg2_229_cif.got.tgz:456937.got - 2010.06.27 13:26:56.
