data_PCOD8014812
_publ_section_title
;
Structure prediction by ZEFSAII (Michael W. Deem and Ramdas Pophale) SiO2 
 PCOD8014812
Probable space group: P -1
;
_chemical_formula_sum "Si O2"
_cell_formula_units_Z 16
_cell_length_a 17.421841
_cell_length_b 7.766074
_cell_length_c 16.096467
_cell_angle_alpha 111.993593
_cell_angle_beta 31.673751
_cell_angle_gamma 133.630744
_cell_volume 685.891934
_symmetry_space_group_name_H-M "P -1"
_symmetry_group_IT_number 2
_symmetry_cell_setting 'triclinic'
loop_
_space_group_symop_operation_xyz
x,y,z
-x,-y,-z
loop_
_atom_site_type_symbol
_atom_site_label
_atom_site_fract_x
_atom_site_fract_y
_atom_site_fract_z
Si Si1 0.873594 0.098759 0.089221
Si Si2 0.780980 0.035231 0.621327
Si Si3 0.476776 0.055639 0.832020
Si Si4 0.060881 0.242745 0.250927
Si Si5 0.697106 0.839398 0.380510
Si Si6 0.430854 0.381997 0.853350
Si Si7 0.741288 0.178383 0.845662
Si Si8 0.313243 0.709453 0.760394
O O1 0.781905 0.220278 0.197730
O O2 0.850808 0.992475 0.183543
O O3 0.136080 0.363285 0.864531
O O4 0.734234 0.833974 0.108100
O O5 0.683998 0.134059 0.689960
O O6 0.000788 0.189150 0.394471
O O7 0.850143 0.137019 0.672494
O O8 0.605001 0.697845 0.713329
O O9 0.334419 0.798353 0.851497
O O10 0.561441 0.328942 0.760439
O O11 0.300980 0.947009 0.046879
O O12 0.285763 0.338602 0.051887
O O13 0.100850 0.490603 0.227517
O O14 0.857434 0.959626 0.333472
O O15 0.500000 0.500000 0.500000
O O16 0.558371 0.896424 0.531685
O O17 0.500000 0.000000 0.000000
#
# Coordination Sequence:
#
# PCOD8014812 Si02
#       8
#     2   2   2   2   2   2   2   2
#     4  10  23  38  63  89 127 169 209 256 317 372
#     4  11  23  45  65  93 131 163 215 265 321 380
#     4  10  21  43  67  89 130 170 205 267 322 372
#     4  12  23  41  67  94 129 172 212 264 322 377
#     4  12  24  36  62  96 127 166 211 256 313 377
#     4  11  24  42  63  97 128 168 214 264 314 381
#     4  10  21  42  70  92 124 173 211 264 325 379
#     4  10  21  42  59  91 127 165 211 260 310 380
#
# _framework density 23.327290999999999
#
# number of rings (size 3 to 8) (size 9 to 14) (size 15 to 20)
#    0.000    1.250    3.750    3.000    0.000    1.500 
#    2.250    4.375    0.000    0.000    0.000    0.000 
#    0.000    0.000    0.000    0.000    0.000    0.000 
#
# Total GULP energy -198403.315248 kJ/mol
# GULP energy per Si atom -12400.207203 kJ/mol
# Density = 2.327420 g / cm^3
# Si number density = 23.327291 Si / 1000 Ang^3
#
#
#
# Elastic Constant Matrix: (Units=GPa)
#
#
# Indices 1 2 3 4 5 6 
#
# 1 47.4601 9.0994 2.4701 8.3711 18.5076 -2.3349
# 2 9.0994 89.0499 4.6301 0.0172 9.9646 -2.4698
# 3 2.4701 4.6301 91.1023 4.2135 23.6784 -8.1143
# 4 8.3711 0.0172 4.2135 25.0428 10.4359 4.7064
# 5 18.5076 9.9646 23.6784 10.4359 33.7675 7.1313
# 6 -2.3349 -2.4698 -8.1143 4.7064 7.1313 34.7987
#
#
#
# Elastic Compliance Matrix: (Units=1/GPa)
#
#
# Indices 1 2 3 4 5 6 
#
# 1 0.030021 -0.000836 0.005445 -0.003903 -0.020499 0.007954
# 2 -0.000836 0.011808 0.000603 0.001664 -0.004297 0.001578
# 3 0.005445 0.000603 0.015503 0.000809 -0.015793 0.007150
# 4 -0.003903 0.001664 0.000809 0.047085 -0.012684 -0.003724
# 5 -0.020499 -0.004297 -0.015793 -0.012684 0.060501 -0.016046
# 6 0.007954 0.001578 0.007150 -0.003724 -0.016046 0.034842
#
#
# Mechanical properties :
#
#
# Convention : Reuss Voigt Hill
#
# Bulk Modulus (GPa) = 14.75865 28.89016 21.82440
# Shear Modulus (GPa) = 23.59398 32.81597 28.20497
#
# Velocity S-wave (km/s) = 3.18375 3.75475 3.48098
# Velocity P-wave (km/s) = 4.45596 5.58651 5.05295
#
# Compressibility (1/GPa) = 0.06775688
#
# Stress axis : x y z
#
# Youngs Moduli (GPa) = 33.31025 84.68886 64.50518
#
# Poissons Ratio (x) = 0.07076 -0.35126
# Poissons Ratio (y) = 0.02783 -0.03889
# Poissons Ratio (z) = -0.18139 -0.05106
#
# Static dielectric constant tensor:
#      x y z
#    x 4.060750 0.074940 0.248600 
#    y 0.074940 4.439300 0.290640 
#    z 0.248600 0.290640 4.475420 
# 
# 
# High freq. dielectric constant tensor:
#      x y z
#    x 1.901130 0.004090 0.014210 
#    y 0.004090 1.936700 0.007230 
#    z 0.014210 0.007230 1.923880 
# 
# From -- ./inp_files/577363.got.cif
#   From: 2010.06.25/outbox.cif.g09.slc.cpg/sg2_289_cif.got.tgz:577363.got - 2010.06.27 13:26:56.
