data_PCOD8014466
_publ_section_title
;
Structure prediction by ZEFSAII (Michael W. Deem and Ramdas Pophale) SiO2 
 PCOD8014466
Probable space group: P -1
;
_chemical_formula_sum "Si O2"
_cell_formula_units_Z 16
_cell_length_a 9.223762
_cell_length_b 7.521394
_cell_length_c 18.769717
_cell_angle_alpha 90.871224
_cell_angle_beta 52.978247
_cell_angle_gamma 55.669071
_cell_volume 723.643997
_symmetry_space_group_name_H-M "P -1"
_symmetry_group_IT_number 2
_symmetry_cell_setting 'triclinic'
loop_
_space_group_symop_operation_xyz
x,y,z
-x,-y,-z
loop_
_atom_site_type_symbol
_atom_site_label
_atom_site_fract_x
_atom_site_fract_y
_atom_site_fract_z
Si Si1 0.909889 0.445225 0.401321
Si Si2 0.438743 0.928378 0.307701
Si Si3 0.430905 0.737195 0.173671
Si Si4 0.751679 0.478825 0.719309
Si Si5 0.734705 0.449459 0.303950
Si Si6 0.262954 0.041836 0.089943
Si Si7 0.275181 0.790037 0.952889
Si Si8 0.468716 0.279970 0.357286
O O1 0.784907 0.424054 0.373389
O O2 0.683023 0.652319 0.524673
O O3 0.009876 0.557288 0.334213
O O4 0.135390 0.180137 0.376929
O O5 0.563855 0.759297 0.197427
O O6 0.488048 0.745881 0.354330
O O7 0.576155 0.015096 0.293456
O O8 0.210991 0.753149 0.269925
O O9 0.657411 0.467697 0.064413
O O10 0.288011 0.965437 0.163464
O O11 0.491473 0.736209 0.838698
O O12 0.726410 0.501285 0.641842
O O13 0.693334 0.267835 0.301352
O O14 0.979277 0.335919 0.179672
O O15 0.500000 0.000000 0.000000
O O16 0.267205 0.872909 0.034738
O O17 0.000000 0.000000 0.000000
#
# Coordination Sequence:
#
# PCOD8014466 Si02
#       8
#     2   2   2   2   2   2   2   2
#     4  11  24  46  70 105 142 182 234 292 347 417
#     4  11  23  46  69 103 136 189 231 283 350 412
#     4  10  22  42  69  97 135 189 227 280 358 398
#     4   9  20  41  69  96 138 180 226 279 346 411
#     4  12  25  47  69 104 144 180 236 293 349 413
#     4  12  25  45  67 101 138 183 235 287 346 424
#     4  10  21  41  67  97 132 177 229 281 345 415
#     4  11  24  45  73 102 140 185 233 289 351 414
#
# _framework density 22.110316999999998
#
# number of rings (size 3 to 8) (size 9 to 14) (size 15 to 20)
#    0.750    0.500    2.500    4.500    1.750    2.000 
#    9.000    1.250    0.000    0.000    0.000    0.000 
#    0.000    0.000    0.000    0.000    0.000    0.000 
#
# Total GULP energy -198214.025622 kJ/mol
# GULP energy per Si atom -12388.376601 kJ/mol
# Density = 2.205999 g / cm^3
# Si number density = 22.110317 Si / 1000 Ang^3
#
#
#
# Elastic Constant Matrix: (Units=GPa)
#
#
# Indices 1 2 3 4 5 6 
#
# 1 142.0845 52.8988 40.8689 -3.7573 17.3791 8.1217
# 2 52.8988 103.8586 30.7152 -7.7781 1.7406 7.8892
# 3 40.8689 30.7152 92.9509 -11.8148 7.6424 4.7835
# 4 -3.7573 -7.7781 -11.8148 26.2389 1.2670 2.2013
# 5 17.3791 1.7406 7.6424 1.2670 40.9854 -4.2902
# 6 8.1217 7.8892 4.7835 2.2013 -4.2902 34.0514
#
#
#
# Elastic Compliance Matrix: (Units=1/GPa)
#
#
# Indices 1 2 3 4 5 6 
#
# 1 0.009847 -0.004104 -0.002694 -0.000724 -0.003626 -0.001429
# 2 -0.004104 0.012611 -0.002102 0.002275 0.001356 -0.001624
# 3 -0.002694 -0.002102 0.013503 0.005258 -0.001586 -0.001307
# 4 -0.000724 0.002275 0.005258 0.041512 -0.002481 -0.004089
# 5 -0.003626 0.001356 -0.001586 -0.002481 0.026701 0.004298
# 6 -0.001429 -0.001624 -0.001307 -0.004089 0.004298 0.031074
#
#
# Mechanical properties :
#
#
# Convention : Reuss Voigt Hill
#
# Bulk Modulus (GPa) = 55.05729 65.31776 60.18752
# Shear Modulus (GPa) = 31.42652 34.54921 32.98787
#
# Velocity S-wave (km/s) = 3.77417 3.95724 3.86679
# Velocity P-wave (km/s) = 6.62931 7.10532 6.87144
#
# Compressibility (1/GPa) = 0.01816290
#
# Stress axis : x y z
#
# Youngs Moduli (GPa) = 101.55647 79.29497 74.05614
#
# Poissons Ratio (x) = 0.32539 0.19950
# Poissons Ratio (y) = 0.41674 0.15565
# Poissons Ratio (z) = 0.27358 0.16666
#
# Static dielectric constant tensor:
#      x y z
#    x 3.693480 -0.055530 -0.479480 
#    y -0.055530 3.920030 -0.061320 
#    z -0.479480 -0.061320 3.298020 
# 
# 
# High freq. dielectric constant tensor:
#      x y z
#    x 1.884370 0.002410 0.023010 
#    y 0.002410 1.854610 -0.006280 
#    z 0.023010 -0.006280 1.855410 
# 
# From -- ./inp_files/557240.got.cif
#   From: 2010.06.25/outbox.cif.g09.slc.cpg/sg2_279_cif.got.tgz:557240.got - 2010.06.27 13:26:56.
