data_PCOD8014958
_publ_section_title
;
Structure prediction by ZEFSAII (Michael W. Deem and Ramdas Pophale) SiO2 
 PCOD8014958
Probable space group: P -1
;
_chemical_formula_sum "Si O2"
_cell_formula_units_Z 16
_cell_length_a 9.289886
_cell_length_b 8.723219
_cell_length_c 15.334205
_cell_angle_alpha 99.394156
_cell_angle_beta 40.548775
_cell_angle_gamma 100.537005
_cell_volume 793.644517
_symmetry_space_group_name_H-M "P -1"
_symmetry_group_IT_number 2
_symmetry_cell_setting 'triclinic'
loop_
_space_group_symop_operation_xyz
x,y,z
-x,-y,-z
loop_
_atom_site_type_symbol
_atom_site_label
_atom_site_fract_x
_atom_site_fract_y
_atom_site_fract_z
Si Si1 0.546943 0.690620 0.281991
Si Si2 0.156225 0.557462 0.193173
Si Si3 0.044634 0.165712 0.782709
Si Si4 0.790701 0.004562 0.034906
Si Si5 0.044933 0.963648 0.605516
Si Si6 0.356671 0.979870 0.315389
Si Si7 0.359310 0.350167 0.946400
Si Si8 0.096444 0.600906 0.545439
O O1 0.728684 0.780554 0.267394
O O2 0.657678 0.597255 0.143707
O O3 0.365253 0.593333 0.417101
O O4 0.410702 0.805445 0.296644
O O5 0.391757 0.611099 0.131121
O O6 0.032541 0.701953 0.231071
O O7 0.992543 0.469541 0.329748
O O8 0.185647 0.444761 0.087335
O O9 0.094945 0.018142 0.686262
O O10 0.849678 0.115227 0.935943
O O11 0.589529 0.075464 0.187954
O O12 0.712135 0.831972 0.021229
O O13 0.000000 0.000000 0.000000
O O14 0.811582 0.022876 0.688708
O O15 0.030020 0.777323 0.586764
O O16 0.240708 0.046710 0.460708
O O17 0.000000 0.500000 0.500000
#
# Coordination Sequence:
#
# PCOD8014958 Si02
#       8
#     2   2   2   2   2   2   2   2
#     4  10  21  42  64  89 130 166 202 262 321 369
#     4  11  25  40  65  94 124 165 216 261 305 376
#     4  12  24  40  65  97 128 163 208 265 315 372
#     4  11  21  41  64  92 126 169 204 255 319 377
#     4  10  23  40  67  97 122 162 217 263 311 369
#     4   9  20  39  65  92 121 162 208 261 306 369
#     4  10  21  43  64  88 128 166 210 259 312 368
#     4  11  23  42  67  89 125 170 208 256 315 374
#
# _framework density 20.160159
#
# number of rings (size 3 to 8) (size 9 to 14) (size 15 to 20)
#    0.000    1.500    3.750    2.250    3.500    7.000 
#    2.250    0.000    0.000    0.000    0.000    0.000 
#    0.000    0.000    0.000    0.000    0.000    0.000 
#
# Total GULP energy -198331.798148 kJ/mol
# GULP energy per Si atom -12395.737384 kJ/mol
# Density = 2.011427 g / cm^3
# Si number density = 20.160159 Si / 1000 Ang^3
#
#
#
# Elastic Constant Matrix: (Units=GPa)
#
#
# Indices 1 2 3 4 5 6 
#
# 1 90.7817 44.4266 68.1835 -0.8463 14.3471 16.6972
# 2 44.4266 89.0633 59.3603 -8.5485 6.5165 9.3064
# 3 68.1835 59.3603 185.3993 -24.5238 10.7631 14.0571
# 4 -0.8463 -8.5485 -24.5238 37.7286 4.3656 0.1583
# 5 14.3471 6.5165 10.7631 4.3656 29.7567 -2.1246
# 6 16.6972 9.3064 14.0571 0.1583 -2.1246 28.0695
#
#
#
# Elastic Compliance Matrix: (Units=1/GPa)
#
#
# Indices 1 2 3 4 5 6 
#
# 1 0.020040 -0.005651 -0.004994 -0.003266 -0.006713 -0.008036
# 2 -0.005651 0.016159 -0.002818 0.001716 -0.000090 -0.000601
# 3 -0.004994 -0.002818 0.008926 0.005171 -0.001010 -0.000671
# 4 -0.003266 0.001716 0.005171 0.030805 -0.005319 -0.001792
# 5 -0.006713 -0.000090 -0.001010 -0.005319 0.038542 0.007476
# 6 -0.008036 -0.000601 -0.000671 -0.001792 0.007476 0.041518
#
#
# Mechanical properties :
#
#
# Convention : Reuss Voigt Hill
#
# Bulk Modulus (GPa) = 54.94404 78.79836 66.87120
# Shear Modulus (GPa) = 26.45778 31.99587 29.22683
#
# Velocity S-wave (km/s) = 3.62661 3.98814 3.81167
# Velocity P-wave (km/s) = 6.69696 7.77033 7.25353
#
# Compressibility (1/GPa) = 0.01820034
#
# Stress axis : x y z
#
# Youngs Moduli (GPa) = 49.90013 61.88607 112.03132
#
# Poissons Ratio (x) = 0.34969 0.55947
# Poissons Ratio (y) = 0.28197 0.31568
# Poissons Ratio (z) = 0.24920 0.17438
#
# Static dielectric constant tensor:
#      x y z
#    x 3.544350 0.084350 0.140700 
#    y 0.084350 3.617860 -0.229780 
#    z 0.140700 -0.229780 4.674540 
# 
# 
# High freq. dielectric constant tensor:
#      x y z
#    x 1.778940 0.009910 0.007990 
#    y 0.009910 1.768180 -0.007070 
#    z 0.007990 -0.007070 1.816380 
# 
# From -- ./inp_files/243360.got.cif
#   From: 2010.06.25/outbox.cif.g09.slc.cpg/sg2_122_cif.got.tgz:243360.got - 2010.06.27 13:26:56.
