data_PCOD8014749
_publ_section_title
;
Structure prediction by ZEFSAII (Michael W. Deem and Ramdas Pophale) SiO2 
 PCOD8014749
Probable space group: P -1
;
_chemical_formula_sum "Si O2"
_cell_formula_units_Z 14
_cell_length_a 17.223138
_cell_length_b 7.877940
_cell_length_c 11.810158
_cell_angle_alpha 139.510012
_cell_angle_beta 139.293784
_cell_angle_gamma 41.791773
_cell_volume 622.169818
_symmetry_space_group_name_H-M "P -1"
_symmetry_group_IT_number 2
_symmetry_cell_setting 'triclinic'
loop_
_space_group_symop_operation_xyz
x,y,z
-x,-y,-z
loop_
_atom_site_type_symbol
_atom_site_label
_atom_site_fract_x
_atom_site_fract_y
_atom_site_fract_z
Si Si1 0.778237 0.167085 0.067253
Si Si2 0.232460 0.176574 0.924490
Si Si3 0.248205 0.203444 0.695457
Si Si4 0.836311 0.928835 0.688700
Si Si5 0.992705 0.289326 0.042229
Si Si6 0.515308 0.687476 0.713982
Si Si7 0.589342 0.170332 0.674526
O O1 0.773353 0.477618 0.198378
O O2 0.749005 0.119002 0.142085
O O3 0.664107 0.127411 0.852553
O O4 0.915673 0.925931 0.058330
O O5 0.204580 0.169208 0.756419
O O6 0.099004 0.400475 0.949118
O O7 0.352200 0.265640 0.125703
O O8 0.155171 0.131834 0.467232
O O9 0.398861 0.995731 0.746186
O O10 0.883625 0.174805 0.902849
O O11 0.685989 0.030200 0.605889
O O12 0.927590 0.668246 0.738210
O O13 0.500000 0.500000 0.500000
O O14 0.514148 0.508741 0.735942
O O15 0.500000 0.000000 0.500000
#
# Coordination Sequence:
#
# PCOD8014749 Si02
#       7
#     2   2   2   2   2   2   2
#     4  11  26  42  69 103 136 185 226 286 336 401
#     4  12  24  44  68 101 139 179 229 282 342 405
#     4  12  25  43  66 104 144 176 224 284 357 396
#     4  10  21  41  71  96 131 183 221 286 340 399
#     4  10  21  46  72  96 132 181 244 269 337 409
#     4  12  23  44  68  96 137 185 226 277 340 412
#     4  11  22  42  67 102 132 180 235 272 334 409
#
# _framework density 22.501894
#
# number of rings (size 3 to 8) (size 9 to 14) (size 15 to 20)
#    0.000    0.857    4.286    3.429    0.000    4.000 
#    0.000    4.286    0.000    0.000    0.000    0.000 
#    0.000    0.000    0.000    0.000    0.000    0.000 
#
# Total GULP energy -173499.784051 kJ/mol
# GULP energy per Si atom -12392.841718 kJ/mol
# Density = 2.245068 g / cm^3
# Si number density = 22.501894 Si / 1000 Ang^3
#
#
#
# Elastic Constant Matrix: (Units=GPa)
#
#
# Indices 1 2 3 4 5 6 
#
# 1 116.8693 61.0814 49.9878 -5.9096 -9.3764 26.9371
# 2 61.0814 139.5040 34.1737 -6.1687 -12.5055 3.1683
# 3 49.9878 34.1737 100.1202 -9.9401 -10.3575 -2.1524
# 4 -5.9096 -6.1687 -9.9401 18.7418 -10.2279 2.0096
# 5 -9.3764 -12.5055 -10.3575 -10.2279 22.0220 -4.6676
# 6 26.9371 3.1683 -2.1524 2.0096 -4.6676 41.8752
#
#
#
# Elastic Compliance Matrix: (Units=1/GPa)
#
#
# Indices 1 2 3 4 5 6 
#
# 1 0.016798 -0.005546 -0.006853 0.000227 -0.001427 -0.010908
# 2 -0.005546 0.010232 0.000597 0.005357 0.006925 0.003339
# 3 -0.006853 0.000597 0.015753 0.012157 0.011726 0.005897
# 4 0.000227 0.005357 0.012157 0.089056 0.050521 0.001431
# 5 -0.001427 0.006925 0.011726 0.050521 0.079284 0.007410
# 6 -0.010908 0.003339 0.005897 0.001431 0.007410 0.031705
#
#
# Mechanical properties :
#
#
# Convention : Reuss Voigt Hill
#
# Bulk Modulus (GPa) = 52.14545 71.88658 62.01602
# Shear Modulus (GPa) = 18.32669 30.61119 24.46894
#
# Velocity S-wave (km/s) = 2.85695 3.69234 3.30118
# Velocity P-wave (km/s) = 5.84012 7.08478 6.49235
#
# Compressibility (1/GPa) = 0.01917713
#
# Stress axis : x y z
#
# Youngs Moduli (GPa) = 59.53177 97.72924 63.48054
#
# Poissons Ratio (x) = 0.54203 0.43505
# Poissons Ratio (y) = 0.33018 -0.03787
# Poissons Ratio (z) = 0.40799 -0.05830
#
# Static dielectric constant tensor:
#      x y z
#    x 3.928860 0.084270 -0.156910 
#    y 0.084270 4.547850 -0.341420 
#    z -0.156910 -0.341420 4.042260 
# 
# 
# High freq. dielectric constant tensor:
#      x y z
#    x 1.875940 0.003570 -0.005450 
#    y 0.003570 1.906140 -0.023520 
#    z -0.005450 -0.023520 1.878940 
# 
# From -- ./inp_files/462582.got.cif
#   From: 2010.06.25/outbox.cif.g09.slc.cpg/sg2_232_cif.got.tgz:462582.got - 2010.06.27 13:26:56.
