data_PCOD8014157
_publ_section_title
;
Structure prediction by ZEFSAII (Michael W. Deem and Ramdas Pophale) SiO2 
 PCOD8014157
Probable space group: P -1
;
_chemical_formula_sum "Si O2"
_cell_formula_units_Z 16
_cell_length_a 14.382051
_cell_length_b 8.430475
_cell_length_c 6.924434
_cell_angle_alpha 108.046524
_cell_angle_beta 123.335463
_cell_angle_gamma 69.438867
_cell_volume 649.390394
_symmetry_space_group_name_H-M "P -1"
_symmetry_group_IT_number 2
_symmetry_cell_setting 'triclinic'
loop_
_space_group_symop_operation_xyz
x,y,z
-x,-y,-z
loop_
_atom_site_type_symbol
_atom_site_label
_atom_site_fract_x
_atom_site_fract_y
_atom_site_fract_z
Si Si1 0.550339 0.354541 0.846285
Si Si2 0.400320 0.172222 0.333232
Si Si3 0.371431 0.019442 0.609541
Si Si4 0.729407 0.141989 0.235778
Si Si5 0.190014 0.332645 0.601676
Si Si6 0.133780 0.612412 0.349888
Si Si7 0.071618 0.141282 0.660064
Si Si8 0.268123 0.492044 0.095045
O O1 0.455685 0.287721 0.591334
O O2 0.625101 0.426799 0.799745
O O3 0.500000 0.500000 0.000000
O O4 0.624582 0.197418 0.992943
O O5 0.348522 0.038972 0.357164
O O6 0.306259 0.300042 0.151350
O O7 0.491556 0.057888 0.244677
O O8 0.319114 0.211845 0.701469
O O9 0.310230 0.889367 0.602161
O O10 0.801472 0.286132 0.390528
O O11 0.804491 0.964041 0.161544
O O12 0.152072 0.420633 0.385170
O O13 0.095333 0.227327 0.515443
O O14 0.192728 0.480501 0.816412
O O15 0.184638 0.611530 0.194942
O O16 0.998517 0.708284 0.223675
O O17 0.000000 0.000000 0.500000
#
# Coordination Sequence:
#
# PCOD8014157 Si02
#       8
#     2   2   2   2   2   2   2   2
#     4  12  23  39  65  96 135 172 218 267 316 380
#     4  11  23  38  60  94 132 175 217 257 324 375
#     4  10  22  39  59  89 129 170 210 264 315 378
#     4  10  21  41  65  92 131 169 214 264 327 377
#     4  11  22  42  68  93 130 170 213 266 321 382
#     4  11  21  44  66  95 129 166 218 266 324 379
#     4   9  22  41  71  94 124 171 209 264 332 383
#     4  12  24  39  66  98 131 168 220 266 316 381
#
# _framework density 24.638490000000001
#
# number of rings (size 3 to 8) (size 9 to 14) (size 15 to 20)
#    0.000    1.250    2.500    3.750    0.000    5.500 
#    0.000    0.625    2.750    0.000    0.000    0.000 
#    0.000    0.000    0.000    0.000    0.000    0.000 
#
# Total GULP energy -198233.695440 kJ/mol
# GULP energy per Si atom -12389.605965 kJ/mol
# Density = 2.458241 g / cm^3
# Si number density = 24.638490 Si / 1000 Ang^3
#
#
#
# Elastic Constant Matrix: (Units=GPa)
#
#
# Indices 1 2 3 4 5 6 
#
# 1 118.7591 48.3497 30.6145 -5.4033 -42.1137 -13.4130
# 2 48.3497 102.1428 24.6449 -16.0227 -20.3861 -19.8282
# 3 30.6145 24.6449 64.1807 1.8363 -19.6626 -4.8852
# 4 -5.4033 -16.0227 1.8363 44.3242 2.9104 -7.7226
# 5 -42.1137 -20.3861 -19.6626 2.9104 35.1064 5.1951
# 6 -13.4130 -19.8282 -4.8852 -7.7226 5.1951 64.3539
#
#
#
# Elastic Compliance Matrix: (Units=1/GPa)
#
#
# Indices 1 2 3 4 5 6 
#
# 1 0.016254 -0.004084 -0.001081 -0.000414 0.016457 0.000669
# 2 -0.004084 0.014206 -0.003203 0.005413 0.000533 0.003889
# 3 -0.001081 -0.003203 0.019903 -0.002784 0.008327 -0.000707
# 4 -0.000414 0.005413 -0.002784 0.025490 -0.001702 0.004566
# 5 0.016457 0.000533 0.008327 -0.001702 0.053384 -0.000287
# 6 0.000669 0.003889 -0.000707 0.004566 -0.000287 0.017394
#
#
# Mechanical properties :
#
#
# Convention : Reuss Voigt Hill
#
# Bulk Modulus (GPa) = 29.73563 54.70009 42.21786
# Shear Modulus (GPa) = 28.64075 40.85514 34.74794
#
# Velocity S-wave (km/s) = 3.41316 4.07650 3.75949
# Velocity P-wave (km/s) = 5.25622 6.66381 6.00142
#
# Compressibility (1/GPa) = 0.03362969
#
# Stress axis : x y z
#
# Youngs Moduli (GPa) = 61.52204 70.39033 50.24333
#
# Poissons Ratio (x) = 0.28745 0.05429
# Poissons Ratio (y) = 0.25124 0.16092
# Poissons Ratio (z) = 0.06648 0.22545
#
# Static dielectric constant tensor:
#      x y z
#    x 4.819160 -0.216920 -0.387710 
#    y -0.216920 4.811410 -0.198220 
#    z -0.387710 -0.198220 3.981560 
# 
# 
# High freq. dielectric constant tensor:
#      x y z
#    x 1.990900 -0.003100 -0.028620 
#    y -0.003100 2.000510 -0.010210 
#    z -0.028620 -0.010210 1.942630 
# 
# From -- ./inp_files/90495.got.cif
#   From: 2010.06.25/outbox.cif.g09.slc.cpg/sg2_46_cif.got.tgz:90495.got - 2010.06.27 13:26:56.
