data_PCOD8015780
_publ_section_title
;
Structure prediction by ZEFSAII (Michael W. Deem and Ramdas Pophale) SiO2 
 PCOD8015780
Probable space group: P -1
;
_chemical_formula_sum "Si O2"
_cell_formula_units_Z 14
_cell_length_a 17.763621
_cell_length_b 17.358607
_cell_length_c 12.178868
_cell_angle_alpha 157.216083
_cell_angle_beta 137.041577
_cell_angle_gamma 29.538402
_cell_volume 666.616233
_symmetry_space_group_name_H-M "P -1"
_symmetry_group_IT_number 2
_symmetry_cell_setting 'triclinic'
loop_
_space_group_symop_operation_xyz
x,y,z
-x,-y,-z
loop_
_atom_site_type_symbol
_atom_site_label
_atom_site_fract_x
_atom_site_fract_y
_atom_site_fract_z
Si Si1 0.694669 0.269593 0.401599
Si Si2 0.213756 0.027512 0.659868
Si Si3 0.884339 0.673122 0.350929
Si Si4 0.142102 0.530129 0.169406
Si Si5 0.322220 0.272188 0.617878
Si Si6 0.858031 0.714600 0.722074
Si Si7 0.332759 0.709757 0.161870
O O1 0.500000 0.500000 0.500000
O O2 0.735488 0.447996 0.666931
O O3 0.763935 0.102493 0.370985
O O4 0.785177 0.033082 0.087597
O O5 0.046633 0.161941 0.600246
O O6 0.355864 0.781099 0.400430
O O7 0.205769 0.278814 0.993442
O O8 0.803909 0.647855 0.325881
O O9 0.070139 0.463839 0.319400
O O10 0.800370 0.997928 0.670502
O O11 0.872936 0.552852 0.074115
O O12 0.299626 0.196688 0.375375
O O13 0.500000 0.000000 0.500000
O O14 0.278771 0.557639 0.924944
O O15 0.000000 0.500000 0.500000
O O16 0.500000 0.500000 0.000000
#
# Coordination Sequence:
#
# PCOD8015780 Si02
#       7
#     2   2   2   2   2   2   2
#     4  12  26  41  68  99 136 175 217 277 339 386
#     4  10  23  41  69  96 124 172 228 264 327 401
#     4  10  21  43  65  92 129 164 220 272 316 394
#     4  10  22  43  69  92 128 170 222 271 323 394
#     4  11  23  40  66  90 134 171 211 268 332 388
#     4  10  25  42  62  99 130 170 221 267 323 395
#     4  11  23  38  67 100 125 173 220 268 329 391
#
# _framework density 21.001587000000001
#
# number of rings (size 3 to 8) (size 9 to 14) (size 15 to 20)
#    0.000    1.429    2.857    1.286    8.000    1.143 
#    0.000    2.857    0.000    0.000    0.000    0.000 
#    0.000    0.000    0.000    0.000    0.000    0.000 
#
# Total GULP energy -173468.886537 kJ/mol
# GULP energy per Si atom -12390.634753 kJ/mol
# Density = 2.095379 g / cm^3
# Si number density = 21.001587 Si / 1000 Ang^3
#
#
#
# Elastic Constant Matrix: (Units=GPa)
#
#
# Indices 1 2 3 4 5 6 
#
# 1 105.8000 19.3093 48.2682 0.2414 22.7901 -4.5970
# 2 19.3093 95.5035 52.4806 -7.5758 18.6075 -16.0140
# 3 48.2682 52.4806 125.1877 0.8332 11.5392 -5.2137
# 4 0.2414 -7.5758 0.8332 25.8362 -0.5113 -1.9235
# 5 22.7901 18.6075 11.5392 -0.5113 52.0763 6.2451
# 6 -4.5970 -16.0140 -5.2137 -1.9235 6.2451 22.0422
#
#
#
# Elastic Compliance Matrix: (Units=1/GPa)
#
#
# Indices 1 2 3 4 5 6 
#
# 1 0.012875 0.002282 -0.005183 0.000962 -0.005875 0.004866
# 2 0.002282 0.018633 -0.007394 0.006647 -0.007757 0.015042
# 3 -0.005183 -0.007394 0.012680 -0.002807 0.002605 -0.004437
# 4 0.000962 0.006647 -0.002807 0.041333 -0.002820 0.008772
# 5 -0.005875 -0.007757 0.002605 -0.002820 0.025588 -0.013741
# 6 0.004866 0.015042 -0.004437 0.008772 -0.013741 0.060920
#
#
# Mechanical properties :
#
#
# Convention : Reuss Voigt Hill
#
# Bulk Modulus (GPa) = 42.37660 62.95637 52.66649
# Shear Modulus (GPa) = 24.93948 33.75316 29.34632
#
# Velocity S-wave (km/s) = 3.44976 4.01330 3.74215
# Velocity P-wave (km/s) = 6.00744 7.17757 6.61842
#
# Compressibility (1/GPa) = 0.02359793
#
# Stress axis : x y z
#
# Youngs Moduli (GPa) = 77.67202 53.66680 78.86543
#
# Poissons Ratio (x) = -0.12246 0.40875
# Poissons Ratio (y) = -0.17724 0.58313
# Poissons Ratio (z) = 0.40256 0.39681
#
# Static dielectric constant tensor:
#      x y z
#    x 3.951680 0.253610 -0.098290 
#    y 0.253610 6.736580 -1.384820 
#    z -0.098290 -1.384820 4.954920 
# 
# 
# High freq. dielectric constant tensor:
#      x y z
#    x 1.824910 0.011390 -0.009790 
#    y 0.011390 1.818400 0.011490 
#    z -0.009790 0.011490 1.831120 
# 
# From -- ./inp_files/257229.got.cif
#   From: 2010.06.25/outbox.cif.g09.slc.cpg/sg2_129_cif.got.tgz:257229.got - 2010.06.27 13:26:56.
