data_PCOD8015468
_publ_section_title
;
Structure prediction by ZEFSAII (Michael W. Deem and Ramdas Pophale) SiO2 
 PCOD8015468
Probable space group: P -1
;
_chemical_formula_sum "Si O2"
_cell_formula_units_Z 16
_cell_length_a 20.996395
_cell_length_b 5.416394
_cell_length_c 9.989763
_cell_angle_alpha 43.284531
_cell_angle_beta 56.560378
_cell_angle_gamma 70.389037
_cell_volume 645.710318
_symmetry_space_group_name_H-M "P -1"
_symmetry_group_IT_number 2
_symmetry_cell_setting 'triclinic'
loop_
_space_group_symop_operation_xyz
x,y,z
-x,-y,-z
loop_
_atom_site_type_symbol
_atom_site_label
_atom_site_fract_x
_atom_site_fract_y
_atom_site_fract_z
Si Si1 0.097989 0.192736 0.198363
Si Si2 0.480851 0.729423 0.305757
Si Si3 0.835597 0.506722 0.520748
Si Si4 0.562786 0.375443 0.105156
Si Si5 0.198294 0.506558 0.726676
Si Si6 0.654476 0.793860 0.373091
Si Si7 0.311006 0.192146 0.380411
Si Si8 0.946004 0.801813 0.468758
O O1 0.105122 0.323852 0.291563
O O2 0.135866 0.818152 0.299198
O O3 0.145833 0.470575 0.933421
O O4 0.006715 0.161026 0.279019
O O5 0.500000 0.500000 0.500000
O O6 0.521273 0.595927 0.178146
O O7 0.388947 0.621544 0.432134
O O8 0.505266 0.160112 0.143179
O O9 0.855368 0.509306 0.338066
O O10 0.743548 0.492789 0.647355
O O11 0.886654 0.855580 0.393834
O O12 0.609545 0.072559 0.234317
O O13 0.623186 0.676743 0.851332
O O14 0.256821 0.194314 0.779708
O O15 0.251874 0.879879 0.511721
O O16 0.649526 0.916953 0.484518
O O17 0.000000 0.500000 0.500000
#
# Coordination Sequence:
#
# PCOD8015468 Si02
#       8
#     2   2   2   2   2   2   2   2
#     4  10  21  42  69  94 126 177 213 277 330 398
#     4  10  23  44  71  99 129 178 231 281 344 402
#     4  10  22  43  61  95 135 169 220 276 329 406
#     4  11  25  44  72  95 135 181 224 288 341 399
#     4  11  25  40  65  96 136 171 227 271 337 403
#     4  10  24  43  65  95 132 171 225 276 333 407
#     4  11  26  40  63  98 131 177 220 272 334 406
#     4   9  20  40  68  95 127 165 224 265 335 398
#
# _framework density 24.778912999999999
#
# number of rings (size 3 to 8) (size 9 to 14) (size 15 to 20)
#    0.000    1.750    0.000    3.000    8.750    7.500 
#    0.000    8.750    0.000    0.000    0.000    0.000 
#    0.000    0.000    0.000    0.000    0.000    0.000 
#
# Total GULP energy -198307.774935 kJ/mol
# GULP energy per Si atom -12394.235933 kJ/mol
# Density = 2.472252 g / cm^3
# Si number density = 24.778913 Si / 1000 Ang^3
#
#
#
# Elastic Constant Matrix: (Units=GPa)
#
#
# Indices 1 2 3 4 5 6 
#
# 1 138.9853 29.3761 58.4755 12.6213 -4.7870 31.6328
# 2 29.3761 98.9807 54.4036 15.4871 -3.3190 36.4601
# 3 58.4755 54.4036 166.5865 34.0738 -18.1692 15.9241
# 4 12.6213 15.4871 34.0738 41.5091 1.5718 6.1731
# 5 -4.7870 -3.3190 -18.1692 1.5718 23.9138 4.8005
# 6 31.6328 36.4601 15.9241 6.1731 4.8005 43.6880
#
#
#
# Elastic Compliance Matrix: (Units=1/GPa)
#
#
# Indices 1 2 3 4 5 6 
#
# 1 0.009941 0.001596 -0.003155 0.000042 0.001323 -0.007531
# 2 0.001596 0.017623 -0.004396 -0.001412 0.002393 -0.014324
# 3 -0.003155 -0.004396 0.010371 -0.006516 0.006591 0.002370
# 4 0.000042 -0.001412 -0.006516 0.030218 -0.007132 0.000037
# 5 0.001323 0.002393 0.006591 -0.007132 0.049863 -0.009829
# 6 -0.007531 -0.014324 0.002370 0.000037 -0.009829 0.040508
#
#
# Mechanical properties :
#
#
# Convention : Reuss Voigt Hill
#
# Bulk Modulus (GPa) = 38.42606 76.56256 57.49431
# Shear Modulus (GPa) = 27.91568 39.30867 33.61218
#
# Velocity S-wave (km/s) = 3.36011 3.98725 3.68704
# Velocity P-wave (km/s) = 5.53128 7.22239 6.43265
#
# Compressibility (1/GPa) = 0.02602400
#
# Stress axis : x y z
#
# Youngs Moduli (GPa) = 100.59436 56.74273 96.42122
#
# Poissons Ratio (x) = -0.09054 0.30420
# Poissons Ratio (y) = -0.16051 0.42391
# Poissons Ratio (z) = 0.31736 0.24947
#
# Static dielectric constant tensor:
#      x y z
#    x 5.506840 0.310190 -0.350560 
#    y 0.310190 4.859390 0.013170 
#    z -0.350560 0.013170 4.403640 
# 
# 
# High freq. dielectric constant tensor:
#      x y z
#    x 2.014740 -0.002750 0.000450 
#    y -0.002750 1.999250 0.015490 
#    z 0.000450 0.015490 1.963860 
# 
# From -- ./inp_files/340033.got.cif
#   From: 2010.06.25/outbox.cif.g09.slc.cpg/sg2_171_cif.got.tgz:340033.got - 2010.06.27 13:26:56.
