data_PCOD8015967
_publ_section_title
;
Structure prediction by ZEFSAII (Michael W. Deem and Ramdas Pophale) SiO2 
 PCOD8015967
Probable space group: P -1
;
_chemical_formula_sum "Si O2"
_cell_formula_units_Z 14
_cell_length_a 16.599337
_cell_length_b 8.759855
_cell_length_c 6.724478
_cell_angle_alpha 59.283049
_cell_angle_beta 65.111021
_cell_angle_gamma 106.675604
_cell_volume 583.607053
_symmetry_space_group_name_H-M "P -1"
_symmetry_group_IT_number 2
_symmetry_cell_setting 'triclinic'
loop_
_space_group_symop_operation_xyz
x,y,z
-x,-y,-z
loop_
_atom_site_type_symbol
_atom_site_label
_atom_site_fract_x
_atom_site_fract_y
_atom_site_fract_z
Si Si1 0.684708 0.014420 0.450559
Si Si2 0.481115 0.708229 0.146438
Si Si3 0.082705 0.274604 0.700213
Si Si4 0.055697 0.902879 0.399945
Si Si5 0.747223 0.764169 0.326808
Si Si6 0.379136 0.927814 0.926089
Si Si7 0.839737 0.308789 0.435417
O O1 0.762877 0.962733 0.305202
O O2 0.621436 0.056296 0.323779
O O3 0.768941 0.245019 0.345864
O O4 0.588795 0.795336 0.835298
O O5 0.389203 0.430393 0.456083
O O6 0.527114 0.816687 0.245721
O O7 0.412041 0.777162 0.066284
O O8 0.211826 0.355374 0.507456
O O9 0.076651 0.414831 0.789221
O O10 0.040376 0.301775 0.517171
O O11 0.000000 0.000000 0.000000
O O12 0.086046 0.777777 0.597049
O O13 0.000000 0.000000 0.500000
O O14 0.174570 0.122641 0.027124
O O15 0.249698 0.814806 0.204873
#
# Coordination Sequence:
#
# PCOD8015967 Si02
#       7
#     2   2   2   2   2   2   2
#     4  11  23  41  70 106 136 184 226 270 355 421
#     4  10  22  41  69 100 145 175 227 280 345 409
#     4  10  23  45  69  96 134 178 235 291 342 403
#     4  11  24  46  69 101 136 182 239 287 346 408
#     4  11  22  44  66 101 143 176 227 296 332 412
#     4  10  21  43  68 103 137 181 228 276 341 428
#     4  11  22  46  72  97 142 183 224 291 348 408
#
# _framework density 23.988742999999999
#
# number of rings (size 3 to 8) (size 9 to 14) (size 15 to 20)
#    0.000    1.429    2.857    2.143    0.000    0.571 
#   10.286    5.714    0.000    0.000    0.000    0.000 
#    0.000    0.000    0.000    0.000    0.000    0.000 
#
# Total GULP energy -173530.149364 kJ/mol
# GULP energy per Si atom -12395.010669 kJ/mol
# Density = 2.393414 g / cm^3
# Si number density = 23.988743 Si / 1000 Ang^3
#
#
#
# Elastic Constant Matrix: (Units=GPa)
#
#
# Indices 1 2 3 4 5 6 
#
# 1 122.7491 51.5500 20.4463 8.9645 9.6795 1.0831
# 2 51.5500 178.8224 63.0186 0.2372 1.9201 15.6607
# 3 20.4463 63.0186 73.1708 2.5904 -11.2466 9.9886
# 4 8.9645 0.2372 2.5904 32.6496 3.9274 0.2065
# 5 9.6795 1.9201 -11.2466 3.9274 33.9239 13.2542
# 6 1.0831 15.6607 9.9886 0.2065 13.2542 48.9369
#
#
#
# Elastic Compliance Matrix: (Units=1/GPa)
#
#
# Indices 1 2 3 4 5 6 
#
# 1 0.009835 -0.002485 -0.001329 -0.002159 -0.003569 0.001825
# 2 -0.002485 0.008967 -0.007296 0.001452 -0.002086 -0.000767
# 3 -0.001329 -0.007296 0.022757 -0.002637 0.010656 -0.005156
# 4 -0.002159 0.001452 -0.002637 0.031955 -0.004512 0.001209
# 5 -0.003569 -0.002086 0.010656 -0.004512 0.039388 -0.012077
# 6 0.001825 -0.000767 -0.005156 0.001209 -0.012077 0.024958
#
#
# Mechanical properties :
#
#
# Convention : Reuss Voigt Hill
#
# Bulk Modulus (GPa) = 51.71044 71.64133 61.67588
# Shear Modulus (GPa) = 30.02534 39.08392 34.55463
#
# Velocity S-wave (km/s) = 3.54169 4.04079 3.79945
# Velocity P-wave (km/s) = 6.19094 7.19027 6.70924
#
# Compressibility (1/GPa) = 0.01933846
#
# Stress axis : x y z
#
# Youngs Moduli (GPa) = 101.67918 111.51450 43.94321
#
# Poissons Ratio (x) = 0.27717 0.05839
# Poissons Ratio (y) = 0.25272 0.32061
# Poissons Ratio (z) = 0.13511 0.81361
#
# Static dielectric constant tensor:
#      x y z
#    x 4.879190 0.349640 -0.236310 
#    y 0.349640 4.448570 -0.003560 
#    z -0.236310 -0.003560 4.085740 
# 
# 
# High freq. dielectric constant tensor:
#      x y z
#    x 1.964460 0.008620 -0.013260 
#    y 0.008620 1.954640 -0.002640 
#    z -0.013260 -0.002640 1.927380 
# 
# From -- ./inp_files/106501.got.cif
#   From: 2010.06.25/outbox.cif.g09.slc.cpg/sg2_54_cif.got.tgz:106501.got - 2010.06.27 13:26:56.
