data_PCOD8015004
_publ_section_title
;
Structure prediction by ZEFSAII (Michael W. Deem and Ramdas Pophale) SiO2 
 PCOD8015004
Probable space group: P -1
;
_chemical_formula_sum "Si O2"
_cell_formula_units_Z 16
_cell_length_a 13.445743
_cell_length_b 11.722969
_cell_length_c 9.365651
_cell_angle_alpha 145.551891
_cell_angle_beta 88.120755
_cell_angle_gamma 107.132643
_cell_volume 735.238253
_symmetry_space_group_name_H-M "P -1"
_symmetry_group_IT_number 2
_symmetry_cell_setting 'triclinic'
loop_
_space_group_symop_operation_xyz
x,y,z
-x,-y,-z
loop_
_atom_site_type_symbol
_atom_site_label
_atom_site_fract_x
_atom_site_fract_y
_atom_site_fract_z
Si Si1 0.692284 0.078120 0.705569
Si Si2 0.899016 0.586266 0.493044
Si Si3 0.031130 0.348608 0.134693
Si Si4 0.495879 0.298840 0.378799
Si Si5 0.673089 0.187762 0.118065
Si Si6 0.474534 0.673014 0.264187
Si Si7 0.846039 0.865636 0.555406
Si Si8 0.214143 0.515903 0.064383
O O1 0.789103 0.273674 0.803980
O O2 0.572967 0.925962 0.472797
O O3 0.738769 0.913007 0.602018
O O4 0.662703 0.208203 0.967903
O O5 0.957629 0.722157 0.775795
O O6 0.804400 0.340781 0.306119
O O7 0.846044 0.722500 0.548449
O O8 0.979511 0.526583 0.326507
O O9 0.149745 0.476767 0.176944
O O10 0.955850 0.114331 0.810787
O O11 0.500000 0.500000 0.500000
O O12 0.603739 0.277926 0.305080
O O13 0.506663 0.356389 0.602401
O O14 0.376762 0.079551 0.118053
O O15 0.347609 0.619147 0.186947
O O16 0.500000 0.500000 0.000000
O O17 0.842728 0.720765 0.265951
#
# Coordination Sequence:
#
# PCOD8015004 Si02
#       8
#     2   2   2   2   2   2   2   2
#     4  11  24  43  73  96 135 182 226 271 340 404
#     4  11  24  45  71  95 139 177 226 280 336 404
#     4  11  26  45  67 105 133 177 228 281 342 391
#     4  10  24  40  68  99 134 171 225 276 324 403
#     4  10  21  42  64  97 126 179 220 266 335 387
#     4  11  24  45  67 104 134 179 222 271 344 401
#     4  12  23  44  71 100 129 183 227 274 337 399
#     4  12  25  45  68  98 142 175 225 284 329 409
#
# _framework density 21.761652999999999
#
# number of rings (size 3 to 8) (size 9 to 14) (size 15 to 20)
#    0.000    1.000    3.750    1.875    5.250    3.000 
#    4.500    0.000    0.000    0.000    0.000    0.000 
#    0.000    0.000    0.000    0.000    0.000    0.000 
#
# Total GULP energy -198264.915624 kJ/mol
# GULP energy per Si atom -12391.557226 kJ/mol
# Density = 2.171212 g / cm^3
# Si number density = 21.761653 Si / 1000 Ang^3
#
#
#
# Elastic Constant Matrix: (Units=GPa)
#
#
# Indices 1 2 3 4 5 6 
#
# 1 107.4723 50.8292 47.3924 3.8384 1.1477 5.4530
# 2 50.8292 101.5369 46.9082 4.6046 -18.5905 11.0813
# 3 47.3924 46.9082 130.6844 -2.9841 -0.9236 8.9676
# 4 3.8384 4.6046 -2.9841 28.6842 8.1028 -1.2667
# 5 1.1477 -18.5905 -0.9236 8.1028 32.8291 1.8974
# 6 5.4530 11.0813 8.9676 -1.2667 1.8974 43.1535
#
#
#
# Elastic Compliance Matrix: (Units=1/GPa)
#
#
# Indices 1 2 3 4 5 6 
#
# 1 0.013511 -0.006384 -0.002681 0.000166 -0.004243 0.000681
# 2 -0.006384 0.017614 -0.003810 -0.005846 0.011742 -0.003612
# 3 -0.002681 -0.003810 0.010077 0.002672 -0.002405 -0.000593
# 4 0.000166 -0.005846 0.002672 0.039917 -0.013248 0.002679
# 5 -0.004243 0.011742 -0.002405 -0.013248 0.040701 -0.004158
# 6 0.000681 -0.003612 -0.000593 0.002679 -0.004158 0.024399
#
#
# Mechanical properties :
#
#
# Convention : Reuss Voigt Hill
#
# Bulk Modulus (GPa) = 64.71798 69.99482 67.35640
# Shear Modulus (GPa) = 28.22964 33.90427 31.06696
#
# Velocity S-wave (km/s) = 3.60560 3.95141 3.78246
# Velocity P-wave (km/s) = 6.86570 7.28370 7.07779
#
# Compressibility (1/GPa) = 0.01545166
#
# Stress axis : x y z
#
# Youngs Moduli (GPa) = 74.01329 56.77453 99.23992
#
# Poissons Ratio (x) = 0.36243 0.26609
# Poissons Ratio (y) = 0.47247 0.37809
# Poissons Ratio (z) = 0.19845 0.21630
#
# Static dielectric constant tensor:
#      x y z
#    x 3.459990 0.192070 -0.006650 
#    y 0.192070 3.985670 0.112270 
#    z -0.006650 0.112270 4.199130 
# 
# 
# High freq. dielectric constant tensor:
#      x y z
#    x 1.849320 0.013010 0.006370 
#    y 0.013010 1.848170 0.001830 
#    z 0.006370 0.001830 1.875750 
# 
# From -- ./inp_files/308774.got.cif
#   From: 2010.06.25/outbox.cif.g09.slc.cpg/sg2_155_cif.got.tgz:308774.got - 2010.06.27 13:26:56.
