data_PCOD8015143
_publ_section_title
;
Structure prediction by ZEFSAII (Michael W. Deem and Ramdas Pophale) SiO2 
 PCOD8015143
Probable space group: P -1
;
_chemical_formula_sum "Si O2"
_cell_formula_units_Z 14
_cell_length_a 8.689340
_cell_length_b 14.121872
_cell_length_c 11.844427
_cell_angle_alpha 115.088262
_cell_angle_beta 115.859415
_cell_angle_gamma 26.998333
_cell_volume 591.504685
_symmetry_space_group_name_H-M "P -1"
_symmetry_group_IT_number 2
_symmetry_cell_setting 'triclinic'
loop_
_space_group_symop_operation_xyz
x,y,z
-x,-y,-z
loop_
_atom_site_type_symbol
_atom_site_label
_atom_site_fract_x
_atom_site_fract_y
_atom_site_fract_z
Si Si1 0.415424 0.933596 0.887228
Si Si2 0.643727 0.052338 0.738003
Si Si3 0.619897 0.680281 0.010759
Si Si4 0.852483 0.732329 0.729793
Si Si5 0.626184 0.384650 0.207968
Si Si6 0.449458 0.840811 0.483982
Si Si7 0.882647 0.203306 0.656993
O O1 0.370722 0.873961 0.942561
O O2 0.747720 0.732355 0.813283
O O3 0.077120 0.105287 0.789782
O O4 0.500000 0.000000 0.000000
O O5 0.581599 0.971840 0.735796
O O6 0.057918 0.847580 0.753540
O O7 0.486779 0.140628 0.607767
O O8 0.461844 0.238541 0.848122
O O9 0.544590 0.596459 0.933902
O O10 0.000000 0.500000 0.000000
O O11 0.799819 0.675393 0.583951
O O12 0.231371 0.581445 0.784020
O O13 0.347614 0.568327 0.305779
O O14 0.375913 0.757671 0.406337
O O15 0.132937 0.064857 0.560527
#
# Coordination Sequence:
#
# PCOD8015143 Si02
#       7
#     2   2   2   2   2   2   2
#     4  11  20  42  65  88 129 164 209 263 310 375
#     4  10  22  42  62  94 130 165 207 265 314 373
#     4  12  25  42  67  96 127 166 213 263 323 378
#     4   9  22  39  66  90 127 166 210 256 316 368
#     4  10  23  40  63  98 128 161 216 259 318 378
#     4  10  21  42  66  90 129 175 209 263 310 374
#     4  10  23  40  67  96 126 169 216 255 321 375
#
# _framework density 23.66845
#
# number of rings (size 3 to 8) (size 9 to 14) (size 15 to 20)
#    0.857    0.857    1.429    2.571    2.000    3.429 
#    0.000    7.143    0.000    0.000    0.000    0.000 
#    0.000    0.000    0.000    0.000    0.000    0.000 
#
# Total GULP energy -173472.720526 kJ/mol
# GULP energy per Si atom -12390.908609 kJ/mol
# Density = 2.361458 g / cm^3
# Si number density = 23.668450 Si / 1000 Ang^3
#
#
#
# Elastic Constant Matrix: (Units=GPa)
#
#
# Indices 1 2 3 4 5 6 
#
# 1 71.0404 1.2202 43.4315 -3.2617 16.1698 -8.9676
# 2 1.2202 64.0371 35.1137 23.0785 8.1307 -10.6888
# 3 43.4315 35.1137 167.4086 12.4221 12.6905 -5.2362
# 4 -3.2617 23.0785 12.4221 39.7855 -3.4676 8.0273
# 5 16.1698 8.1307 12.6905 -3.4676 56.9902 -8.9093
# 6 -8.9676 -10.6888 -5.2362 8.0273 -8.9093 20.5694
#
#
#
# Elastic Compliance Matrix: (Units=1/GPa)
#
#
# Indices 1 2 3 4 5 6 
#
# 1 0.019131 0.005181 -0.005355 -0.001862 -0.003714 0.008787
# 2 0.005181 0.029796 -0.005208 -0.020129 -0.002136 0.023347
# 3 -0.005355 -0.005208 0.008313 0.000626 -0.000049 -0.003191
# 4 -0.001862 -0.020129 0.000626 0.042013 0.001627 -0.026804
# 5 -0.003714 -0.002136 -0.000049 0.001627 0.019830 0.005212
# 6 0.008787 0.023347 -0.003191 -0.026804 0.005212 0.076485
#
#
# Mechanical properties :
#
#
# Convention : Reuss Voigt Hill
#
# Bulk Modulus (GPa) = 21.51699 51.33524 36.42611
# Shear Modulus (GPa) = 22.54055 38.31708 30.42881
#
# Velocity S-wave (km/s) = 3.08936 4.02793 3.58945
# Velocity P-wave (km/s) = 4.67293 6.58549 5.70986
#
# Compressibility (1/GPa) = 0.04647490
#
# Stress axis : x y z
#
# Youngs Moduli (GPa) = 52.27184 33.56205 120.29890
#
# Poissons Ratio (x) = -0.17390 0.64425
# Poissons Ratio (y) = -0.27084 0.62651
# Poissons Ratio (z) = 0.27994 0.17479
#
# Static dielectric constant tensor:
#      x y z
#    x 4.167710 -0.048420 0.228010 
#    y -0.048420 4.006280 0.076680 
#    z 0.228010 0.076680 4.371200 
# 
# 
# High freq. dielectric constant tensor:
#      x y z
#    x 1.924960 -0.016780 0.021020 
#    y -0.016780 1.915870 0.011220 
#    z 0.021020 0.011220 1.952330 
# 
# From -- ./inp_files/397671.got.cif
#   From: 2010.06.25/outbox.cif.g09.slc.cpg/sg2_199_cif.got.tgz:397671.got - 2010.06.27 13:26:56.
