data_PCOD8015612
_publ_section_title
;
Structure prediction by ZEFSAII (Michael W. Deem and Ramdas Pophale) SiO2 
 PCOD8015612
Probable space group: P -1
;
_chemical_formula_sum "Si O2"
_cell_formula_units_Z 16
_cell_length_a 11.765447
_cell_length_b 18.647876
_cell_length_c 21.591844
_cell_angle_alpha 160.814452
_cell_angle_beta 148.998023
_cell_angle_gamma 27.912179
_cell_volume 720.884362
_symmetry_space_group_name_H-M "P -1"
_symmetry_group_IT_number 2
_symmetry_cell_setting 'triclinic'
loop_
_space_group_symop_operation_xyz
x,y,z
-x,-y,-z
loop_
_atom_site_type_symbol
_atom_site_label
_atom_site_fract_x
_atom_site_fract_y
_atom_site_fract_z
Si Si1 0.265879 0.168402 0.488913
Si Si2 0.105499 0.392913 0.262496
Si Si3 0.588704 0.176632 0.543177
Si Si4 0.664430 0.693285 0.880681
Si Si5 0.538331 0.108670 0.324365
Si Si6 0.101594 0.746989 0.447226
Si Si7 0.862230 0.971728 0.125197
Si Si8 0.714560 0.600644 0.961652
O O1 0.346260 0.186955 0.471332
O O2 0.151970 0.432735 0.683569
O O3 0.069965 0.057918 0.305521
O O4 0.500000 0.000000 0.500000
O O5 0.284144 0.268208 0.301663
O O6 0.185129 0.566545 0.398475
O O7 0.081029 0.188228 0.041652
O O8 0.538939 0.228488 0.489066
O O9 0.644313 0.385908 0.771842
O O10 0.812644 0.917217 0.451670
O O11 0.824229 0.411135 0.709879
O O12 0.405392 0.800324 0.811266
O O13 0.580888 0.732280 0.943805
O O14 0.847043 0.813608 0.047037
O O15 0.748141 0.093625 0.360858
O O16 0.599317 0.827995 0.140735
O O17 0.000000 0.500000 0.000000
#
# Coordination Sequence:
#
# PCOD8015612 Si02
#       8
#     2   2   2   2   2   2   2   2
#     4  12  28  49  71  98 143 197 238 278 353 426
#     4  11  25  45  73 105 134 187 238 292 347 415
#     4  12  27  47  64 104 149 187 233 287 346 433
#     4  10  21  42  72 107 136 175 228 298 356 399
#     4  12  24  42  73 105 140 181 234 297 361 406
#     4  11  21  43  70 104 145 176 232 297 352 409
#     4  10  24  45  72 103 142 174 236 300 341 412
#     4  12  24  40  69 102 144 183 227 281 361 420
#
# _framework density 22.194960999999999
#
# number of rings (size 3 to 8) (size 9 to 14) (size 15 to 20)
#    0.000    0.750    5.000    2.250    3.500    2.000 
#    0.000    1.250    0.000    0.000    0.000    0.000 
#    0.000    0.000    0.000    0.000    0.000    0.000 
#
# Total GULP energy -198319.037953 kJ/mol
# GULP energy per Si atom -12394.939872 kJ/mol
# Density = 2.214444 g / cm^3
# Si number density = 22.194961 Si / 1000 Ang^3
#
#
#
# Elastic Constant Matrix: (Units=GPa)
#
#
# Indices 1 2 3 4 5 6 
#
# 1 101.0751 26.0402 31.7298 0.8571 2.7347 -17.4303
# 2 26.0402 87.2198 33.2827 5.7266 6.1592 -9.0355
# 3 31.7298 33.2827 108.8196 7.9724 10.4762 -14.1875
# 4 0.8571 5.7266 7.9724 33.7839 -9.6202 -3.2698
# 5 2.7347 6.1592 10.4762 -9.6202 32.8554 -0.5983
# 6 -17.4303 -9.0355 -14.1875 -3.2698 -0.5983 35.4936
#
#
#
# Elastic Compliance Matrix: (Units=1/GPa)
#
#
# Indices 1 2 3 4 5 6 
#
# 1 0.011978 -0.002346 -0.002346 0.001263 0.000642 0.004474
# 2 -0.002346 0.013694 -0.003050 -0.002017 -0.001974 0.000896
# 3 -0.002346 -0.003050 0.011710 -0.003040 -0.003813 0.002408
# 4 0.001263 -0.002017 -0.003040 0.034046 0.011251 0.002218
# 5 0.000642 -0.001974 -0.003813 0.011251 0.035262 -0.000080
# 6 0.004474 0.000896 0.002408 0.002218 -0.000080 0.031765
#
#
# Mechanical properties :
#
#
# Convention : Reuss Voigt Hill
#
# Bulk Modulus (GPa) = 45.66412 53.24665 49.45539
# Shear Modulus (GPa) = 31.01021 34.16404 32.58713
#
# Velocity S-wave (km/s) = 3.74193 3.92761 3.83590
# Velocity P-wave (km/s) = 6.26803 6.67912 6.47684
#
# Compressibility (1/GPa) = 0.02189903
#
# Stress axis : x y z
#
# Youngs Moduli (GPa) = 83.48652 73.02455 85.39628
#
# Poissons Ratio (x) = 0.17129 0.20035
# Poissons Ratio (y) = 0.19583 0.26044
# Poissons Ratio (z) = 0.19587 0.22271
#
# Static dielectric constant tensor:
#      x y z
#    x 4.262780 0.083020 -0.157660 
#    y 0.083020 3.981490 0.176110 
#    z -0.157660 0.176110 4.144410 
# 
# 
# High freq. dielectric constant tensor:
#      x y z
#    x 1.863910 0.004060 -0.013910 
#    y 0.004060 1.878010 0.017860 
#    z -0.013910 0.017860 1.877200 
# 
# From -- ./inp_files/280184.got.cif
#   From: 2010.06.25/outbox.cif.g09.slc.cpg/sg2_141_cif.got.tgz:280184.got - 2010.06.27 13:26:56.
