data_PCOD8015868
_publ_section_title
;
Structure prediction by ZEFSAII (Michael W. Deem and Ramdas Pophale) SiO2 
 PCOD8015868
Probable space group: P -1
;
_chemical_formula_sum "Si O2"
_cell_formula_units_Z 14
_cell_length_a 4.906929
_cell_length_b 6.092665
_cell_length_c 23.755880
_cell_angle_alpha 61.641881
_cell_angle_beta 110.821561
_cell_angle_gamma 97.875507
_cell_volume 583.730370
_symmetry_space_group_name_H-M "P -1"
_symmetry_group_IT_number 2
_symmetry_cell_setting 'triclinic'
loop_
_space_group_symop_operation_xyz
x,y,z
-x,-y,-z
loop_
_atom_site_type_symbol
_atom_site_label
_atom_site_fract_x
_atom_site_fract_y
_atom_site_fract_z
Si Si1 0.173555 0.734403 0.242167
Si Si2 0.702478 0.755120 0.542341
Si Si3 0.659192 0.735513 0.420133
Si Si4 0.800795 0.802344 0.664862
Si Si5 0.103767 0.044742 0.915060
Si Si6 0.678019 0.750035 0.983648
Si Si7 0.776115 0.880418 0.294791
O O1 0.319630 0.455619 0.288717
O O2 0.047951 0.798096 0.164419
O O3 0.917042 0.743745 0.268069
O O4 0.429912 0.919022 0.254949
O O5 0.852343 0.744936 0.491569
O O6 0.517605 0.511858 0.564874
O O7 0.908110 0.772532 0.610448
O O8 0.500000 0.000000 0.500000
O O9 0.854924 0.731697 0.377948
O O10 0.442479 0.978767 0.371364
O O11 0.084717 0.851925 0.717970
O O12 0.432723 0.969179 0.931215
O O13 0.131795 0.228539 0.948131
O O14 0.913154 0.798897 0.945171
O O15 0.500000 0.500000 0.000000
#
# Coordination Sequence:
#
# PCOD8015868 Si02
#       7
#     2   2   2   2   2   2   2
#     4  12  27  43  67  99 142 180 218 275 336 401
#     4   9  19  39  70  96 126 174 229 292 349 394
#     4  10  21  43  66  97 130 172 235 286 339 408
#     4  11  23  43  67  95 134 180 224 283 348 400
#     4  10  23  42  67 103 136 173 223 267 323 393
#     4  10  21  44  73 101 135 173 219 275 318 379
#     4  12  25  44  65  96 137 178 227 275 331 413
#
# _framework density 23.983674000000001
#
# number of rings (size 3 to 8) (size 9 to 14) (size 15 to 20)
#    0.000    1.429    2.857    1.286    2.000    2.857 
#    0.000   10.000    0.000    0.000    0.000    0.000 
#    0.000    0.000    0.000    0.000    0.000    0.000 
#
# Total GULP energy -173464.677178 kJ/mol
# GULP energy per Si atom -12390.334084 kJ/mol
# Density = 2.392909 g / cm^3
# Si number density = 23.983674 Si / 1000 Ang^3
#
#
#
# Elastic Constant Matrix: (Units=GPa)
#
#
# Indices 1 2 3 4 5 6 
#
# 1 88.0758 16.9465 35.4110 9.3540 -13.3104 13.0412
# 2 16.9465 102.9093 63.1006 9.1051 -2.9757 11.3794
# 3 35.4110 63.1006 160.8241 14.3700 -2.1779 8.3771
# 4 9.3540 9.1051 14.3700 23.9545 2.7045 4.3589
# 5 -13.3104 -2.9757 -2.1779 2.7045 34.6389 9.1702
# 6 13.0412 11.3794 8.3771 4.3589 9.1702 24.7568
#
#
#
# Elastic Compliance Matrix: (Units=1/GPa)
#
#
# Indices 1 2 3 4 5 6 
#
# 1 0.015584 0.000871 -0.002769 -0.003890 0.008917 -0.010291
# 2 0.000871 0.013508 -0.004999 -0.001755 0.002831 -0.005716
# 3 -0.002769 -0.004999 0.008915 -0.002529 -0.001163 0.001616
# 4 -0.003890 -0.001755 -0.002529 0.046477 -0.004712 -0.002726
# 5 0.008917 0.002831 -0.001163 -0.004712 0.037805 -0.018779
# 6 -0.010291 -0.005716 0.001616 -0.002726 -0.018779 0.055331
#
#
# Mechanical properties :
#
#
# Convention : Reuss Voigt Hill
#
# Bulk Modulus (GPa) = 41.29763 64.74728 53.02246
# Shear Modulus (GPa) = 25.06451 32.42678 28.74564
#
# Velocity S-wave (km/s) = 3.23625 3.68099 3.46576
# Velocity P-wave (km/s) = 5.58757 6.71724 6.17828
#
# Compressibility (1/GPa) = 0.02421446
#
# Stress axis : x y z
#
# Youngs Moduli (GPa) = 64.16869 74.02854 112.16879
#
# Poissons Ratio (x) = -0.06452 0.31059
# Poissons Ratio (y) = -0.05592 0.56073
# Poissons Ratio (z) = 0.17768 0.37007
#
# Static dielectric constant tensor:
#      x y z
#    x 4.211670 0.056220 -0.218070 
#    y 0.056220 4.656250 0.322160 
#    z -0.218070 0.322160 4.390290 
# 
# 
# High freq. dielectric constant tensor:
#      x y z
#    x 1.940850 0.010750 -0.011480 
#    y 0.010750 1.961350 0.014630 
#    z -0.011480 0.014630 1.941550 
# 
# From -- ./inp_files/602852.got.cif
#   From: 2010.06.25/outbox.cif.g09.slc.cpg/sg2_302_cif.got.tgz:602852.got - 2010.06.27 13:26:56.
