data_PCOD8015045
_publ_section_title
;
Structure prediction by ZEFSAII (Michael W. Deem and Ramdas Pophale) SiO2 
 PCOD8015045
Probable space group: P -1
;
_chemical_formula_sum "Si O2"
_cell_formula_units_Z 14
_cell_length_a 12.951027
_cell_length_b 12.897083
_cell_length_c 15.180958
_cell_angle_alpha 34.475657
_cell_angle_beta 29.362917
_cell_angle_gamma 32.724104
_cell_volume 631.146662
_symmetry_space_group_name_H-M "P -1"
_symmetry_group_IT_number 2
_symmetry_cell_setting 'triclinic'
loop_
_space_group_symop_operation_xyz
x,y,z
-x,-y,-z
loop_
_atom_site_type_symbol
_atom_site_label
_atom_site_fract_x
_atom_site_fract_y
_atom_site_fract_z
Si Si1 0.233979 0.085915 0.901894
Si Si2 0.690622 0.541094 0.449750
Si Si3 0.032292 0.455368 0.609986
Si Si4 0.182559 0.024827 0.736480
Si Si5 0.730069 0.832391 0.990771
Si Si6 0.786551 0.386125 0.303925
Si Si7 0.604911 0.829332 0.671781
O O1 0.171126 0.321858 0.766907
O O2 0.029750 0.032560 0.058542
O O3 0.253614 0.052469 0.014871
O O4 0.482955 0.946740 0.768797
O O5 0.784351 0.471018 0.529419
O O6 0.773021 0.366758 0.434257
O O7 0.407469 0.664581 0.566763
O O8 0.124079 0.210939 0.720502
O O9 0.000000 0.500000 0.500000
O O10 0.770228 0.596773 0.742952
O O11 0.234172 0.076328 0.562663
O O12 0.415388 0.837399 0.733521
O O13 0.716099 0.621017 0.166921
O O14 0.959191 0.779696 0.797828
O O15 0.500000 0.000000 0.000000
#
# Coordination Sequence:
#
# PCOD8015045 Si02
#       7
#     2   2   2   2   2   2   2
#     4  11  23  39  65  92 122 167 208 251 316 371
#     4  10  21  42  65  90 125 166 212 254 314 376
#     4  10  22  38  61  93 125 163 207 251 315 371
#     4  10  22  42  58  90 130 159 207 256 302 377
#     4  10  23  41  64  95 123 158 212 260 314 372
#     4   9  22  44  64  88 127 166 204 265 313 363
#     4  10  22  38  62  88 125 166 203 252 311 361
#
# _framework density 22.181850000000001
#
# number of rings (size 3 to 8) (size 9 to 14) (size 15 to 20)
#    0.000    2.000    1.429    0.429    4.000    2.857 
#    0.000    2.143    0.000    0.000    0.000    0.000 
#    0.000    0.000    0.000    0.000    0.000    0.000 
#
# Total GULP energy -173444.167293 kJ/mol
# GULP energy per Si atom -12388.869092 kJ/mol
# Density = 2.213136 g / cm^3
# Si number density = 22.181850 Si / 1000 Ang^3
#
#
#
# Elastic Constant Matrix: (Units=GPa)
#
#
# Indices 1 2 3 4 5 6 
#
# 1 174.3764 48.7487 40.1719 17.1115 -6.7251 -4.4818
# 2 48.7487 101.1187 33.3948 35.0609 -11.0657 -13.5129
# 3 40.1719 33.3948 91.0793 30.9892 -12.3192 5.2232
# 4 17.1115 35.0609 30.9892 34.9141 6.0771 -1.4518
# 5 -6.7251 -11.0657 -12.3192 6.0771 35.3381 5.0050
# 6 -4.4818 -13.5129 5.2232 -1.4518 5.0050 29.7463
#
#
#
# Elastic Compliance Matrix: (Units=1/GPa)
#
#
# Indices 1 2 3 4 5 6 
#
# 1 0.007101 -0.003604 -0.003107 0.003166 -0.001458 0.000378
# 2 -0.003604 0.020352 0.002867 -0.022699 0.009820 0.005439
# 3 -0.003107 0.002867 0.020877 -0.022269 0.012261 -0.005981
# 4 0.003166 -0.022699 -0.022269 0.074518 -0.027413 0.002325
# 5 -0.001458 0.009820 0.012261 -0.027413 0.040954 -0.006140
# 6 0.000378 0.005439 -0.005981 0.002325 -0.006140 0.038342
#
#
# Mechanical properties :
#
#
# Convention : Reuss Voigt Hill
#
# Bulk Modulus (GPa) = 24.60509 67.91170 46.25839
# Shear Modulus (GPa) = 22.38352 36.28363 29.33357
#
# Velocity S-wave (km/s) = 3.18007 4.04881 3.64045
# Velocity P-wave (km/s) = 4.95987 7.24841 6.21047
#
# Compressibility (1/GPa) = 0.04064201
#
# Stress axis : x y z
#
# Youngs Moduli (GPa) = 140.83014 49.13569 47.89963
#
# Poissons Ratio (x) = 0.17709 0.14880
# Poissons Ratio (y) = 0.50757 -0.13732
# Poissons Ratio (z) = 0.43750 -0.14087
#
# Static dielectric constant tensor:
#      x y z
#    x 4.406850 0.023910 0.155880 
#    y 0.023910 4.284670 0.218340 
#    z 0.155880 0.218340 4.011420 
# 
# 
# High freq. dielectric constant tensor:
#      x y z
#    x 1.888580 -0.000740 0.008690 
#    y -0.000740 1.856000 0.023380 
#    z 0.008690 0.023380 1.861220 
# 
# From -- ./inp_files/533651.got.cif
#   From: 2010.06.25/outbox.cif.g09.slc.cpg/sg2_267_cif.got.tgz:533651.got - 2010.06.27 13:26:56.
