data_PCOD8015159
_publ_section_title
;
Structure prediction by ZEFSAII (Michael W. Deem and Ramdas Pophale) SiO2 
 PCOD8015159
Probable space group: P -1
;
_chemical_formula_sum "Si O2"
_cell_formula_units_Z 14
_cell_length_a 9.893877
_cell_length_b 17.594217
_cell_length_c 5.027197
_cell_angle_alpha 85.400259
_cell_angle_beta 56.960547
_cell_angle_gamma 51.583839
_cell_volume 528.369977
_symmetry_space_group_name_H-M "P -1"
_symmetry_group_IT_number 2
_symmetry_cell_setting 'triclinic'
loop_
_space_group_symop_operation_xyz
x,y,z
-x,-y,-z
loop_
_atom_site_type_symbol
_atom_site_label
_atom_site_fract_x
_atom_site_fract_y
_atom_site_fract_z
Si Si1 0.842052 0.059084 0.406381
Si Si2 0.187816 0.786893 0.882772
Si Si3 0.315272 0.044755 0.473722
Si Si4 0.084773 0.661728 0.930667
Si Si5 0.223924 0.226573 0.266779
Si Si6 0.467854 0.299530 0.080680
Si Si7 0.750149 0.553893 0.220961
O O1 0.721833 0.181352 0.450860
O O2 0.657415 0.051781 0.630814
O O3 0.000000 0.000000 0.500000
O O4 0.000000 0.000000 0.000000
O O5 0.250122 0.681608 0.740047
O O6 0.267826 0.780424 0.103553
O O7 0.921274 0.873345 0.148397
O O8 0.327322 0.106684 0.215860
O O9 0.500000 0.000000 0.500000
O O10 0.247063 0.538247 0.729698
O O11 0.881242 0.731861 0.921928
O O12 0.971926 0.693056 0.333271
O O13 0.414879 0.228091 0.105259
O O14 0.390500 0.355423 0.437498
O O15 0.356547 0.391802 0.964599
O O16 0.000000 0.500000 0.000000
#
# Coordination Sequence:
#
# PCOD8015159 Si02
#       7
#     2   2   2   2   2   2   2
#     4  10  21  42  66  92 129 167 209 264 320 380
#     4  10  25  43  63 100 133 169 215 269 329 376
#     4  10  22  43  69  95 129 172 217 264 319 390
#     4  11  23  41  66  93 132 167 218 265 312 387
#     4  11  21  40  65  96 126 170 216 264 315 378
#     4  12  24  40  68  96 134 170 213 272 319 377
#     4  12  23  42  68  98 127 172 221 261 320 385
#
# _framework density 26.496583000000001
#
# number of rings (size 3 to 8) (size 9 to 14) (size 15 to 20)
#    0.000    1.143    2.857    3.000    0.000    5.714 
#    0.000   20.000    0.000    0.000    0.000    0.000 
#    0.000    0.000    0.000    0.000    0.000    0.000 
#
# Total GULP energy -173581.640551 kJ/mol
# GULP energy per Si atom -12398.688611 kJ/mol
# Density = 2.643628 g / cm^3
# Si number density = 26.496583 Si / 1000 Ang^3
#
#
#
# Elastic Constant Matrix: (Units=GPa)
#
#
# Indices 1 2 3 4 5 6 
#
# 1 232.0528 111.9366 31.9907 -33.1936 -14.7748 4.3623
# 2 111.9366 207.8816 13.7147 -36.1018 -12.3554 14.2146
# 3 31.9907 13.7147 40.0016 -26.8557 -4.9802 -5.6926
# 4 -33.1936 -36.1018 -26.8557 41.3522 0.7520 -0.6139
# 5 -14.7748 -12.3554 -4.9802 0.7520 43.2762 -15.2136
# 6 4.3623 14.2146 -5.6926 -0.6139 -15.2136 77.2551
#
#
#
# Elastic Compliance Matrix: (Units=1/GPa)
#
#
# Indices 1 2 3 4 5 6 
#
# 1 0.006431 -0.003206 -0.004169 -0.000358 0.000835 0.000081
# 2 -0.003206 0.007576 0.004867 0.007169 0.001315 -0.000538
# 3 -0.004169 0.004867 0.051005 0.033971 0.006908 0.004729
# 4 -0.000358 0.007169 0.033971 0.052150 0.005906 0.002782
# 5 0.000835 0.001315 0.006908 0.005906 0.026380 0.005462
# 6 0.000081 -0.000538 0.004729 0.002782 0.005462 0.014485
#
#
# Mechanical properties :
#
#
# Convention : Reuss Voigt Hill
#
# Bulk Modulus (GPa) = 16.66803 88.35778 52.51290
# Shear Modulus (GPa) = 27.31636 53.86297 40.58967
#
# Velocity S-wave (km/s) = 3.21431 4.51358 3.91817
# Velocity P-wave (km/s) = 4.48107 7.78347 6.35069
#
# Compressibility (1/GPa) = 0.05999511
#
# Stress axis : x y z
#
# Youngs Moduli (GPa) = 155.49802 132.00330 19.60611
#
# Poissons Ratio (x) = 0.42319 0.08173
# Poissons Ratio (y) = 0.49851 -0.09542
# Poissons Ratio (z) = 0.64822 -0.64241
#
# Static dielectric constant tensor:
#      x y z
#    x 5.271720 1.208550 -0.094490 
#    y 1.208550 5.173890 -0.111290 
#    z -0.094490 -0.111290 4.930250 
# 
# 
# High freq. dielectric constant tensor:
#      x y z
#    x 2.089430 0.007120 0.000550 
#    y 0.007120 2.085950 0.003200 
#    z 0.000550 0.003200 2.070100 
# 
# From -- ./inp_files/47321.got.cif
#   From: 2010.06.25/outbox.cif.g09.slc.cpg/sg2_24_cif.got.tgz:47321.got - 2010.06.27 13:26:56.
