data_PCOD8015224
_publ_section_title
;
Structure prediction by ZEFSAII (Michael W. Deem and Ramdas Pophale) SiO2 
 PCOD8015224
Probable space group: P -1
;
_chemical_formula_sum "Si O2"
_cell_formula_units_Z 16
_cell_length_a 18.460056
_cell_length_b 8.681492
_cell_length_c 6.977148
_cell_angle_alpha 74.800858
_cell_angle_beta 103.282390
_cell_angle_gamma 136.013897
_cell_volume 747.971832
_symmetry_space_group_name_H-M "P -1"
_symmetry_group_IT_number 2
_symmetry_cell_setting 'triclinic'
loop_
_space_group_symop_operation_xyz
x,y,z
-x,-y,-z
loop_
_atom_site_type_symbol
_atom_site_label
_atom_site_fract_x
_atom_site_fract_y
_atom_site_fract_z
Si Si1 0.421353 0.472961 0.103709
Si Si2 0.047889 0.234394 0.883450
Si Si3 0.759757 0.607474 0.186969
Si Si4 0.338451 0.775510 0.477023
Si Si5 0.251388 0.976029 0.261930
Si Si6 0.108290 0.886044 0.894832
Si Si7 0.494572 0.883927 0.223484
Si Si8 0.936105 0.247004 0.513033
O O1 0.358127 0.240475 0.253748
O O2 0.483332 0.679971 0.223601
O O3 0.500000 0.500000 0.000000
O O4 0.343660 0.476425 0.944273
O O5 0.175518 0.420550 0.901640
O O6 0.005817 0.207013 0.651234
O O7 0.997552 0.286123 0.984022
O O8 0.000000 0.000000 0.000000
O O9 0.730919 0.476136 0.409364
O O10 0.847514 0.870659 0.198550
O O11 0.400849 0.802336 0.325932
O O12 0.269010 0.815124 0.345432
O O13 0.402382 0.939624 0.644108
O O14 0.176848 0.927675 0.398944
O O15 0.199942 0.923384 0.039599
O O16 0.079810 0.771784 0.714374
O O17 0.500000 0.000000 0.000000
O O18 0.000000 0.500000 0.500000
#
# Coordination Sequence:
#
# PCOD8015224 Si02
#       8
#     2   2   2   2   2   2   2   2
#     4  11  24  45  69  93 137 181 219 275 338 393
#     4   9  20  41  62  94 131 164 215 271 320 393
#     4  10  21  42  66  98 127 170 227 268 327 399
#     4  11  24  42  67 101 129 173 231 271 332 391
#     4  10  24  42  65 100 133 172 229 266 329 401
#     4   9  22  43  66  90 137 176 212 273 334 389
#     4  11  24  44  66  94 138 173 218 283 334 386
#     4  11  23  42  64  97 133 173 221 268 332 399
#
# _framework density 21.391179999999999
#
# number of rings (size 3 to 8) (size 9 to 14) (size 15 to 20)
#    0.000    1.750    1.250    2.250    3.500    7.500 
#    6.750    0.000    0.000    0.000    0.000    0.000 
#    0.000    0.000    0.000    0.000    0.000    0.000 
#
# Total GULP energy -198306.261519 kJ/mol
# GULP energy per Si atom -12394.141345 kJ/mol
# Density = 2.134249 g / cm^3
# Si number density = 21.391180 Si / 1000 Ang^3
#
#
#
# Elastic Constant Matrix: (Units=GPa)
#
#
# Indices 1 2 3 4 5 6 
#
# 1 137.1899 34.8645 52.7575 -1.4777 0.9878 16.3060
# 2 34.8645 77.4285 44.0581 -4.6213 -7.5202 7.2329
# 3 52.7575 44.0581 140.9945 -1.8268 -4.5669 0.6978
# 4 -1.4777 -4.6213 -1.8268 44.0364 -9.5437 -6.7778
# 5 0.9878 -7.5202 -4.5669 -9.5437 35.7048 -11.1233
# 6 16.3060 7.2329 0.6978 -6.7778 -11.1233 32.3437
#
#
#
# Elastic Compliance Matrix: (Units=1/GPa)
#
#
# Indices 1 2 3 4 5 6 
#
# 1 0.009792 -0.002626 -0.002950 -0.001724 -0.003483 -0.005845
# 2 -0.002626 0.017018 -0.004191 0.002160 0.003466 -0.000747
# 3 -0.002950 -0.004191 0.009547 0.000616 0.001474 0.002854
# 4 -0.001724 0.002160 0.000616 0.026716 0.010733 0.009662
# 5 -0.003483 0.003466 0.001474 0.010733 0.036834 0.015866
# 6 -0.005845 -0.000747 0.002854 0.009662 0.015866 0.041451
#
#
# Mechanical properties :
#
#
# Convention : Reuss Voigt Hill
#
# Bulk Modulus (GPa) = 59.44030 68.77478 64.10754
# Shear Modulus (GPa) = 30.03013 37.34581 33.68797
#
# Velocity S-wave (km/s) = 3.75087 4.18287 3.97275
# Velocity P-wave (km/s) = 6.82688 7.45314 7.14688
#
# Compressibility (1/GPa) = 0.01682360
#
# Stress axis : x y z
#
# Youngs Moduli (GPa) = 102.12400 58.76241 104.74006
#
# Poissons Ratio (x) = 0.15431 0.30895
# Poissons Ratio (y) = 0.26817 0.43899
# Poissons Ratio (z) = 0.30123 0.24628
#
# Static dielectric constant tensor:
#      x y z
#    x 4.520060 0.112530 -0.429170 
#    y 0.112530 3.904550 -0.200920 
#    z -0.429170 -0.200920 4.574320 
# 
# 
# High freq. dielectric constant tensor:
#      x y z
#    x 1.849440 0.006130 0.003650 
#    y 0.006130 1.836700 -0.025410 
#    z 0.003650 -0.025410 1.841570 
# 
# From -- ./inp_files/106740.got.cif
#   From: 2010.06.25/outbox.cif.g09.slc.cpg/sg2_54_cif.got.tgz:106740.got - 2010.06.27 13:26:56.
