data_PCOD8015204
_publ_section_title
;
Structure prediction by ZEFSAII (Michael W. Deem and Ramdas Pophale) SiO2 
 PCOD8015204
Probable space group: P -1
;
_chemical_formula_sum "Si O2"
_cell_formula_units_Z 16
_cell_length_a 13.698945
_cell_length_b 8.624515
_cell_length_c 12.662403
_cell_angle_alpha 101.958983
_cell_angle_beta 66.925798
_cell_angle_gamma 148.115368
_cell_volume 702.303505
_symmetry_space_group_name_H-M "P -1"
_symmetry_group_IT_number 2
_symmetry_cell_setting 'triclinic'
loop_
_space_group_symop_operation_xyz
x,y,z
-x,-y,-z
loop_
_atom_site_type_symbol
_atom_site_label
_atom_site_fract_x
_atom_site_fract_y
_atom_site_fract_z
Si Si1 0.285804 0.810381 0.544462
Si Si2 0.330759 0.657084 0.055869
Si Si3 0.558711 0.415419 0.175552
Si Si4 0.529895 0.366885 0.421514
Si Si5 0.390274 0.206432 0.911921
Si Si6 0.081453 0.241184 0.574324
Si Si7 0.173189 0.949306 0.173665
Si Si8 0.927538 0.338803 0.183946
O O1 0.108705 0.453439 0.540153
O O2 0.215213 0.823324 0.676797
O O3 0.500000 0.000000 0.500000
O O4 0.327607 0.996788 0.461726
O O5 0.424630 0.675661 0.116911
O O6 0.111300 0.450427 0.148183
O O7 0.285609 0.486203 0.948772
O O8 0.500000 0.000000 0.000000
O O9 0.616646 0.480675 0.282239
O O10 0.539019 0.574194 0.171648
O O11 0.331339 0.058557 0.200083
O O12 0.500000 0.500000 0.500000
O O13 0.693785 0.503445 0.448170
O O14 0.206731 0.877646 0.889966
O O15 0.300365 0.179503 0.051887
O O16 0.934979 0.052624 0.712145
O O17 0.000000 0.000000 0.500000
O O18 0.013232 0.618330 0.152990
#
# Coordination Sequence:
#
# PCOD8015204 Si02
#       8
#     2   2   2   2   2   2   2   2
#     4   9  22  45  70  99 134 181 234 283 348 414
#     4  11  23  41  70 104 137 177 231 278 347 417
#     4  11  24  44  64  95 144 177 221 291 342 403
#     4  11  23  44  68  95 134 182 234 284 341 409
#     4  11  24  43  67 100 145 177 220 285 350 407
#     4  10  22  42  71  98 132 178 225 288 350 409
#     4  10  21  42  66  96 135 174 222 277 347 414
#     4  11  22  42  74 101 133 179 231 280 351 416
#
# _framework density 22.782174000000001
#
# number of rings (size 3 to 8) (size 9 to 14) (size 15 to 20)
#    0.000    1.500    2.500    3.375    1.750    3.500 
#    6.750    8.125    2.750    0.000    0.000    0.000 
#    0.000    0.000    0.000    0.000    0.000    0.000 
#
# Total GULP energy -198223.473683 kJ/mol
# GULP energy per Si atom -12388.967105 kJ/mol
# Density = 2.273032 g / cm^3
# Si number density = 22.782174 Si / 1000 Ang^3
#
#
#
# Elastic Constant Matrix: (Units=GPa)
#
#
# Indices 1 2 3 4 5 6 
#
# 1 98.9909 35.7921 63.6818 -1.4363 -10.0190 -4.1277
# 2 35.7921 101.3763 53.7588 15.9441 5.5726 -6.8481
# 3 63.6818 53.7588 131.3505 0.4621 -14.0158 -5.6165
# 4 -1.4363 15.9441 0.4621 39.5523 -0.0677 0.4086
# 5 -10.0190 5.5726 -14.0158 -0.0677 46.7338 -8.4034
# 6 -4.1277 -6.8481 -5.6165 0.4086 -8.4034 37.3956
#
#
#
# Elastic Compliance Matrix: (Units=1/GPa)
#
#
# Indices 1 2 3 4 5 6 
#
# 1 0.015161 -0.002391 -0.006153 0.001582 0.001819 0.000703
# 2 -0.002391 0.014643 -0.005165 -0.005945 -0.003657 0.000885
# 3 -0.006153 -0.005165 0.013118 0.001700 0.003431 0.001097
# 4 0.001582 -0.005945 0.001700 0.027726 0.001485 -0.000628
# 5 0.001819 -0.003657 0.003431 0.001485 0.024240 0.005477
# 6 0.000703 0.000885 0.001097 -0.000628 0.005477 0.028383
#
#
# Mechanical properties :
#
#
# Convention : Reuss Voigt Hill
#
# Bulk Modulus (GPa) = 64.50593 70.90926 67.70759
# Shear Modulus (GPa) = 32.08030 36.63535 34.35783
#
# Velocity S-wave (km/s) = 3.75658 4.01443 3.88764
# Velocity P-wave (km/s) = 6.86961 7.25810 7.06652
#
# Compressibility (1/GPa) = 0.01550245
#
# Stress axis : x y z
#
# Youngs Moduli (GPa) = 65.95693 68.28989 76.23323
#
# Poissons Ratio (x) = 0.16329 0.46909
# Poissons Ratio (y) = 0.15771 0.39378
# Poissons Ratio (z) = 0.40586 0.35275
#
# Static dielectric constant tensor:
#      x y z
#    x 3.911300 0.030040 -0.241520 
#    y 0.030040 4.227190 -0.032060 
#    z -0.241520 -0.032060 4.116950 
# 
# 
# High freq. dielectric constant tensor:
#      x y z
#    x 1.886930 -0.009560 -0.015130 
#    y -0.009560 1.913860 -0.002660 
#    z -0.015130 -0.002660 1.895810 
# 
# From -- ./inp_files/447651.got.cif
#   From: 2010.06.25/outbox.cif.g09.slc.cpg/sg2_224_cif.got.tgz:447651.got - 2010.06.27 13:26:56.
