data_PCOD8015957
_publ_section_title
;
Structure prediction by ZEFSAII (Michael W. Deem and Ramdas Pophale) SiO2 
 PCOD8015957
Probable space group: P -1
;
_chemical_formula_sum "Si O2"
_cell_formula_units_Z 16
_cell_length_a 14.033286
_cell_length_b 12.113199
_cell_length_c 8.380382
_cell_angle_alpha 74.900890
_cell_angle_beta 31.618413
_cell_angle_gamma 68.744118
_cell_volume 692.635086
_symmetry_space_group_name_H-M "P -1"
_symmetry_group_IT_number 2
_symmetry_cell_setting 'triclinic'
loop_
_space_group_symop_operation_xyz
x,y,z
-x,-y,-z
loop_
_atom_site_type_symbol
_atom_site_label
_atom_site_fract_x
_atom_site_fract_y
_atom_site_fract_z
Si Si1 0.535421 0.358094 0.666957
Si Si2 0.057693 0.162868 0.180365
Si Si3 0.512943 0.379813 0.324928
Si Si4 0.702702 0.109304 0.634778
Si Si5 0.710995 0.778609 0.423654
Si Si6 0.856549 0.367881 0.635169
Si Si7 0.453637 0.005949 0.812339
Si Si8 0.194533 0.373467 0.355585
O O1 0.583251 0.344525 0.417418
O O2 0.574330 0.479104 0.625976
O O3 0.669765 0.251794 0.617429
O O4 0.320735 0.359576 0.019450
O O5 0.930325 0.070382 0.361790
O O6 0.955302 0.270458 0.402260
O O7 0.092976 0.214021 0.937975
O O8 0.263061 0.097555 0.986569
O O9 0.346921 0.320747 0.556538
O O10 0.677729 0.331463 0.977440
O O11 0.618071 0.067739 0.608946
O O12 0.596045 0.068419 0.944497
O O13 0.734888 0.741435 0.588531
O O14 0.553668 0.906439 0.577594
O O15 0.801151 0.505635 0.599306
O O16 0.986860 0.372868 0.599985
#
# Coordination Sequence:
#
# PCOD8015957 Si02
#       8
#     2   2   2   2   2   2   2   2
#     4  10  21  43  68 100 136 178 223 274 345 402
#     4  12  27  44  69 103 137 179 229 282 334 402
#     4  10  23  40  71  98 139 177 218 281 340 407
#     4  11  24  43  73  99 129 183 225 282 339 400
#     4  12  25  43  68 102 132 182 223 276 337 410
#     4  10  23  41  64 100 138 176 219 283 334 402
#     4  11  25  48  69  97 137 179 230 285 335 394
#     4  10  22  41  66  97 139 177 221 274 344 398
#
# _framework density 23.100189
#
# number of rings (size 3 to 8) (size 9 to 14) (size 15 to 20)
#    0.000    1.250    1.250    3.750    5.250    3.000 
#    0.000    0.000    0.000    0.000    0.000    0.000 
#    0.000    0.000    0.000    0.000    0.000    0.000 
#
# Total GULP energy -198303.673168 kJ/mol
# GULP energy per Si atom -12393.979573 kJ/mol
# Density = 2.304761 g / cm^3
# Si number density = 23.100189 Si / 1000 Ang^3
#
#
#
# Elastic Constant Matrix: (Units=GPa)
#
#
# Indices 1 2 3 4 5 6 
#
# 1 72.2590 35.7051 33.2942 -6.0604 -12.9092 12.4806
# 2 35.7051 104.9203 50.9135 -6.5413 5.9143 -4.4593
# 3 33.2942 50.9135 114.4778 -4.9579 10.7909 10.9855
# 4 -6.0604 -6.5413 -4.9579 25.6356 4.9462 -10.9294
# 5 -12.9092 5.9143 10.7909 4.9462 34.2758 -9.2459
# 6 12.4806 -4.4593 10.9855 -10.9294 -9.2459 32.7057
#
#
#
# Elastic Compliance Matrix: (Units=1/GPa)
#
#
# Indices 1 2 3 4 5 6 
#
# 1 0.021039 -0.006172 -0.003735 -0.001414 0.008863 -0.005583
# 2 -0.006172 0.014805 -0.005069 0.004756 -0.002059 0.007084
# 3 -0.003735 -0.005069 0.013158 -0.000889 -0.006084 -0.005703
# 4 -0.001414 0.004756 -0.000889 0.047349 -0.003504 0.016319
# 5 0.008863 -0.002059 -0.006084 -0.003504 0.037388 0.007780
# 6 -0.005583 0.007084 -0.005703 0.016319 0.007780 0.043240
#
#
# Mechanical properties :
#
#
# Convention : Reuss Voigt Hill
#
# Bulk Modulus (GPa) = 52.49372 59.05364 55.77368
# Shear Modulus (GPa) = 23.44327 29.97306 26.70816
#
# Velocity S-wave (km/s) = 3.18913 3.60602 3.40397
# Velocity P-wave (km/s) = 6.02781 6.55420 6.29650
#
# Compressibility (1/GPa) = 0.01904990
#
# Stress axis : x y z
#
# Youngs Moduli (GPa) = 47.53115 67.54499 75.99828
#
# Poissons Ratio (x) = 0.41691 0.28383
# Poissons Ratio (y) = 0.29338 0.38524
# Poissons Ratio (z) = 0.17751 0.34239
#
# Static dielectric constant tensor:
#      x y z
#    x 4.071830 -0.031030 -0.087030 
#    y -0.031030 4.376370 -0.139940 
#    z -0.087030 -0.139940 4.231360 
# 
# 
# High freq. dielectric constant tensor:
#      x y z
#    x 1.905760 -0.000660 -0.000900 
#    y -0.000660 1.920810 -0.010780 
#    z -0.000900 -0.010780 1.914450 
# 
# From -- ./inp_files/307242.got.cif
#   From: 2010.06.25/outbox.cif.g09.slc.cpg/sg2_154_cif.got.tgz:307242.got - 2010.06.27 13:26:56.
