data_PCOD8015965
_publ_section_title
;
Structure prediction by ZEFSAII (Michael W. Deem and Ramdas Pophale) SiO2 
 PCOD8015965
Probable space group: P -1
;
_chemical_formula_sum "Si O2"
_cell_formula_units_Z 12
_cell_length_a 14.126626
_cell_length_b 10.677439
_cell_length_c 13.915480
_cell_angle_alpha 41.736566
_cell_angle_beta 19.371121
_cell_angle_gamma 43.265794
_cell_volume 460.666558
_symmetry_space_group_name_H-M "P -1"
_symmetry_group_IT_number 2
_symmetry_cell_setting 'triclinic'
loop_
_space_group_symop_operation_xyz
x,y,z
-x,-y,-z
loop_
_atom_site_type_symbol
_atom_site_label
_atom_site_fract_x
_atom_site_fract_y
_atom_site_fract_z
Si Si1 0.917928 0.953580 0.846221
Si Si2 0.974653 0.832060 0.192982
Si Si3 0.845417 0.290101 0.513152
Si Si4 0.354848 0.021491 0.240596
Si Si5 0.520957 0.376152 0.264367
Si Si6 0.330819 0.409253 0.630291
O O1 0.683673 0.044875 0.940018
O O2 0.849727 0.751540 0.064974
O O3 0.928233 0.110223 0.828537
O O4 0.222408 0.922445 0.517321
O O5 0.652026 0.778321 0.535459
O O6 0.168522 0.646119 0.070859
O O7 0.000000 0.000000 0.000000
O O8 0.642769 0.412343 0.714871
O O9 0.893420 0.423817 0.297921
O O10 0.159662 0.219497 0.293534
O O11 0.660398 0.118198 0.756745
O O12 0.542646 0.327413 0.386740
O O13 0.500000 0.500000 0.500000
#
# Coordination Sequence:
#
# PCOD8015965 Si02
#       6
#     2   2   2   2   2   2
#     4  12  25  41  69  98 132 167 232 267 319 391
#     4  12  23  41  65  97 133 176 211 276 323 381
#     4   9  23  45  68  95 138 174 211 273 339 390
#     4  11  25  45  66 100 132 176 214 272 335 391
#     4  10  24  40  66  94 134 168 221 258 335 381
#     4  10  21  43  68 103 127 168 216 280 322 386
#
# _framework density 26.049211
#
# number of rings (size 3 to 8) (size 9 to 14) (size 15 to 20)
#    1.000    0.333    3.333    1.500    2.333    7.333 
#    0.000    5.000    0.000    0.000    0.000    0.000 
#    0.000    0.000    0.000    0.000    0.000    0.000 
#
# Total GULP energy -148820.108644 kJ/mol
# GULP energy per Si atom -12401.675720 kJ/mol
# Density = 2.598992 g / cm^3
# Si number density = 26.049211 Si / 1000 Ang^3
#
#
#
# Elastic Constant Matrix: (Units=GPa)
#
#
# Indices 1 2 3 4 5 6 
#
# 1 147.5477 15.5923 16.0224 -12.8241 -10.7658 23.2310
# 2 15.5923 99.4750 -10.7291 1.2318 -1.1019 5.1384
# 3 16.0224 -10.7291 67.8140 7.1839 -8.7741 13.1141
# 4 -12.8241 1.2318 7.1839 26.8965 -0.0425 4.7206
# 5 -10.7658 -1.1019 -8.7741 -0.0425 29.5769 1.0416
# 6 23.2310 5.1384 13.1141 4.7206 1.0416 43.0333
#
#
#
# Elastic Compliance Matrix: (Units=1/GPa)
#
#
# Indices 1 2 3 4 5 6 
#
# 1 0.008466 -0.001289 -0.001521 0.005314 0.002752 -0.004602
# 2 -0.001289 0.010608 0.002463 -0.001552 0.000696 -0.001168
# 3 -0.001521 0.002463 0.017477 -0.004726 0.004871 -0.004398
# 4 0.005314 -0.001552 -0.004726 0.042079 0.000742 -0.005877
# 5 0.002752 0.000696 0.004871 0.000742 0.036425 -0.004016
# 6 -0.004602 -0.001168 -0.004398 -0.005877 -0.004016 0.027944
#
#
# Mechanical properties :
#
#
# Convention : Reuss Voigt Hill
#
# Bulk Modulus (GPa) = 27.88826 39.62310 33.75568
# Shear Modulus (GPa) = 32.12440 39.49807 35.81123
#
# Velocity S-wave (km/s) = 3.51553 3.89818 3.71179
# Velocity P-wave (km/s) = 5.21612 5.95860 5.59968
#
# Compressibility (1/GPa) = 0.03585738
#
# Stress axis : x y z
#
# Youngs Moduli (GPa) = 118.11760 94.27120 57.21903
#
# Poissons Ratio (x) = 0.12148 0.08703
# Poissons Ratio (y) = 0.15221 -0.14093
# Poissons Ratio (z) = 0.17966 -0.23220
#
# Static dielectric constant tensor:
#      x y z
#    x 4.798790 0.096950 0.102420 
#    y 0.096950 4.765890 0.100690 
#    z 0.102420 0.100690 4.755600 
# 
# 
# High freq. dielectric constant tensor:
#      x y z
#    x 2.045350 0.002050 -0.000480 
#    y 0.002050 2.049140 -0.006030 
#    z -0.000480 -0.006030 2.047700 
# 
# From -- ./inp_files/126719.got.cif
#   From: 2010.06.25/outbox.cif.g09.slc.cpg/sg2_64_cif.got.tgz:126719.got - 2010.06.27 13:26:56.
