data_PCOD8015566
_publ_section_title
;
Structure prediction by ZEFSAII (Michael W. Deem and Ramdas Pophale) SiO2 
 PCOD8015566
Probable space group: P -1
;
_chemical_formula_sum "Si O2"
_cell_formula_units_Z 16
_cell_length_a 9.492706
_cell_length_b 22.099944
_cell_length_c 8.257991
_cell_angle_alpha 47.982583
_cell_angle_beta 90.730790
_cell_angle_gamma 129.603996
_cell_volume 684.925508
_symmetry_space_group_name_H-M "P -1"
_symmetry_group_IT_number 2
_symmetry_cell_setting 'triclinic'
loop_
_space_group_symop_operation_xyz
x,y,z
-x,-y,-z
loop_
_atom_site_type_symbol
_atom_site_label
_atom_site_fract_x
_atom_site_fract_y
_atom_site_fract_z
Si Si1 0.061137 0.906914 0.297255
Si Si2 0.417789 0.117081 0.220767
Si Si3 0.977027 0.172237 0.063051
Si Si4 0.475757 0.313156 0.721321
Si Si5 0.203753 0.833802 0.243313
Si Si6 0.014251 0.663855 0.064663
Si Si7 0.342324 0.173381 0.625188
Si Si8 0.848020 0.343601 0.251049
O O1 0.010938 0.792485 0.431688
O O2 0.789007 0.819510 0.502446
O O3 0.288396 0.015363 0.240078
O O4 0.139779 0.001872 0.973333
O O5 0.231662 0.999605 0.579260
O O6 0.426538 0.218747 0.022536
O O7 0.714836 0.229167 0.034530
O O8 0.845122 0.168077 0.938863
O O9 0.246489 0.267125 0.827545
O O10 0.033615 0.261956 0.053051
O O11 0.761523 0.492636 0.440435
O O12 0.471220 0.275582 0.606234
O O13 0.146139 0.709818 0.491894
O O14 0.500000 0.000000 0.000000
O O15 0.038383 0.655499 0.891496
O O16 0.553212 0.231021 0.411072
O O17 0.000000 0.500000 0.000000
#
# Coordination Sequence:
#
# PCOD8015566 Si02
#       8
#     2   2   2   2   2   2   2   2
#     4  10  21  42  72 103 139 177 236 286 342 404
#     4  11  25  43  73 105 141 185 233 286 345 416
#     4  12  26  46  69 107 140 185 234 286 353 415
#     4  11  24  46  72 102 144 185 228 288 353 416
#     4  12  23  41  72 100 137 184 232 290 338 404
#     4  12  26  45  70 103 145 178 232 291 354 419
#     4  10  21  42  71 103 135 179 236 285 339 406
#     4  12  26  45  70 100 137 184 234 283 344 423
#
# _framework density 23.360205000000001
#
# number of rings (size 3 to 8) (size 9 to 14) (size 15 to 20)
#    0.000    0.750    3.750    3.750    1.750    2.000 
#    0.000    3.750    0.000    0.000    0.000    0.000 
#    0.000    0.000    0.000    0.000    0.000    0.000 
#
# Total GULP energy -198360.468111 kJ/mol
# GULP energy per Si atom -12397.529257 kJ/mol
# Density = 2.330704 g / cm^3
# Si number density = 23.360205 Si / 1000 Ang^3
#
#
#
# Elastic Constant Matrix: (Units=GPa)
#
#
# Indices 1 2 3 4 5 6 
#
# 1 124.7377 22.9678 54.6200 -6.9401 -2.2053 -3.2651
# 2 22.9678 64.0750 38.4041 -3.1355 2.6028 6.5003
# 3 54.6200 38.4041 136.7328 -9.6623 9.2599 7.5617
# 4 -6.9401 -3.1355 -9.6623 27.2185 -1.2646 -1.5286
# 5 -2.2053 2.6028 9.2599 -1.2646 41.4800 -1.0928
# 6 -3.2651 6.5003 7.5617 -1.5286 -1.0928 39.5788
#
#
#
# Elastic Compliance Matrix: (Units=1/GPa)
#
#
# Indices 1 2 3 4 5 6 
#
# 1 0.010076 -0.001587 -0.003700 0.001251 0.001549 0.001890
# 2 -0.001587 0.019191 -0.004599 0.000023 -0.000325 -0.002412
# 3 -0.003700 -0.004599 0.010463 0.002052 -0.002222 -0.001531
# 4 0.001251 0.000023 0.002052 0.037894 0.000794 0.001193
# 5 0.001549 -0.000325 -0.002222 0.000794 0.024766 0.001320
# 6 0.001890 -0.002412 -0.001531 0.001193 0.001320 0.026193
#
#
# Mechanical properties :
#
#
# Convention : Reuss Voigt Hill
#
# Bulk Modulus (GPa) = 50.10710 61.94770 56.02740
# Shear Modulus (GPa) = 32.25624 35.62568 33.94096
#
# Velocity S-wave (km/s) = 3.71997 3.90944 3.81588
# Velocity P-wave (km/s) = 6.32038 6.85232 6.59172
#
# Compressibility (1/GPa) = 0.01995725
#
# Stress axis : x y z
#
# Youngs Moduli (GPa) = 99.24804 52.10697 95.57035
#
# Poissons Ratio (x) = 0.08272 0.35362
# Poissons Ratio (y) = 0.15755 0.43954
# Poissons Ratio (z) = 0.36723 0.23965
#
# Static dielectric constant tensor:
#      x y z
#    x 3.986210 -0.332760 0.307430 
#    y -0.332760 3.990180 0.080420 
#    z 0.307430 0.080420 4.055610 
# 
# 
# High freq. dielectric constant tensor:
#      x y z
#    x 1.950030 -0.003950 0.001210 
#    y -0.003950 1.913660 -0.002010 
#    z 0.001210 -0.002010 1.907570 
# 
# From -- ./inp_files/225988.got.cif
#   From: 2010.06.25/outbox.cif.g09.slc.cpg/sg2_113_cif.got.tgz:225988.got - 2010.06.27 13:26:56.
