data_PCOD8015594
_publ_section_title
;
Structure prediction by ZEFSAII (Michael W. Deem and Ramdas Pophale) SiO2 
 PCOD8015594
Probable space group: P -1
;
_chemical_formula_sum "Si O2"
_cell_formula_units_Z 14
_cell_length_a 14.325272
_cell_length_b 9.163795
_cell_length_c 12.927171
_cell_angle_alpha 35.020830
_cell_angle_beta 45.345875
_cell_angle_gamma 41.048931
_cell_volume 622.974207
_symmetry_space_group_name_H-M "P -1"
_symmetry_group_IT_number 2
_symmetry_cell_setting 'triclinic'
loop_
_space_group_symop_operation_xyz
x,y,z
-x,-y,-z
loop_
_atom_site_type_symbol
_atom_site_label
_atom_site_fract_x
_atom_site_fract_y
_atom_site_fract_z
Si Si1 0.669693 0.616949 0.073075
Si Si2 0.555289 0.733769 0.313515
Si Si3 0.802876 0.726027 0.261546
Si Si4 0.980084 0.307137 0.538930
Si Si5 0.985080 0.265833 0.076123
Si Si6 0.736332 0.785408 0.728871
Si Si7 0.370304 0.630372 0.944477
O O1 0.577326 0.790200 0.142570
O O2 0.577354 0.505483 0.133117
O O3 0.814967 0.340819 0.154698
O O4 0.726899 0.811452 0.847551
O O5 0.500000 0.500000 0.500000
O O6 0.708398 0.635162 0.309685
O O7 0.425424 0.005408 0.308775
O O8 0.854223 0.508423 0.442752
O O9 0.698215 0.035134 0.205653
O O10 0.942103 0.728529 0.094016
O O11 0.134641 0.149908 0.450345
O O12 0.000000 0.500000 0.500000
O O13 0.938197 0.058211 0.753291
O O14 0.000000 0.500000 0.000000
O O15 0.754635 0.470957 0.864460
O O16 0.500000 0.500000 0.000000
#
# Coordination Sequence:
#
# PCOD8015594 Si02
#       7
#     2   2   2   2   2   2   2
#     4  10  22  44  70  99 142 186 230 291 361 410
#     4  12  25  44  66 104 144 186 235 292 351 427
#     4  12  24  48  73 104 141 186 240 293 354 426
#     4  12  27  47  74 109 142 187 244 297 355 424
#     4  12  25  44  74 105 143 188 238 296 358 420
#     4  10  23  43  73  99 143 183 234 289 357 414
#     4  10  21  42  72 100 135 188 230 286 355 422
#
# _framework density 22.472842
#
# number of rings (size 3 to 8) (size 9 to 14) (size 15 to 20)
#    0.857    0.000    4.286    3.000    0.000    3.429 
#    7.714    1.429    0.000    0.000    0.000    0.000 
#    0.000    0.000    0.000    0.000    0.000    0.000 
#
# Total GULP energy -173453.498412 kJ/mol
# GULP energy per Si atom -12389.535601 kJ/mol
# Density = 2.242169 g / cm^3
# Si number density = 22.472842 Si / 1000 Ang^3
#
#
#
# Elastic Constant Matrix: (Units=GPa)
#
#
# Indices 1 2 3 4 5 6 
#
# 1 132.1288 33.0111 30.5717 -6.4442 15.0934 9.2132
# 2 33.0111 89.1930 18.0480 -6.7447 5.3638 1.6256
# 3 30.5717 18.0480 106.2526 -18.4572 1.8120 8.1053
# 4 -6.4442 -6.7447 -18.4572 38.3913 -0.7763 0.8574
# 5 15.0934 5.3638 1.8120 -0.7763 37.8631 -4.7979
# 6 9.2132 1.6256 8.1053 0.8574 -4.7979 40.4207
#
#
#
# Elastic Compliance Matrix: (Units=1/GPa)
#
#
# Indices 1 2 3 4 5 6 
#
# 1 0.009256 -0.002777 -0.001962 0.000098 -0.003456 -0.002017
# 2 -0.002777 0.012589 -0.001145 0.001178 -0.000564 0.000264
# 3 -0.001962 -0.001145 0.011151 0.004877 0.000281 -0.001813
# 4 0.000098 0.001178 0.004877 0.028651 -0.000062 -0.001663
# 5 -0.003456 -0.000564 0.000281 -0.000062 0.028376 0.004124
# 6 -0.002017 0.000264 -0.001813 -0.001663 0.004124 0.026077
#
#
# Mechanical properties :
#
#
# Convention : Reuss Voigt Hill
#
# Bulk Modulus (GPa) = 47.10614 54.53733 50.82174
# Shear Modulus (GPa) = 37.05183 39.73126 38.39155
#
# Velocity S-wave (km/s) = 4.06487 4.20928 4.13771
# Velocity P-wave (km/s) = 6.56032 6.92422 6.74473
#
# Compressibility (1/GPa) = 0.02122865
#
# Stress axis : x y z
#
# Youngs Moduli (GPa) = 108.03462 79.43250 89.67643
#
# Poissons Ratio (x) = 0.22057 0.17593
# Poissons Ratio (y) = 0.30000 0.10272
# Poissons Ratio (z) = 0.21194 0.09098
#
# Static dielectric constant tensor:
#      x y z
#    x 4.026030 -0.004860 0.156100 
#    y -0.004860 3.248470 0.116110 
#    z 0.156100 0.116110 4.032690 
# 
# 
# High freq. dielectric constant tensor:
#      x y z
#    x 1.882870 -0.003660 0.011330 
#    y -0.003660 1.883630 -0.010690 
#    z 0.011330 -0.010690 1.881650 
# 
# From -- ./inp_files/418759.got.cif
#   From: 2010.06.25/outbox.cif.g09.slc.cpg/sg2_210_cif.got.tgz:418759.got - 2010.06.27 13:26:56.
