data_PCOD8015705
_publ_section_title
;
Structure prediction by ZEFSAII (Michael W. Deem and Ramdas Pophale) SiO2 
 PCOD8015705
Probable space group: P -1
;
_chemical_formula_sum "Si O2"
_cell_formula_units_Z 16
_cell_length_a 8.258431
_cell_length_b 11.636309
_cell_length_c 15.811828
_cell_angle_alpha 71.481453
_cell_angle_beta 60.189589
_cell_angle_gamma 36.014445
_cell_volume 764.506065
_symmetry_space_group_name_H-M "P -1"
_symmetry_group_IT_number 2
_symmetry_cell_setting 'triclinic'
loop_
_space_group_symop_operation_xyz
x,y,z
-x,-y,-z
loop_
_atom_site_type_symbol
_atom_site_label
_atom_site_fract_x
_atom_site_fract_y
_atom_site_fract_z
Si Si1 0.640984 0.085482 0.182015
Si Si2 0.177769 0.714872 0.235539
Si Si3 0.784342 0.278025 0.120470
Si Si4 0.668114 0.905278 0.066269
Si Si5 0.225878 0.276101 0.580040
Si Si6 0.851937 0.703051 0.593873
Si Si7 0.146352 0.045286 0.415808
Si Si8 0.772520 0.046587 0.774286
O O1 0.537039 0.074142 0.125364
O O2 0.958114 0.859975 0.180505
O O3 0.677526 0.207995 0.121292
O O4 0.395651 0.198306 0.293545
O O5 0.500618 0.505941 0.165653
O O6 0.227535 0.808652 0.257232
O O7 0.040958 0.680815 0.338315
O O8 0.987597 0.138013 0.181247
O O9 0.972998 0.259190 0.006264
O O10 0.574679 0.821975 0.148257
O O11 0.500000 0.000000 0.000000
O O12 0.319414 0.209785 0.473101
O O13 0.508312 0.111279 0.606635
O O14 0.117357 0.468305 0.579374
O O15 0.018531 0.746684 0.558316
O O16 0.122877 0.052010 0.320619
O O17 0.000000 0.000000 0.500000
#
# Coordination Sequence:
#
# PCOD8015705 Si02
#       8
#     2   2   2   2   2   2   2   2
#     4  11  21  41  66  91 122 161 214 254 306 367
#     4  11  22  39  65  95 123 162 213 257 300 368
#     4  10  23  39  67  92 121 168 210 259 304 360
#     4  10  21  43  63  91 128 166 202 256 321 362
#     4  11  24  40  63  96 121 165 214 249 306 366
#     4  11  23  40  67  88 125 166 208 257 300 372
#     4  12  25  40  64  92 129 166 198 255 318 367
#     4  10  23  40  61  92 132 161 205 257 310 372
#
# _framework density 20.928546999999998
#
# number of rings (size 3 to 8) (size 9 to 14) (size 15 to 20)
#    0.000    1.250    3.750    1.500    3.500    2.500 
#    0.000    0.000    0.000    0.000    0.000    0.000 
#    0.000    0.000    0.000    0.000    0.000    0.000 
#
# Total GULP energy -198381.259946 kJ/mol
# GULP energy per Si atom -12398.828747 kJ/mol
# Density = 2.088091 g / cm^3
# Si number density = 20.928547 Si / 1000 Ang^3
#
#
#
# Elastic Constant Matrix: (Units=GPa)
#
#
# Indices 1 2 3 4 5 6 
#
# 1 134.0159 35.2589 57.4336 4.4429 2.9573 39.1430
# 2 35.2589 65.8802 22.6768 6.1909 8.2260 29.0296
# 3 57.4336 22.6768 116.3990 13.6722 0.7742 13.3538
# 4 4.4429 6.1909 13.6722 25.7375 4.5393 -4.6612
# 5 2.9573 8.2260 0.7742 4.5393 49.8398 -3.6616
# 6 39.1430 29.0296 13.3538 -4.6612 -3.6616 33.2508
#
#
#
# Elastic Compliance Matrix: (Units=1/GPa)
#
#
# Indices 1 2 3 4 5 6 
#
# 1 0.014310 0.002416 -0.005135 -0.003122 -0.002174 -0.017570
# 2 0.002416 0.029680 -0.002226 -0.010716 -0.006239 -0.030051
# 3 -0.005135 -0.002226 0.011767 -0.004526 0.001104 0.002749
# 4 -0.003122 -0.010716 -0.004526 0.048418 -0.000803 0.021547
# 5 -0.002174 -0.006239 0.001104 -0.000803 0.022005 0.009874
# 6 -0.017570 -0.030051 0.002749 0.021547 0.009874 0.079998
#
#
# Mechanical properties :
#
#
# Convention : Reuss Voigt Hill
#
# Bulk Modulus (GPa) = 21.80227 60.78152 41.29190
# Shear Modulus (GPa) = 21.61154 35.16067 28.38610
#
# Velocity S-wave (km/s) = 3.21695 4.10327 3.68684
# Velocity P-wave (km/s) = 4.92326 7.18015 6.15601
#
# Compressibility (1/GPa) = 0.04586679
#
# Stress axis : x y z
#
# Youngs Moduli (GPa) = 69.88159 33.69221 84.98204
#
# Poissons Ratio (x) = -0.08139 0.43634
# Poissons Ratio (y) = -0.16881 0.18921
# Poissons Ratio (z) = 0.35881 0.07501
#
# Static dielectric constant tensor:
#      x y z
#    x 4.282830 0.320080 -0.305830 
#    y 0.320080 3.684110 -0.126210 
#    z -0.305830 -0.126210 4.224250 
# 
# 
# High freq. dielectric constant tensor:
#      x y z
#    x 1.835200 0.020900 -0.001800 
#    y 0.020900 1.801110 -0.003420 
#    z -0.001800 -0.003420 1.833050 
# 
# From -- ./inp_files/315640.got.cif
#   From: 2010.06.25/outbox.cif.g09.slc.cpg/sg2_158_cif.got.tgz:315640.got - 2010.06.27 13:26:56.
