data_PCOD8015959
_publ_section_title
;
Structure prediction by ZEFSAII (Michael W. Deem and Ramdas Pophale) SiO2 
 PCOD8015959
Probable space group: P -1
;
_chemical_formula_sum "Si O2"
_cell_formula_units_Z 16
_cell_length_a 4.770039
_cell_length_b 27.590006
_cell_length_c 5.899005
_cell_angle_alpha 127.755299
_cell_angle_beta 90.604779
_cell_angle_gamma 91.305695
_cell_volume 613.346331
_symmetry_space_group_name_H-M "P -1"
_symmetry_group_IT_number 2
_symmetry_cell_setting 'triclinic'
loop_
_space_group_symop_operation_xyz
x,y,z
-x,-y,-z
loop_
_atom_site_type_symbol
_atom_site_label
_atom_site_fract_x
_atom_site_fract_y
_atom_site_fract_z
Si Si1 0.653866 0.936481 0.372209
Si Si2 0.818291 0.769072 0.602096
Si Si3 0.794616 0.434541 0.239685
Si Si4 0.881711 0.044019 0.937295
Si Si5 0.720630 0.625775 0.159303
Si Si6 0.607214 0.546938 0.322746
Si Si7 0.982305 0.851089 0.466520
Si Si8 0.331236 0.822127 0.992566
O O1 0.865026 0.940005 0.180156
O O2 0.780248 0.892771 0.438603
O O3 0.621553 0.005143 0.688337
O O4 0.365041 0.897976 0.180314
O O5 0.769236 0.697761 0.359152
O O6 0.635965 0.793460 0.881726
O O7 0.767427 0.805353 0.471796
O O8 0.142968 0.786624 0.703901
O O9 0.810501 0.507666 0.377575
O O10 0.658901 0.427784 0.469488
O O11 0.601057 0.393628 0.949067
O O12 0.098248 0.405403 0.128549
O O13 0.810978 0.106828 0.245892
O O14 0.000000 0.000000 0.000000
O O15 0.782481 0.601109 0.345874
O O16 0.500000 0.500000 0.000000
O O17 0.191904 0.810661 0.203602
#
# Coordination Sequence:
#
# PCOD8015959 Si02
#       8
#     2   2   2   2   2   2   2   2
#     4  10  21  43  68 101 131 169 224 276 341 412
#     4  12  28  44  68  96 136 180 230 276 331 393
#     4  10  22  41  67 102 132 174 223 268 330 392
#     4   9  19  39  70 101 132 168 217 278 345 409
#     4  11  24  43  64  96 135 178 224 272 323 389
#     4   9  21  40  70 100 138 173 214 275 332 384
#     4  11  23  43  68  95 134 178 218 279 343 402
#     4  12  25  45  68  97 129 176 229 275 334 402
#
# _framework density 26.086402
#
# number of rings (size 3 to 8) (size 9 to 14) (size 15 to 20)
#    0.000    1.500    2.500    1.125    1.750    9.000 
#    0.000    8.750    0.000    0.000    0.000    0.000 
#    0.000    0.000    0.000    0.000    0.000    0.000 
#
# Total GULP energy -198358.720710 kJ/mol
# GULP energy per Si atom -12397.420044 kJ/mol
# Density = 2.602703 g / cm^3
# Si number density = 26.086402 Si / 1000 Ang^3
#
#
#
# Elastic Constant Matrix: (Units=GPa)
#
#
# Indices 1 2 3 4 5 6 
#
# 1 73.8219 24.0189 16.7097 4.8865 -12.8365 14.3294
# 2 24.0189 173.2659 77.1238 15.4856 -8.0603 23.5472
# 3 16.7097 77.1238 133.1100 11.5551 -25.0332 13.2666
# 4 4.8865 15.4856 11.5551 50.2476 9.7829 0.7240
# 5 -12.8365 -8.0603 -25.0332 9.7829 51.3950 1.0245
# 6 14.3294 23.5472 13.2666 0.7240 1.0245 25.3362
#
#
#
# Elastic Compliance Matrix: (Units=1/GPa)
#
#
# Indices 1 2 3 4 5 6 
#
# 1 0.016421 -0.000825 0.000388 -0.002232 0.004762 -0.008852
# 2 -0.000825 0.008636 -0.004378 -0.001379 -0.000618 -0.005203
# 3 0.000388 -0.004378 0.011469 -0.002362 0.005492 -0.002310
# 4 -0.002232 -0.001379 -0.002362 0.022250 -0.006227 0.003397
# 5 0.004762 -0.000618 0.005492 -0.006227 0.024526 -0.005809
# 6 -0.008852 -0.005203 -0.002310 0.003397 -0.005809 0.050659
#
#
# Mechanical properties :
#
#
# Convention : Reuss Voigt Hill
#
# Bulk Modulus (GPa) = 37.18046 68.43364 52.80705
# Shear Modulus (GPa) = 32.77482 42.88545 37.83013
#
# Velocity S-wave (km/s) = 3.54841 4.05900 3.81226
# Velocity P-wave (km/s) = 5.57423 6.94678 6.29801
#
# Compressibility (1/GPa) = 0.02689585
#
# Stress axis : x y z
#
# Youngs Moduli (GPa) = 60.89837 115.79052 87.19369
#
# Poissons Ratio (x) = 0.09554 -0.03386
# Poissons Ratio (y) = 0.05025 0.38175
# Poissons Ratio (z) = -0.02365 0.50695
#
# Static dielectric constant tensor:
#      x y z
#    x 4.718570 0.183830 0.343990 
#    y 0.183830 5.861840 -0.503910 
#    z 0.343990 -0.503910 5.264220 
# 
# 
# High freq. dielectric constant tensor:
#      x y z
#    x 2.042900 0.009630 0.016620 
#    y 0.009630 2.043310 -0.013210 
#    z 0.016620 -0.013210 2.066350 
# 
# From -- ./inp_files/14187.got.cif
#   From: 2010.06.25/outbox.cif.g09.slc.cpg/sg2_8_cif.got.tgz:14187.got - 2010.06.27 13:26:56.
