data_PCOD8015394
_publ_section_title
;
Structure prediction by ZEFSAII (Michael W. Deem and Ramdas Pophale) SiO2 
 PCOD8015394
Probable space group: P -1
;
_chemical_formula_sum "Si O2"
_cell_formula_units_Z 16
_cell_length_a 21.975355
_cell_length_b 8.633587
_cell_length_c 15.083664
_cell_angle_alpha 52.207007
_cell_angle_beta 29.700720
_cell_angle_gamma 33.277754
_cell_volume 707.122814
_symmetry_space_group_name_H-M "P -1"
_symmetry_group_IT_number 2
_symmetry_cell_setting 'triclinic'
loop_
_space_group_symop_operation_xyz
x,y,z
-x,-y,-z
loop_
_atom_site_type_symbol
_atom_site_label
_atom_site_fract_x
_atom_site_fract_y
_atom_site_fract_z
Si Si1 0.996995 0.251311 0.335430
Si Si2 0.651402 0.667379 0.879861
Si Si3 0.386142 0.751603 0.670258
Si Si4 0.997781 0.565510 0.081881
Si Si5 0.433891 0.220360 0.253360
Si Si6 0.484614 0.501210 0.216568
Si Si7 0.679548 0.550346 0.232937
Si Si8 0.944231 0.873666 0.500154
O O1 0.769352 0.576100 0.515079
O O2 0.079249 0.294007 0.139723
O O3 0.091055 0.178001 0.339262
O O4 0.035816 0.977943 0.357545
O O5 0.581792 0.712688 0.852984
O O6 0.881101 0.454581 0.660934
O O7 0.638045 0.484567 0.016149
O O8 0.500000 0.000000 0.000000
O O9 0.458956 0.684327 0.701810
O O10 0.573781 0.570279 0.439317
O O11 0.298762 0.641761 0.802979
O O12 0.224212 0.112956 0.726111
O O13 0.118407 0.616151 0.926496
O O14 0.000000 0.500000 0.000000
O O15 0.516868 0.313479 0.160492
O O16 0.566756 0.869021 0.221072
O O17 0.263614 0.863050 0.378095
#
# Coordination Sequence:
#
# PCOD8015394 Si02
#       8
#     2   2   2   2   2   2   2   2
#     4   9  20  42  65  98 135 170 223 283 329 393
#     4  11  24  41  65 100 139 172 220 275 342 411
#     4  11  26  47  62 101 140 178 227 276 344 409
#     4  12  26  40  72 103 131 176 235 283 333 398
#     4  10  21  42  68  96 131 174 227 280 334 392
#     4  11  24  41  71  96 132 177 229 279 330 399
#     4  11  25  44  70  92 138 184 218 281 350 399
#     4   9  22  41  66  96 135 176 217 273 339 393
#
# _framework density 22.626902000000001
#
# number of rings (size 3 to 8) (size 9 to 14) (size 15 to 20)
#    0.000    1.500    1.250    3.000    8.750    1.500 
#    0.000    2.500    0.000    0.000    0.000    0.000 
#    0.000    0.000    0.000    0.000    0.000    0.000 
#
# Total GULP energy -198363.419535 kJ/mol
# GULP energy per Si atom -12397.713721 kJ/mol
# Density = 2.257540 g / cm^3
# Si number density = 22.626902 Si / 1000 Ang^3
#
#
#
# Elastic Constant Matrix: (Units=GPa)
#
#
# Indices 1 2 3 4 5 6 
#
# 1 83.7555 18.9798 29.0285 -6.4232 2.6826 -8.5905
# 2 18.9798 96.3214 23.6571 -1.3964 11.2131 -14.2981
# 3 29.0285 23.6571 81.5155 -6.9597 5.8506 -4.3545
# 4 -6.4232 -1.3964 -6.9597 44.3831 1.4977 3.2770
# 5 2.6826 11.2131 5.8506 1.4977 31.3082 2.2447
# 6 -8.5905 -14.2981 -4.3545 3.2770 2.2447 34.3582
#
#
#
# Elastic Compliance Matrix: (Units=1/GPa)
#
#
# Indices 1 2 3 4 5 6 
#
# 1 0.014095 -0.001319 -0.004406 0.001141 -0.000132 0.002316
# 2 -0.001319 0.012490 -0.002631 -0.000427 -0.004196 0.004849
# 3 -0.004406 -0.002631 0.014832 0.001684 -0.001505 -0.000379
# 4 0.001141 -0.000427 0.001684 0.023122 -0.001236 -0.001804
# 5 -0.000132 -0.004196 -0.001505 -0.001236 0.034087 -0.004079
# 6 0.002316 0.004849 -0.000379 -0.001804 -0.004079 0.032093
#
#
# Mechanical properties :
#
#
# Convention : Reuss Voigt Hill
#
# Bulk Modulus (GPa) = 40.47938 44.99148 42.73543
# Shear Modulus (GPa) = 32.11998 34.67170 33.39584
#
# Velocity S-wave (km/s) = 3.77178 3.91874 3.84596
# Velocity P-wave (km/s) = 6.07430 6.35630 6.21690
#
# Compressibility (1/GPa) = 0.02470393
#
# Stress axis : x y z
#
# Youngs Moduli (GPa) = 70.94815 80.06241 67.42297
#
# Poissons Ratio (x) = 0.10564 0.29705
# Poissons Ratio (y) = 0.09361 0.17741
# Poissons Ratio (z) = 0.31258 0.21067
#
# Static dielectric constant tensor:
#      x y z
#    x 3.971570 0.050520 0.014990 
#    y 0.050520 4.142460 0.155650 
#    z 0.014990 0.155650 4.182730 
# 
# 
# High freq. dielectric constant tensor:
#      x y z
#    x 1.878470 -0.006440 0.001940 
#    y -0.006440 1.901970 0.006090 
#    z 0.001940 0.006090 1.897020 
# 
# From -- ./inp_files/399383.got.cif
#   From: 2010.06.25/outbox.cif.g09.slc.cpg/sg2_200_cif.got.tgz:399383.got - 2010.06.27 13:26:56.
