data_PCOD8015037
_publ_section_title
;
Structure prediction by ZEFSAII (Michael W. Deem and Ramdas Pophale) SiO2 
 PCOD8015037
Probable space group: P -1
;
_chemical_formula_sum "Si O2"
_cell_formula_units_Z 10
_cell_length_a 9.617737
_cell_length_b 10.129906
_cell_length_c 12.531747
_cell_angle_alpha 47.179313
_cell_angle_beta 143.948047
_cell_angle_gamma 134.061084
_cell_volume 496.023453
_symmetry_space_group_name_H-M "P -1"
_symmetry_group_IT_number 2
_symmetry_cell_setting 'triclinic'
loop_
_space_group_symop_operation_xyz
x,y,z
-x,-y,-z
loop_
_atom_site_type_symbol
_atom_site_label
_atom_site_fract_x
_atom_site_fract_y
_atom_site_fract_z
Si Si1 0.960065 0.200831 0.109317
Si Si2 0.861724 0.038047 0.496488
Si Si3 0.616970 0.414294 0.805924
Si Si4 0.673318 0.252929 0.717283
Si Si5 0.893886 0.557950 0.508368
O O1 0.225324 0.370060 0.184240
O O2 0.999215 0.016060 0.285511
O O3 0.755007 0.267109 0.014835
O O4 0.861485 0.163504 0.945978
O O5 0.894907 0.261518 0.404951
O O6 0.567649 0.918749 0.378388
O O7 0.000000 0.000000 0.500000
O O8 0.594550 0.390989 0.675498
O O9 0.341335 0.373121 0.705169
O O10 0.814578 0.376777 0.637074
O O11 0.000000 0.500000 0.500000
#
# Coordination Sequence:
#
# PCOD8015037 Si02
#       5
#     2   2   2   2   2
#     4   9  20  37  68  93 121 156 219 260 302 352
#     4  12  22  38  71  96 115 165 218 255 304 365
#     4   9  18  38  68  87 124 161 204 259 309 350
#     4  10  21  42  65  88 126 165 206 260 302 361
#     4  12  25  40  62  96 132 165 201 254 322 372
#
# _framework density 20.160336999999998
#
# number of rings (size 3 to 8) (size 9 to 14) (size 15 to 20)
#    1.200    0.400    4.000    1.800    0.000    4.000 
#    0.000    2.000    0.000    0.000    0.000    0.000 
#    0.000    0.000    0.000    0.000    0.000    0.000 
#
# Total GULP energy -123907.081169 kJ/mol
# GULP energy per Si atom -12390.708117 kJ/mol
# Density = 2.011445 g / cm^3
# Si number density = 20.160337 Si / 1000 Ang^3
#
#
#
# Elastic Constant Matrix: (Units=GPa)
#
#
# Indices 1 2 3 4 5 6 
#
# 1 123.2535 59.2935 30.1763 11.5635 -7.9377 1.1081
# 2 59.2935 134.4097 47.1358 19.3009 -12.3869 18.2452
# 3 30.1763 47.1358 80.9645 22.4358 -11.8782 16.0623
# 4 11.5635 19.3009 22.4358 20.3099 5.1387 0.0901
# 5 -7.9377 -12.3869 -11.8782 5.1387 18.5689 -2.0029
# 6 1.1081 18.2452 16.0623 0.0901 -2.0029 28.6134
#
#
#
# Elastic Compliance Matrix: (Units=1/GPa)
#
#
# Indices 1 2 3 4 5 6 
#
# 1 0.010773 -0.004507 -0.002159 0.000389 0.000509 0.003703
# 2 -0.004507 0.013044 0.000778 -0.013206 0.010082 -0.007832
# 3 -0.002159 0.000778 0.032158 -0.042606 0.030209 -0.016216
# 4 0.000389 -0.013206 -0.042606 0.125649 -0.067737 0.027185
# 5 0.000509 0.010082 0.030209 -0.067737 0.097098 -0.016396
# 6 0.003703 -0.007832 -0.016216 0.027185 -0.016396 0.047669
#
#
# Mechanical properties :
#
#
# Convention : Reuss Voigt Hill
#
# Bulk Modulus (GPa) = 22.62474 67.98208 45.30341
# Shear Modulus (GPa) = 14.16838 26.96658 20.56748
#
# Velocity S-wave (km/s) = 2.65389 3.66130 3.19751
# Velocity P-wave (km/s) = 4.54286 7.18800 6.01269
#
# Compressibility (1/GPa) = 0.04419940
#
# Stress axis : x y z
#
# Youngs Moduli (GPa) = 92.82374 76.66478 31.09657
#
# Poissons Ratio (x) = 0.34552 0.06714
# Poissons Ratio (y) = 0.41834 -0.02420
# Poissons Ratio (z) = 0.20042 -0.05967
#
# Static dielectric constant tensor:
#      x y z
#    x 3.297710 0.324190 0.039430 
#    y 0.324190 3.873790 0.263450 
#    z 0.039430 0.263450 3.823000 
# 
# 
# High freq. dielectric constant tensor:
#      x y z
#    x 1.742310 0.021970 -0.003510 
#    y 0.021970 1.790430 0.015470 
#    z -0.003510 0.015470 1.787780 
# 
# From -- ./inp_files/160446.got.cif
#   From: 2010.06.25/outbox.cif.g09.slc.cpg/sg2_81_cif.got.tgz:160446.got - 2010.06.27 13:26:56.
