data_PCOD8015839
_publ_section_title
;
Structure prediction by ZEFSAII (Michael W. Deem and Ramdas Pophale) SiO2 
 PCOD8015839
Probable space group: P -1
;
_chemical_formula_sum "Si O2"
_cell_formula_units_Z 16
_cell_length_a 8.801248
_cell_length_b 11.575541
_cell_length_c 13.771327
_cell_angle_alpha 96.500568
_cell_angle_beta 80.044014
_cell_angle_gamma 36.586158
_cell_volume 743.874805
_symmetry_space_group_name_H-M "P -1"
_symmetry_group_IT_number 2
_symmetry_cell_setting 'triclinic'
loop_
_space_group_symop_operation_xyz
x,y,z
-x,-y,-z
loop_
_atom_site_type_symbol
_atom_site_label
_atom_site_fract_x
_atom_site_fract_y
_atom_site_fract_z
Si Si1 0.532833 0.775558 0.089351
Si Si2 0.839764 0.056334 0.427406
Si Si3 0.023909 0.516803 0.151371
Si Si4 0.151207 0.627037 0.296573
Si Si5 0.203542 0.480810 0.479802
Si Si6 0.212599 0.677256 0.613541
Si Si7 0.995300 0.273801 0.167358
Si Si8 0.467107 0.473597 0.894581
O O1 0.399293 0.741042 0.144608
O O2 0.743034 0.704235 0.134851
O O3 0.696272 0.637860 0.959201
O O4 0.289049 0.021381 0.119143
O O5 0.493694 0.266915 0.487290
O O6 0.925465 0.106612 0.348347
O O7 0.000000 0.000000 0.500000
O O8 0.938983 0.866105 0.368472
O O9 0.988836 0.634825 0.250334
O O10 0.053960 0.372565 0.184774
O O11 0.277403 0.483584 0.364372
O O12 0.403864 0.520149 0.196027
O O13 0.033063 0.690765 0.577580
O O14 0.000000 0.500000 0.500000
O O15 0.500000 0.500000 0.500000
O O16 0.238042 0.619550 0.716460
O O17 0.865227 0.330927 0.080377
O O18 0.500000 0.500000 0.000000
#
# Coordination Sequence:
#
# PCOD8015839 Si02
#       8
#     2   2   2   2   2   2   2   2
#     4  10  22  45  65  95 131 177 223 268 332 397
#     4  11  24  44  70  96 129 182 224 273 338 407
#     4  10  23  42  67  93 136 173 214 280 331 390
#     4  12  24  44  68  97 136 172 219 275 335 390
#     4  11  25  44  67  99 138 170 223 285 333 393
#     4  10  21  43  66  93 133 173 222 275 336 402
#     4  11  23  41  68  95 129 181 220 266 341 397
#     4  11  23  41  65  97 133 169 219 276 321 388
#
# _framework density 21.508994000000001
#
# number of rings (size 3 to 8) (size 9 to 14) (size 15 to 20)
#    0.000    1.250    2.500    3.375    1.750    3.000 
#    4.500    0.000    0.000    0.000    0.000    0.000 
#    0.000    0.000    0.000    0.000    0.000    0.000 
#
# Total GULP energy -198232.844777 kJ/mol
# GULP energy per Si atom -12389.552799 kJ/mol
# Density = 2.146004 g / cm^3
# Si number density = 21.508994 Si / 1000 Ang^3
#
#
#
# Elastic Constant Matrix: (Units=GPa)
#
#
# Indices 1 2 3 4 5 6 
#
# 1 160.6791 75.1967 49.4018 -5.1997 19.1868 11.9105
# 2 75.1967 144.4137 50.8483 -0.6421 16.3549 7.7514
# 3 49.4018 50.8483 99.4428 -13.9518 16.9932 -0.9908
# 4 -5.1997 -0.6421 -13.9518 33.8133 6.8102 -0.0598
# 5 19.1868 16.3549 16.9932 6.8102 43.3769 -6.1261
# 6 11.9105 7.7514 -0.9908 -0.0598 -6.1261 33.6665
#
#
#
# Elastic Compliance Matrix: (Units=1/GPa)
#
#
# Indices 1 2 3 4 5 6 
#
# 1 0.009077 -0.003521 -0.002207 0.000891 -0.002371 -0.002895
# 2 -0.003521 0.010167 -0.003556 -0.001654 -0.000814 -0.001351
# 3 -0.002207 -0.003556 0.014619 0.006483 -0.004249 0.001268
# 4 0.000891 -0.001654 0.006483 0.033922 -0.007791 -0.001101
# 5 -0.002371 -0.000814 -0.004249 -0.007791 0.028146 0.006009
# 6 -0.002895 -0.001351 0.001268 -0.001101 0.006009 0.032167
#
#
# Mechanical properties :
#
#
# Convention : Reuss Voigt Hill
#
# Bulk Modulus (GPa) = 65.38476 83.93657 74.66067
# Shear Modulus (GPa) = 32.94549 37.44394 35.19471
#
# Velocity S-wave (km/s) = 3.91795 4.17688 4.04948
# Velocity P-wave (km/s) = 7.13666 7.89749 7.52670
#
# Compressibility (1/GPa) = 0.01529408
#
# Stress axis : x y z
#
# Youngs Moduli (GPa) = 110.17193 98.35276 68.40297
#
# Poissons Ratio (x) = 0.34631 0.15099
# Poissons Ratio (y) = 0.38793 0.24325
# Poissons Ratio (z) = 0.24320 0.34976
#
# Static dielectric constant tensor:
#      x y z
#    x 4.391820 0.371270 0.237990 
#    y 0.371270 3.996510 -0.015900 
#    z 0.237990 -0.015900 4.418180 
# 
# 
# High freq. dielectric constant tensor:
#      x y z
#    x 1.868900 0.015780 0.006830 
#    y 0.015780 1.839100 -0.021810 
#    z 0.006830 -0.021810 1.834460 
# 
# From -- ./inp_files/500466.got.cif
#   From: 2010.06.25/outbox.cif.g09.slc.cpg/sg2_251_cif.got.tgz:500466.got - 2010.06.27 13:26:56.
