data_PCOD8015577
_publ_section_title
;
Structure prediction by ZEFSAII (Michael W. Deem and Ramdas Pophale) SiO2 
 PCOD8015577
Probable space group: P -1
;
_chemical_formula_sum "Si O2"
_cell_formula_units_Z 16
_cell_length_a 13.031803
_cell_length_b 7.605076
_cell_length_c 11.562952
_cell_angle_alpha 95.643026
_cell_angle_beta 109.620988
_cell_angle_gamma 131.707031
_cell_volume 716.564284
_symmetry_space_group_name_H-M "P -1"
_symmetry_group_IT_number 2
_symmetry_cell_setting 'triclinic'
loop_
_space_group_symop_operation_xyz
x,y,z
-x,-y,-z
loop_
_atom_site_type_symbol
_atom_site_label
_atom_site_fract_x
_atom_site_fract_y
_atom_site_fract_z
Si Si1 0.599531 0.377405 0.959438
Si Si2 0.184099 0.167731 0.546252
Si Si3 0.085732 0.454294 0.872674
Si Si4 0.920908 0.339179 0.577511
Si Si5 0.210838 0.860954 0.119687
Si Si6 0.504045 0.381873 0.152836
Si Si7 0.572319 0.148990 0.710593
Si Si8 0.695116 0.388577 0.538836
O O1 0.589438 0.569916 0.939246
O O2 0.511312 0.172047 0.805982
O O3 0.786872 0.545870 0.052623
O O4 0.518489 0.250142 0.047757
O O5 0.316304 0.360657 0.710527
O O6 0.227191 0.335872 0.459900
O O7 0.193875 0.970889 0.508185
O O8 0.000000 0.000000 0.500000
O O9 0.062579 0.449537 0.726405
O O10 0.918110 0.187149 0.854716
O O11 0.136295 0.708216 0.958649
O O12 0.822993 0.382333 0.600186
O O13 0.000000 0.500000 0.500000
O O14 0.253322 0.731893 0.195092
O O15 0.379634 0.170070 0.190519
O O16 0.603705 0.314681 0.622450
O O17 0.436691 0.836919 0.617933
#
# Coordination Sequence:
#
# PCOD8015577 Si02
#       8
#     2   2   2   2   2   2   2   2
#     4  10  24  43  68  98 138 181 232 293 346 414
#     4  12  25  44  69 105 141 185 235 292 356 422
#     4  10  23  43  66 102 133 182 234 281 351 420
#     4  12  25  42  69 102 140 182 231 289 351 420
#     4  10  21  42  71  94 140 178 232 287 345 417
#     4  11  24  45  67 103 137 180 238 295 347 418
#     4  10  21  43  68  99 135 185 227 285 362 411
#     4  11  23  43  69 101 142 182 230 290 350 429
#
# _framework density 22.328771
#
# number of rings (size 3 to 8) (size 9 to 14) (size 15 to 20)
#    0.000    1.250    3.750    1.500    0.000    6.500 
#    2.250    2.500    0.000    0.000    0.000    0.000 
#    0.000    0.000    0.000    0.000    0.000    0.000 
#
# Total GULP energy -198291.487534 kJ/mol
# GULP energy per Si atom -12393.217971 kJ/mol
# Density = 2.227795 g / cm^3
# Si number density = 22.328771 Si / 1000 Ang^3
#
#
#
# Elastic Constant Matrix: (Units=GPa)
#
#
# Indices 1 2 3 4 5 6 
#
# 1 87.9059 31.9866 34.2484 -4.6530 9.9951 3.8209
# 2 31.9866 136.0317 44.6781 -4.3030 -1.8094 3.4792
# 3 34.2484 44.6781 140.9717 -4.8958 -6.3509 4.7660
# 4 -4.6530 -4.3030 -4.8958 26.5034 3.1752 3.3676
# 5 9.9951 -1.8094 -6.3509 3.1752 33.7597 4.4328
# 6 3.8209 3.4792 4.7660 3.3676 4.4328 32.4963
#
#
#
# Elastic Compliance Matrix: (Units=1/GPa)
#
#
# Indices 1 2 3 4 5 6 
#
# 1 0.014024 -0.002365 -0.002785 0.002225 -0.004941 -0.000544
# 2 -0.002365 0.008635 -0.002090 0.000571 0.000782 -0.000506
# 3 -0.002785 -0.002090 0.008600 0.000611 0.002418 -0.001103
# 4 0.002225 0.000571 0.000611 0.039274 -0.003684 -0.003980
# 5 -0.004941 0.000782 0.002418 -0.003684 0.032439 -0.003901
# 6 -0.000544 -0.000506 -0.001103 -0.003980 -0.003901 0.031997
#
#
# Mechanical properties :
#
#
# Convention : Reuss Voigt Hill
#
# Bulk Modulus (GPa) = 59.59176 65.19283 62.39229
# Shear Modulus (GPa) = 32.24929 35.48497 33.86713
#
# Velocity S-wave (km/s) = 3.80451 3.99081 3.89877
# Velocity P-wave (km/s) = 6.78567 7.10602 6.94769
#
# Compressibility (1/GPa) = 0.01678084
#
# Stress axis : x y z
#
# Youngs Moduli (GPa) = 71.30498 115.80643 116.27928
#
# Poissons Ratio (x) = 0.27383 0.32380
# Poissons Ratio (y) = 0.16860 0.24303
# Poissons Ratio (z) = 0.19856 0.24204
#
# Static dielectric constant tensor:
#      x y z
#    x 4.165660 0.103700 -0.005670 
#    y 0.103700 3.812560 -0.098300 
#    z -0.005670 -0.098300 4.262650 
# 
# 
# High freq. dielectric constant tensor:
#      x y z
#    x 1.880110 0.012100 0.007180 
#    y 0.012100 1.860920 -0.011040 
#    z 0.007180 -0.011040 1.896840 
# 
# From -- ./inp_files/447537.got.cif
#   From: 2010.06.25/outbox.cif.g09.slc.cpg/sg2_224_cif.got.tgz:447537.got - 2010.06.27 13:26:56.
