data_PCOD8015670
_publ_section_title
;
Structure prediction by ZEFSAII (Michael W. Deem and Ramdas Pophale) SiO2 
 PCOD8015670
Probable space group: P -1
;
_chemical_formula_sum "Si O2"
_cell_formula_units_Z 16
_cell_length_a 7.191233
_cell_length_b 19.791172
_cell_length_c 12.112900
_cell_angle_alpha 140.246306
_cell_angle_beta 94.629223
_cell_angle_gamma 57.695869
_cell_volume 737.784867
_symmetry_space_group_name_H-M "P -1"
_symmetry_group_IT_number 2
_symmetry_cell_setting 'triclinic'
loop_
_space_group_symop_operation_xyz
x,y,z
-x,-y,-z
loop_
_atom_site_type_symbol
_atom_site_label
_atom_site_fract_x
_atom_site_fract_y
_atom_site_fract_z
Si Si1 0.996700 0.533345 0.416135
Si Si2 0.041155 0.144432 0.974116
Si Si3 0.444018 0.778138 0.047458
Si Si4 0.498274 0.391897 0.975465
Si Si5 0.191364 0.149337 0.212373
Si Si6 0.617738 0.960003 0.687652
Si Si7 0.820844 0.410275 0.144021
Si Si8 0.039321 0.686627 0.203170
O O1 0.787421 0.544656 0.351215
O O2 0.000000 0.500000 0.500000
O O3 0.883468 0.696747 0.597153
O O4 0.311670 0.390214 0.209876
O O5 0.854256 0.127218 0.899578
O O6 0.360912 0.995754 0.762804
O O7 0.004541 0.166434 0.133653
O O8 0.946690 0.295597 0.109490
O O9 0.489191 0.883044 0.165125
O O10 0.452133 0.742193 0.132544
O O11 0.191128 0.528219 0.079642
O O12 0.536040 0.471554 0.168998
O O13 0.736278 0.309973 0.789979
O O14 0.166125 0.115602 0.294092
O O15 0.500000 0.000000 0.000000
O O16 0.761318 0.838608 0.441346
O O17 0.031435 0.321172 0.935224
#
# Coordination Sequence:
#
# PCOD8015670 Si02
#       8
#     2   2   2   2   2   2   2   2
#     4  12  21  40  68  93 121 169 214 255 314 380
#     4  10  21  43  60  93 128 164 213 260 310 371
#     4  11  23  40  65  92 126 169 213 250 318 376
#     4   8  19  41  61  91 129 159 214 256 310 374
#     4  10  22  41  61  88 132 158 204 268 310 365
#     4  11  22  41  63  92 132 166 207 265 311 369
#     4   9  18  39  65  90 123 162 208 257 307 371
#     4   9  19  40  67  89 133 163 203 275 308 362
#
# _framework density 21.686537999999999
#
# number of rings (size 3 to 8) (size 9 to 14) (size 15 to 20)
#    0.750    1.250    2.500    1.500    0.000    2.000 
#    6.750    2.500    0.000    0.000    0.000    0.000 
#    0.000    0.000    0.000    0.000    0.000    0.000 
#
# Total GULP energy -198234.187906 kJ/mol
# GULP energy per Si atom -12389.636744 kJ/mol
# Density = 2.163718 g / cm^3
# Si number density = 21.686538 Si / 1000 Ang^3
#
#
#
# Elastic Constant Matrix: (Units=GPa)
#
#
# Indices 1 2 3 4 5 6 
#
# 1 47.8324 1.3162 1.2820 4.6064 -2.8530 0.8991
# 2 1.3162 124.4578 15.8610 0.2440 4.9973 6.7940
# 3 1.2820 15.8610 87.3145 4.1003 1.3278 3.3133
# 4 4.6064 0.2440 4.1003 30.0862 -1.9687 1.1037
# 5 -2.8530 4.9973 1.3278 -1.9687 20.1456 1.2290
# 6 0.8991 6.7940 3.3133 1.1037 1.2290 24.2325
#
#
#
# Elastic Compliance Matrix: (Units=1/GPa)
#
#
# Indices 1 2 3 4 5 6 
#
# 1 0.021394 -0.000279 -0.000137 -0.003042 0.002854 -0.000703
# 2 -0.000279 0.008407 -0.001422 0.000120 -0.001894 -0.002062
# 3 -0.000137 -0.001422 0.011838 -0.001575 -0.000533 -0.001116
# 4 -0.003042 0.000120 -0.001575 0.034170 0.003069 -0.001417
# 5 0.002854 -0.001894 -0.000533 0.003069 0.050983 -0.002228
# 6 -0.000703 -0.002062 -0.001116 -0.001417 -0.002228 0.042201
#
#
# Mechanical properties :
#
#
# Convention : Reuss Voigt Hill
#
# Bulk Modulus (GPa) = 26.34153 32.94702 29.64428
# Shear Modulus (GPa) = 26.97978 30.96923 28.97450
#
# Velocity S-wave (km/s) = 3.53098 3.78304 3.65918
# Velocity P-wave (km/s) = 5.36625 5.85724 5.61711
#
# Compressibility (1/GPa) = 0.03796287
#
# Stress axis : x y z
#
# Youngs Moduli (GPa) = 46.74195 118.94365 84.47707
#
# Poissons Ratio (x) = 0.03319 0.01160
# Poissons Ratio (y) = 0.01304 0.12010
# Poissons Ratio (z) = 0.00642 0.16910
#
# Static dielectric constant tensor:
#      x y z
#    x 3.738980 -0.050300 -0.125440 
#    y -0.050300 4.367350 -0.115100 
#    z -0.125440 -0.115100 3.614240 
# 
# 
# High freq. dielectric constant tensor:
#      x y z
#    x 1.828240 -0.002650 -0.006820 
#    y -0.002650 1.877260 -0.005550 
#    z -0.006820 -0.005550 1.822540 
# 
# From -- ./inp_files/403231.got.cif
#   From: 2010.06.25/outbox.cif.g09.slc.cpg/sg2_202_cif.got.tgz:403231.got - 2010.06.27 13:26:56.
