data_PCOD8015450
_publ_section_title
;
Structure prediction by ZEFSAII (Michael W. Deem and Ramdas Pophale) SiO2 
 PCOD8015450
Probable space group: P -1
;
_chemical_formula_sum "Si O2"
_cell_formula_units_Z 16
_cell_length_a 11.449108
_cell_length_b 9.406443
_cell_length_c 10.959766
_cell_angle_alpha 48.048350
_cell_angle_beta 112.293948
_cell_angle_gamma 128.327191
_cell_volume 687.372333
_symmetry_space_group_name_H-M "P -1"
_symmetry_group_IT_number 2
_symmetry_cell_setting 'triclinic'
loop_
_space_group_symop_operation_xyz
x,y,z
-x,-y,-z
loop_
_atom_site_type_symbol
_atom_site_label
_atom_site_fract_x
_atom_site_fract_y
_atom_site_fract_z
Si Si1 0.342353 0.416364 0.046125
Si Si2 0.841280 0.069387 0.804346
Si Si3 0.325093 0.841260 0.512376
Si Si4 0.211400 0.725054 0.790374
Si Si5 0.857372 0.638882 0.383284
Si Si6 0.638142 0.530541 0.699128
Si Si7 0.115396 0.552688 0.247521
Si Si8 0.674049 0.817599 0.317791
O O1 0.347350 0.367015 0.219872
O O2 0.213157 0.193334 0.050249
O O3 0.500000 0.500000 0.000000
O O4 0.303553 0.606422 0.910970
O O5 0.723634 0.053580 0.670702
O O6 0.828047 0.183778 0.857579
O O7 0.010507 0.218986 0.740372
O O8 0.247894 0.842325 0.605984
O O9 0.276270 0.585137 0.605959
O O10 0.500000 0.000000 0.500000
O O11 0.033737 0.557946 0.828883
O O12 0.265778 0.918167 0.803162
O O13 0.918126 0.568194 0.563733
O O14 0.797080 0.795168 0.308508
O O15 0.763837 0.470374 0.765427
O O16 0.652625 0.714393 0.503788
O O17 0.479455 0.300517 0.749758
#
# Coordination Sequence:
#
# PCOD8015450 Si02
#       8
#     2   2   2   2   2   2   2   2
#     4  12  30  46  67  99 140 183 235 277 344 409
#     4  11  22  45  69  99 135 185 224 290 337 391
#     4  11  22  38  73 100 137 172 235 287 332 399
#     4  12  25  43  64 102 135 186 226 274 341 407
#     4  10  21  42  69 109 133 176 225 290 341 391
#     4  10  25  47  69 102 137 179 224 283 347 405
#     4  10  22  43  71 103 138 169 232 282 342 405
#     4  10  25  42  75 101 135 175 229 284 341 400
#
# _framework density 23.277049999999999
#
# number of rings (size 3 to 8) (size 9 to 14) (size 15 to 20)
#    0.000    1.250    2.500    2.250   14.000    2.500 
#    0.000    0.000    0.000    0.000    0.000    0.000 
#    0.000    0.000    0.000    0.000    0.000    0.000 
#
# Total GULP energy -198468.905720 kJ/mol
# GULP energy per Si atom -12404.306608 kJ/mol
# Density = 2.322407 g / cm^3
# Si number density = 23.277050 Si / 1000 Ang^3
#
#
#
# Elastic Constant Matrix: (Units=GPa)
#
#
# Indices 1 2 3 4 5 6 
#
# 1 128.1578 63.5992 27.4752 -12.3937 11.8364 6.2392
# 2 63.5992 163.2986 27.5315 -36.1709 11.3637 2.9643
# 3 27.4752 27.5315 22.1359 -15.6201 5.7314 -0.1718
# 4 -12.3937 -36.1709 -15.6201 38.9406 -8.9336 6.6322
# 5 11.8364 11.3637 5.7314 -8.9336 35.8049 1.9731
# 6 6.2392 2.9643 -0.1718 6.6322 1.9731 48.4065
#
#
#
# Elastic Compliance Matrix: (Units=1/GPa)
#
#
# Indices 1 2 3 4 5 6 
#
# 1 0.012231 -0.003397 -0.014192 -0.005306 -0.001984 -0.000611
# 2 -0.003397 0.009424 -0.002789 0.006818 0.000340 -0.001097
# 3 -0.014192 -0.002789 0.085813 0.027254 -0.001284 -0.001377
# 4 -0.005306 0.006818 0.027254 0.043744 0.006467 -0.005894
# 5 -0.001984 0.000340 -0.001284 0.006467 0.030400 -0.001895
# 6 -0.000611 -0.001097 -0.001377 -0.005894 -0.001895 0.021684
#
#
# Mechanical properties :
#
#
# Convention : Reuss Voigt Hill
#
# Bulk Modulus (GPa) = 14.98993 61.20044 38.09519
# Shear Modulus (GPa) = 18.77652 37.62948 28.20300
#
# Velocity S-wave (km/s) = 2.84325 4.02505 3.48461
# Velocity P-wave (km/s) = 4.15120 6.92464 5.70890
#
# Compressibility (1/GPa) = 0.06671143
#
# Stress axis : x y z
#
# Youngs Moduli (GPa) = 81.75947 106.11697 11.65322
#
# Poissons Ratio (x) = 0.36050 0.16538
# Poissons Ratio (y) = 0.27775 0.03251
# Poissons Ratio (z) = 1.16029 0.29601
#
# Static dielectric constant tensor:
#      x y z
#    x 4.144380 -0.266670 0.116050 
#    y -0.266670 3.875180 0.196310 
#    z 0.116050 0.196310 3.899780 
# 
# 
# High freq. dielectric constant tensor:
#      x y z
#    x 1.930870 -0.003400 0.007060 
#    y -0.003400 1.937080 -0.002840 
#    z 0.007060 -0.002840 1.898960 
# 
# From -- ./inp_files/217018.got.cif
#   From: 2010.06.25/outbox.cif.g09.slc.cpg/sg2_109_cif.got.tgz:217018.got - 2010.06.27 13:26:56.
