data_PCOD8015138
_publ_section_title
;
Structure prediction by ZEFSAII (Michael W. Deem and Ramdas Pophale) SiO2 
 PCOD8015138
Probable space group: P -1
;
_chemical_formula_sum "Si O2"
_cell_formula_units_Z 14
_cell_length_a 16.062435
_cell_length_b 9.180708
_cell_length_c 6.064000
_cell_angle_alpha 52.405696
_cell_angle_beta 117.284371
_cell_angle_gamma 124.255065
_cell_volume 576.534326
_symmetry_space_group_name_H-M "P -1"
_symmetry_group_IT_number 2
_symmetry_cell_setting 'triclinic'
loop_
_space_group_symop_operation_xyz
x,y,z
-x,-y,-z
loop_
_atom_site_type_symbol
_atom_site_label
_atom_site_fract_x
_atom_site_fract_y
_atom_site_fract_z
Si Si1 0.909850 0.359585 0.684557
Si Si2 0.893853 0.093904 0.295073
Si Si3 0.267637 0.405684 0.975595
Si Si4 0.100794 0.258539 0.597043
Si Si5 0.420508 0.480153 0.734235
Si Si6 0.401958 0.218116 0.565160
Si Si7 0.743362 0.202910 0.276272
O O1 0.877587 0.511771 0.653774
O O2 0.809445 0.214289 0.564740
O O3 0.000000 0.500000 0.500000
O O4 0.945433 0.224015 0.016126
O O5 0.801539 0.155002 0.186692
O O6 0.976879 0.138135 0.551775
O O7 0.852419 0.855327 0.410815
O O8 0.149604 0.265260 0.895854
O O9 0.320813 0.487174 0.724183
O O10 0.273263 0.591939 0.963095
O O11 0.321377 0.281388 0.276493
O O12 0.393610 0.271567 0.761446
O O13 0.479100 0.668066 0.467925
O O14 0.500000 0.500000 0.000000
O O15 0.367953 0.982764 0.688494
#
# Coordination Sequence:
#
# PCOD8015138 Si02
#       7
#     2   2   2   2   2   2   2
#     4  11  23  42  60  87 128 166 208 258 303 353
#     4  11  23  40  59  88 126 169 210 256 302 363
#     4  10  22  40  61  94 123 161 207 255 304 366
#     4  10  22  40  60  89 123 166 208 252 308 355
#     4   9  20  42  67  89 124 157 200 256 313 370
#     4  10  21  42  66  90 123 163 198 255 315 368
#     4  11  24  38  61  94 123 163 211 248 305 365
#
# _framework density 24.283031000000001
#
# number of rings (size 3 to 8) (size 9 to 14) (size 15 to 20)
#    0.000    1.714    1.429    2.143    0.000    5.714 
#   10.286    6.429    0.000    0.000    0.000    0.000 
#    0.000    0.000    0.000    0.000    0.000    0.000 
#
# Total GULP energy -173446.579846 kJ/mol
# GULP energy per Si atom -12389.041418 kJ/mol
# Density = 2.422776 g / cm^3
# Si number density = 24.283031 Si / 1000 Ang^3
#
#
#
# Elastic Constant Matrix: (Units=GPa)
#
#
# Indices 1 2 3 4 5 6 
#
# 1 65.7729 13.4721 9.4170 -5.4826 -12.9508 -20.0311
# 2 13.4721 179.2611 18.9768 7.8028 -3.9620 -16.3431
# 3 9.4170 18.9768 54.4111 6.2622 3.5226 1.2148
# 4 -5.4826 7.8028 6.2622 27.1024 -0.1730 8.3227
# 5 -12.9508 -3.9620 3.5226 -0.1730 29.5131 1.7492
# 6 -20.0311 -16.3431 1.2148 8.3227 1.7492 39.2094
#
#
#
# Elastic Compliance Matrix: (Units=1/GPa)
#
#
# Indices 1 2 3 4 5 6 
#
# 1 0.020894 -0.000075 -0.004673 0.002352 0.009144 0.009880
# 2 -0.000075 0.006192 -0.002009 -0.002264 0.000844 0.003048
# 3 -0.004673 -0.002009 0.020752 -0.004351 -0.004661 -0.002736
# 4 0.002352 -0.002264 -0.004351 0.041666 0.001998 -0.008540
# 5 0.009144 0.000844 -0.004661 0.001998 0.038398 0.003031
# 6 0.009880 0.003048 -0.002736 -0.008540 0.003031 0.033584
#
#
# Mechanical properties :
#
#
# Convention : Reuss Voigt Hill
#
# Bulk Modulus (GPa) = 29.13460 42.57521 35.85491
# Shear Modulus (GPa) = 26.81824 36.33693 31.57758
#
# Velocity S-wave (km/s) = 3.32686 3.87252 3.61001
# Velocity P-wave (km/s) = 5.17507 6.12913 5.67219
#
# Compressibility (1/GPa) = 0.03432345
#
# Stress axis : x y z
#
# Youngs Moduli (GPa) = 47.86052 161.50404 48.18905
#
# Poissons Ratio (x) = 0.01212 0.22520
# Poissons Ratio (y) = 0.00359 0.09679
# Poissons Ratio (z) = 0.22367 0.32440
#
# Static dielectric constant tensor:
#      x y z
#    x 4.874330 -0.041730 -0.186540 
#    y -0.041730 4.762040 0.118740 
#    z -0.186540 0.118740 4.022250 
# 
# 
# High freq. dielectric constant tensor:
#      x y z
#    x 1.954340 -0.006070 0.009670 
#    y -0.006070 1.989180 0.020490 
#    z 0.009670 0.020490 1.926780 
# 
# From -- ./inp_files/46140.got.cif
#   From: 2010.06.25/outbox.cif.g09.slc.cpg/sg2_24_cif.got.tgz:46140.got - 2010.06.27 13:26:56.
