data_PCOD8015151
_publ_section_title
;
Structure prediction by ZEFSAII (Michael W. Deem and Ramdas Pophale) SiO2 
 PCOD8015151
Probable space group: P -1
;
_chemical_formula_sum "Si O2"
_cell_formula_units_Z 16
_cell_length_a 17.645219
_cell_length_b 6.671652
_cell_length_c 9.312957
_cell_angle_alpha 127.596915
_cell_angle_beta 65.592085
_cell_angle_gamma 124.104507
_cell_volume 715.023335
_symmetry_space_group_name_H-M "P -1"
_symmetry_group_IT_number 2
_symmetry_cell_setting 'triclinic'
loop_
_space_group_symop_operation_xyz
x,y,z
-x,-y,-z
loop_
_atom_site_type_symbol
_atom_site_label
_atom_site_fract_x
_atom_site_fract_y
_atom_site_fract_z
Si Si1 0.718025 0.795034 0.948497
Si Si2 0.380802 0.607592 0.901537
Si Si3 0.296172 0.377124 0.577327
Si Si4 0.412323 0.212080 0.193661
Si Si5 0.863699 0.108987 0.368061
Si Si6 0.831638 0.629239 0.569731
Si Si7 0.994338 0.875398 0.278968
Si Si8 0.892078 0.244166 0.099435
O O1 0.687382 0.655447 0.067398
O O2 0.792115 0.123252 0.046772
O O3 0.629034 0.767016 0.918817
O O4 0.771088 0.646186 0.756605
O O5 0.344629 0.601659 0.763668
O O6 0.479107 0.596035 0.812016
O O7 0.390511 0.888747 0.096863
O O8 0.371531 0.327112 0.403451
O O9 0.233348 0.473584 0.565806
O O10 0.235152 0.089004 0.578456
O O11 0.872201 0.421217 0.506409
O O12 0.875854 0.047984 0.165332
O O13 0.943400 0.070672 0.374030
O O14 0.918734 0.936582 0.604081
O O15 0.924386 0.571394 0.266085
O O16 0.029868 0.791364 0.069039
#
# Coordination Sequence:
#
# PCOD8015151 Si02
#       8
#     2   2   2   2   2   2   2   2
#     4  10  21  42  66  91 128 167 212 259 314 382
#     4  11  22  42  69  95 126 169 212 256 327 385
#     4  11  24  41  64  96 133 165 208 265 319 380
#     4  10  24  41  66  98 130 163 208 267 319 385
#     4  12  22  37  63  90 123 170 215 255 315 375
#     4  10  24  41  60  94 130 166 212 264 313 371
#     4  10  23  41  60  89 127 168 213 263 309 367
#     4  10  22  39  62  91 124 166 214 258 312 371
#
# _framework density 22.37689
#
# number of rings (size 3 to 8) (size 9 to 14) (size 15 to 20)
#    0.000    1.500    1.250    3.000    3.500    3.000 
#    0.000    0.000    0.000    8.250    0.000    0.000 
#    0.000    0.000    0.000    0.000    0.000    0.000 
#
# Total GULP energy -198362.259878 kJ/mol
# GULP energy per Si atom -12397.641242 kJ/mol
# Density = 2.232596 g / cm^3
# Si number density = 22.376890 Si / 1000 Ang^3
#
#
#
# Elastic Constant Matrix: (Units=GPa)
#
#
# Indices 1 2 3 4 5 6 
#
# 1 141.3480 46.6315 57.6094 -5.6013 -4.9209 4.9844
# 2 46.6315 106.3625 38.7442 -5.4522 -6.1352 6.3386
# 3 57.6094 38.7442 83.0780 4.3172 14.9772 0.6558
# 4 -5.6013 -5.4522 4.3172 31.9096 -5.0303 1.4489
# 5 -4.9209 -6.1352 14.9772 -5.0303 32.3179 1.0009
# 6 4.9844 6.3386 0.6558 1.4489 1.0009 35.4166
#
#
#
# Elastic Compliance Matrix: (Units=1/GPa)
#
#
# Indices 1 2 3 4 5 6 
#
# 1 0.011446 -0.001188 -0.008704 0.004037 0.006228 -0.001578
# 2 -0.001188 0.012974 -0.006490 0.003936 0.005976 -0.002365
# 3 -0.008704 -0.006490 0.024256 -0.008437 -0.015195 0.002712
# 4 0.004037 0.003936 -0.008437 0.035714 0.010920 -0.002886
# 5 0.006228 0.005976 -0.015195 0.010920 0.041869 -0.003295
# 6 -0.001578 -0.002365 0.002712 -0.002886 -0.003295 0.029042
#
#
# Mechanical properties :
#
#
# Convention : Reuss Voigt Hill
#
# Bulk Modulus (GPa) = 62.84178 68.52874 65.68526
# Shear Modulus (GPa) = 25.85745 32.44905 29.15325
#
# Velocity S-wave (km/s) = 3.40302 3.81217 3.61339
# Velocity P-wave (km/s) = 6.60189 7.07588 6.84299
#
# Compressibility (1/GPa) = 0.01591298
#
# Stress axis : x y z
#
# Youngs Moduli (GPa) = 87.36366 77.07742 41.22771
#
# Poissons Ratio (x) = 0.09154 0.35883
# Poissons Ratio (y) = 0.10375 0.26757
# Poissons Ratio (z) = 0.76039 0.50024
#
# Static dielectric constant tensor:
#      x y z
#    x 4.024590 0.194450 -0.019350 
#    y 0.194450 3.865470 -0.128520 
#    z -0.019350 -0.128520 4.230720 
# 
# 
# High freq. dielectric constant tensor:
#      x y z
#    x 1.885490 0.013380 -0.005940 
#    y 0.013380 1.872010 -0.013810 
#    z -0.005940 -0.013810 1.904490 
# 
# From -- ./inp_files/125043.got.cif
#   From: 2010.06.25/outbox.cif.g09.slc.cpg/sg2_63_cif.got.tgz:125043.got - 2010.06.27 13:26:56.
