data_PCOD8015535
_publ_section_title
;
Structure prediction by ZEFSAII (Michael W. Deem and Ramdas Pophale) SiO2 
 PCOD8015535
Probable space group: P -1
;
_chemical_formula_sum "Si O2"
_cell_formula_units_Z 14
_cell_length_a 5.085154
_cell_length_b 6.763207
_cell_length_c 24.790206
_cell_angle_alpha 124.672908
_cell_angle_beta 62.509301
_cell_angle_gamma 106.298279
_cell_volume 621.813048
_symmetry_space_group_name_H-M "P -1"
_symmetry_group_IT_number 2
_symmetry_cell_setting 'triclinic'
loop_
_space_group_symop_operation_xyz
x,y,z
-x,-y,-z
loop_
_atom_site_type_symbol
_atom_site_label
_atom_site_fract_x
_atom_site_fract_y
_atom_site_fract_z
Si Si1 0.183535 0.572829 0.252564
Si Si2 0.810367 0.301671 0.519120
Si Si3 0.178698 0.289009 0.794889
Si Si4 0.697720 0.966709 0.825566
Si Si5 0.268258 0.324866 0.907195
Si Si6 0.138464 0.245198 0.587262
Si Si7 0.652208 0.199174 0.979734
O O1 0.474797 0.746933 0.258512
O O2 0.010067 0.578074 0.213079
O O3 0.949629 0.631505 0.329742
O O4 0.331636 0.314169 0.206116
O O5 0.461131 0.351223 0.556030
O O6 0.000000 0.500000 0.500000
O O7 0.903526 0.311266 0.574156
O O8 0.865583 0.041379 0.447612
O O9 0.153617 0.432183 0.876806
O O10 0.022235 0.026537 0.779347
O O11 0.449963 0.091477 0.831333
O O12 0.602607 0.120440 0.911070
O O13 0.010065 0.230330 0.957778
O O14 0.465301 0.536640 0.950980
O O15 0.500000 0.000000 0.000000
#
# Coordination Sequence:
#
# PCOD8015535 Si02
#       7
#     2   2   2   2   2   2   2
#     4  12  26  42  69  96 137 174 213 265 334 376
#     4  10  21  42  70  95 135 171 214 262 316 359
#     4  11  25  44  64  93 132 175 214 271 323 394
#     4  11  25  42  66  94 132 168 220 272 328 405
#     4  10  22  44  62  93 128 161 226 273 321 396
#     4  10  23  41  64 103 130 168 222 261 301 395
#     4  10  22  39  65  92 120 170 215 275 336 382
#
# _framework density 22.514804999999999
#
# number of rings (size 3 to 8) (size 9 to 14) (size 15 to 20)
#    0.000    1.429    1.429    2.571    4.000    2.857 
#    0.000    0.000    0.000    0.000    0.000    0.000 
#    0.000    0.000    0.000    0.000    0.000    0.000 
#
# Total GULP energy -173435.467043 kJ/mol
# GULP energy per Si atom -12388.247646 kJ/mol
# Density = 2.246356 g / cm^3
# Si number density = 22.514805 Si / 1000 Ang^3
#
#
#
# Elastic Constant Matrix: (Units=GPa)
#
#
# Indices 1 2 3 4 5 6 
#
# 1 106.2854 37.2374 32.3706 -1.9066 -3.6604 3.7733
# 2 37.2374 122.0276 52.3075 -13.4110 -7.6494 15.9784
# 3 32.3706 52.3075 107.5835 -6.2428 2.1925 -9.0300
# 4 -1.9066 -13.4110 -6.2428 20.3183 4.7369 -7.1691
# 5 -3.6604 -7.6494 2.1925 4.7369 29.6827 -8.4761
# 6 3.7733 15.9784 -9.0300 -7.1691 -8.4761 37.5270
#
#
#
# Elastic Compliance Matrix: (Units=1/GPa)
#
#
# Indices 1 2 3 4 5 6 
#
# 1 0.010983 -0.002384 -0.002332 -0.001757 0.000974 -0.000766
# 2 -0.002384 0.012576 -0.005633 0.004167 0.001152 -0.005414
# 3 -0.002332 -0.005633 0.013427 0.002655 -0.001428 0.006049
# 4 -0.001757 0.004167 0.002655 0.057044 -0.005990 0.008586
# 5 0.000974 0.001152 -0.001428 -0.005990 0.036959 0.006271
# 6 -0.000766 -0.005414 0.006049 0.008586 0.006271 0.033542
#
#
# Mechanical properties :
#
#
# Convention : Reuss Voigt Hill
#
# Bulk Modulus (GPa) = 61.39489 64.41416 62.90452
# Shear Modulus (GPa) = 26.22484 31.77100 28.99792
#
# Velocity S-wave (km/s) = 3.41659 3.76056 3.59269
# Velocity P-wave (km/s) = 6.54920 6.89402 6.72382
#
# Compressibility (1/GPa) = 0.01628800
#
# Stress axis : x y z
#
# Youngs Moduli (GPa) = 91.04822 79.51484 74.47893
#
# Poissons Ratio (x) = 0.18954 0.17367
# Poissons Ratio (y) = 0.21703 0.41958
# Poissons Ratio (z) = 0.21231 0.44795
#
# Static dielectric constant tensor:
#      x y z
#    x 4.501710 0.021450 0.052940 
#    y 0.021450 4.026910 -0.170570 
#    z 0.052940 -0.170570 3.853830 
# 
# 
# High freq. dielectric constant tensor:
#      x y z
#    x 1.904250 0.007290 0.001550 
#    y 0.007290 1.885650 -0.019960 
#    z 0.001550 -0.019960 1.867110 
# 
# From -- ./inp_files/11713.got.cif
#   From: 2010.06.25/outbox.cif.g09.slc.cpg/sg2_6_cif.got.tgz:11713.got - 2010.06.27 13:26:56.
