data_PCOD8015424
_publ_section_title
;
Structure prediction by ZEFSAII (Michael W. Deem and Ramdas Pophale) SiO2 
 PCOD8015424
Probable space group: P -1
;
_chemical_formula_sum "Si O2"
_cell_formula_units_Z 12
_cell_length_a 15.268659
_cell_length_b 24.883307
_cell_length_c 8.947815
_cell_angle_alpha 32.590850
_cell_angle_beta 150.428101
_cell_angle_gamma 159.667380
_cell_volume 575.698273
_symmetry_space_group_name_H-M "P -1"
_symmetry_group_IT_number 2
_symmetry_cell_setting 'triclinic'
loop_
_space_group_symop_operation_xyz
x,y,z
-x,-y,-z
loop_
_atom_site_type_symbol
_atom_site_label
_atom_site_fract_x
_atom_site_fract_y
_atom_site_fract_z
Si Si1 0.117995 0.947168 0.848776
Si Si2 0.764164 0.562490 0.823569
Si Si3 0.213104 0.394413 0.900477
Si Si4 0.135653 0.595550 0.823627
Si Si5 0.638571 0.084021 0.165609
Si Si6 0.617957 0.951774 0.716002
O O1 0.000000 0.000000 0.500000
O O2 0.957257 0.782607 0.929227
O O3 0.441093 0.079601 0.964616
O O4 0.101962 0.944671 0.012979
O O5 0.500000 0.500000 0.500000
O O6 0.049206 0.742235 0.788733
O O7 0.723125 0.539908 0.992905
O O8 0.791994 0.463053 0.040226
O O9 0.055821 0.409535 0.536538
O O10 0.500000 0.500000 0.000000
O O11 0.424038 0.773119 0.874964
O O12 0.000000 0.500000 0.000000
O O13 0.663388 0.991568 0.514323
O O14 0.500000 0.000000 0.000000
O O15 0.500000 0.000000 0.500000
#
# Coordination Sequence:
#
# PCOD8015424 Si02
#       6
#     2   2   2   2   2   2
#     4  11  25  44  72 103 138 185 241 289 357 425
#     4  12  28  46  71 108 145 187 244 297 360 425
#     4  12  27  46  69 104 146 188 241 294 357 429
#     4  12  24  45  75 102 143 189 232 293 362 423
#     4  11  22  47  74  97 144 184 236 298 352 423
#     4  10  21  42  68  99 133 181 233 285 350 421
#
# _framework density 20.844252999999998
#
# number of rings (size 3 to 8) (size 9 to 14) (size 15 to 20)
#    0.000    0.667    5.000    3.500    9.333    0.000 
#    0.000    1.667    0.000    0.000    0.000    0.000 
#    0.000    0.000    0.000    0.000    0.000    0.000 
#
# Total GULP energy -148745.550033 kJ/mol
# GULP energy per Si atom -12395.462503 kJ/mol
# Density = 2.079681 g / cm^3
# Si number density = 20.844253 Si / 1000 Ang^3
#
#
#
# Elastic Constant Matrix: (Units=GPa)
#
#
# Indices 1 2 3 4 5 6 
#
# 1 140.8178 57.5953 68.4919 -4.8168 -13.4813 -14.7953
# 2 57.5953 132.7188 47.1698 -7.8057 7.9168 -8.8387
# 3 68.4919 47.1698 175.8265 3.5173 -5.0104 -16.8988
# 4 -4.8168 -7.8057 3.5173 42.8500 -2.7685 -0.4135
# 5 -13.4813 7.9168 -5.0104 -2.7685 43.1370 7.6149
# 6 -14.7953 -8.8387 -16.8988 -0.4135 7.6149 44.6467
#
#
#
# Elastic Compliance Matrix: (Units=1/GPa)
#
#
# Indices 1 2 3 4 5 6 
#
# 1 0.010471 -0.003576 -0.002938 0.001001 0.003463 0.001069
# 2 -0.003576 0.009864 -0.001289 0.001306 -0.003140 0.000827
# 3 -0.002938 -0.001289 0.007347 -0.001165 -0.000181 0.001572
# 4 0.001001 0.001306 -0.001165 0.023878 0.001449 0.000123
# 5 0.003463 -0.003140 -0.000181 0.001449 0.025600 -0.003895
# 6 0.001069 0.000827 0.001572 0.000123 -0.003895 0.024176
#
#
# Mechanical properties :
#
#
# Convention : Reuss Voigt Hill
#
# Bulk Modulus (GPa) = 82.81685 88.43080 85.62383
# Shear Modulus (GPa) = 41.33258 44.53381 42.93320
#
# Velocity S-wave (km/s) = 4.45784 4.62725 4.54333
# Velocity P-wave (km/s) = 8.14334 8.43002 8.28792
#
# Compressibility (1/GPa) = 0.01207484
#
# Stress axis : x y z
#
# Youngs Moduli (GPa) = 95.49886 101.37672 136.10861
#
# Poissons Ratio (x) = 0.36257 0.39991
# Poissons Ratio (y) = 0.34155 0.17547
# Poissons Ratio (z) = 0.28059 0.13070
#
# Static dielectric constant tensor:
#      x y z
#    x 3.958740 -0.204350 -0.278620 
#    y -0.204350 3.849180 0.037620 
#    z -0.278620 0.037620 4.246390 
# 
# 
# High freq. dielectric constant tensor:
#      x y z
#    x 1.822670 -0.013030 -0.018370 
#    y -0.013030 1.826880 0.004530 
#    z -0.018370 0.004530 1.829310 
# 
# From -- ./inp_files/146614.got.cif
#   From: 2010.06.25/outbox.cif.g09.slc.cpg/sg2_74_cif.got.tgz:146614.got - 2010.06.27 13:26:56.
