data_PCOD8015349
_publ_section_title
;
Structure prediction by ZEFSAII (Michael W. Deem and Ramdas Pophale) SiO2 
 PCOD8015349
Probable space group: P -1
;
_chemical_formula_sum "Si O2"
_cell_formula_units_Z 14
_cell_length_a 10.865850
_cell_length_b 5.139950
_cell_length_c 24.789346
_cell_angle_alpha 67.802240
_cell_angle_beta 33.032712
_cell_angle_gamma 83.886730
_cell_volume 635.260902
_symmetry_space_group_name_H-M "P -1"
_symmetry_group_IT_number 2
_symmetry_cell_setting 'triclinic'
loop_
_space_group_symop_operation_xyz
x,y,z
-x,-y,-z
loop_
_atom_site_type_symbol
_atom_site_label
_atom_site_fract_x
_atom_site_fract_y
_atom_site_fract_z
Si Si1 0.811081 0.365130 0.918773
Si Si2 0.741955 0.750539 0.241207
Si Si3 0.066582 0.283197 0.256800
Si Si4 0.732980 0.336297 0.638045
Si Si5 0.370336 0.353825 0.247419
Si Si6 0.217838 0.262342 0.003502
Si Si7 0.241860 0.342536 0.636269
O O1 0.323075 0.009442 0.002697
O O2 0.112681 0.470579 0.804397
O O3 0.757905 0.504082 0.872043
O O4 0.704647 0.477686 0.999565
O O5 0.469801 0.598086 0.327465
O O6 0.724294 0.798046 0.308036
O O7 0.916225 0.084674 0.123538
O O8 0.853354 0.391491 0.342071
O O9 0.231263 0.307301 0.245939
O O10 0.948285 0.929226 0.309285
O O11 0.742132 0.480979 0.682206
O O12 0.000000 0.500000 0.500000
O O13 0.653877 0.971573 0.695730
O O14 0.659799 0.578455 0.110772
O O15 0.500000 0.500000 0.500000
#
# Coordination Sequence:
#
# PCOD8015349 Si02
#       7
#     2   2   2   2   2   2   2
#     4   9  19  40  65 102 129 170 208 277 342 376
#     4   9  24  42  72  94 135 170 232 268 336 385
#     4  11  22  42  64 101 140 163 224 267 336 399
#     4  12  29  49  66  94 137 183 222 275 331 397
#     4  12  28  44  68 102 133 181 223 268 338 399
#     4  10  21  42  68 102 130 171 224 275 337 387
#     4  11  23  41  69 101 128 181 221 277 325 388
#
# _framework density 22.03819
#
# number of rings (size 3 to 8) (size 9 to 14) (size 15 to 20)
#    0.857    0.571    1.429    2.571    6.000    2.286 
#    0.000    0.000    0.000    0.000    0.000    0.000 
#    0.000    0.000    0.000    0.000    0.000    0.000 
#
# Total GULP energy -173545.486910 kJ/mol
# GULP energy per Si atom -12396.106208 kJ/mol
# Density = 2.198803 g / cm^3
# Si number density = 22.038190 Si / 1000 Ang^3
#
#
#
# Elastic Constant Matrix: (Units=GPa)
#
#
# Indices 1 2 3 4 5 6 
#
# 1 92.4702 9.3000 33.5496 1.5099 -6.3348 9.6722
# 2 9.3000 113.6179 31.6097 8.0532 15.0242 15.6730
# 3 33.5496 31.6097 155.9777 2.0614 17.8830 10.9286
# 4 1.5099 8.0532 2.0614 37.1963 5.1625 8.5293
# 5 -6.3348 15.0242 17.8830 5.1625 19.8917 0.3781
# 6 9.6722 15.6730 10.9286 8.5293 0.3781 30.3832
#
#
#
# Elastic Compliance Matrix: (Units=1/GPa)
#
#
# Indices 1 2 3 4 5 6 
#
# 1 0.012918 -0.000796 -0.003353 -0.000723 0.007963 -0.002392
# 2 -0.000796 0.010770 -0.000801 -0.000084 -0.007553 -0.004896
# 3 -0.003353 -0.000801 0.008356 0.001417 -0.008308 -0.001819
# 4 -0.000723 -0.000084 0.001417 0.030079 -0.009084 -0.008567
# 5 0.007963 -0.007553 -0.008308 -0.009084 0.068224 0.006051
# 6 -0.002392 -0.004896 -0.001819 -0.008567 0.006051 0.039184
#
#
# Mechanical properties :
#
#
# Convention : Reuss Voigt Hill
#
# Bulk Modulus (GPa) = 45.16132 56.77604 50.96868
# Shear Modulus (GPa) = 26.76472 36.66802 31.71637
#
# Velocity S-wave (km/s) = 3.48871 4.08344 3.79774
# Velocity P-wave (km/s) = 6.06340 6.93190 6.51215
#
# Compressibility (1/GPa) = 0.02214284
#
# Stress axis : x y z
#
# Youngs Moduli (GPa) = 77.40870 92.85397 119.67412
#
# Poissons Ratio (x) = 0.07395 0.40128
# Poissons Ratio (y) = 0.06165 0.09587
# Poissons Ratio (z) = 0.25956 0.07439
#
# Static dielectric constant tensor:
#      x y z
#    x 3.701880 0.034470 0.110060 
#    y 0.034470 4.131230 -0.051140 
#    z 0.110060 -0.051140 4.134070 
# 
# 
# High freq. dielectric constant tensor:
#      x y z
#    x 1.847160 0.002230 0.009220 
#    y 0.002230 1.875860 0.008150 
#    z 0.009220 0.008150 1.872980 
# 
# From -- ./inp_files/362749.got.cif
#   From: 2010.06.25/outbox.cif.g09.slc.cpg/sg2_182_cif.got.tgz:362749.got - 2010.06.27 13:26:56.
