data_PCOD8015039
_publ_section_title
;
Structure prediction by ZEFSAII (Michael W. Deem and Ramdas Pophale) SiO2 
 PCOD8015039
Probable space group: P -1
;
_chemical_formula_sum "Si O2"
_cell_formula_units_Z 14
_cell_length_a 19.401774
_cell_length_b 7.063749
_cell_length_c 8.930597
_cell_angle_alpha 131.563927
_cell_angle_beta 133.894521
_cell_angle_gamma 50.086634
_cell_volume 621.344819
_symmetry_space_group_name_H-M "P -1"
_symmetry_group_IT_number 2
_symmetry_cell_setting 'triclinic'
loop_
_space_group_symop_operation_xyz
x,y,z
-x,-y,-z
loop_
_atom_site_type_symbol
_atom_site_label
_atom_site_fract_x
_atom_site_fract_y
_atom_site_fract_z
Si Si1 0.369628 0.363975 0.765043
Si Si2 0.070450 0.649480 0.763836
Si Si3 0.389720 0.311107 0.332615
Si Si4 0.759604 0.290340 0.490266
Si Si5 0.972969 0.258144 0.906882
Si Si6 0.710338 0.770532 0.149534
Si Si7 0.556497 0.232455 0.755642
O O1 0.274786 0.500811 0.587561
O O2 0.340389 0.159228 0.724161
O O3 0.473516 0.243807 0.767799
O O4 0.379500 0.579414 0.015107
O O5 0.188737 0.490155 0.829150
O O6 0.000000 0.500000 0.500000
O O7 0.044836 0.661206 0.905766
O O8 0.053207 0.956717 0.845142
O O9 0.305329 0.590987 0.396868
O O10 0.502582 0.311323 0.552079
O O11 0.371304 0.077859 0.289142
O O12 0.375038 0.262293 0.110462
O O13 0.875577 0.232942 0.665592
O O14 0.740749 0.020107 0.270409
O O15 0.000000 0.500000 0.000000
#
# Coordination Sequence:
#
# PCOD8015039 Si02
#       7
#     2   2   2   2   2   2   2
#     4  10  23  40  67  93 129 171 218 267 325 389
#     4  11  25  45  66  99 138 164 222 277 323 401
#     4  10  21  42  65  88 133 171 206 274 323 371
#     4  11  23  44  62  95 133 164 221 270 319 396
#     4  11  26  44  70  98 132 177 216 271 335 394
#     4  12  24  42  67  96 128 176 214 271 331 381
#     4   9  20  44  62  94 133 169 217 271 320 390
#
# _framework density 22.531773000000001
#
# number of rings (size 3 to 8) (size 9 to 14) (size 15 to 20)
#    0.000    1.429    4.286    0.000    2.000    4.000 
#    7.714    0.000    0.000    0.000    0.000    0.000 
#    0.000    0.000    0.000    0.000    0.000    0.000 
#
# Total GULP energy -173493.586042 kJ/mol
# GULP energy per Si atom -12392.399003 kJ/mol
# Density = 2.248049 g / cm^3
# Si number density = 22.531773 Si / 1000 Ang^3
#
#
#
# Elastic Constant Matrix: (Units=GPa)
#
#
# Indices 1 2 3 4 5 6 
#
# 1 58.4826 31.3518 19.3140 -9.1123 -10.9795 4.4880
# 2 31.3518 103.7880 19.3065 -2.8494 -6.0111 -0.7125
# 3 19.3140 19.3065 132.0197 -12.6253 -13.4037 7.0408
# 4 -9.1123 -2.8494 -12.6253 43.2750 1.8699 -1.4763
# 5 -10.9795 -6.0111 -13.4037 1.8699 21.8036 -4.8724
# 6 4.4880 -0.7125 7.0408 -1.4763 -4.8724 32.3582
#
#
#
# Elastic Compliance Matrix: (Units=1/GPa)
#
#
# Indices 1 2 3 4 5 6 
#
# 1 0.023098 -0.006175 -0.001170 0.003691 0.008528 -0.001632
# 2 -0.006175 0.011658 -0.000956 -0.000762 -0.000135 0.001266
# 3 -0.001170 -0.000956 0.008535 0.001973 0.003996 -0.001024
# 4 0.003691 -0.000762 0.001973 0.024384 0.000833 0.000280
# 5 0.008528 -0.000135 0.003996 0.000833 0.053868 0.006094
# 6 -0.001632 0.001266 -0.001024 0.000280 0.006094 0.032312
#
#
# Mechanical properties :
#
#
# Convention : Reuss Voigt Hill
#
# Bulk Modulus (GPa) = 37.47004 48.24833 42.85919
# Shear Modulus (GPa) = 27.87808 34.44190 31.15999
#
# Velocity S-wave (km/s) = 3.52131 3.91396 3.72282
# Velocity P-wave (km/s) = 5.76184 6.47190 6.12716
#
# Compressibility (1/GPa) = 0.02668799
#
# Stress axis : x y z
#
# Youngs Moduli (GPa) = 43.29456 85.77660 117.17091
#
# Poissons Ratio (x) = 0.52971 0.13710
# Poissons Ratio (y) = 0.26737 0.11196
# Poissons Ratio (z) = 0.05066 0.08197
#
# Static dielectric constant tensor:
#      x y z
#    x 3.690370 -0.026100 -0.046620 
#    y -0.026100 4.481700 0.204000 
#    z -0.046620 0.204000 4.537440 
# 
# 
# High freq. dielectric constant tensor:
#      x y z
#    x 1.851350 -0.006300 -0.013730 
#    y -0.006300 1.901630 -0.002050 
#    z -0.013730 -0.002050 1.911620 
# 
# From -- ./inp_files/324181.got.cif
#   From: 2010.06.25/outbox.cif.g09.slc.cpg/sg2_163_cif.got.tgz:324181.got - 2010.06.27 13:26:56.
