data_PCOD8015263
_publ_section_title
;
Structure prediction by ZEFSAII (Michael W. Deem and Ramdas Pophale) SiO2 
 PCOD8015263
Probable space group: P -1
;
_chemical_formula_sum "Si O2"
_cell_formula_units_Z 16
_cell_length_a 5.819662
_cell_length_b 5.140381
_cell_length_c 33.763678
_cell_angle_alpha 74.192183
_cell_angle_beta 47.803410
_cell_angle_gamma 94.247876
_cell_volume 671.550228
_symmetry_space_group_name_H-M "P -1"
_symmetry_group_IT_number 2
_symmetry_cell_setting 'triclinic'
loop_
_space_group_symop_operation_xyz
x,y,z
-x,-y,-z
loop_
_atom_site_type_symbol
_atom_site_label
_atom_site_fract_x
_atom_site_fract_y
_atom_site_fract_z
Si Si1 0.539781 0.930445 0.260752
Si Si2 0.043366 0.353318 0.236437
Si Si3 0.758522 0.324762 0.150203
Si Si4 0.728959 0.256195 0.875848
Si Si5 0.109333 0.420591 0.533778
Si Si6 0.859324 0.136355 0.432869
Si Si7 0.699974 0.368163 0.069841
Si Si8 0.888975 0.695208 0.684872
O O1 0.405355 0.582567 0.287957
O O2 0.754867 0.061200 0.190363
O O3 0.242272 0.052284 0.297090
O O4 0.788447 0.043220 0.264153
O O5 0.404901 0.346077 0.194725
O O6 0.056963 0.618408 0.194588
O O7 0.953942 0.402690 0.290444
O O8 0.829223 0.259033 0.099395
O O9 0.027491 0.633461 0.119609
O O10 0.436674 0.383963 0.911093
O O11 0.581912 0.907364 0.906471
O O12 0.500000 0.500000 0.500000
O O13 0.943399 0.565150 0.579476
O O14 0.000000 0.500000 0.500000
O O15 0.937945 0.075189 0.572784
O O16 0.835138 0.182842 0.386617
O O17 0.500000 0.000000 0.500000
O O18 0.000000 0.500000 0.000000
#
# Coordination Sequence:
#
# PCOD8015263 Si02
#       8
#     2   2   2   2   2   2   2   2
#     4  10  22  39  62  93 119 161 206 257 321 380
#     4   9  21  40  64  89 121 159 206 259 316 374
#     4   9  21  39  63  85 123 161 204 261 307 375
#     4  10  22  39  61  89 116 164 210 247 315 368
#     4  10  21  42  67  91 125 169 219 262 315 391
#     4  10  22  42  64  95 126 169 212 263 327 395
#     4  11  23  38  58  89 125 162 207 255 306 366
#     4  11  22  41  62  90 129 155 207 259 319 379
#
# _framework density 23.825472999999999
#
# number of rings (size 3 to 8) (size 9 to 14) (size 15 to 20)
#    0.000    2.000    0.000    2.250    0.000   14.000 
#   13.500    0.000    0.000    0.000    0.000    0.000 
#    0.000    0.000    0.000    0.000    0.000    0.000 
#
# Total GULP energy -198222.488458 kJ/mol
# GULP energy per Si atom -12388.905529 kJ/mol
# Density = 2.377124 g / cm^3
# Si number density = 23.825473 Si / 1000 Ang^3
#
#
#
# Elastic Constant Matrix: (Units=GPa)
#
#
# Indices 1 2 3 4 5 6 
#
# 1 95.1171 5.7533 30.4873 1.5683 17.7457 24.2826
# 2 5.7533 113.9806 23.8764 0.4636 12.9346 1.8631
# 3 30.4873 23.8764 153.9316 11.1864 30.0733 14.8263
# 4 1.5683 0.4636 11.1864 30.6830 9.3864 2.6369
# 5 17.7457 12.9346 30.0733 9.3864 28.6786 1.4984
# 6 24.2826 1.8631 14.8263 2.6369 1.4984 31.7739
#
#
#
# Elastic Compliance Matrix: (Units=1/GPa)
#
#
# Indices 1 2 3 4 5 6 
#
# 1 0.015269 0.000591 -0.000338 0.003325 -0.009855 -0.011357
# 2 0.000591 0.009393 -0.000805 0.001455 -0.004205 -0.000549
# 3 -0.000338 -0.000805 0.008633 -0.000325 -0.008201 -0.003309
# 4 0.003325 0.001455 -0.000325 0.037323 -0.014333 -0.004896
# 5 -0.009855 -0.004205 -0.008201 -0.014333 0.055623 0.010171
# 6 -0.011357 -0.000549 -0.003309 -0.004896 0.010171 0.041655
#
#
# Mechanical properties :
#
#
# Convention : Reuss Voigt Hill
#
# Bulk Modulus (GPa) = 31.06681 53.69592 42.38137
# Shear Modulus (GPa) = 27.81940 38.42125 33.12033
#
# Velocity S-wave (km/s) = 3.42077 4.02009 3.73248
# Velocity P-wave (km/s) = 5.35442 6.64336 6.03341
#
# Compressibility (1/GPa) = 0.03218869
#
# Stress axis : x y z
#
# Youngs Moduli (GPa) = 65.49135 106.46790 115.83741
#
# Poissons Ratio (x) = -0.06288 0.03918
# Poissons Ratio (y) = -0.03868 0.09328
# Poissons Ratio (z) = 0.02215 0.08573
#
# Static dielectric constant tensor:
#      x y z
#    x 4.792230 -0.197430 0.645770 
#    y -0.197430 4.715160 0.027330 
#    z 0.645770 0.027330 4.534370 
# 
# 
# High freq. dielectric constant tensor:
#      x y z
#    x 1.935750 0.008640 0.016020 
#    y 0.008640 1.953040 0.008390 
#    z 0.016020 0.008390 1.930530 
# 
# From -- ./inp_files/12826.got.cif
#   From: 2010.06.25/outbox.cif.g09.slc.cpg/sg2_7_cif.got.tgz:12826.got - 2010.06.27 13:26:56.
