data_PCOD8015875
_publ_section_title
;
Structure prediction by ZEFSAII (Michael W. Deem and Ramdas Pophale) SiO2 
 PCOD8015875
Probable space group: P -1
;
_chemical_formula_sum "Si O2"
_cell_formula_units_Z 16
_cell_length_a 8.690211
_cell_length_b 18.191310
_cell_length_c 6.066317
_cell_angle_alpha 124.151514
_cell_angle_beta 70.985611
_cell_angle_gamma 119.029919
_cell_volume 692.030136
_symmetry_space_group_name_H-M "P -1"
_symmetry_group_IT_number 2
_symmetry_cell_setting 'triclinic'
loop_
_space_group_symop_operation_xyz
x,y,z
-x,-y,-z
loop_
_atom_site_type_symbol
_atom_site_label
_atom_site_fract_x
_atom_site_fract_y
_atom_site_fract_z
Si Si1 0.302553 0.704292 0.182087
Si Si2 0.148895 0.963653 0.807323
Si Si3 0.269497 0.836027 0.807950
Si Si4 0.423344 0.155519 0.039440
Si Si5 0.769240 0.610428 0.587505
Si Si6 0.573100 0.456176 0.092428
Si Si7 0.997559 0.318238 0.028471
Si Si8 0.138954 0.221268 0.476606
O O1 0.266067 0.773438 0.488310
O O2 0.465158 0.762826 0.044883
O O3 0.352561 0.624111 0.154171
O O4 0.121298 0.650511 0.035532
O O5 0.227598 0.928665 0.921907
O O6 0.048757 0.869150 0.545509
O O7 0.306187 0.057962 0.791642
O O8 0.000000 0.000000 0.000000
O O9 0.459474 0.874976 0.897249
O O10 0.131119 0.776152 0.950893
O O11 0.304721 0.191274 0.319432
O O12 0.740074 0.538375 0.273762
O O13 0.577280 0.593263 0.741529
O O14 0.896491 0.597830 0.701755
O O15 0.866873 0.720939 0.647079
O O16 0.500000 0.500000 0.000000
O O17 0.152890 0.291842 0.794675
#
# Coordination Sequence:
#
# PCOD8015875 Si02
#       8
#     2   2   2   2   2   2   2   2
#     4  11  24  45  68 101 139 180 221 286 341 396
#     4  10  21  43  66  99 138 177 233 274 327 404
#     4  11  23  42  66 101 140 182 221 278 338 396
#     4  10  24  40  70  98 138 178 231 278 334 396
#     4  11  23  43  69  99 134 175 226 280 333 409
#     4  11  26  43  71 104 133 173 230 280 342 408
#     4  11  23  42  71  96 140 181 222 273 342 401
#     4  11  21  44  67 100 134 181 220 279 337 400
#
# _framework density 23.120379
#
# number of rings (size 3 to 8) (size 9 to 14) (size 15 to 20)
#    0.000    1.250    3.750    1.125    3.500    2.000 
#    2.250    5.625    0.000    0.000    0.000    0.000 
#    0.000    0.000    0.000    0.000    0.000    0.000 
#
# Total GULP energy -198224.429287 kJ/mol
# GULP energy per Si atom -12389.026830 kJ/mol
# Density = 2.306776 g / cm^3
# Si number density = 23.120379 Si / 1000 Ang^3
#
#
#
# Elastic Constant Matrix: (Units=GPa)
#
#
# Indices 1 2 3 4 5 6 
#
# 1 130.8781 58.6590 47.2283 7.3549 1.7989 -14.6393
# 2 58.6590 78.0610 35.9671 14.9506 -1.8557 -7.1874
# 3 47.2283 35.9671 89.1968 -0.5688 6.0821 -3.4084
# 4 7.3549 14.9506 -0.5688 25.9483 7.1222 -1.1889
# 5 1.7989 -1.8557 6.0821 7.1222 42.3749 6.9504
# 6 -14.6393 -7.1874 -3.4084 -1.1889 6.9504 42.2191
#
#
#
# Elastic Compliance Matrix: (Units=1/GPa)
#
#
# Indices 1 2 3 4 5 6 
#
# 1 0.012708 -0.008066 -0.003274 0.001428 -0.001155 0.002999
# 2 -0.008066 0.024143 -0.005862 -0.012991 0.004467 -0.000261
# 3 -0.003274 -0.005862 0.015558 0.005530 -0.003250 -0.000186
# 4 0.001428 -0.012991 0.005530 0.048525 -0.009861 0.001720
# 5 -0.001155 0.004467 -0.003250 -0.009861 0.026718 -0.004578
# 6 0.002999 -0.000261 -0.000186 0.001720 -0.004578 0.025469
#
#
# Mechanical properties :
#
#
# Convention : Reuss Voigt Hill
#
# Bulk Modulus (GPa) = 55.53787 64.64941 60.09364
# Shear Modulus (GPa) = 25.83624 32.52722 29.18173
#
# Velocity S-wave (km/s) = 3.34648 3.75489 3.55655
# Velocity P-wave (km/s) = 6.24542 6.84264 6.55084
#
# Compressibility (1/GPa) = 0.01800573
#
# Stress axis : x y z
#
# Youngs Moduli (GPa) = 78.68809 41.42034 64.27531
#
# Poissons Ratio (x) = 0.33410 0.21044
# Poissons Ratio (y) = 0.63470 0.37677
# Poissons Ratio (z) = 0.25762 0.24280
#
# Static dielectric constant tensor:
#      x y z
#    x 4.520950 0.267950 0.134550 
#    y 0.267950 4.545650 0.208970 
#    z 0.134550 0.208970 4.058710 
# 
# 
# High freq. dielectric constant tensor:
#      x y z
#    x 1.930540 0.013330 0.000860 
#    y 0.013330 1.914100 0.003710 
#    z 0.000860 0.003710 1.890720 
# 
# From -- ./inp_files/46596.got.cif
#   From: 2010.06.25/outbox.cif.g09.slc.cpg/sg2_24_cif.got.tgz:46596.got - 2010.06.27 13:26:56.
