data_PCOD8015067
_publ_section_title
;
Structure prediction by ZEFSAII (Michael W. Deem and Ramdas Pophale) SiO2 
 PCOD8015067
Probable space group: P -1
;
_chemical_formula_sum "Si O2"
_cell_formula_units_Z 16
_cell_length_a 13.282145
_cell_length_b 9.894961
_cell_length_c 13.746113
_cell_angle_alpha 120.316415
_cell_angle_beta 132.823940
_cell_angle_gamma 96.625177
_cell_volume 788.845849
_symmetry_space_group_name_H-M "P -1"
_symmetry_group_IT_number 2
_symmetry_cell_setting 'triclinic'
loop_
_space_group_symop_operation_xyz
x,y,z
-x,-y,-z
loop_
_atom_site_type_symbol
_atom_site_label
_atom_site_fract_x
_atom_site_fract_y
_atom_site_fract_z
Si Si1 0.969220 0.833775 0.746141
Si Si2 0.314225 0.999733 0.157724
Si Si3 0.264057 0.106011 0.666462
Si Si4 0.042206 0.682949 0.243880
Si Si5 0.039801 0.820488 0.090047
Si Si6 0.052706 0.241673 0.519401
Si Si7 0.702491 0.364376 0.044766
Si Si8 0.753311 0.473399 0.631353
O O1 0.978241 0.778897 0.622946
O O2 0.804765 0.593567 0.605423
O O3 0.908875 0.965834 0.757819
O O4 0.183235 0.993678 0.995747
O O5 0.209493 0.898447 0.156716
O O6 0.519741 0.257442 0.405040
O O7 0.350389 0.861416 0.082520
O O8 0.203895 0.233216 0.651289
O O9 0.193645 0.941537 0.470996
O O10 0.500910 0.295199 0.899494
O O11 0.163564 0.962194 0.648182
O O12 0.027200 0.683609 0.118180
O O13 0.123199 0.583860 0.296550
O O14 0.822655 0.527450 0.088663
O O15 0.828488 0.649866 0.831568
O O16 0.154824 0.487524 0.713654
#
# Coordination Sequence:
#
# PCOD8015067 Si02
#       8
#     2   2   2   2   2   2   2   2
#     4  11  24  45  63  91 131 168 207 258 314 375
#     4  11  24  41  64  94 128 168 211 255 310 378
#     4  10  21  42  65  94 125 164 209 263 310 369
#     4  11  21  41  66  93 126 163 207 263 313 363
#     4  11  24  42  67  92 127 166 211 263 311 368
#     4  10  23  42  66  91 128 166 207 259 316 367
#     4  11  22  40  67  94 128 161 209 261 314 369
#     4  11  23  41  64  92 129 165 207 257 316 369
#
# _framework density 20.282798
#
# number of rings (size 3 to 8) (size 9 to 14) (size 15 to 20)
#    0.000    1.250    5.000    2.250    0.000    5.000 
#    2.250    1.250    0.000    0.000    0.000    0.000 
#    0.000    0.000    0.000    0.000    0.000    0.000 
#
# Total GULP energy -198425.733242 kJ/mol
# GULP energy per Si atom -12401.608328 kJ/mol
# Density = 2.023663 g / cm^3
# Si number density = 20.282798 Si / 1000 Ang^3
#
#
#
# Elastic Constant Matrix: (Units=GPa)
#
#
# Indices 1 2 3 4 5 6 
#
# 1 107.5327 36.2181 54.5056 -2.9281 -6.1580 12.2822
# 2 36.2181 71.1616 28.7315 10.3059 -11.6177 3.9941
# 3 54.5056 28.7315 117.6822 16.3460 10.9940 20.8391
# 4 -2.9281 10.3059 16.3460 21.5898 3.9578 -0.0791
# 5 -6.1580 -11.6177 10.9940 3.9578 37.5174 -11.7838
# 6 12.2822 3.9941 20.8391 -0.0791 -11.7838 26.1431
#
#
#
# Elastic Compliance Matrix: (Units=1/GPa)
#
#
# Indices 1 2 3 4 5 6 
#
# 1 0.015381 -0.006085 -0.007285 0.010175 0.001815 0.000359
# 2 -0.006085 0.020965 -0.002797 -0.010400 0.009310 0.006050
# 3 -0.007285 -0.002797 0.017849 -0.011220 -0.010926 -0.015337
# 4 0.010175 -0.010400 -0.011220 0.061796 -0.003397 0.004408
# 5 0.001815 0.009310 -0.010926 -0.003397 0.041253 0.025018
# 6 0.000359 0.006050 -0.015337 0.004408 0.025018 0.060673
#
#
# Mechanical properties :
#
#
# Convention : Reuss Voigt Hill
#
# Bulk Modulus (GPa) = 45.73930 59.47633 52.60782
# Shear Modulus (GPa) = 19.41452 28.84483 24.12968
#
# Velocity S-wave (km/s) = 3.09721 3.77521 3.45289
# Velocity P-wave (km/s) = 5.94895 6.95630 6.47225
#
# Compressibility (1/GPa) = 0.02186304
#
# Stress axis : x y z
#
# Youngs Moduli (GPa) = 65.01404 47.69814 56.02442
#
# Poissons Ratio (x) = 0.29022 0.40813
# Poissons Ratio (y) = 0.39558 0.15670
# Poissons Ratio (z) = 0.47361 0.13341
#
# Static dielectric constant tensor:
#      x y z
#    x 3.788580 -0.062030 -0.168910 
#    y -0.062030 3.571730 0.216320 
#    z -0.168910 0.216320 3.777310 
# 
# 
# High freq. dielectric constant tensor:
#      x y z
#    x 1.798490 -0.004850 -0.010100 
#    y -0.004850 1.786200 0.015270 
#    z -0.010100 0.015270 1.795260 
# 
# From -- ./inp_files/447898.got.cif
#   From: 2010.06.25/outbox.cif.g09.slc.cpg/sg2_224_cif.got.tgz:447898.got - 2010.06.27 13:26:56.
