data_PCOD8015139
_publ_section_title
;
Structure prediction by ZEFSAII (Michael W. Deem and Ramdas Pophale) SiO2 
 PCOD8015139
Probable space group: P -1
;
_chemical_formula_sum "Si O2"
_cell_formula_units_Z 16
_cell_length_a 8.958193
_cell_length_b 21.465615
_cell_length_c 11.648272
_cell_angle_alpha 37.448309
_cell_angle_beta 113.959734
_cell_angle_gamma 139.848016
_cell_volume 754.409033
_symmetry_space_group_name_H-M "P -1"
_symmetry_group_IT_number 2
_symmetry_cell_setting 'triclinic'
loop_
_space_group_symop_operation_xyz
x,y,z
-x,-y,-z
loop_
_atom_site_type_symbol
_atom_site_label
_atom_site_fract_x
_atom_site_fract_y
_atom_site_fract_z
Si Si1 0.487654 0.188485 0.641327
Si Si2 0.059719 0.288538 0.179598
Si Si3 0.785944 0.303652 0.224659
Si Si4 0.944122 0.298960 0.515836
Si Si5 0.496560 0.569692 0.726901
Si Si6 0.759786 0.955957 0.472580
Si Si7 0.028111 0.910084 0.068730
Si Si8 0.528309 0.583769 0.275654
O O1 0.776109 0.273581 0.600484
O O2 0.518626 0.323521 0.484234
O O3 0.336742 0.101619 0.602144
O O4 0.313695 0.049659 0.889667
O O5 0.209797 0.307858 0.305450
O O6 0.842893 0.262237 0.194031
O O7 0.278716 0.454762 0.927651
O O8 0.876703 0.125775 0.282888
O O9 0.797636 0.240229 0.435353
O O10 0.478705 0.192625 0.293461
O O11 0.000000 0.500000 0.000000
O O12 0.977031 0.193492 0.701532
O O13 0.241174 0.499725 0.302601
O O14 0.426371 0.457272 0.766941
O O15 0.000000 0.000000 0.500000
O O16 0.783078 0.785457 0.081289
O O17 0.000000 0.000000 0.000000
O O18 0.500000 0.500000 0.500000
#
# Coordination Sequence:
#
# PCOD8015139 Si02
#       8
#     2   2   2   2   2   2   2   2
#     4  11  22  41  64  93 130 166 215 265 325 378
#     4  11  22  39  63  92 135 168 215 263 322 379
#     4  11  24  41  65  94 134 172 214 266 322 384
#     4  10  22  42  63  92 130 167 213 266 318 386
#     4  11  22  39  66  94 126 174 212 265 321 384
#     4  11  23  39  62  99 131 171 216 264 323 387
#     4  11  24  42  67  94 124 166 217 271 325 381
#     4  10  21  42  66  90 123 169 219 262 318 384
#
# _framework density 21.208653999999999
#
# number of rings (size 3 to 8) (size 9 to 14) (size 15 to 20)
#    0.000    1.250    2.500    4.500    1.750    1.000 
#    0.000   11.875    0.000    0.000    0.000    0.000 
#    0.000    0.000    0.000    0.000    0.000    0.000 
#
# Total GULP energy -198365.837645 kJ/mol
# GULP energy per Si atom -12397.864853 kJ/mol
# Density = 2.116038 g / cm^3
# Si number density = 21.208654 Si / 1000 Ang^3
#
#
#
# Elastic Constant Matrix: (Units=GPa)
#
#
# Indices 1 2 3 4 5 6 
#
# 1 158.4182 44.7693 45.3836 -16.8943 -17.7299 1.9087
# 2 44.7693 77.0125 14.8833 -16.4331 -0.2211 -9.6784
# 3 45.3836 14.8833 90.0682 -15.2111 -7.2393 4.6203
# 4 -16.8943 -16.4331 -15.2111 35.7170 -3.2390 -0.5298
# 5 -17.7299 -0.2211 -7.2393 -3.2390 43.3117 -4.7763
# 6 1.9087 -9.6784 4.6203 -0.5298 -4.7763 35.5055
#
#
#
# Elastic Compliance Matrix: (Units=1/GPa)
#
#
# Indices 1 2 3 4 5 6 
#
# 1 0.008993 -0.004456 -0.003326 0.001055 0.003090 -0.000834
# 2 -0.004456 0.017460 0.000051 0.005955 -0.000731 0.004983
# 3 -0.003326 0.000051 0.013663 0.004348 0.001096 -0.001373
# 4 0.001055 0.005955 0.004348 0.033474 0.003916 0.002027
# 5 0.003090 -0.000731 0.001096 0.003916 0.025149 0.002933
# 6 -0.000834 0.004983 -0.001373 0.002027 0.002933 0.030171
#
#
# Mechanical properties :
#
#
# Convention : Reuss Voigt Hill
#
# Bulk Modulus (GPa) = 40.55911 59.50791 50.03351
# Shear Modulus (GPa) = 32.76789 37.60435 35.18612
#
# Velocity S-wave (km/s) = 3.93494 4.21535 4.07756
# Velocity P-wave (km/s) = 6.30955 7.19802 6.76838
#
# Compressibility (1/GPa) = 0.02465537
#
# Stress axis : x y z
#
# Youngs Moduli (GPa) = 111.20153 57.27360 73.19102
#
# Poissons Ratio (x) = 0.25520 0.24341
# Poissons Ratio (y) = 0.49549 -0.00376
# Poissons Ratio (z) = 0.36982 -0.00294
#
# Static dielectric constant tensor:
#      x y z
#    x 5.251270 0.530710 -0.046030 
#    y 0.530710 4.077210 -0.178010 
#    z -0.046030 -0.178010 4.142430 
# 
# 
# High freq. dielectric constant tensor:
#      x y z
#    x 1.846510 -0.001500 -0.018900 
#    y -0.001500 1.820700 -0.008690 
#    z -0.018900 -0.008690 1.834640 
# 
# From -- ./inp_files/187423.got.cif
#   From: 2010.06.25/outbox.cif.g09.slc.cpg/sg2_94_cif.got.tgz:187423.got - 2010.06.27 13:26:56.
