data_PCOD8015982
_publ_section_title
;
Structure prediction by ZEFSAII (Michael W. Deem and Ramdas Pophale) SiO2 
 PCOD8015982
Probable space group: P -1
;
_chemical_formula_sum "Si O2"
_cell_formula_units_Z 16
_cell_length_a 7.590347
_cell_length_b 16.993439
_cell_length_c 8.407656
_cell_angle_alpha 93.146430
_cell_angle_beta 126.619228
_cell_angle_gamma 116.743652
_cell_volume 693.735919
_symmetry_space_group_name_H-M "P -1"
_symmetry_group_IT_number 2
_symmetry_cell_setting 'triclinic'
loop_
_space_group_symop_operation_xyz
x,y,z
-x,-y,-z
loop_
_atom_site_type_symbol
_atom_site_label
_atom_site_fract_x
_atom_site_fract_y
_atom_site_fract_z
Si Si1 0.725999 0.301410 0.131329
Si Si2 0.937122 0.108261 0.190813
Si Si3 0.988094 0.258198 0.011824
Si Si4 0.461885 0.797144 0.495894
Si Si5 0.245617 0.537664 0.008008
Si Si6 0.138958 0.599690 0.466566
Si Si7 0.490179 0.532827 0.673169
Si Si8 0.505211 0.113242 0.147853
O O1 0.619536 0.353135 0.977393
O O2 0.898975 0.359017 0.388976
O O3 0.480657 0.188569 0.037545
O O4 0.945650 0.304838 0.144419
O O5 0.775854 0.122576 0.240414
O O6 0.238328 0.146653 0.419036
O O7 0.982602 0.166769 0.057670
O O8 0.770691 0.994186 0.043909
O O9 0.754643 0.217588 0.749634
O O10 0.286179 0.353953 0.130205
O O11 0.377430 0.691771 0.498725
O O12 0.468227 0.861722 0.649216
O O13 0.135055 0.461695 0.793104
O O14 0.492935 0.540739 0.215509
O O15 0.000000 0.500000 0.000000
O O16 0.210934 0.523369 0.538054
O O17 0.500000 0.500000 0.500000
#
# Coordination Sequence:
#
# PCOD8015982 Si02
#       8
#     2   2   2   2   2   2   2   2
#     4  10  22  40  60  88 128 164 206 267 317 375
#     4  10  21  43  68  91 134 171 210 267 332 371
#     4  11  22  40  63  94 123 165 220 259 314 393
#     4  11  21  40  68  94 130 171 215 265 324 381
#     4  12  21  38  64  86 122 165 211 261 316 384
#     4  11  22  39  59  91 126 165 210 263 323 380
#     4  12  23  37  63  91 121 164 210 258 317 380
#     4   9  22  42  65  98 129 170 216 267 320 390
#
# _framework density 23.063534000000001
#
# number of rings (size 3 to 8) (size 9 to 14) (size 15 to 20)
#    0.000    1.250    5.000    0.750    0.000    1.000 
#    2.250    5.625    0.000    0.000    0.000    0.000 
#    0.000    0.000    0.000    0.000    0.000    0.000 
#
# Total GULP energy -198319.356390 kJ/mol
# GULP energy per Si atom -12394.959774 kJ/mol
# Density = 2.301104 g / cm^3
# Si number density = 23.063534 Si / 1000 Ang^3
#
#
#
# Elastic Constant Matrix: (Units=GPa)
#
#
# Indices 1 2 3 4 5 6 
#
# 1 78.0038 17.5408 36.5217 0.4440 -4.4390 -2.9956
# 2 17.5408 152.7228 54.0448 11.4091 -0.0918 -6.0571
# 3 36.5217 54.0448 125.2768 -7.5118 4.3810 -7.0419
# 4 0.4440 11.4091 -7.5118 38.8652 3.1613 2.9651
# 5 -4.4390 -0.0918 4.3810 3.1613 35.7286 5.0847
# 6 -2.9956 -6.0571 -7.0419 2.9651 5.0847 28.2995
#
#
#
# Elastic Compliance Matrix: (Units=1/GPa)
#
#
# Indices 1 2 3 4 5 6 
#
# 1 0.015113 -0.000024 -0.004552 -0.001262 0.002527 0.000140
# 2 -0.000024 0.008126 -0.003654 -0.003221 0.000600 0.001057
# 3 -0.004552 -0.003654 0.011267 0.003380 -0.002488 0.001633
# 4 -0.001262 -0.003221 0.003380 0.027746 -0.002692 -0.002405
# 5 0.002527 0.000600 -0.002488 -0.002692 0.029596 -0.005259
# 6 0.000140 0.001057 0.001633 -0.002405 -0.005259 0.037181
#
#
# Mechanical properties :
#
#
# Convention : Reuss Voigt Hill
#
# Bulk Modulus (GPa) = 55.40760 63.57979 59.49369
# Shear Modulus (GPa) = 33.00286 37.10507 35.05396
#
# Velocity S-wave (km/s) = 3.78690 4.01536 3.90280
# Velocity P-wave (km/s) = 6.57243 7.00889 6.79417
#
# Compressibility (1/GPa) = 0.01804807
#
# Stress axis : x y z
#
# Youngs Moduli (GPa) = 66.16929 123.05671 88.75575
#
# Poissons Ratio (x) = 0.00291 0.40399
# Poissons Ratio (y) = 0.00157 0.32427
# Poissons Ratio (z) = 0.30119 0.44959
#
# Static dielectric constant tensor:
#      x y z
#    x 4.198720 0.099760 -0.185310 
#    y 0.099760 4.626410 0.034260 
#    z -0.185310 0.034260 4.001760 
# 
# 
# High freq. dielectric constant tensor:
#      x y z
#    x 1.910940 0.003400 -0.012270 
#    y 0.003400 1.924990 0.005990 
#    z -0.012270 0.005990 1.901830 
# 
# From -- ./inp_files/201813.got.cif
#   From: 2010.06.25/outbox.cif.g09.slc.cpg/sg2_101_cif.got.tgz:201813.got - 2010.06.27 13:26:56.
