data_PCOD8015411
_publ_section_title
;
Structure prediction by ZEFSAII (Michael W. Deem and Ramdas Pophale) SiO2 
 PCOD8015411
Probable space group: P -1
;
_chemical_formula_sum "Si O2"
_cell_formula_units_Z 14
_cell_length_a 13.497845
_cell_length_b 8.344908
_cell_length_c 10.186481
_cell_angle_alpha 72.352652
_cell_angle_beta 51.299611
_cell_angle_gamma 106.292867
_cell_volume 661.217044
_symmetry_space_group_name_H-M "P -1"
_symmetry_group_IT_number 2
_symmetry_cell_setting 'triclinic'
loop_
_space_group_symop_operation_xyz
x,y,z
-x,-y,-z
loop_
_atom_site_type_symbol
_atom_site_label
_atom_site_fract_x
_atom_site_fract_y
_atom_site_fract_z
Si Si1 0.877066 0.435863 0.002920
Si Si2 0.606787 0.950121 0.360044
Si Si3 0.852823 0.398624 0.745866
Si Si4 0.391260 0.531237 0.174466
Si Si5 0.789040 0.821901 0.364656
Si Si6 0.642542 0.891787 0.071370
Si Si7 0.849817 0.762864 0.039614
O O1 0.944775 0.514214 0.779614
O O2 0.781643 0.526234 0.102593
O O3 0.000000 0.500000 0.000000
O O4 0.776382 0.182078 0.130533
O O5 0.638953 0.824397 0.463513
O O6 0.535607 0.829862 0.308758
O O7 0.500000 0.000000 0.500000
O O8 0.728686 0.449980 0.813607
O O9 0.000000 0.500000 0.500000
O O10 0.749344 0.141852 0.884529
O O11 0.270199 0.335201 0.424081
O O12 0.518763 0.754024 0.090884
O O13 0.500000 0.500000 0.000000
O O14 0.818675 0.739767 0.227656
O O15 0.957159 0.060409 0.199009
O O16 0.759450 0.831574 0.017001
#
# Coordination Sequence:
#
# PCOD8015411 Si02
#       7
#     2   2   2   2   2   2   2
#     4  11  23  41  69  98 128 168 223 282 327 394
#     4  10  23  38  64  98 130 165 218 275 333 387
#     4  11  26  46  68  98 137 179 224 274 338 408
#     4  12  27  44  66  96 141 183 222 271 343 409
#     4  10  23  40  65  96 134 174 219 282 331 395
#     4  10  24  43  66  94 133 174 217 277 331 399
#     4  10  21  42  68  98 128 167 232 279 332 386
#
# _framework density 21.173078
#
# number of rings (size 3 to 8) (size 9 to 14) (size 15 to 20)
#    0.000    1.429    1.429    2.143   12.000    2.286 
#    0.000    2.857    0.000    0.000    0.000    0.000 
#    0.000    0.000    0.000    0.000    0.000    0.000 
#
# Total GULP energy -173494.449773 kJ/mol
# GULP energy per Si atom -12392.460698 kJ/mol
# Density = 2.112489 g / cm^3
# Si number density = 21.173078 Si / 1000 Ang^3
#
#
#
# Elastic Constant Matrix: (Units=GPa)
#
#
# Indices 1 2 3 4 5 6 
#
# 1 137.4727 53.8312 56.3067 22.9028 9.9720 0.6727
# 2 53.8312 105.0187 24.6071 19.4292 9.1452 1.2832
# 3 56.3067 24.6071 92.4657 18.0172 8.4767 0.6834
# 4 22.9028 19.4292 18.0172 34.2308 -7.6972 1.9143
# 5 9.9720 9.1452 8.4767 -7.6972 32.0357 0.4758
# 6 0.6727 1.2832 0.6834 1.9143 0.4758 45.3161
#
#
#
# Elastic Compliance Matrix: (Units=1/GPa)
#
#
# Indices 1 2 3 4 5 6 
#
# 1 0.011651 -0.003991 -0.005238 -0.003204 -0.001874 0.000174
# 2 -0.003991 0.012865 0.000495 -0.005779 -0.003949 -0.000027
# 3 -0.005238 0.000495 0.015356 -0.005756 -0.003959 0.000117
# 4 -0.003204 -0.005779 -0.005756 0.040908 0.014023 -0.001577
# 5 -0.001874 -0.003949 -0.003959 0.014023 0.037354 -0.000785
# 6 0.000174 -0.000027 0.000117 -0.001577 -0.000785 0.022139
#
#
# Mechanical properties :
#
#
# Convention : Reuss Voigt Hill
#
# Bulk Modulus (GPa) = 44.63357 67.16075 55.89716
# Shear Modulus (GPa) = 30.26436 35.66400 32.96418
#
# Velocity S-wave (km/s) = 3.78482 4.10860 3.95003
# Velocity P-wave (km/s) = 6.34239 7.36860 6.87467
#
# Compressibility (1/GPa) = 0.02240466
#
# Stress axis : x y z
#
# Youngs Moduli (GPa) = 85.82705 77.72828 65.11946
#
# Poissons Ratio (x) = 0.31022 0.34110
# Poissons Ratio (y) = 0.34254 -0.03223
# Poissons Ratio (z) = 0.44957 -0.03847
#
# Static dielectric constant tensor:
#      x y z
#    x 4.042960 -0.010440 0.200620 
#    y -0.010440 4.090300 0.153780 
#    z 0.200620 0.153780 3.821120 
# 
# 
# High freq. dielectric constant tensor:
#      x y z
#    x 1.840760 -0.007780 0.008680 
#    y -0.007780 1.845910 0.004800 
#    z 0.008680 0.004800 1.822760 
# 
# From -- ./inp_files/153781.got.cif
#   From: 2010.06.25/outbox.cif.g09.slc.cpg/sg2_77_cif.got.tgz:153781.got - 2010.06.27 13:26:56.
