data_PCOD8015202
_publ_section_title
;
Structure prediction by ZEFSAII (Michael W. Deem and Ramdas Pophale) SiO2 
 PCOD8015202
Probable space group: P -1
;
_chemical_formula_sum "Si O2"
_cell_formula_units_Z 16
_cell_length_a 9.544072
_cell_length_b 11.671186
_cell_length_c 18.087438
_cell_angle_alpha 137.568081
_cell_angle_beta 36.110460
_cell_angle_gamma 115.843355
_cell_volume 733.105431
_symmetry_space_group_name_H-M "P -1"
_symmetry_group_IT_number 2
_symmetry_cell_setting 'triclinic'
loop_
_space_group_symop_operation_xyz
x,y,z
-x,-y,-z
loop_
_atom_site_type_symbol
_atom_site_label
_atom_site_fract_x
_atom_site_fract_y
_atom_site_fract_z
Si Si1 0.325590 0.722015 0.801506
Si Si2 0.587000 0.131996 0.765736
Si Si3 0.381794 0.057466 0.997759
Si Si4 0.837154 0.143047 0.799058
Si Si5 0.811295 0.716958 0.517693
Si Si6 0.053293 0.338280 0.169612
Si Si7 0.248660 0.540757 0.895016
Si Si8 0.731775 0.207490 0.580582
O O1 0.628842 0.650101 0.615777
O O2 0.164828 0.728080 0.799091
O O3 0.254125 0.606986 0.840878
O O4 0.245507 0.926585 0.965605
O O5 0.791258 0.195277 0.755904
O O6 0.610126 0.179234 0.694520
O O7 0.652461 0.912079 0.637667
O O8 0.292206 0.258374 0.973219
O O9 0.155126 0.260605 0.173088
O O10 0.637917 0.037303 0.833313
O O11 0.500000 0.000000 0.000000
O O12 0.743477 0.310692 0.976594
O O13 0.130812 0.992266 0.616399
O O14 0.932249 0.560430 0.328450
O O15 0.049138 0.714480 0.464454
O O16 0.502391 0.350865 0.698475
O O17 0.000000 0.500000 0.000000
#
# Coordination Sequence:
#
# PCOD8015202 Si02
#       8
#     2   2   2   2   2   2   2   2
#     4  12  24  44  67  99 142 170 223 282 324 403
#     4  10  22  41  69  97 132 176 224 276 323 404
#     4  11  21  41  72  99 129 179 223 271 331 393
#     4  10  21  42  66  96 129 168 230 278 320 396
#     4  11  23  41  69 101 128 171 233 271 330 396
#     4  11  24  42  67 100 138 175 215 277 345 383
#     4  12  28  44  63  96 138 178 221 274 338 403
#     4  11  23  42  68  96 130 180 227 275 331 391
#
# _framework density 21.824966
#
# number of rings (size 3 to 8) (size 9 to 14) (size 15 to 20)
#    0.000    1.000    5.000    4.500    0.000    7.000 
#    0.000    0.000    0.000    0.000    0.000    0.000 
#    0.000    0.000    0.000    0.000    0.000    0.000 
#
# Total GULP energy -198221.276434 kJ/mol
# GULP energy per Si atom -12388.829777 kJ/mol
# Density = 2.177529 g / cm^3
# Si number density = 21.824966 Si / 1000 Ang^3
#
#
#
# Elastic Constant Matrix: (Units=GPa)
#
#
# Indices 1 2 3 4 5 6 
#
# 1 85.8051 33.2067 20.2791 5.8896 -5.4062 -1.6937
# 2 33.2067 99.5788 38.1435 -12.4383 -10.8385 -3.6233
# 3 20.2791 38.1435 128.9901 9.9212 -12.5759 1.9796
# 4 5.8896 -12.4383 9.9212 28.8485 10.9071 -3.3422
# 5 -5.4062 -10.8385 -12.5759 10.9071 28.7385 -4.0075
# 6 -1.6937 -3.6233 1.9796 -3.3422 -4.0075 33.7297
#
#
#
# Elastic Compliance Matrix: (Units=1/GPa)
#
#
# Indices 1 2 3 4 5 6 
#
# 1 0.014312 -0.005284 0.000122 -0.006461 0.003189 -0.000117
# 2 -0.005284 0.014656 -0.004318 0.009383 -0.000580 0.002423
# 3 0.000122 -0.004318 0.010157 -0.007619 0.005571 -0.001147
# 4 -0.006461 0.009383 -0.007619 0.050520 -0.019655 0.003801
# 5 0.003189 -0.000580 0.005571 -0.019655 0.045526 0.003232
# 6 -0.000117 0.002423 -0.001147 0.003801 0.003232 0.030730
#
#
# Mechanical properties :
#
#
# Convention : Reuss Voigt Hill
#
# Bulk Modulus (GPa) = 49.59173 55.29251 52.44212
# Shear Modulus (GPa) = 26.09839 33.11299 29.60569
#
# Velocity S-wave (km/s) = 3.46179 3.89936 3.68707
# Velocity P-wave (km/s) = 6.22499 6.75743 6.49667
#
# Compressibility (1/GPa) = 0.02016465
#
# Stress axis : x y z
#
# Youngs Moduli (GPa) = 69.86935 68.23364 98.45361
#
# Poissons Ratio (x) = 0.36053 -0.01201
# Poissons Ratio (y) = 0.36917 0.42516
# Poissons Ratio (z) = -0.00853 0.29466
#
# Static dielectric constant tensor:
#      x y z
#    x 4.525700 -1.122030 0.474670 
#    y -1.122030 5.950740 -0.836970 
#    z 0.474670 -0.836970 4.497460 
# 
# 
# High freq. dielectric constant tensor:
#      x y z
#    x 1.846270 0.001570 -0.003740 
#    y 0.001570 1.854950 -0.002080 
#    z -0.003740 -0.002080 1.869400 
# 
# From -- ./inp_files/595123.got.cif
#   From: 2010.06.25/outbox.cif.g09.slc.cpg/sg2_298_cif.got.tgz:595123.got - 2010.06.27 13:26:56.
