data_PCOD8015888
_publ_section_title
;
Structure prediction by ZEFSAII (Michael W. Deem and Ramdas Pophale) SiO2 
 PCOD8015888
Probable space group: P -1
;
_chemical_formula_sum "Si O2"
_cell_formula_units_Z 16
_cell_length_a 8.703577
_cell_length_b 11.981835
_cell_length_c 10.945778
_cell_angle_alpha 128.073488
_cell_angle_beta 73.975366
_cell_angle_gamma 130.322307
_cell_volume 670.565385
_symmetry_space_group_name_H-M "P -1"
_symmetry_group_IT_number 2
_symmetry_cell_setting 'triclinic'
loop_
_space_group_symop_operation_xyz
x,y,z
-x,-y,-z
loop_
_atom_site_type_symbol
_atom_site_label
_atom_site_fract_x
_atom_site_fract_y
_atom_site_fract_z
Si Si1 0.778945 0.294442 0.163626
Si Si2 0.318840 0.415814 0.289249
Si Si3 0.097591 0.906000 0.879821
Si Si4 0.199440 0.029485 0.519156
Si Si5 0.158671 0.704781 0.408768
Si Si6 0.558107 0.231798 0.401820
Si Si7 0.494450 0.729862 0.977419
Si Si8 0.559144 0.346784 0.798840
O O1 0.866200 0.182713 0.074567
O O2 0.583327 0.196083 0.233305
O O3 0.694643 0.280410 0.036733
O O4 0.944199 0.503312 0.307919
O O5 0.429485 0.588077 0.471009
O O6 0.440707 0.335234 0.194606
O O7 0.311309 0.470590 0.187884
O O8 0.079719 0.262079 0.281982
O O9 0.319779 0.062998 0.877397
O O10 0.000000 0.000000 0.000000
O O11 0.339028 0.064541 0.394386
O O12 0.327985 0.203358 0.699447
O O13 0.123489 0.849650 0.487560
O O14 0.000000 0.000000 0.500000
O O15 0.250567 0.731789 0.542429
O O16 0.326985 0.741459 0.299077
O O17 0.431850 0.604511 0.027164
#
# Coordination Sequence:
#
# PCOD8015888 Si02
#       8
#     2   2   2   2   2   2   2   2
#     4  12  24  41  65  99 129 172 221 260 321 388
#     4   9  20  44  63  93 123 170 220 261 328 374
#     4  10  22  44  61  88 128 171 217 262 318 385
#     4  10  23  43  66 100 126 162 223 274 321 373
#     4  10  22  41  68  92 127 167 218 270 319 383
#     4  10  22  42  70  91 132 169 215 266 324 383
#     4  11  25  38  64  93 134 171 213 264 321 384
#     4  10  21  43  67  89 130 174 209 265 328 384
#
# _framework density 23.86046
#
# number of rings (size 3 to 8) (size 9 to 14) (size 15 to 20)
#    0.000    2.000    2.500    2.625    7.000    1.000 
#    6.750    0.000    0.000    0.000    0.000    0.000 
#    0.000    0.000    0.000    0.000    0.000    0.000 
#
# Total GULP energy -198273.999353 kJ/mol
# GULP energy per Si atom -12392.124960 kJ/mol
# Density = 2.380615 g / cm^3
# Si number density = 23.860460 Si / 1000 Ang^3
#
#
#
# Elastic Constant Matrix: (Units=GPa)
#
#
# Indices 1 2 3 4 5 6 
#
# 1 119.7847 27.0036 15.3337 1.1687 7.2434 -6.7503
# 2 27.0036 87.6253 10.9539 14.7160 8.3682 1.5488
# 3 15.3337 10.9539 39.0489 -7.4482 0.3379 -4.0603
# 4 1.1687 14.7160 -7.4482 32.5388 -8.5628 -7.9896
# 5 7.2434 8.3682 0.3379 -8.5628 25.1338 7.6536
# 6 -6.7503 1.5488 -4.0603 -7.9896 7.6536 28.2608
#
#
#
# Elastic Compliance Matrix: (Units=1/GPa)
#
#
# Indices 1 2 3 4 5 6 
#
# 1 0.009565 -0.002403 -0.002754 0.000075 -0.002742 0.002784
# 2 -0.002403 0.015439 -0.005763 -0.010910 -0.007044 -0.003425
# 3 -0.002754 -0.005763 0.031365 0.012702 0.004639 0.006499
# 4 0.000075 -0.010910 0.012702 0.045375 0.015530 0.011063
# 5 -0.002742 -0.007044 0.004639 0.015530 0.050890 -0.008994
# 6 0.002784 -0.003425 0.006499 0.011063 -0.008994 0.042734
#
#
# Mechanical properties :
#
#
# Convention : Reuss Voigt Hill
#
# Bulk Modulus (GPa) = 28.96240 39.22682 34.09461
# Shear Modulus (GPa) = 21.86101 30.06453 25.96277
#
# Velocity S-wave (km/s) = 3.03017 3.55352 3.30223
# Velocity P-wave (km/s) = 4.94036 5.77169 5.37213
#
# Compressibility (1/GPa) = 0.03452752
#
# Stress axis : x y z
#
# Youngs Moduli (GPa) = 104.55226 64.77193 31.88227
#
# Poissons Ratio (x) = 0.15566 0.08781
# Poissons Ratio (y) = 0.25127 0.18375
# Poissons Ratio (z) = 0.28795 0.37330
#
# Static dielectric constant tensor:
#      x y z
#    x 4.380550 0.022610 -0.135400 
#    y 0.022610 4.438070 0.274960 
#    z -0.135400 0.274960 3.901300 
# 
# 
# High freq. dielectric constant tensor:
#      x y z
#    x 1.950540 -0.003470 -0.010120 
#    y -0.003470 1.949950 0.018830 
#    z -0.010120 0.018830 1.910090 
# 
# From -- ./inp_files/392833.got.cif
#   From: 2010.06.25/outbox.cif.g09.slc.cpg/sg2_197_cif.got.tgz:392833.got - 2010.06.27 13:26:56.
