data_PCOD8015759
_publ_section_title
;
Structure prediction by ZEFSAII (Michael W. Deem and Ramdas Pophale) SiO2 
 PCOD8015759
Probable space group: P -1
;
_chemical_formula_sum "Si O2"
_cell_formula_units_Z 14
_cell_length_a 14.036552
_cell_length_b 11.289430
_cell_length_c 11.011461
_cell_angle_alpha 91.520208
_cell_angle_beta 67.044304
_cell_angle_gamma 151.348088
_cell_volume 538.527570
_symmetry_space_group_name_H-M "P -1"
_symmetry_group_IT_number 2
_symmetry_cell_setting 'triclinic'
loop_
_space_group_symop_operation_xyz
x,y,z
-x,-y,-z
loop_
_atom_site_type_symbol
_atom_site_label
_atom_site_fract_x
_atom_site_fract_y
_atom_site_fract_z
Si Si1 0.420356 0.248081 0.538430
Si Si2 0.930214 0.576817 0.649520
Si Si3 0.729521 0.603748 0.809072
Si Si4 0.215349 0.839215 0.255422
Si Si5 0.600895 0.605572 0.656224
Si Si6 0.794792 0.623061 0.031716
Si Si7 0.945543 0.155032 0.852010
O O1 0.425610 0.303254 0.675077
O O2 0.245128 0.150386 0.523659
O O3 0.776425 0.623990 0.332778
O O4 0.228102 0.920310 0.601431
O O5 0.694354 0.432339 0.767853
O O6 0.760409 0.276120 0.773832
O O7 0.027048 0.668992 0.464635
O O8 0.828035 0.804205 0.658208
O O9 0.944948 0.825943 0.831395
O O10 0.382968 0.264988 0.020093
O O11 0.040805 0.704067 0.220345
O O12 0.549005 0.256989 0.110758
O O13 0.339305 0.403539 0.841831
O O14 0.024406 0.804751 0.015565
#
# Coordination Sequence:
#
# PCOD8015759 Si02
#       7
#     2   2   2   2   2   2   2
#     4  10  22  42  68  94 131 168 216 260 317 379
#     4  11  23  44  67  98 126 165 220 270 307 383
#     4  11  25  40  66  98 130 169 213 258 328 376
#     4  10  22  45  70  91 128 166 220 265 316 372
#     4  10  21  43  64  99 127 173 211 262 312 389
#     4  10  22  45  64  97 131 171 206 270 312 387
#     4  10  22  43  65  95 128 173 207 262 326 372
#
# _framework density 25.996808999999999
#
# number of rings (size 3 to 8) (size 9 to 14) (size 15 to 20)
#    0.000    1.714    2.857    1.286    2.000    5.714 
#   20.571    1.429    0.000    0.000    0.000    0.000 
#    0.000    0.000    0.000    0.000    0.000    0.000 
#
# Total GULP energy -173509.378414 kJ/mol
# GULP energy per Si atom -12393.527030 kJ/mol
# Density = 2.593764 g / cm^3
# Si number density = 25.996809 Si / 1000 Ang^3
#
#
#
# Elastic Constant Matrix: (Units=GPa)
#
#
# Indices 1 2 3 4 5 6 
#
# 1 122.8342 44.1153 44.8885 17.0169 35.2231 21.9961
# 2 44.1153 103.8312 46.7873 15.6107 15.3329 19.2878
# 3 44.8885 46.7873 110.4684 15.0154 35.0173 -4.5078
# 4 17.0169 15.6107 15.0154 37.0909 13.5333 0.5951
# 5 35.2231 15.3329 35.0173 13.5333 44.0122 9.7863
# 6 21.9961 19.2878 -4.5078 0.5951 9.7863 39.6185
#
#
#
# Elastic Compliance Matrix: (Units=1/GPa)
#
#
# Indices 1 2 3 4 5 6 
#
# 1 0.012538 -0.002386 -0.002153 -0.001621 -0.005981 -0.004543
# 2 -0.002386 0.015069 -0.006793 -0.004247 0.005148 -0.007992
# 3 -0.002153 -0.006793 0.016707 0.001176 -0.011622 0.009257
# 4 -0.001621 -0.004247 0.001176 0.032284 -0.009171 0.004882
# 5 -0.005981 0.005148 -0.011622 -0.009171 0.040064 -0.010266
# 6 -0.004543 -0.007992 0.009257 0.004882 -0.010266 0.035170
#
#
# Mechanical properties :
#
#
# Convention : Reuss Voigt Hill
#
# Bulk Modulus (GPa) = 46.19280 67.63511 56.91395
# Shear Modulus (GPa) = 27.51599 37.56715 32.54157
#
# Velocity S-wave (km/s) = 3.25689 3.80553 3.54185
# Velocity P-wave (km/s) = 5.65246 6.73666 6.21824
#
# Compressibility (1/GPa) = 0.02164840
#
# Stress axis : x y z
#
# Youngs Moduli (GPa) = 79.75707 66.36176 59.85680
#
# Poissons Ratio (x) = 0.15834 0.12889
# Poissons Ratio (y) = 0.19030 0.40663
# Poissons Ratio (z) = 0.17174 0.45082
#
# Static dielectric constant tensor:
#      x y z
#    x 5.035090 0.391320 0.233970 
#    y 0.391320 4.720250 0.233110 
#    z 0.233970 0.233110 5.129340 
# 
# 
# High freq. dielectric constant tensor:
#      x y z
#    x 2.037130 0.027160 0.003200 
#    y 0.027160 2.030740 0.004300 
#    z 0.003200 0.004300 2.085430 
# 
# From -- ./inp_files/450201.got.cif
#   From: 2010.06.25/outbox.cif.g09.slc.cpg/sg2_226_cif.got.tgz:450201.got - 2010.06.27 13:26:56.
