data_PCOD8015033
_publ_section_title
;
Structure prediction by ZEFSAII (Michael W. Deem and Ramdas Pophale) SiO2 
 PCOD8015033
Probable space group: P -1
;
_chemical_formula_sum "Si O2"
_cell_formula_units_Z 12
_cell_length_a 8.825406
_cell_length_b 12.893471
_cell_length_c 12.623514
_cell_angle_alpha 36.147698
_cell_angle_beta 83.940717
_cell_angle_gamma 59.045197
_cell_volume 574.429974
_symmetry_space_group_name_H-M "P -1"
_symmetry_group_IT_number 2
_symmetry_cell_setting 'triclinic'
loop_
_space_group_symop_operation_xyz
x,y,z
-x,-y,-z
loop_
_atom_site_type_symbol
_atom_site_label
_atom_site_fract_x
_atom_site_fract_y
_atom_site_fract_z
Si Si1 0.925694 0.779102 0.189446
Si Si2 0.637104 0.880720 0.696190
Si Si3 0.001548 0.102161 0.581453
Si Si4 0.764324 0.790266 0.405388
Si Si5 0.096200 0.684013 0.805499
Si Si6 0.245872 0.766132 0.302275
O O1 0.756814 0.841145 0.238604
O O2 0.050487 0.517046 0.333857
O O3 0.111849 0.739094 0.265475
O O4 0.785922 0.010514 0.925101
O O5 0.837400 0.850156 0.704451
O O6 0.500000 0.000000 0.500000
O O7 0.478265 0.067000 0.653553
O O8 0.732095 0.605271 0.929234
O O9 0.828746 0.174532 0.619992
O O10 0.176205 0.088123 0.631793
O O11 0.862482 0.314876 0.322964
O O12 0.143928 0.820010 0.756440
O O13 0.500000 0.500000 0.500000
#
# Coordination Sequence:
#
# PCOD8015033 Si02
#       6
#     2   2   2   2   2   2
#     4   9  22  42  60  91 122 153 205 249 293 362
#     4  11  23  40  64  88 119 165 203 241 307 349
#     4  10  22  42  60  89 127 154 199 255 293 358
#     4  10  21  42  65  87 124 160 196 253 302 350
#     4  10  24  42  59  92 125 154 205 250 290 365
#     4  10  22  39  63  90 119 160 201 245 306 350
#
# _framework density 20.890274000000002
#
# number of rings (size 3 to 8) (size 9 to 14) (size 15 to 20)
#    0.000    2.000    1.667    0.000    7.000    0.667 
#    0.000    2.500    0.000    0.000    0.000    0.000 
#    0.000    0.000    0.000    0.000    0.000    0.000 
#
# Total GULP energy -148838.539509 kJ/mol
# GULP energy per Si atom -12403.211626 kJ/mol
# Density = 2.084273 g / cm^3
# Si number density = 20.890274 Si / 1000 Ang^3
#
#
#
# Elastic Constant Matrix: (Units=GPa)
#
#
# Indices 1 2 3 4 5 6 
#
# 1 49.0254 44.9848 50.6722 -1.8219 -13.2961 -7.1634
# 2 44.9848 132.4521 66.5979 1.6625 -3.7528 -23.7642
# 3 50.6722 66.5979 160.7929 5.8145 -16.1265 -20.5362
# 4 -1.8219 1.6625 5.8145 27.8162 -3.7681 -6.6494
# 5 -13.2961 -3.7528 -16.1265 -3.7681 32.0944 -3.7353
# 6 -7.1634 -23.7642 -20.5362 -6.6494 -3.7353 41.2834
#
#
#
# Elastic Compliance Matrix: (Units=1/GPa)
#
#
# Indices 1 2 3 4 5 6 
#
# 1 0.041228 -0.009771 -0.007937 0.006615 0.012702 -0.000204
# 2 -0.009771 0.012469 -0.001839 -0.000407 -0.003070 0.004224
# 3 -0.007937 -0.001839 0.010014 -0.001708 0.001609 0.002416
# 4 0.006615 -0.000407 -0.001708 0.039444 0.007290 0.007077
# 5 0.012702 -0.003070 0.001609 0.007290 0.038411 0.005887
# 6 -0.000204 0.004224 0.002416 0.007077 0.005887 0.029493
#
#
# Mechanical properties :
#
#
# Convention : Reuss Voigt Hill
#
# Bulk Modulus (GPa) = 40.62274 74.08668 57.35471
# Shear Modulus (GPa) = 22.89810 32.23982 27.56896
#
# Velocity S-wave (km/s) = 3.31435 3.93274 3.63671
# Velocity P-wave (km/s) = 5.84248 7.49424 6.71931
#
# Compressibility (1/GPa) = 0.02461675
#
# Stress axis : x y z
#
# Youngs Moduli (GPa) = 24.25542 80.19785 99.86275
#
# Poissons Ratio (x) = 0.78364 0.79259
# Poissons Ratio (y) = 0.23701 0.18364
# Poissons Ratio (z) = 0.19251 0.14748
#
# Static dielectric constant tensor:
#      x y z
#    x 3.798120 -0.198820 -0.319090 
#    y -0.198820 4.163900 0.110740 
#    z -0.319090 0.110740 3.742870 
# 
# 
# High freq. dielectric constant tensor:
#      x y z
#    x 1.815480 -0.006000 -0.021870 
#    y -0.006000 1.828890 0.003680 
#    z -0.021870 0.003680 1.815710 
# 
# From -- ./inp_files/21827.got.cif
#   From: 2010.06.25/outbox.cif.g09.slc.cpg/sg2_11_cif.got.tgz:21827.got - 2010.06.27 13:26:56.
