data_PCOD8015276
_publ_section_title
;
Structure prediction by ZEFSAII (Michael W. Deem and Ramdas Pophale) SiO2 
 PCOD8015276
Probable space group: P -1
;
_chemical_formula_sum "Si O2"
_cell_formula_units_Z 14
_cell_length_a 17.927392
_cell_length_b 5.105187
_cell_length_c 12.886895
_cell_angle_alpha 56.974865
_cell_angle_beta 137.589923
_cell_angle_gamma 103.745740
_cell_volume 637.987148
_symmetry_space_group_name_H-M "P -1"
_symmetry_group_IT_number 2
_symmetry_cell_setting 'triclinic'
loop_
_space_group_symop_operation_xyz
x,y,z
-x,-y,-z
loop_
_atom_site_type_symbol
_atom_site_label
_atom_site_fract_x
_atom_site_fract_y
_atom_site_fract_z
Si Si1 0.260548 0.557334 0.655572
Si Si2 0.116252 0.316646 0.942210
Si Si3 0.148490 0.302828 0.404453
Si Si4 0.702503 0.736100 0.029720
Si Si5 0.472827 0.675557 0.750239
Si Si6 0.492070 0.675661 0.345252
Si Si7 0.122503 0.566947 0.106223
O O1 0.207383 0.453243 0.521599
O O2 0.257818 0.312311 0.799619
O O3 0.394044 0.534788 0.775403
O O4 0.185168 0.914779 0.535152
O O5 0.187004 0.395562 0.901391
O O6 0.989158 0.567375 0.751350
O O7 0.180127 0.387952 0.097835
O O8 0.108802 0.949806 0.009709
O O9 0.191168 0.406803 0.314744
O O10 0.607514 0.538371 0.953887
O O11 0.641970 0.120489 0.859866
O O12 0.457755 0.586481 0.635108
O O13 0.431386 0.070694 0.628260
O O14 0.500000 0.500000 0.500000
O O15 0.000000 0.500000 0.000000
#
# Coordination Sequence:
#
# PCOD8015276 Si02
#       7
#     2   2   2   2   2   2   2
#     4  12  25  43  65  95 133 177 222 260 315 390
#     4  11  23  42  69  97 134 169 212 275 326 381
#     4  11  24  41  66  99 129 172 221 262 322 387
#     4  10  28  41  69  94 135 173 217 266 329 380
#     4  10  24  44  66  91 128 174 217 264 322 381
#     4  10  23  43  66  97 126 161 219 271 329 381
#     4  10  21  42  67  93 130 170 217 264 322 385
#
# _framework density 21.944015
#
# number of rings (size 3 to 8) (size 9 to 14) (size 15 to 20)
#    0.857    0.571    0.000    6.000    4.000    5.143 
#    0.000    0.000    0.000    0.000    0.000    0.000 
#    0.000    0.000    0.000    0.000    0.000    0.000 
#
# Total GULP energy -173559.081191 kJ/mol
# GULP energy per Si atom -12397.077228 kJ/mol
# Density = 2.189407 g / cm^3
# Si number density = 21.944015 Si / 1000 Ang^3
#
#
#
# Elastic Constant Matrix: (Units=GPa)
#
#
# Indices 1 2 3 4 5 6 
#
# 1 128.5694 21.4091 50.0540 20.3628 -9.3597 -5.8746
# 2 21.4091 153.9790 53.8812 24.1019 -13.7932 -17.3055
# 3 50.0540 53.8812 122.8512 15.9956 -26.8757 -1.3390
# 4 20.3628 24.1019 15.9956 34.0630 -13.1719 -8.0712
# 5 -9.3597 -13.7932 -26.8757 -13.1719 43.2020 6.6865
# 6 -5.8746 -17.3055 -1.3390 -8.0712 6.6865 20.8209
#
#
#
# Elastic Compliance Matrix: (Units=1/GPa)
#
#
# Indices 1 2 3 4 5 6 
#
# 1 0.010010 0.000919 -0.004256 -0.004925 -0.002005 0.002049
# 2 0.000919 0.009019 -0.004099 -0.004151 -0.001733 0.006440
# 3 -0.004256 -0.004099 0.013051 0.000650 0.006977 -0.005757
# 4 -0.004925 -0.004151 0.000650 0.040320 0.009080 0.007916
# 5 -0.002005 -0.001733 0.006977 0.009080 0.030480 -0.007826
# 6 0.002049 0.006440 -0.005757 0.007916 -0.007826 0.059171
#
#
# Mechanical properties :
#
#
# Convention : Reuss Voigt Hill
#
# Bulk Modulus (GPa) = 58.11334 72.89868 65.50601
# Shear Modulus (GPa) = 27.37354 38.28754 32.83054
#
# Velocity S-wave (km/s) = 3.53572 4.18159 3.87215
# Velocity P-wave (km/s) = 6.57332 7.52374 7.06453
#
# Compressibility (1/GPa) = 0.01720775
#
# Stress axis : x y z
#
# Youngs Moduli (GPa) = 99.90367 110.87672 76.62330
#
# Poissons Ratio (x) = -0.10193 0.32614
# Poissons Ratio (y) = -0.09185 0.31406
# Poissons Ratio (z) = 0.42523 0.45446
#
# Static dielectric constant tensor:
#      x y z
#    x 4.003570 -0.248770 -0.089820 
#    y -0.248770 4.125120 0.259740 
#    z -0.089820 0.259740 3.906920 
# 
# 
# High freq. dielectric constant tensor:
#      x y z
#    x 1.862390 -0.011570 -0.006360 
#    y -0.011570 1.871880 0.009940 
#    z -0.006360 0.009940 1.855180 
# 
# From -- ./inp_files/439817.got.cif
#   From: 2010.06.25/outbox.cif.g09.slc.cpg/sg2_220_cif.got.tgz:439817.got - 2010.06.27 13:26:56.
