data_PCOD8015565
_publ_section_title
;
Structure prediction by ZEFSAII (Michael W. Deem and Ramdas Pophale) SiO2 
 PCOD8015565
Probable space group: P -1
;
_chemical_formula_sum "Si O2"
_cell_formula_units_Z 12
_cell_length_a 11.150325
_cell_length_b 7.390960
_cell_length_c 9.568933
_cell_angle_alpha 48.603584
_cell_angle_beta 124.484507
_cell_angle_gamma 107.071501
_cell_volume 483.429184
_symmetry_space_group_name_H-M "P -1"
_symmetry_group_IT_number 2
_symmetry_cell_setting 'triclinic'
loop_
_space_group_symop_operation_xyz
x,y,z
-x,-y,-z
loop_
_atom_site_type_symbol
_atom_site_label
_atom_site_fract_x
_atom_site_fract_y
_atom_site_fract_z
Si Si1 0.263543 0.225583 0.817608
Si Si2 0.013208 0.933588 0.381979
Si Si3 0.335881 0.928797 0.539863
Si Si4 0.364980 0.367942 0.528858
Si Si5 0.359703 0.317334 0.133488
Si Si6 0.781445 0.294956 0.942249
O O1 0.641658 0.651153 0.298793
O O2 0.314002 0.933370 0.014516
O O3 0.282214 0.346852 0.917131
O O4 0.093139 0.264747 0.631829
O O5 0.178866 0.832508 0.500999
O O6 0.952943 0.190235 0.132982
O O7 0.000000 0.000000 0.500000
O O8 0.366747 0.102603 0.599513
O O9 0.333657 0.064486 0.320144
O O10 0.462299 0.696740 0.751397
O O11 0.500000 0.500000 0.500000
O O12 0.224422 0.543680 0.284596
O O13 0.290163 0.549046 0.055067
#
# Coordination Sequence:
#
# PCOD8015565 Si02
#       6
#     2   2   2   2   2   2
#     4  10  23  45  72 102 142 176 240 284 343 413
#     4  10  21  45  72  99 143 189 217 295 350 405
#     4  10  21  42  71 102 148 176 234 289 353 401
#     4  11  22  40  69 104 134 184 233 286 341 413
#     4  10  22  42  73 105 135 188 229 291 337 419
#     4   9  23  44  71 100 137 188 225 280 358 402
#
# _framework density 24.822665000000001
#
# number of rings (size 3 to 8) (size 9 to 14) (size 15 to 20)
#    1.000    1.000    1.667    1.000    0.000    7.333 
#    0.000   24.167   14.667    0.000    0.000    0.000 
#    0.000    0.000    0.000    0.000    0.000    0.000 
#
# Total GULP energy -148727.515453 kJ/mol
# GULP energy per Si atom -12393.959621 kJ/mol
# Density = 2.476617 g / cm^3
# Si number density = 24.822665 Si / 1000 Ang^3
#
#
#
# Elastic Constant Matrix: (Units=GPa)
#
#
# Indices 1 2 3 4 5 6 
#
# 1 105.5954 27.5304 28.7655 16.3262 12.3046 -10.5658
# 2 27.5304 66.3616 24.1612 10.4569 -11.4116 -7.2394
# 3 28.7655 24.1612 76.9403 7.3407 8.3238 -14.2303
# 4 16.3262 10.4569 7.3407 38.7142 -6.2065 -7.4072
# 5 12.3046 -11.4116 8.3238 -6.2065 56.2466 10.8475
# 6 -10.5658 -7.2394 -14.2303 -7.4072 10.8475 32.7047
#
#
#
# Elastic Compliance Matrix: (Units=1/GPa)
#
#
# Indices 1 2 3 4 5 6 
#
# 1 0.012505 -0.004285 -0.001984 -0.003896 -0.004274 0.002763
# 2 -0.004285 0.019961 -0.005442 -0.001936 0.005913 -0.001733
# 3 -0.001984 -0.005442 0.017306 -0.000353 -0.004648 0.007146
# 4 -0.003896 -0.001936 -0.000353 0.029271 0.003011 0.003790
# 5 -0.004274 0.005913 -0.004648 0.003011 0.022655 -0.008927
# 6 0.002763 -0.001733 0.007146 0.003790 -0.008927 0.038014
#
#
# Mechanical properties :
#
#
# Convention : Reuss Voigt Hill
#
# Bulk Modulus (GPa) = 37.95131 45.53463 41.74297
# Shear Modulus (GPa) = 29.08378 36.76244 32.92311
#
# Velocity S-wave (km/s) = 3.42667 3.85256 3.64584
# Velocity P-wave (km/s) = 5.56581 6.17846 5.88012
#
# Compressibility (1/GPa) = 0.02634955
#
# Stress axis : x y z
#
# Youngs Moduli (GPa) = 79.96991 50.09868 57.78313
#
# Poissons Ratio (x) = 0.21466 0.11467
# Poissons Ratio (y) = 0.34265 0.31444
# Poissons Ratio (z) = 0.15869 0.27263
#
# Static dielectric constant tensor:
#      x y z
#    x 4.485430 -0.004920 -0.077930 
#    y -0.004920 4.209200 0.103850 
#    z -0.077930 0.103850 4.909760 
# 
# 
# High freq. dielectric constant tensor:
#      x y z
#    x 1.970530 0.001000 -0.009540 
#    y 0.001000 1.982700 0.006340 
#    z -0.009540 0.006340 2.001650 
# 
# From -- ./inp_files/160759.got.cif
#   From: 2010.06.25/outbox.cif.g09.slc.cpg/sg2_81_cif.got.tgz:160759.got - 2010.06.27 13:26:56.
