data_PCOD8015441
_publ_section_title
;
Structure prediction by ZEFSAII (Michael W. Deem and Ramdas Pophale) SiO2 
 PCOD8015441
Probable space group: P -1
;
_chemical_formula_sum "Si O2"
_cell_formula_units_Z 16
_cell_length_a 8.888474
_cell_length_b 12.021523
_cell_length_c 15.621000
_cell_angle_alpha 151.269770
_cell_angle_beta 81.767211
_cell_angle_gamma 107.598610
_cell_volume 737.209795
_symmetry_space_group_name_H-M "P -1"
_symmetry_group_IT_number 2
_symmetry_cell_setting 'triclinic'
loop_
_space_group_symop_operation_xyz
x,y,z
-x,-y,-z
loop_
_atom_site_type_symbol
_atom_site_label
_atom_site_fract_x
_atom_site_fract_y
_atom_site_fract_z
Si Si1 0.811634 0.929835 0.445560
Si Si2 0.676021 0.523933 0.036109
Si Si3 0.267130 0.815757 0.068364
Si Si4 0.922439 0.788374 0.056370
Si Si5 0.888983 0.397340 0.659361
Si Si6 0.762992 0.558655 0.325886
Si Si7 0.445512 0.706972 0.683185
Si Si8 0.843383 0.280802 0.399157
O O1 0.747066 0.751508 0.249230
O O2 0.720913 0.792916 0.448968
O O3 0.789177 0.186295 0.594991
O O4 0.000000 0.000000 0.500000
O O5 0.801398 0.574242 0.981504
O O6 0.500000 0.500000 0.000000
O O7 0.663301 0.259920 0.901269
O O8 0.106695 0.882110 0.143315
O O9 0.399688 0.037923 0.155494
O O10 0.209793 0.575947 0.851828
O O11 0.868014 0.021196 0.214950
O O12 0.913260 0.666980 0.879753
O O13 0.794218 0.348007 0.543162
O O14 0.058709 0.364642 0.592887
O O15 0.615929 0.382717 0.276685
O O16 0.500000 0.500000 0.500000
O O17 0.306610 0.749875 0.669866
O O18 0.000000 0.500000 0.500000
#
# Coordination Sequence:
#
# PCOD8015441 Si02
#       8
#     2   2   2   2   2   2   2   2
#     4   9  19  38  70  95 133 176 222 282 335 401
#     4  11  22  42  69 102 143 177 223 290 351 399
#     4  10  23  40  66  99 130 180 229 274 338 412
#     4  11  24  44  72  98 133 182 226 278 343 414
#     4  10  21  42  69 103 129 174 232 271 344 399
#     4   9  20  41  64  96 132 175 224 281 328 400
#     4  12  25  42  63  95 134 180 226 277 344 405
#     4  12  24  44  68  95 142 177 222 290 336 405
#
# _framework density 21.703455000000002
#
# number of rings (size 3 to 8) (size 9 to 14) (size 15 to 20)
#    0.000    1.500    2.500    3.000    0.000    1.500 
#    9.000    0.625    0.000    0.000    0.000    0.000 
#    0.000    0.000    0.000    0.000    0.000    0.000 
#
# Total GULP energy -198295.793937 kJ/mol
# GULP energy per Si atom -12393.487121 kJ/mol
# Density = 2.165406 g / cm^3
# Si number density = 21.703455 Si / 1000 Ang^3
#
#
#
# Elastic Constant Matrix: (Units=GPa)
#
#
# Indices 1 2 3 4 5 6 
#
# 1 113.9730 49.3246 26.1065 -1.1118 6.9786 -0.6794
# 2 49.3246 160.3411 28.2602 17.0288 0.3723 4.1085
# 3 26.1065 28.2602 86.1007 1.4608 0.5495 -10.4322
# 4 -1.1118 17.0288 1.4608 35.6645 0.0955 5.5563
# 5 6.9786 0.3723 0.5495 0.0955 33.7686 5.9446
# 6 -0.6794 4.1085 -10.4322 5.5563 5.9446 35.0505
#
#
#
# Elastic Compliance Matrix: (Units=1/GPa)
#
#
# Indices 1 2 3 4 5 6 
#
# 1 0.010795 -0.003119 -0.002274 0.001931 -0.002158 -0.000042
# 2 -0.003119 0.007912 -0.001722 -0.003642 0.000782 -0.001056
# 3 -0.002274 -0.001722 0.013401 -0.000467 -0.000485 0.004303
# 4 0.001931 -0.003642 -0.000467 0.030570 0.000369 -0.004583
# 5 -0.002158 0.000782 -0.000485 0.000369 0.031044 -0.005601
# 6 -0.000042 -0.001056 0.004303 -0.004583 -0.005601 0.031610
#
#
# Mechanical properties :
#
#
# Convention : Reuss Voigt Hill
#
# Bulk Modulus (GPa) = 55.93277 63.08860 59.51069
# Shear Modulus (GPa) = 34.35902 38.01161 36.18531
#
# Velocity S-wave (km/s) = 3.98315 4.18952 4.08764
# Velocity P-wave (km/s) = 6.85429 7.24806 7.05392
#
# Compressibility (1/GPa) = 0.01787861
#
# Stress axis : x y z
#
# Youngs Moduli (GPa) = 92.63201 126.39341 74.61981
#
# Poissons Ratio (x) = 0.39425 0.16965
# Poissons Ratio (y) = 0.28894 0.12851
# Poissons Ratio (z) = 0.21060 0.21767
#
# Static dielectric constant tensor:
#      x y z
#    x 3.676450 -0.008760 0.132390 
#    y -0.008760 4.623790 0.333770 
#    z 0.132390 0.333770 3.891400 
# 
# 
# High freq. dielectric constant tensor:
#      x y z
#    x 1.834480 -0.009500 0.010720 
#    y -0.009500 1.869200 0.010230 
#    z 0.010720 0.010230 1.853590 
# 
# From -- ./inp_files/283208.got.cif
#   From: 2010.06.25/outbox.cif.g09.slc.cpg/sg2_142_cif.got.tgz:283208.got - 2010.06.27 13:26:56.
