data_PCOD8015810
_publ_section_title
;
Structure prediction by ZEFSAII (Michael W. Deem and Ramdas Pophale) SiO2 
 PCOD8015810
Probable space group: P -1
;
_chemical_formula_sum "Si O2"
_cell_formula_units_Z 14
_cell_length_a 9.714009
_cell_length_b 8.462395
_cell_length_c 8.767168
_cell_angle_alpha 110.733103
_cell_angle_beta 71.626731
_cell_angle_gamma 110.124755
_cell_volume 617.330238
_symmetry_space_group_name_H-M "P -1"
_symmetry_group_IT_number 2
_symmetry_cell_setting 'triclinic'
loop_
_space_group_symop_operation_xyz
x,y,z
-x,-y,-z
loop_
_atom_site_type_symbol
_atom_site_label
_atom_site_fract_x
_atom_site_fract_y
_atom_site_fract_z
Si Si1 0.575983 0.824168 0.262082
Si Si2 0.127081 0.638304 0.905008
Si Si3 0.954830 0.315207 0.372530
Si Si4 0.708474 0.095884 0.554351
Si Si5 0.186033 0.148791 0.374584
Si Si6 0.356442 0.435020 0.638081
Si Si7 0.333571 0.008871 0.022600
O O1 0.403905 0.820853 0.278206
O O2 0.595988 0.634787 0.239181
O O3 0.613827 0.923807 0.443626
O O4 0.679806 0.915004 0.116792
O O5 0.268615 0.575396 0.769707
O O6 0.205516 0.823186 0.023687
O O7 0.026825 0.671733 0.810038
O O8 0.000000 0.500000 0.000000
O O9 0.036342 0.172461 0.357327
O O10 0.000000 0.500000 0.500000
O O11 0.781500 0.238157 0.451361
O O12 0.830851 0.041169 0.603510
O O13 0.236398 0.297222 0.533509
O O14 0.304802 0.154446 0.198686
O O15 0.500000 0.500000 0.500000
O O16 0.500000 0.000000 0.000000
#
# Coordination Sequence:
#
# PCOD8015810 Si02
#       7
#     2   2   2   2   2   2   2
#     4  10  22  40  73  96 133 181 235 286 347 414
#     4  12  29  48  69 106 153 185 232 303 362 412
#     4  12  25  44  69  98 142 183 231 284 358 422
#     4  10  21  43  66 101 131 180 233 287 340 423
#     4  11  25  41  73  99 137 184 240 278 356 424
#     4  11  24  48  72 102 140 190 239 292 358 425
#     4  12  25  48  71 106 142 188 239 299 349 425
#
# _framework density 22.678298999999999
#
# number of rings (size 3 to 8) (size 9 to 14) (size 15 to 20)
#    0.000    0.857    4.286    2.143    6.000    2.857 
#    0.000    1.429    0.000    0.000    0.000    0.000 
#    0.000    0.000    0.000    0.000    0.000    0.000 
#
# Total GULP energy -173451.985729 kJ/mol
# GULP energy per Si atom -12389.427552 kJ/mol
# Density = 2.262668 g / cm^3
# Si number density = 22.678299 Si / 1000 Ang^3
#
#
#
# Elastic Constant Matrix: (Units=GPa)
#
#
# Indices 1 2 3 4 5 6 
#
# 1 91.1647 40.1527 19.2390 -9.8017 3.5538 -18.0828
# 2 40.1527 93.3919 22.6823 -30.8069 3.6927 -5.8256
# 3 19.2390 22.6823 87.8088 -17.7000 -2.2481 -12.6070
# 4 -9.8017 -30.8069 -17.7000 47.6702 -0.8772 -2.1034
# 5 3.5538 3.6927 -2.2481 -0.8772 39.6981 -4.5483
# 6 -18.0828 -5.8256 -12.6070 -2.1034 -4.5483 39.5323
#
#
#
# Elastic Compliance Matrix: (Units=1/GPa)
#
#
# Indices 1 2 3 4 5 6 
#
# 1 0.014883 -0.006135 -0.001115 -0.001082 -0.000223 0.005465
# 2 -0.006135 0.016620 -0.001212 0.008996 -0.000909 -0.000369
# 3 -0.001115 -0.001212 0.013396 0.004165 0.001519 0.003980
# 4 -0.001082 0.008996 0.004165 0.028290 0.000548 0.003727
# 5 -0.000223 -0.000909 0.001519 0.000548 0.025764 0.003242
# 6 0.005465 -0.000369 0.003980 0.003727 0.003242 0.029581
#
#
# Mechanical properties :
#
#
# Convention : Reuss Voigt Hill
#
# Bulk Modulus (GPa) = 35.74719 48.50149 42.12434
# Shear Modulus (GPa) = 32.30326 38.06621 35.18474
#
# Velocity S-wave (km/s) = 3.77823 4.10143 3.94315
# Velocity P-wave (km/s) = 5.90172 6.62285 6.27266
#
# Compressibility (1/GPa) = 0.02797423
#
# Stress axis : x y z
#
# Youngs Moduli (GPa) = 67.19090 60.16831 74.65166
#
# Poissons Ratio (x) = 0.36913 0.08325
# Poissons Ratio (y) = 0.41222 0.09047
# Poissons Ratio (z) = 0.07493 0.07292
#
# Static dielectric constant tensor:
#      x y z
#    x 4.267990 -0.302390 0.027260 
#    y -0.302390 4.079180 -0.157490 
#    z 0.027260 -0.157490 4.152340 
# 
# 
# High freq. dielectric constant tensor:
#      x y z
#    x 1.900710 -0.016910 0.001020 
#    y -0.016910 1.890550 -0.015260 
#    z 0.001020 -0.015260 1.894650 
# 
# From -- ./inp_files/157514.got.cif
#   From: 2010.06.25/outbox.cif.g09.slc.cpg/sg2_79_cif.got.tgz:157514.got - 2010.06.27 13:26:56.
