data_PCOD8015401
_publ_section_title
;
Structure prediction by ZEFSAII (Michael W. Deem and Ramdas Pophale) SiO2 
 PCOD8015401
Probable space group: P -1
;
_chemical_formula_sum "Si O2"
_cell_formula_units_Z 16
_cell_length_a 9.278521
_cell_length_b 9.932509
_cell_length_c 15.546754
_cell_angle_alpha 113.547894
_cell_angle_beta 34.924341
_cell_angle_gamma 111.214615
_cell_volume 750.341628
_symmetry_space_group_name_H-M "P -1"
_symmetry_group_IT_number 2
_symmetry_cell_setting 'triclinic'
loop_
_space_group_symop_operation_xyz
x,y,z
-x,-y,-z
loop_
_atom_site_type_symbol
_atom_site_label
_atom_site_fract_x
_atom_site_fract_y
_atom_site_fract_z
Si Si1 0.705647 0.130470 0.451423
Si Si2 0.892759 0.897058 0.600710
Si Si3 0.633518 0.414740 0.636604
Si Si4 0.227185 0.608847 0.941173
Si Si5 0.973012 0.175573 0.153417
Si Si6 0.686687 0.086922 0.104459
Si Si7 0.222161 0.497979 0.100496
Si Si8 0.983521 0.401049 0.604991
O O1 0.533433 0.257649 0.605935
O O2 0.845311 0.186252 0.310991
O O3 0.921728 0.091845 0.404664
O O4 0.500000 0.000000 0.500000
O O5 0.611998 0.939401 0.773583
O O6 0.861621 0.736473 0.532368
O O7 0.000000 0.000000 0.500000
O O8 0.450901 0.546703 0.759012
O O9 0.706569 0.386321 0.693098
O O10 0.875549 0.454405 0.468338
O O11 0.196794 0.777713 0.975618
O O12 0.252755 0.599199 0.027929
O O13 0.000000 0.500000 0.000000
O O14 0.754326 0.121700 0.179603
O O15 0.101541 0.333127 0.100772
O O16 0.189295 0.060469 0.023337
O O17 0.043063 0.580588 0.275294
O O18 0.500000 0.500000 0.000000
#
# Coordination Sequence:
#
# PCOD8015401 Si02
#       8
#     2   2   2   2   2   2   2   2
#     4  11  25  44  71 100 133 180 227 279 346 413
#     4  11  25  44  70  99 135 178 229 281 344 408
#     4  10  21  42  70  91 134 174 221 275 341 396
#     4  12  25  44  67 105 137 179 226 283 341 405
#     4  11  26  47  67  98 140 184 229 282 350 403
#     4  11  26  47  68  96 142 183 226 286 344 408
#     4  12  25  42  71 103 138 179 232 277 343 414
#     4  10  21  42  68  97 128 176 223 279 332 401
#
# _framework density 21.323619999999998
#
# number of rings (size 3 to 8) (size 9 to 14) (size 15 to 20)
#    0.000    1.000    5.000    0.750    5.250    1.500 
#    2.250    1.875    0.000    0.000    0.000    0.000 
#    0.000    0.000    0.000    0.000    0.000    0.000 
#
# Total GULP energy -198346.624742 kJ/mol
# GULP energy per Si atom -12396.664046 kJ/mol
# Density = 2.127509 g / cm^3
# Si number density = 21.323620 Si / 1000 Ang^3
#
#
#
# Elastic Constant Matrix: (Units=GPa)
#
#
# Indices 1 2 3 4 5 6 
#
# 1 103.7154 29.1097 40.5361 0.7687 11.7735 -3.8853
# 2 29.1097 110.2864 29.5008 3.2882 7.6740 -0.2781
# 3 40.5361 29.5008 92.5046 6.3791 10.4868 -1.1117
# 4 0.7687 3.2882 6.3791 40.3385 -2.3525 3.7084
# 5 11.7735 7.6740 10.4868 -2.3525 38.5444 -4.6242
# 6 -3.8853 -0.2781 -1.1117 3.7084 -4.6242 39.3062
#
#
#
# Elastic Compliance Matrix: (Units=1/GPa)
#
#
# Indices 1 2 3 4 5 6 
#
# 1 0.012196 -0.001877 -0.004541 0.000450 -0.001994 0.000787
# 2 -0.001877 0.010258 -0.002318 -0.000464 -0.000895 -0.000240
# 3 -0.004541 -0.002318 0.013914 -0.002034 -0.002076 -0.000124
# 4 0.000450 -0.000464 -0.002034 0.025449 0.001797 -0.002206
# 5 -0.001994 -0.000895 -0.002076 0.001797 0.027746 0.002832
# 6 0.000787 -0.000240 -0.000124 -0.002206 0.002832 0.026055
#
#
# Mechanical properties :
#
#
# Convention : Reuss Voigt Hill
#
# Bulk Modulus (GPa) = 52.92446 56.08885 54.50665
# Shear Modulus (GPa) = 35.87066 37.46179 36.66623
#
# Velocity S-wave (km/s) = 4.10592 4.19599 4.15120
# Velocity P-wave (km/s) = 6.88125 7.05945 6.97092
#
# Compressibility (1/GPa) = 0.01889485
#
# Stress axis : x y z
#
# Youngs Moduli (GPa) = 81.99402 97.48086 71.87110
#
# Poissons Ratio (x) = 0.18297 0.32639
# Poissons Ratio (y) = 0.15390 0.16663
# Poissons Ratio (z) = 0.37236 0.22600
#
# Static dielectric constant tensor:
#      x y z
#    x 5.207910 -2.151460 -0.602070 
#    y -2.151460 7.589780 1.102220 
#    z -0.602070 1.102220 4.092070 
# 
# 
# High freq. dielectric constant tensor:
#      x y z
#    x 1.837690 0.001240 0.007020 
#    y 0.001240 1.848000 -0.001560 
#    z 0.007020 -0.001560 1.839120 
# 
# From -- ./inp_files/314186.got.cif
#   From: 2010.06.25/outbox.cif.g09.slc.cpg/sg2_158_cif.got.tgz:314186.got - 2010.06.27 13:26:56.
