data_PCOD8015928
_publ_section_title
;
Structure prediction by ZEFSAII (Michael W. Deem and Ramdas Pophale) SiO2 
 PCOD8015928
Probable space group: P -1
;
_chemical_formula_sum "Si O2"
_cell_formula_units_Z 16
_cell_length_a 8.866567
_cell_length_b 12.508488
_cell_length_c 9.155646
_cell_angle_alpha 110.846698
_cell_angle_beta 90.610408
_cell_angle_gamma 122.766602
_cell_volume 770.805203
_symmetry_space_group_name_H-M "P -1"
_symmetry_group_IT_number 2
_symmetry_cell_setting 'triclinic'
loop_
_space_group_symop_operation_xyz
x,y,z
-x,-y,-z
loop_
_atom_site_type_symbol
_atom_site_label
_atom_site_fract_x
_atom_site_fract_y
_atom_site_fract_z
Si Si1 0.282415 0.431187 0.113522
Si Si2 0.662079 0.119893 0.660367
Si Si3 0.530672 0.130671 0.982946
Si Si4 0.303850 0.417555 0.781668
Si Si5 0.168451 0.128202 0.973351
Si Si6 0.012056 0.115061 0.653713
Si Si7 0.245613 0.603557 0.697243
Si Si8 0.180968 0.598690 0.374112
O O1 0.500648 0.557890 0.179708
O O2 0.183188 0.477513 0.237628
O O3 0.219956 0.422027 0.939836
O O4 0.227688 0.281402 0.101747
O O5 0.584116 0.126993 0.816857
O O6 0.814657 0.088075 0.667034
O O7 0.745945 0.269038 0.661599
O O8 0.500000 0.000000 0.500000
O O9 0.346017 0.124999 0.985448
O O10 0.700589 0.266814 0.135718
O O11 0.500000 0.000000 0.000000
O O12 0.350023 0.538768 0.728551
O O13 0.152646 0.262399 0.641791
O O14 0.103137 0.110310 0.799459
O O15 0.000000 0.000000 0.000000
O O16 0.000000 0.000000 0.500000
O O17 0.299485 0.651256 0.552148
O O18 0.032665 0.472822 0.633586
#
# Coordination Sequence:
#
# PCOD8015928 Si02
#       8
#     2   2   2   2   2   2   2   2
#     4  10  23  41  69  97 129 174 219 275 330 399
#     4  12  26  45  69 101 134 179 229 274 338 399
#     4  12  26  45  72  97 136 178 224 283 333 406
#     4  10  21  43  67  96 130 169 224 266 337 397
#     4  11  25  45  66  99 133 175 224 273 338 400
#     4  11  25  43  68  98 133 177 218 276 335 399
#     4  11  24  45  64  99 136 172 225 273 337 391
#     4  11  26  41  68  99 136 177 220 279 328 399
#
# _framework density 20.757515999999999
#
# number of rings (size 3 to 8) (size 9 to 14) (size 15 to 20)
#    0.000    1.000    2.500    3.000   10.500    2.500 
#    0.000    0.000    0.000    0.000    0.000    0.000 
#    0.000    0.000    0.000    0.000    0.000    0.000 
#
# Total GULP energy -198396.936224 kJ/mol
# GULP energy per Si atom -12399.808514 kJ/mol
# Density = 2.071027 g / cm^3
# Si number density = 20.757516 Si / 1000 Ang^3
#
#
#
# Elastic Constant Matrix: (Units=GPa)
#
#
# Indices 1 2 3 4 5 6 
#
# 1 90.4361 34.5355 31.8213 5.7045 -1.4259 -11.6559
# 2 34.5355 129.3257 53.4638 1.7202 0.4271 -10.1004
# 3 31.8213 53.4638 124.5013 9.5131 -1.7944 -8.6622
# 4 5.7045 1.7202 9.5131 41.9319 0.1665 3.4550
# 5 -1.4259 0.4271 -1.7944 0.1665 36.5353 2.2496
# 6 -11.6559 -10.1004 -8.6622 3.4550 2.2496 38.7407
#
#
#
# Elastic Compliance Matrix: (Units=1/GPa)
#
#
# Indices 1 2 3 4 5 6 
#
# 1 0.013176 -0.002441 -0.001993 -0.001488 0.000267 0.002999
# 2 -0.002441 0.009961 -0.003641 0.000668 -0.000456 0.001015
# 3 -0.001993 -0.003641 0.010327 -0.001999 0.000425 0.000914
# 4 -0.001488 0.000668 -0.001999 0.024718 -0.000097 -0.002920
# 5 0.000267 -0.000456 0.000425 -0.000097 0.027502 -0.001532
# 6 0.002999 0.001015 0.000914 -0.002920 -0.001532 0.027534
#
#
# Mechanical properties :
#
#
# Convention : Reuss Voigt Hill
#
# Bulk Modulus (GPa) = 57.75508 64.87826 61.31667
# Shear Modulus (GPa) = 36.99888 38.40441 37.70165
#
# Velocity S-wave (km/s) = 4.22647 4.30600 4.26642
# Velocity P-wave (km/s) = 7.19037 7.48634 7.33985
#
# Compressibility (1/GPa) = 0.01731449
#
# Stress axis : x y z
#
# Youngs Moduli (GPa) = 75.89691 100.38805 96.83114
#
# Poissons Ratio (x) = 0.24509 0.19298
# Poissons Ratio (y) = 0.18530 0.35252
# Poissons Ratio (z) = 0.15126 0.36547
#
# Static dielectric constant tensor:
#      x y z
#    x 6.403150 2.578320 -1.142520 
#    y 2.578320 6.736770 -1.212250 
#    z -1.142520 -1.212250 4.715440 
# 
# 
# High freq. dielectric constant tensor:
#      x y z
#    x 1.818310 -0.003100 0.011740 
#    y -0.003100 1.828710 0.006570 
#    z 0.011740 0.006570 1.815500 
# 
# From -- ./inp_files/190001.got.cif
#   From: 2010.06.25/outbox.cif.g09.slc.cpg/sg2_96_cif.got.tgz:190001.got - 2010.06.27 13:26:56.
