data_PCOD8015548
_publ_section_title
;
Structure prediction by ZEFSAII (Michael W. Deem and Ramdas Pophale) SiO2 
 PCOD8015548
Probable space group: P -1
;
_chemical_formula_sum "Si O2"
_cell_formula_units_Z 14
_cell_length_a 8.693891
_cell_length_b 20.033213
_cell_length_c 8.473533
_cell_angle_alpha 126.350926
_cell_angle_beta 53.093550
_cell_angle_gamma 153.405231
_cell_volume 521.847597
_symmetry_space_group_name_H-M "P -1"
_symmetry_group_IT_number 2
_symmetry_cell_setting 'triclinic'
loop_
_space_group_symop_operation_xyz
x,y,z
-x,-y,-z
loop_
_atom_site_type_symbol
_atom_site_label
_atom_site_fract_x
_atom_site_fract_y
_atom_site_fract_z
Si Si1 0.473818 0.008965 0.847279
Si Si2 0.800375 0.805873 0.787841
Si Si3 0.696729 0.465212 0.493579
Si Si4 0.264314 0.745150 0.134977
Si Si5 0.496900 0.452566 0.098971
Si Si6 0.702962 0.943264 0.416009
Si Si7 0.469012 0.689822 0.304996
O O1 0.704915 0.021242 0.640287
O O2 0.081152 0.868911 0.824209
O O3 0.663980 0.164960 0.924625
O O4 0.500000 0.000000 0.000000
O O5 0.597174 0.653448 0.626203
O O6 0.519389 0.758331 0.989612
O O7 0.970983 0.928875 0.725396
O O8 0.741410 0.577622 0.678465
O O9 0.542286 0.354070 0.576599
O O10 0.065597 0.567117 0.341096
O O11 0.346139 0.817881 0.354695
O O12 0.866516 0.575114 0.129713
O O13 0.500000 0.500000 0.000000
O O14 0.375400 0.315696 0.935084
O O15 0.714781 0.860462 0.390184
#
# Coordination Sequence:
#
# PCOD8015548 Si02
#       7
#     2   2   2   2   2   2   2
#     4  11  25  43  70 104 138 185 243 294 353 427
#     4  11  23  48  72 101 145 194 231 296 360 420
#     4  10  21  43  72  98 147 189 233 292 363 415
#     4  11  23  48  69 101 148 188 238 293 357 426
#     4  10  21  42  70  98 140 190 233 288 351 421
#     4  11  24  44  70 102 142 184 240 293 360 420
#     4  10  23  42  67 108 141 184 239 297 350 428
#
# _framework density 26.827756999999998
#
# number of rings (size 3 to 8) (size 9 to 14) (size 15 to 20)
#    0.000    1.429    1.429    5.143    2.000    1.143 
#   18.000    1.429    0.000    0.000    0.000    0.000 
#    0.000    0.000    0.000    0.000    0.000    0.000 
#
# Total GULP energy -173558.360182 kJ/mol
# GULP energy per Si atom -12397.025727 kJ/mol
# Density = 2.676670 g / cm^3
# Si number density = 26.827757 Si / 1000 Ang^3
#
#
#
# Elastic Constant Matrix: (Units=GPa)
#
#
# Indices 1 2 3 4 5 6 
#
# 1 89.4817 18.8279 33.3570 -7.9930 -16.9624 -13.2603
# 2 18.8279 51.2413 12.8026 4.9662 -2.3865 -7.6879
# 3 33.3570 12.8026 121.5302 13.9419 -17.0516 -1.7656
# 4 -7.9930 4.9662 13.9419 33.6337 -0.1399 -0.3310
# 5 -16.9624 -2.3865 -17.0516 -0.1399 37.2989 1.9334
# 6 -13.2603 -7.6879 -1.7656 -0.3310 1.9334 46.7139
#
#
#
# Elastic Compliance Matrix: (Units=1/GPa)
#
#
# Indices 1 2 3 4 5 6 
#
# 1 0.015484 -0.004610 -0.003711 0.005952 0.004899 0.003336
# 2 -0.004610 0.022076 -0.000725 -0.004037 -0.001151 0.002316
# 3 -0.003711 -0.000725 0.010311 -0.005046 0.003010 -0.000943
# 4 0.005952 -0.004037 -0.005046 0.033846 0.000213 0.001065
# 5 0.004899 -0.001151 0.003010 0.000213 0.030338 0.000061
# 6 0.003336 0.002316 -0.000943 0.001065 0.000061 0.022704
#
#
# Mechanical properties :
#
#
# Convention : Reuss Voigt Hill
#
# Bulk Modulus (GPa) = 33.58223 43.58088 38.58155
# Shear Modulus (GPa) = 30.71691 36.68033 33.69862
#
# Velocity S-wave (km/s) = 3.38741 3.70165 3.54801
# Velocity P-wave (km/s) = 5.27677 5.87789 5.58542
#
# Compressibility (1/GPa) = 0.02977766
#
# Stress axis : x y z
#
# Youngs Moduli (GPa) = 64.58426 45.29863 96.98575
#
# Poissons Ratio (x) = 0.20884 0.35993
# Poissons Ratio (y) = 0.29775 0.07030
# Poissons Ratio (z) = 0.23968 0.03284
#
# Static dielectric constant tensor:
#      x y z
#    x 5.008970 -0.130450 -0.128970 
#    y -0.130450 4.864420 0.288060 
#    z -0.128970 0.288060 5.286760 
# 
# 
# High freq. dielectric constant tensor:
#      x y z
#    x 2.090200 -0.005400 0.003680 
#    y -0.005400 2.070600 0.005900 
#    z 0.003680 0.005900 2.087400 
# 
# From -- ./inp_files/224000.got.cif
#   From: 2010.06.25/outbox.cif.g09.slc.cpg/sg2_112_cif.got.tgz:224000.got - 2010.06.27 13:26:56.
