data_PCOD8015954
_publ_section_title
;
Structure prediction by ZEFSAII (Michael W. Deem and Ramdas Pophale) SiO2 
 PCOD8015954
Probable space group: P -1
;
_chemical_formula_sum "Si O2"
_cell_formula_units_Z 16
_cell_length_a 13.607639
_cell_length_b 14.114663
_cell_length_c 8.963751
_cell_angle_alpha 42.196879
_cell_angle_beta 137.052847
_cell_angle_gamma 140.429805
_cell_volume 682.574495
_symmetry_space_group_name_H-M "P -1"
_symmetry_group_IT_number 2
_symmetry_cell_setting 'triclinic'
loop_
_space_group_symop_operation_xyz
x,y,z
-x,-y,-z
loop_
_atom_site_type_symbol
_atom_site_label
_atom_site_fract_x
_atom_site_fract_y
_atom_site_fract_z
Si Si1 0.144255 0.476992 0.265532
Si Si2 0.144104 0.981886 0.250876
Si Si3 0.669895 0.136451 0.594961
Si Si4 0.270127 0.522284 0.670485
Si Si5 0.516376 0.663500 0.387171
Si Si6 0.637684 0.006485 0.036238
Si Si7 0.362558 0.321526 0.187177
Si Si8 0.034060 0.876968 0.586109
O O1 0.133265 0.465333 0.450767
O O2 0.328805 0.626019 0.261237
O O3 0.123227 0.307038 0.376453
O O4 0.000000 0.500000 0.000000
O O5 0.177629 0.862462 0.324440
O O6 0.086918 0.924741 0.419983
O O7 0.313781 0.156891 0.234782
O O8 0.000000 0.000000 0.000000
O O9 0.706627 0.319432 0.402937
O O10 0.500000 0.000000 0.500000
O O11 0.651886 0.095236 0.795818
O O12 0.443025 0.547362 0.766489
O O13 0.236376 0.386919 0.919262
O O14 0.500000 0.500000 0.500000
O O15 0.597058 0.819337 0.183329
O O16 0.651768 0.722293 0.602690
O O17 0.813536 0.127179 0.163252
O O18 0.500000 0.000000 0.000000
O O19 0.000000 0.000000 0.500000
#
# Coordination Sequence:
#
# PCOD8015954 Si02
#       8
#     2   2   2   2   2   2   2   2
#     4  11  24  44  68 102 141 182 231 293 358 417
#     4  12  25  44  69 104 141 184 236 292 359 424
#     4  12  25  43  70 106 140 187 239 291 355 422
#     4  10  22  43  69  98 143 185 230 288 354 424
#     4  11  24  42  69 102 134 182 239 286 347 419
#     4  12  24  44  72 103 138 181 235 290 347 421
#     4  10  21  43  67  99 139 184 234 286 346 426
#     4  12  25  46  70 100 139 185 234 290 351 419
#
# _framework density 23.440664000000002
#
# number of rings (size 3 to 8) (size 9 to 14) (size 15 to 20)
#    0.000    0.750    2.500    6.000    1.750    1.000 
#    0.000    1.250    0.000    0.000    0.000    0.000 
#    0.000    0.000    0.000    0.000    0.000    0.000 
#
# Total GULP energy -198276.899656 kJ/mol
# GULP energy per Si atom -12392.306229 kJ/mol
# Density = 2.338731 g / cm^3
# Si number density = 23.440664 Si / 1000 Ang^3
#
#
#
# Elastic Constant Matrix: (Units=GPa)
#
#
# Indices 1 2 3 4 5 6 
#
# 1 100.3220 4.4184 28.6011 2.4075 -1.2979 -21.2863
# 2 4.4184 114.1556 25.8057 -1.6428 3.4934 -18.6355
# 3 28.6011 25.8057 139.7235 17.7886 0.2903 -10.1923
# 4 2.4075 -1.6428 17.7886 54.1616 -3.4916 6.4004
# 5 -1.2979 3.4934 0.2903 -3.4916 30.2788 -7.8192
# 6 -21.2863 -18.6355 -10.1923 6.4004 -7.8192 39.9566
#
#
#
# Elastic Compliance Matrix: (Units=1/GPa)
#
#
# Indices 1 2 3 4 5 6 
#
# 1 0.012012 0.001055 -0.002097 -0.000486 0.002126 0.006850
# 2 0.001055 0.009879 -0.001732 0.000275 0.000172 0.004718
# 3 -0.002097 -0.001732 0.008303 -0.002767 -0.000131 0.000611
# 4 -0.000486 0.000275 -0.002767 0.019932 0.001297 -0.003775
# 5 0.002126 0.000172 -0.000131 0.001297 0.035282 0.007876
# 6 0.006850 0.004718 0.000611 -0.003775 0.007876 0.033179
#
#
# Mechanical properties :
#
#
# Convention : Reuss Voigt Hill
#
# Bulk Modulus (GPa) = 40.57117 52.42796 46.49956
# Shear Modulus (GPa) = 37.77864 44.57113 41.17488
#
# Velocity S-wave (km/s) = 4.01892 4.36529 4.19568
# Velocity P-wave (km/s) = 6.23548 6.91538 6.58421
#
# Compressibility (1/GPa) = 0.02464804
#
# Stress axis : x y z
#
# Youngs Moduli (GPa) = 83.25132 101.21982 120.43641
#
# Poissons Ratio (x) = -0.10681 0.25250
# Poissons Ratio (y) = -0.08785 0.20859
# Poissons Ratio (z) = 0.17454 0.17530
#
# Static dielectric constant tensor:
#      x y z
#    x 3.934120 0.115710 0.080810 
#    y 0.115710 4.759480 -0.109330 
#    z 0.080810 -0.109330 4.476780 
# 
# 
# High freq. dielectric constant tensor:
#      x y z
#    x 1.902310 -0.006310 0.002990 
#    y -0.006310 1.948720 0.002310 
#    z 0.002990 0.002310 1.944260 
# 
# From -- ./inp_files/314510.got.cif
#   From: 2010.06.25/outbox.cif.g09.slc.cpg/sg2_158_cif.got.tgz:314510.got - 2010.06.27 13:26:56.
