data_PCOD8015971
_publ_section_title
;
Structure prediction by ZEFSAII (Michael W. Deem and Ramdas Pophale) SiO2 
 PCOD8015971
Probable space group: P -1
;
_chemical_formula_sum "Si O2"
_cell_formula_units_Z 16
_cell_length_a 19.114042
_cell_length_b 5.190989
_cell_length_c 17.416641
_cell_angle_alpha 59.508495
_cell_angle_beta 152.177655
_cell_angle_gamma 110.642657
_cell_volume 674.831116
_symmetry_space_group_name_H-M "P -1"
_symmetry_group_IT_number 2
_symmetry_cell_setting 'triclinic'
loop_
_space_group_symop_operation_xyz
x,y,z
-x,-y,-z
loop_
_atom_site_type_symbol
_atom_site_label
_atom_site_fract_x
_atom_site_fract_y
_atom_site_fract_z
Si Si1 0.352332 0.246208 0.912563
Si Si2 0.657403 0.389649 0.948485
Si Si3 0.119214 0.101094 0.331987
Si Si4 0.948679 0.357752 0.395752
Si Si5 0.638750 0.791709 0.563202
Si Si6 0.444412 0.433872 0.333491
Si Si7 0.384015 0.652894 0.748819
Si Si8 0.957975 0.605895 0.213503
O O1 0.238716 0.522310 0.808384
O O2 0.350769 0.351472 0.805561
O O3 0.285641 0.940897 0.903411
O O4 0.523959 0.184794 0.124541
O O5 0.778101 0.603657 0.041527
O O6 0.643487 0.333285 0.852046
O O7 0.489395 0.557785 0.791051
O O8 0.229769 0.887953 0.534291
O O9 0.985330 0.948086 0.192018
O O10 0.205084 0.162214 0.329121
O O11 0.042108 0.420880 0.250033
O O12 0.032432 0.454529 0.388188
O O13 0.000000 0.500000 0.500000
O O14 0.000000 0.000000 0.500000
O O15 0.576261 0.575706 0.476117
O O16 0.672296 0.619708 0.704353
O O17 0.515548 0.112667 0.408026
#
# Coordination Sequence:
#
# PCOD8015971 Si02
#       8
#     2   2   2   2   2   2   2   2
#     4  11  24  41  65  98 131 176 230 288 324 395
#     4  12  24  44  67  97 136 180 224 282 336 404
#     4  12  25  45  67 100 136 179 222 280 338 397
#     4  12  24  44  64  90 134 182 227 274 333 396
#     4  10  21  43  68 107 134 167 223 283 329 410
#     4  10  22  40  75 102 132 173 221 276 346 391
#     4  11  24  41  68  94 133 174 231 282 336 387
#     4  12  27  42  65  96 138 180 224 273 340 409
#
# _framework density 23.709634999999999
#
# number of rings (size 3 to 8) (size 9 to 14) (size 15 to 20)
#    0.000    0.750    2.500    5.625    1.750    0.000 
#    0.000    1.250    0.000    0.000    0.000    0.000 
#    0.000    0.000    0.000    0.000    0.000    0.000 
#
# Total GULP energy -198366.357594 kJ/mol
# GULP energy per Si atom -12397.897350 kJ/mol
# Density = 2.365567 g / cm^3
# Si number density = 23.709635 Si / 1000 Ang^3
#
#
#
# Elastic Constant Matrix: (Units=GPa)
#
#
# Indices 1 2 3 4 5 6 
#
# 1 158.4081 33.8843 18.0458 16.2320 -10.2945 13.0694
# 2 33.8843 93.8107 8.0439 11.6096 -0.7269 -0.0575
# 3 18.0458 8.0439 44.1130 6.0729 3.6990 -0.1826
# 4 16.2320 11.6096 6.0729 19.8073 0.6231 6.2408
# 5 -10.2945 -0.7269 3.6990 0.6231 31.7012 -0.4338
# 6 13.0694 -0.0575 -0.1826 6.2408 -0.4338 45.3341
#
#
#
# Elastic Compliance Matrix: (Units=1/GPa)
#
#
# Indices 1 2 3 4 5 6 
#
# 1 0.007769 -0.002084 -0.002500 -0.003937 0.002821 -0.001683
# 2 -0.002084 0.012163 -0.000561 -0.005683 -0.000202 0.001394
# 3 -0.002500 -0.000561 0.024877 -0.005629 -0.003595 0.001561
# 4 -0.003937 -0.005683 -0.005629 0.061144 -0.002054 -0.007332
# 5 0.002821 -0.000202 -0.003595 -0.002054 0.032913 -0.000230
# 6 -0.001683 0.001394 0.001561 -0.007332 -0.000230 0.023559
#
#
# Mechanical properties :
#
#
# Convention : Reuss Voigt Hill
#
# Bulk Modulus (GPa) = 28.96804 46.25332 37.61068
# Shear Modulus (GPa) = 27.14157 35.12569 31.13363
#
# Velocity S-wave (km/s) = 3.38708 3.85319 3.62763
# Velocity P-wave (km/s) = 5.24793 6.27270 5.78306
#
# Compressibility (1/GPa) = 0.03452081
#
# Stress axis : x y z
#
# Youngs Moduli (GPa) = 128.71725 82.21648 40.19836
#
# Poissons Ratio (x) = 0.17132 0.10048
# Poissons Ratio (y) = 0.26821 0.02253
# Poissons Ratio (z) = 0.32175 0.04608
#
# Static dielectric constant tensor:
#      x y z
#    x 4.692710 0.244090 -0.029610 
#    y 0.244090 4.299990 0.210350 
#    z -0.029610 0.210350 4.223570 
# 
# 
# High freq. dielectric constant tensor:
#      x y z
#    x 1.961660 0.000760 -0.001510 
#    y 0.000760 1.942220 0.010750 
#    z -0.001510 0.010750 1.909490 
# 
# From -- ./inp_files/574772.got.cif
#   From: 2010.06.25/outbox.cif.g09.slc.cpg/sg2_288_cif.got.tgz:574772.got - 2010.06.27 13:26:56.
