data_PCOD8015048
_publ_section_title
;
Structure prediction by ZEFSAII (Michael W. Deem and Ramdas Pophale) SiO2 
 PCOD8015048
Probable space group: P -1
;
_chemical_formula_sum "Si O2"
_cell_formula_units_Z 16
_cell_length_a 14.425391
_cell_length_b 14.655852
_cell_length_c 14.752886
_cell_angle_alpha 33.306461
_cell_angle_beta 30.910177
_cell_angle_gamma 30.445666
_cell_volume 754.546127
_symmetry_space_group_name_H-M "P -1"
_symmetry_group_IT_number 2
_symmetry_cell_setting 'triclinic'
loop_
_space_group_symop_operation_xyz
x,y,z
-x,-y,-z
loop_
_atom_site_type_symbol
_atom_site_label
_atom_site_fract_x
_atom_site_fract_y
_atom_site_fract_z
Si Si1 0.965090 0.712441 0.354311
Si Si2 0.163477 0.030275 0.395368
Si Si3 0.405467 0.023469 0.659770
Si Si4 0.411395 0.651229 0.027946
Si Si5 0.224301 0.989019 0.579577
Si Si6 0.459818 0.378933 0.561501
Si Si7 0.322599 0.591146 0.827218
Si Si8 0.984630 0.542434 0.872485
O O1 0.169779 0.724975 0.176923
O O2 0.000000 0.500000 0.500000
O O3 0.840773 0.815846 0.279742
O O4 0.847621 0.826174 0.449568
O O5 0.153217 0.225279 0.211962
O O6 0.100588 0.053056 0.535391
O O7 0.400156 0.846948 0.338667
O O8 0.000000 0.000000 0.500000
O O9 0.500000 0.000000 0.500000
O O10 0.521695 0.095462 0.572100
O O11 0.442457 0.825895 0.832690
O O12 0.523252 0.562498 0.102322
O O13 0.500000 0.500000 0.000000
O O14 0.205236 0.811107 0.783761
O O15 0.500000 0.500000 0.500000
O O16 0.539928 0.415035 0.369042
O O17 0.212534 0.449722 0.709908
O O18 0.140599 0.547523 0.993767
O O19 0.000000 0.500000 0.000000
#
# Coordination Sequence:
#
# PCOD8015048 Si02
#       8
#     2   2   2   2   2   2   2   2
#     4  11  23  41  71  99 129 182 229 288 359 418
#     4  11  23  42  71 103 143 189 230 290 355 420
#     4  10  21  42  65  90 129 172 221 282 344 412
#     4  12  24  42  65  99 135 174 227 289 351 424
#     4  10  22  45  66  97 138 175 230 290 349 424
#     4  11  23  47  73 102 143 193 236 296 364 418
#     4  11  25  46  69 103 141 182 237 298 351 430
#     4  12  24  45  72 104 144 187 243 297 357 427
#
# _framework density 21.204799000000001
#
# number of rings (size 3 to 8) (size 9 to 14) (size 15 to 20)
#    0.000    1.000    2.500    5.625    1.750    0.500 
#   11.250    0.000    0.000    0.000    0.000    0.000 
#    0.000    0.000    0.000    0.000    0.000    0.000 
#
# Total GULP energy -198315.684028 kJ/mol
# GULP energy per Si atom -12394.730252 kJ/mol
# Density = 2.115654 g / cm^3
# Si number density = 21.204799 Si / 1000 Ang^3
#
#
#
# Elastic Constant Matrix: (Units=GPa)
#
#
# Indices 1 2 3 4 5 6 
#
# 1 160.2904 56.7498 67.5780 -9.2907 -16.2852 -20.1288
# 2 56.7498 133.6758 64.1751 -27.2908 -1.7366 -8.0431
# 3 67.5780 64.1751 145.9631 -24.4301 -14.4960 -14.1818
# 4 -9.2907 -27.2908 -24.4301 53.8993 -3.9158 -3.1764
# 5 -16.2852 -1.7366 -14.4960 -3.9158 48.1296 -5.2712
# 6 -20.1288 -8.0431 -14.1818 -3.1764 -5.2712 39.5205
#
#
#
# Elastic Compliance Matrix: (Units=1/GPa)
#
#
# Indices 1 2 3 4 5 6 
#
# 1 0.008795 -0.002377 -0.002531 -0.000457 0.002461 0.003379
# 2 -0.002377 0.010689 -0.003120 0.003509 -0.001075 -0.000016
# 3 -0.002531 -0.003120 0.010402 0.003035 0.002675 0.002410
# 4 -0.000457 0.003509 0.003035 0.022073 0.003094 0.003758
# 5 0.002461 -0.001075 0.002675 0.003094 0.023213 0.005339
# 6 0.003379 -0.000016 0.002410 0.003758 0.005339 0.028900
#
#
# Mechanical properties :
#
#
# Convention : Reuss Voigt Hill
#
# Bulk Modulus (GPa) = 72.29931 90.77056 81.53493
# Shear Modulus (GPa) = 40.08375 45.07164 42.57769
#
# Velocity S-wave (km/s) = 4.35249 4.61536 4.48585
# Velocity P-wave (km/s) = 7.70900 8.44403 8.08487
#
# Compressibility (1/GPa) = 0.01383139
#
# Stress axis : x y z
#
# Youngs Moduli (GPa) = 113.70138 93.55147 96.13243
#
# Poissons Ratio (x) = 0.22235 0.24327
# Poissons Ratio (y) = 0.27024 0.29996
# Poissons Ratio (z) = 0.28773 0.29190
#
# Static dielectric constant tensor:
#      x y z
#    x 4.303710 -0.217380 -0.242390 
#    y -0.217380 4.196230 -0.027820 
#    z -0.242390 -0.027820 4.048180 
# 
# 
# High freq. dielectric constant tensor:
#      x y z
#    x 1.856090 -0.009020 -0.011970 
#    y -0.009020 1.835720 -0.017590 
#    z -0.011970 -0.017590 1.831140 
# 
# From -- ./inp_files/534053.got.cif
#   From: 2010.06.25/outbox.cif.g09.slc.cpg/sg2_268_cif.got.tgz:534053.got - 2010.06.27 13:26:56.
