data_PCOD8015952
_publ_section_title
;
Structure prediction by ZEFSAII (Michael W. Deem and Ramdas Pophale) SiO2 
 PCOD8015952
Probable space group: P -1
;
_chemical_formula_sum "Si O2"
_cell_formula_units_Z 16
_cell_length_a 9.499584
_cell_length_b 13.744308
_cell_length_c 9.597098
_cell_angle_alpha 97.335411
_cell_angle_beta 133.582272
_cell_angle_gamma 108.648384
_cell_volume 741.201962
_symmetry_space_group_name_H-M "P -1"
_symmetry_group_IT_number 2
_symmetry_cell_setting 'triclinic'
loop_
_space_group_symop_operation_xyz
x,y,z
-x,-y,-z
loop_
_atom_site_type_symbol
_atom_site_label
_atom_site_fract_x
_atom_site_fract_y
_atom_site_fract_z
Si Si1 0.999704 0.170015 0.651773
Si Si2 0.419059 0.832490 0.536745
Si Si3 0.678417 0.535085 0.502544
Si Si4 0.353299 0.416559 0.009501
Si Si5 0.921999 0.796393 0.597596
Si Si6 0.606206 0.018885 0.923270
Si Si7 0.074342 0.563535 0.211657
Si Si8 0.317972 0.078638 0.545567
O O1 0.950776 0.188339 0.461022
O O2 0.813539 0.167648 0.628633
O O3 0.260618 0.280043 0.889307
O O4 0.946427 0.040370 0.621754
O O5 0.325407 0.694468 0.418793
O O6 0.602731 0.915404 0.557964
O O7 0.544226 0.896589 0.782686
O O8 0.500000 0.500000 0.500000
O O9 0.516454 0.444980 0.256197
O O10 0.800063 0.667985 0.557298
O O11 0.888497 0.520037 0.679610
O O12 0.500000 0.500000 0.000000
O O13 0.137397 0.429593 0.880713
O O14 0.712142 0.814394 0.427136
O O15 0.110619 0.890657 0.855603
O O16 0.508845 0.082609 0.777402
O O17 0.500000 0.000000 0.000000
O O18 0.000000 0.500000 0.000000
#
# Coordination Sequence:
#
# PCOD8015952 Si02
#       8
#     2   2   2   2   2   2   2   2
#     4  10  21  43  67  99 137 172 222 277 334 405
#     4  10  23  44  68 101 134 173 225 276 340 400
#     4  12  26  44  68 102 134 181 234 276 339 410
#     4  11  24  45  69  99 139 175 225 289 334 395
#     4  12  25  42  69 101 134 176 230 269 335 411
#     4  11  23  42  69  98 139 174 217 279 339 396
#     4  11  25  46  72  99 136 182 229 281 343 401
#     4  11  24  42  70  98 134 176 220 278 339 395
#
# _framework density 21.586559999999999
#
# number of rings (size 3 to 8) (size 9 to 14) (size 15 to 20)
#    0.000    1.000    5.000    2.625    1.750    3.000 
#    0.000    0.000    0.000    0.000    0.000    0.000 
#    0.000    0.000    0.000    0.000    0.000    0.000 
#
# Total GULP energy -198244.920337 kJ/mol
# GULP energy per Si atom -12390.307521 kJ/mol
# Density = 2.153743 g / cm^3
# Si number density = 21.586560 Si / 1000 Ang^3
#
#
#
# Elastic Constant Matrix: (Units=GPa)
#
#
# Indices 1 2 3 4 5 6 
#
# 1 90.4220 45.8767 36.0199 -4.3964 -14.1198 19.3765
# 2 45.8767 154.3766 62.1172 7.8008 -8.8241 11.1301
# 3 36.0199 62.1172 160.5844 15.8636 -21.5095 1.6679
# 4 -4.3964 7.8008 15.8636 45.0475 -4.4082 6.1906
# 5 -14.1198 -8.8241 -21.5095 -4.4082 35.7668 -6.0302
# 6 19.3765 11.1301 1.6679 6.1906 -6.0302 41.7779
#
#
#
# Elastic Compliance Matrix: (Units=1/GPa)
#
#
# Indices 1 2 3 4 5 6 
#
# 1 0.015727 -0.003377 -0.002083 0.004080 0.003546 -0.006404
# 2 -0.003377 0.008557 -0.002589 -0.000912 -0.000996 -0.000619
# 3 -0.002083 -0.002589 0.008426 -0.002673 0.003655 0.002243
# 4 0.004080 -0.000912 -0.002673 0.024563 0.001980 -0.004897
# 5 0.003546 -0.000996 0.003655 0.001980 0.032028 0.002804
# 6 -0.006404 -0.000619 0.002243 -0.004897 0.002804 0.028112
#
#
# Mechanical properties :
#
#
# Convention : Reuss Voigt Hill
#
# Bulk Modulus (GPa) = 60.20013 77.04563 68.62288
# Shear Modulus (GPa) = 35.95858 41.94306 38.95082
#
# Velocity S-wave (km/s) = 4.08583 4.41275 4.25243
# Velocity P-wave (km/s) = 7.08569 7.85698 7.48128
#
# Compressibility (1/GPa) = 0.01661126
#
# Stress axis : x y z
#
# Youngs Moduli (GPa) = 63.58543 116.86397 118.67493
#
# Poissons Ratio (x) = 0.39469 0.24717
# Poissons Ratio (y) = 0.21475 0.30729
# Poissons Ratio (z) = 0.13244 0.30260
#
# Static dielectric constant tensor:
#      x y z
#    x 3.368590 0.492550 -0.026300 
#    y 0.492550 3.808290 0.235580 
#    z -0.026300 0.235580 4.218750 
# 
# 
# High freq. dielectric constant tensor:
#      x y z
#    x 1.851350 0.008210 -0.008520 
#    y 0.008210 1.850870 0.015110 
#    z -0.008520 0.015110 1.850840 
# 
# From -- ./inp_files/208062.got.cif
#   From: 2010.06.25/outbox.cif.g09.slc.cpg/sg2_105_cif.got.tgz:208062.got - 2010.06.27 13:26:56.
