data_PCOD8015448
_publ_section_title
;
Structure prediction by ZEFSAII (Michael W. Deem and Ramdas Pophale) SiO2 
 PCOD8015448
Probable space group: P -1
;
_chemical_formula_sum "Si O2"
_cell_formula_units_Z 14
_cell_length_a 5.751381
_cell_length_b 24.384020
_cell_length_c 14.906845
_cell_angle_alpha 17.601276
_cell_angle_beta 65.848978
_cell_angle_gamma 68.375574
_cell_volume 575.085509
_symmetry_space_group_name_H-M "P -1"
_symmetry_group_IT_number 2
_symmetry_cell_setting 'triclinic'
loop_
_space_group_symop_operation_xyz
x,y,z
-x,-y,-z
loop_
_atom_site_type_symbol
_atom_site_label
_atom_site_fract_x
_atom_site_fract_y
_atom_site_fract_z
Si Si1 0.690848 0.462752 0.609442
Si Si2 0.253301 0.113323 0.751842
Si Si3 0.518494 0.594351 0.613264
Si Si4 0.036052 0.660443 0.674684
Si Si5 0.721893 0.050178 0.682159
Si Si6 0.805429 0.096524 0.229691
Si Si7 0.612398 0.206919 0.268019
O O1 0.500000 0.500000 0.500000
O O2 0.594601 0.586318 0.510896
O O3 0.000000 0.500000 0.500000
O O4 0.641753 0.247404 0.973363
O O5 0.363919 0.212998 0.667592
O O6 0.442108 0.982396 0.873087
O O7 0.215721 0.274897 0.433785
O O8 0.000000 0.000000 0.000000
O O9 0.213921 0.597374 0.664382
O O10 0.604944 0.422340 0.923350
O O11 0.160536 0.834268 0.434954
O O12 0.000000 0.500000 0.000000
O O13 0.712797 0.174745 0.401298
O O14 0.903362 0.889687 0.877146
O O15 0.809006 0.132923 0.279298
O O16 0.668223 0.897850 0.539191
#
# Coordination Sequence:
#
# PCOD8015448 Si02
#       7
#     2   2   2   2   2   2   2
#     4  11  28  49  73 108 147 200 249 299 373 444
#     4  11  26  44  67 101 144 191 243 300 368 438
#     4  10  24  45  72 100 142 188 242 305 366 442
#     4  11  23  42  69 100 137 183 237 300 367 433
#     4  11  22  39  67 101 137 181 234 296 363 435
#     4  10  23  42  69 103 140 182 238 305 364 443
#     4  10  21  42  69 105 135 179 238 302 379 430
#
# _framework density 24.344204000000001
#
# number of rings (size 3 to 8) (size 9 to 14) (size 15 to 20)
#    0.000    1.429    0.000    3.857    4.000    8.000 
#    5.143    0.000    0.000    0.000    0.000    0.000 
#    0.000    0.000    0.000    0.000    0.000    0.000 
#
# Total GULP energy -173504.068219 kJ/mol
# GULP energy per Si atom -12393.147730 kJ/mol
# Density = 2.428880 g / cm^3
# Si number density = 24.344204 Si / 1000 Ang^3
#
#
#
# Elastic Constant Matrix: (Units=GPa)
#
#
# Indices 1 2 3 4 5 6 
#
# 1 102.1739 74.9372 18.4297 8.4058 10.1426 -17.2077
# 2 74.9372 208.9692 32.7307 5.4709 6.0869 -31.2398
# 3 18.4297 32.7307 65.3700 4.3807 -3.1145 -8.8332
# 4 8.4058 5.4709 4.3807 33.4560 -0.4434 2.5336
# 5 10.1426 6.0869 -3.1145 -0.4434 34.6086 8.1985
# 6 -17.2077 -31.2398 -8.8332 2.5336 8.1985 49.3061
#
#
#
# Elastic Compliance Matrix: (Units=1/GPa)
#
#
# Indices 1 2 3 4 5 6 
#
# 1 0.014359 -0.004273 -0.001522 -0.002987 -0.004320 0.002903
# 2 -0.004273 0.007070 -0.001998 -0.000042 -0.000828 0.002770
# 3 -0.001522 -0.001998 0.017066 -0.001573 0.002077 0.000996
# 4 -0.002987 -0.000042 -0.001573 0.031126 0.001914 -0.003268
# 5 -0.004320 -0.000828 0.002077 0.001914 0.032202 -0.007113
# 6 0.002903 0.002770 0.000996 -0.003268 -0.007113 0.024579
#
#
# Mechanical properties :
#
#
# Convention : Reuss Voigt Hill
#
# Bulk Modulus (GPa) = 43.64982 69.85647 56.75315
# Shear Modulus (GPa) = 33.41715 40.16851 36.79283
#
# Velocity S-wave (km/s) = 3.70901 4.06645 3.89184
# Velocity P-wave (km/s) = 6.02590 7.12781 6.59989
#
# Compressibility (1/GPa) = 0.02290960
#
# Stress axis : x y z
#
# Youngs Moduli (GPa) = 69.64262 141.44642 58.59657
#
# Poissons Ratio (x) = 0.60437 0.08920
# Poissons Ratio (y) = 0.29757 0.11705
# Poissons Ratio (z) = 0.10601 0.28255
#
# Static dielectric constant tensor:
#      x y z
#    x 4.422190 -0.237700 0.107480 
#    y -0.237700 4.803350 -0.055810 
#    z 0.107480 -0.055810 4.371760 
# 
# 
# High freq. dielectric constant tensor:
#      x y z
#    x 1.956940 -0.007220 0.010930 
#    y -0.007220 1.992690 -0.000100 
#    z 0.010930 -0.000100 1.963510 
# 
# From -- ./inp_files/68232.got.cif
#   From: 2010.06.25/outbox.cif.g09.slc.cpg/sg2_35_cif.got.tgz:68232.got - 2010.06.27 13:26:56.
