data_PCOD8015347
_publ_section_title
;
Structure prediction by ZEFSAII (Michael W. Deem and Ramdas Pophale) SiO2 
 PCOD8015347
Probable space group: P -1
;
_chemical_formula_sum "Si O2"
_cell_formula_units_Z 16
_cell_length_a 11.643094
_cell_length_b 11.679015
_cell_length_c 8.933506
_cell_angle_alpha 90.024746
_cell_angle_beta 141.958402
_cell_angle_gamma 86.774612
_cell_volume 745.497159
_symmetry_space_group_name_H-M "P -1"
_symmetry_group_IT_number 2
_symmetry_cell_setting 'triclinic'
loop_
_space_group_symop_operation_xyz
x,y,z
-x,-y,-z
loop_
_atom_site_type_symbol
_atom_site_label
_atom_site_fract_x
_atom_site_fract_y
_atom_site_fract_z
Si Si1 0.580862 0.491399 0.416070
Si Si2 0.675785 0.677409 0.994854
Si Si3 0.672092 0.713113 0.338348
Si Si4 0.353013 0.855722 0.549115
Si Si5 0.507488 0.952487 0.169510
Si Si6 0.934113 0.314152 0.772519
Si Si7 0.916936 0.829979 0.815276
Si Si8 0.243776 0.977300 0.157138
O O1 0.500000 0.500000 0.500000
O O2 0.434118 0.431567 0.162534
O O3 0.599247 0.616511 0.368327
O O4 0.789709 0.427829 0.628643
O O5 0.547173 0.790329 0.808878
O O6 0.715395 0.671879 0.213809
O O7 0.880969 0.666541 0.131487
O O8 0.508115 0.815869 0.166715
O O9 0.843474 0.773625 0.588965
O O10 0.175832 0.787782 0.413094
O O11 0.361080 0.878189 0.377742
O O12 0.316765 0.985379 0.580713
O O13 0.334980 0.001158 0.093103
O O14 0.500000 0.000000 0.000000
O O15 0.986117 0.279767 0.995748
O O16 0.765343 0.897878 0.770318
O O17 0.048310 0.930360 0.912276
#
# Coordination Sequence:
#
# PCOD8015347 Si02
#       8
#     2   2   2   2   2   2   2   2
#     4  11  27  48  74  99 128 177 236 283 332 398
#     4  11  24  46  70  99 139 175 224 282 344 398
#     4  12  26  42  67 101 137 180 222 275 345 405
#     4  10  21  42  68 101 134 181 224 273 332 401
#     4  12  24  39  63 101 142 177 216 272 342 409
#     4  10  24  44  71  97 132 175 225 288 332 389
#     4  10  22  40  66  99 132 175 230 276 328 396
#     4  10  22  40  66  97 136 182 226 272 325 398
#
# _framework density 21.462188999999999
#
# number of rings (size 3 to 8) (size 9 to 14) (size 15 to 20)
#    0.000    1.250    2.500    2.250    7.000    3.500 
#    0.000    1.250    0.000    0.000    0.000    0.000 
#    0.000    0.000    0.000    0.000    0.000    0.000 
#
# Total GULP energy -198219.450718 kJ/mol
# GULP energy per Si atom -12388.715670 kJ/mol
# Density = 2.141334 g / cm^3
# Si number density = 21.462189 Si / 1000 Ang^3
#
#
#
# Elastic Constant Matrix: (Units=GPa)
#
#
# Indices 1 2 3 4 5 6 
#
# 1 111.2711 48.4620 83.9654 -1.9983 -12.5222 2.6947
# 2 48.4620 142.4809 49.8254 5.6314 -4.3127 8.9790
# 3 83.9654 49.8254 120.7917 13.4494 -8.6162 -2.7358
# 4 -1.9983 5.6314 13.4494 39.4442 -4.1410 -5.8834
# 5 -12.5222 -4.3127 -8.6162 -4.1410 37.7272 0.8536
# 6 2.6947 8.9790 -2.7358 -5.8834 0.8536 28.4940
#
#
#
# Elastic Compliance Matrix: (Units=1/GPa)
#
#
# Indices 1 2 3 4 5 6 
#
# 1 0.021586 -0.002303 -0.014514 0.006607 0.004345 -0.001475
# 2 -0.002303 0.008706 -0.001947 -0.001164 -0.000275 -0.002945
# 3 -0.014514 -0.001947 0.019914 -0.007015 -0.001318 0.002489
# 4 0.006607 -0.001164 -0.007015 0.029369 0.003568 0.005026
# 5 0.004345 -0.000275 -0.001318 0.003568 0.028020 -0.000554
# 6 -0.001475 -0.002945 0.002489 0.005026 -0.000554 0.037456
#
#
# Mechanical properties :
#
#
# Convention : Reuss Voigt Hill
#
# Bulk Modulus (GPa) = 78.87688 82.11660 80.49674
# Shear Modulus (GPa) = 26.76590 33.95246 30.35918
#
# Velocity S-wave (km/s) = 3.53529 3.98171 3.76512
# Velocity P-wave (km/s) = 7.31407 7.71251 7.51593
#
# Compressibility (1/GPa) = 0.01267799
#
# Stress axis : x y z
#
# Youngs Moduli (GPa) = 46.32676 114.86460 50.21545
#
# Poissons Ratio (x) = 0.26455 0.72883
# Poissons Ratio (y) = 0.10670 0.09776
# Poissons Ratio (z) = 0.67239 0.22362
#
# Static dielectric constant tensor:
#      x y z
#    x 3.678870 0.070660 0.024270 
#    y 0.070660 4.080630 -0.053520 
#    z 0.024270 -0.053520 4.210200 
# 
# 
# High freq. dielectric constant tensor:
#      x y z
#    x 1.825930 0.012350 -0.003350 
#    y 0.012350 1.857090 0.005050 
#    z -0.003350 0.005050 1.850830 
# 
# From -- ./inp_files/258719.got.cif
#   From: 2010.06.25/outbox.cif.g09.slc.cpg/sg2_130_cif.got.tgz:258719.got - 2010.06.27 13:26:56.
