data_PCOD8015947
_publ_section_title
;
Structure prediction by ZEFSAII (Michael W. Deem and Ramdas Pophale) SiO2 
 PCOD8015947
Probable space group: P -1
;
_chemical_formula_sum "Si O2"
_cell_formula_units_Z 16
_cell_length_a 12.555751
_cell_length_b 12.908867
_cell_length_c 14.523154
_cell_angle_alpha 44.378819
_cell_angle_beta 31.044550
_cell_angle_gamma 33.184774
_cell_volume 664.409718
_symmetry_space_group_name_H-M "P -1"
_symmetry_group_IT_number 2
_symmetry_cell_setting 'triclinic'
loop_
_space_group_symop_operation_xyz
x,y,z
-x,-y,-z
loop_
_atom_site_type_symbol
_atom_site_label
_atom_site_fract_x
_atom_site_fract_y
_atom_site_fract_z
Si Si1 0.410857 0.701797 0.732467
Si Si2 0.120628 0.885296 0.646450
Si Si3 0.078152 0.656723 0.125940
Si Si4 0.838597 0.711223 0.950557
Si Si5 0.845421 0.715734 0.451340
Si Si6 0.415324 0.141528 0.765868
Si Si7 0.740377 0.725317 0.809100
Si Si8 0.115806 0.713064 0.417824
O O1 0.205663 0.822613 0.727735
O O2 0.546786 0.797462 0.598126
O O3 0.611034 0.479379 0.696826
O O4 0.242508 0.725989 0.929685
O O5 0.367545 0.831207 0.437073
O O6 0.019740 0.773422 0.754941
O O7 0.878208 0.113094 0.677054
O O8 0.280025 0.427271 0.125182
O O9 0.963170 0.741810 0.257237
O O10 0.851618 0.710960 0.186354
O O11 0.703045 0.728507 0.944214
O O12 0.623397 0.838972 0.107527
O O13 0.000000 0.500000 0.000000
O O14 0.881028 0.806516 0.454547
O O15 0.000000 0.500000 0.500000
O O16 0.516693 0.931135 0.800674
O O17 0.026415 0.665510 0.606049
#
# Coordination Sequence:
#
# PCOD8015947 Si02
#       8
#     2   2   2   2   2   2   2   2
#     4  11  22  40  69  93 134 176 211 278 323 385
#     4  11  24  45  68  96 134 171 223 268 333 392
#     4  12  22  43  67  99 137 173 221 268 330 389
#     4  12  25  45  68 101 131 172 222 271 334 393
#     4  10  21  43  67  98 136 172 224 267 327 392
#     4  11  24  43  66  97 133 175 215 274 326 390
#     4  11  23  45  66  94 139 170 216 281 320 385
#     4  10  24  44  67  99 130 179 219 272 327 387
#
# _framework density 24.081526
#
# number of rings (size 3 to 8) (size 9 to 14) (size 15 to 20)
#    0.000    1.000    6.250    0.375    1.750    5.000 
#    4.500    0.625    0.000    0.000    0.000    0.000 
#    0.000    0.000    0.000    0.000    0.000    0.000 
#
# Total GULP energy -198375.633593 kJ/mol
# GULP energy per Si atom -12398.477100 kJ/mol
# Density = 2.402672 g / cm^3
# Si number density = 24.081526 Si / 1000 Ang^3
#
#
#
# Elastic Constant Matrix: (Units=GPa)
#
#
# Indices 1 2 3 4 5 6 
#
# 1 34.9508 -7.9698 12.4736 -3.8733 18.6623 8.7474
# 2 -7.9698 66.6285 19.1300 -8.0003 -2.7723 5.2438
# 3 12.4736 19.1300 169.6679 -1.8870 20.2743 7.3614
# 4 -3.8733 -8.0003 -1.8870 27.4470 1.4543 -2.4491
# 5 18.6623 -2.7723 20.2743 1.4543 37.5036 -6.3899
# 6 8.7474 5.2438 7.3614 -2.4491 -6.3899 24.7703
#
#
#
# Elastic Compliance Matrix: (Units=1/GPa)
#
#
# Indices 1 2 3 4 5 6 
#
# 1 0.056666 0.008840 0.000173 0.009704 -0.033040 -0.029498
# 2 0.008840 0.017689 -0.001883 0.005866 -0.003428 -0.006611
# 3 0.000173 -0.001883 0.006732 -0.000081 -0.004337 -0.002790
# 4 0.009704 0.005866 -0.000081 0.039631 -0.006289 -0.002348
# 5 -0.033040 -0.003428 -0.004337 -0.006289 0.049857 0.025922
# 6 -0.029498 -0.006611 -0.002790 -0.002348 0.025922 0.059472
#
#
# Mechanical properties :
#
#
# Convention : Reuss Voigt Hill
#
# Bulk Modulus (GPa) = 10.48787 35.39053 22.93920
# Shear Modulus (GPa) = 20.19657 34.45172 27.32415
#
# Velocity S-wave (km/s) = 2.89913 3.78647 3.37211
# Velocity P-wave (km/s) = 3.94604 5.81760 4.97070
#
# Compressibility (1/GPa) = 0.09534827
#
# Stress axis : x y z
#
# Youngs Moduli (GPa) = 17.64729 56.53356 148.54937
#
# Poissons Ratio (x) = -0.49978 -0.02572
# Poissons Ratio (y) = -0.15601 0.27966
# Poissons Ratio (z) = -0.00306 0.10643
#
# Static dielectric constant tensor:
#      x y z
#    x 4.671180 0.237970 0.089850 
#    y 0.237970 4.485730 -0.128520 
#    z 0.089850 -0.128520 4.605750 
# 
# 
# High freq. dielectric constant tensor:
#      x y z
#    x 1.931650 -0.000430 0.016980 
#    y -0.000430 1.959120 -0.011860 
#    z 0.016980 -0.011860 1.969680 
# 
# From -- ./inp_files/534233.got.cif
#   From: 2010.06.25/outbox.cif.g09.slc.cpg/sg2_268_cif.got.tgz:534233.got - 2010.06.27 13:26:56.
