data_PCOD8015152
_publ_section_title
;
Structure prediction by ZEFSAII (Michael W. Deem and Ramdas Pophale) SiO2 
 PCOD8015152
Probable space group: P -1
;
_chemical_formula_sum "Si O2"
_cell_formula_units_Z 16
_cell_length_a 28.448704
_cell_length_b 20.315272
_cell_length_c 16.113382
_cell_angle_alpha 163.176512
_cell_angle_beta 18.554791
_cell_angle_gamma 162.347009
_cell_volume 745.880503
_symmetry_space_group_name_H-M "P -1"
_symmetry_group_IT_number 2
_symmetry_cell_setting 'triclinic'
loop_
_space_group_symop_operation_xyz
x,y,z
-x,-y,-z
loop_
_atom_site_type_symbol
_atom_site_label
_atom_site_fract_x
_atom_site_fract_y
_atom_site_fract_z
Si Si1 0.257207 0.220021 0.227853
Si Si2 0.105900 0.736775 0.315486
Si Si3 0.313906 0.327022 0.704843
Si Si4 0.302010 0.461689 0.711591
Si Si5 0.099834 0.867458 0.294959
Si Si6 0.338768 0.731970 0.633085
Si Si7 0.557732 0.272645 0.888222
Si Si8 0.764180 0.287033 0.400790
O O1 0.362815 0.491464 0.329610
O O2 0.073734 0.176646 0.511007
O O3 0.372818 0.245837 0.145104
O O4 0.218363 0.973747 0.936478
O O5 0.057095 0.747213 0.314251
O O6 0.944066 0.549784 0.416234
O O7 0.188016 0.021636 0.563206
O O8 0.230937 0.617160 0.965646
O O9 0.250620 0.432289 0.859897
O O10 0.496797 0.364032 0.422268
O O11 0.320029 0.480218 0.962697
O O12 0.238891 0.173149 0.432734
O O13 0.171413 0.713847 0.934806
O O14 0.332337 0.730248 0.542816
O O15 0.509172 0.007298 0.701411
O O16 0.654175 0.297439 0.672137
#
# Coordination Sequence:
#
# PCOD8015152 Si02
#       8
#     2   2   2   2   2   2   2   2
#     4  11  23  40  66  94 128 168 201 261 321 362
#     4  11  23  40  68  93 127 163 210 259 319 370
#     4  10  23  42  64  95 122 163 213 259 318 373
#     4  10  21  42  66  91 130 159 204 274 315 366
#     4  11  22  38  66 101 126 160 207 258 325 377
#     4  11  23  40  62  95 130 160 207 257 311 383
#     4  11  26  43  62  92 130 170 214 254 304 377
#     4  11  25  42  61  93 130 170 214 251 304 378
#
# _framework density 21.451156000000001
#
# number of rings (size 3 to 8) (size 9 to 14) (size 15 to 20)
#    0.000    1.250    3.750    2.250    1.750    5.500 
#    0.000    0.625    0.000    0.000    0.000    0.000 
#    0.000    0.000    0.000    0.000    0.000    0.000 
#
# Total GULP energy -198396.416060 kJ/mol
# GULP energy per Si atom -12399.776004 kJ/mol
# Density = 2.140233 g / cm^3
# Si number density = 21.451156 Si / 1000 Ang^3
#
#
#
# Elastic Constant Matrix: (Units=GPa)
#
#
# Indices 1 2 3 4 5 6 
#
# 1 74.0655 37.9672 43.0669 12.7501 15.5157 -3.9051
# 2 37.9672 144.3193 47.6908 28.8184 6.0429 1.0859
# 3 43.0669 47.6908 68.6559 19.7987 12.3897 -5.9854
# 4 12.7501 28.8184 19.7987 41.6766 -0.9860 5.2108
# 5 15.5157 6.0429 12.3897 -0.9860 32.1431 2.6476
# 6 -3.9051 1.0859 -5.9854 5.2108 2.6476 29.9159
#
#
#
# Elastic Compliance Matrix: (Units=1/GPa)
#
#
# Indices 1 2 3 4 5 6 
#
# 1 0.022594 -0.001774 -0.011547 -0.000517 -0.006249 0.001346
# 2 -0.001774 0.009695 -0.004774 -0.003754 0.000838 -0.000959
# 3 -0.011547 -0.004774 0.028906 -0.007813 -0.005429 0.006291
# 4 -0.000517 -0.003754 -0.007813 0.031526 0.005550 -0.007477
# 5 -0.006249 0.000838 -0.005429 0.005550 0.036739 -0.006150
# 6 0.001346 -0.000959 0.006291 -0.007477 -0.006150 0.036743
#
#
# Mechanical properties :
#
#
# Convention : Reuss Voigt Hill
#
# Bulk Modulus (GPa) = 39.99101 60.49894 50.24498
# Shear Modulus (GPa) = 23.72742 31.30151 27.51446
#
# Velocity S-wave (km/s) = 3.32944 3.82409 3.58530
# Velocity P-wave (km/s) = 5.78476 6.91105 6.37284
#
# Compressibility (1/GPa) = 0.02500562
#
# Stress axis : x y z
#
# Youngs Moduli (GPa) = 44.26000 103.14583 34.59483
#
# Poissons Ratio (x) = 0.18294 0.39946
# Poissons Ratio (y) = 0.07850 0.16516
# Poissons Ratio (z) = 0.51106 0.49245
#
# Static dielectric constant tensor:
#      x y z
#    x 3.812400 0.077720 -0.083570 
#    y 0.077720 4.198680 0.338500 
#    z -0.083570 0.338500 3.708200 
# 
# 
# High freq. dielectric constant tensor:
#      x y z
#    x 1.829770 -0.001010 0.000110 
#    y -0.001010 1.863530 0.020420 
#    z 0.000110 0.020420 1.823780 
# 
# From -- ./inp_files/544346.got.cif
#   From: 2010.06.25/outbox.cif.g09.slc.cpg/sg2_273_cif.got.tgz:544346.got - 2010.06.27 13:26:56.
