data_PCOD8015943
_publ_section_title
;
Structure prediction by ZEFSAII (Michael W. Deem and Ramdas Pophale) SiO2 
 PCOD8015943
Probable space group: P -1
;
_chemical_formula_sum "Si O2"
_cell_formula_units_Z 16
_cell_length_a 16.845487
_cell_length_b 8.614959
_cell_length_c 6.636709
_cell_angle_alpha 55.066462
_cell_angle_beta 93.769977
_cell_angle_gamma 114.287098
_cell_volume 700.894510
_symmetry_space_group_name_H-M "P -1"
_symmetry_group_IT_number 2
_symmetry_cell_setting 'triclinic'
loop_
_space_group_symop_operation_xyz
x,y,z
-x,-y,-z
loop_
_atom_site_type_symbol
_atom_site_label
_atom_site_fract_x
_atom_site_fract_y
_atom_site_fract_z
Si Si1 0.117049 0.616978 0.342752
Si Si2 0.296165 0.884125 0.954512
Si Si3 0.468752 0.224261 0.895348
Si Si4 0.271887 0.244360 0.463855
Si Si5 0.632211 0.380088 0.059148
Si Si6 0.607271 0.456796 0.420724
Si Si7 0.087845 0.221121 0.358961
Si Si8 0.959823 0.569178 0.131995
O O1 0.088310 0.383622 0.411394
O O2 0.111351 0.606093 0.594994
O O3 0.047124 0.702377 0.188270
O O4 0.214714 0.790633 0.165855
O O5 0.298206 0.692260 0.972951
O O6 0.385562 0.993085 0.023657
O O7 0.288130 0.043956 0.672148
O O8 0.530882 0.271042 0.673708
O O9 0.433184 0.396744 0.789416
O O10 0.528735 0.231746 0.091079
O O11 0.303743 0.409126 0.533812
O O12 0.169074 0.166259 0.452072
O O13 0.335152 0.374677 0.189582
O O14 0.638024 0.359480 0.314143
O O15 0.092573 0.312132 0.064663
O O16 0.000000 0.000000 0.500000
O O17 0.000000 0.500000 0.000000
#
# Coordination Sequence:
#
# PCOD8015943 Si02
#       8
#     2   2   2   2   2   2   2   2
#     4  10  21  43  67  98 134 174 214 282 331 396
#     4  11  22  41  68  99 139 173 222 278 331 399
#     4   9  20  39  63  98 132 176 228 273 329 390
#     4  10  23  43  63  98 136 172 225 273 328 399
#     4  11  21  41  67  96 138 180 223 276 331 391
#     4   9  20  40  66  92 135 181 221 278 328 388
#     4  11  22  41  67  96 129 173 219 273 337 404
#     4   9  21  42  69  93 128 170 218 266 335 393
#
# _framework density 22.827971000000002
#
# number of rings (size 3 to 8) (size 9 to 14) (size 15 to 20)
#    0.000    2.000    1.250    2.250    0.000    2.000 
#    0.000   21.250    0.000    0.000    0.000    0.000 
#    0.000    0.000    0.000    0.000    0.000    0.000 
#
# Total GULP energy -198284.645870 kJ/mol
# GULP energy per Si atom -12392.790367 kJ/mol
# Density = 2.277601 g / cm^3
# Si number density = 22.827971 Si / 1000 Ang^3
#
#
#
# Elastic Constant Matrix: (Units=GPa)
#
#
# Indices 1 2 3 4 5 6 
#
# 1 107.0073 28.7214 46.5520 1.6737 -2.2889 26.0538
# 2 28.7214 67.8807 42.1319 -4.3476 -13.7292 20.9937
# 3 46.5520 42.1319 130.8093 13.9199 -12.6170 10.5120
# 4 1.6737 -4.3476 13.9199 34.0946 3.2661 -3.9787
# 5 -2.2889 -13.7292 -12.6170 3.2661 36.6218 -2.1759
# 6 26.0538 20.9937 10.5120 -3.9787 -2.1759 32.6383
#
#
#
# Elastic Compliance Matrix: (Units=1/GPa)
#
#
# Indices 1 2 3 4 5 6 
#
# 1 0.013438 -0.000689 -0.003947 -0.000073 -0.001313 -0.009109
# 2 -0.000689 0.024135 -0.006405 0.003768 0.005745 -0.012069
# 3 -0.003947 -0.006405 0.011615 -0.005203 0.001998 0.003029
# 4 -0.000073 0.003768 -0.005203 0.032595 -0.003109 0.003077
# 5 -0.001313 0.005745 0.001998 -0.003109 0.030245 -0.001653
# 6 -0.009109 -0.012069 0.003029 0.003077 -0.001653 0.044963
#
#
# Mechanical properties :
#
#
# Convention : Reuss Voigt Hill
#
# Bulk Modulus (GPa) = 36.89305 60.05642 48.47473
# Shear Modulus (GPa) = 26.58030 33.22376 29.90203
#
# Velocity S-wave (km/s) = 3.41599 3.81911 3.62316
# Velocity P-wave (km/s) = 5.63517 6.76851 6.22768
#
# Compressibility (1/GPa) = 0.02710538
#
# Stress axis : x y z
#
# Youngs Moduli (GPa) = 74.41470 41.43438 86.09197
#
# Poissons Ratio (x) = 0.02855 0.33983
# Poissons Ratio (y) = 0.05127 0.55143
# Poissons Ratio (z) = 0.29374 0.26539
#
# Static dielectric constant tensor:
#      x y z
#    x 4.221630 0.179170 0.236730 
#    y 0.179170 3.865310 0.052940 
#    z 0.236730 0.052940 4.389500 
# 
# 
# High freq. dielectric constant tensor:
#      x y z
#    x 1.909270 0.016510 0.010230 
#    y 0.016510 1.873190 0.003890 
#    z 0.010230 0.003890 1.905700 
# 
# From -- ./inp_files/106304.got.cif
#   From: 2010.06.25/outbox.cif.g09.slc.cpg/sg2_54_cif.got.tgz:106304.got - 2010.06.27 13:26:56.
