data_PCOD8015348
_publ_section_title
;
Structure prediction by ZEFSAII (Michael W. Deem and Ramdas Pophale) SiO2 
 PCOD8015348
Probable space group: P -1
;
_chemical_formula_sum "Si O2"
_cell_formula_units_Z 14
_cell_length_a 8.237142
_cell_length_b 13.620809
_cell_length_c 14.199764
_cell_angle_alpha 32.070551
_cell_angle_beta 131.856179
_cell_angle_gamma 135.273439
_cell_volume 586.152275
_symmetry_space_group_name_H-M "P -1"
_symmetry_group_IT_number 2
_symmetry_cell_setting 'triclinic'
loop_
_space_group_symop_operation_xyz
x,y,z
-x,-y,-z
loop_
_atom_site_type_symbol
_atom_site_label
_atom_site_fract_x
_atom_site_fract_y
_atom_site_fract_z
Si Si1 0.757311 0.159616 0.989897
Si Si2 0.042567 0.839069 0.546755
Si Si3 0.854505 0.917604 0.915719
Si Si4 0.997953 0.240562 0.206437
Si Si5 0.504934 0.520311 0.188617
Si Si6 0.675136 0.161807 0.506851
Si Si7 0.615723 0.499676 0.641714
O O1 0.776245 0.371579 0.785167
O O2 0.963083 0.099445 0.076854
O O3 0.797725 0.197487 0.086339
O O4 0.500000 0.000000 0.000000
O O5 0.101318 0.746059 0.549810
O O6 0.140502 0.781455 0.729368
O O7 0.762313 0.728183 0.539757
O O8 0.116594 0.074633 0.379164
O O9 0.735627 0.063737 0.704928
O O10 0.650965 0.703550 0.029727
O O11 0.000000 0.000000 0.000000
O O12 0.222296 0.450546 0.113169
O O13 0.590163 0.337324 0.358373
O O14 0.552819 0.591211 0.259401
O O15 0.500000 0.000000 0.500000
O O16 0.500000 0.500000 0.500000
#
# Coordination Sequence:
#
# PCOD8015348 Si02
#       7
#     2   2   2   2   2   2   2
#     4  12  25  46  71 103 147 192 245 307 358 441
#     4  10  21  42  68 101 136 180 242 291 352 433
#     4  12  29  47  73 114 150 195 247 306 379 447
#     4  10  22  45  72 103 139 185 246 300 361 431
#     4  11  26  49  74 109 150 192 244 310 372 441
#     4  12  25  46  77 108 147 195 240 307 376 439
#     4  11  26  43  71 101 138 196 243 295 364 437
#
# _framework density 23.88458
#
# number of rings (size 3 to 8) (size 9 to 14) (size 15 to 20)
#    0.000    0.857    2.857    2.571    4.000    8.571 
#    0.000    0.000    0.000    0.000    0.000    0.000 
#    0.000    0.000    0.000    0.000    0.000    0.000 
#
# Total GULP energy -173455.417124 kJ/mol
# GULP energy per Si atom -12389.672652 kJ/mol
# Density = 2.383022 g / cm^3
# Si number density = 23.884580 Si / 1000 Ang^3
#
#
#
# Elastic Constant Matrix: (Units=GPa)
#
#
# Indices 1 2 3 4 5 6 
#
# 1 60.8526 16.3477 20.0983 5.4549 -22.7031 -1.9605
# 2 16.3477 129.7320 56.0119 15.6838 -26.1632 -0.9479
# 3 20.0983 56.0119 128.4320 19.8971 -23.3483 -4.7759
# 4 5.4549 15.6838 19.8971 48.7577 -11.5656 -11.7472
# 5 -22.7031 -26.1632 -23.3483 -11.5656 31.9779 -2.8181
# 6 -1.9605 -0.9479 -4.7759 -11.7472 -2.8181 42.5212
#
#
#
# Elastic Compliance Matrix: (Units=1/GPa)
#
#
# Indices 1 2 3 4 5 6 
#
# 1 0.022865 0.000776 -0.001055 0.002363 0.017194 0.002745
# 2 0.000776 0.010448 -0.003426 -0.000479 0.006440 0.000178
# 3 -0.001055 -0.003426 0.010401 -0.002060 0.003359 0.000697
# 4 0.002363 -0.000479 -0.002060 0.025324 0.009602 0.007500
# 5 0.017194 0.006440 0.003359 0.009602 0.055346 0.007634
# 6 0.002745 0.000178 0.000697 0.007500 0.007634 0.026304
#
#
# Mechanical properties :
#
#
# Convention : Reuss Voigt Hill
#
# Bulk Modulus (GPa) = 27.54543 55.99249 41.76896
# Shear Modulus (GPa) = 29.37744 39.75527 34.56635
#
# Velocity S-wave (km/s) = 3.51091 4.08422 3.80837
# Velocity P-wave (km/s) = 5.29084 6.76277 6.07157
#
# Compressibility (1/GPa) = 0.03630366
#
# Stress axis : x y z
#
# Youngs Moduli (GPa) = 43.73577 95.71554 96.14292
#
# Poissons Ratio (x) = -0.07429 0.10140
# Poissons Ratio (y) = -0.03395 0.32942
# Poissons Ratio (z) = 0.04613 0.32796
#
# Static dielectric constant tensor:
#      x y z
#    x 6.330230 3.611890 1.863370 
#    y 3.611890 12.392080 5.189150 
#    z 1.863370 5.189150 7.765340 
# 
# 
# High freq. dielectric constant tensor:
#      x y z
#    x 1.952290 -0.009480 -0.010260 
#    y -0.009480 1.954630 -0.005140 
#    z -0.010260 -0.005140 1.955960 
# 
# From -- ./inp_files/469139.got.cif
#   From: 2010.06.25/outbox.cif.g09.slc.cpg/sg2_235_cif.got.tgz:469139.got - 2010.06.27 13:26:56.
