data_PCOD8015217
_publ_section_title
;
Structure prediction by ZEFSAII (Michael W. Deem and Ramdas Pophale) SiO2 
 PCOD8015217
Probable space group: P -1
;
_chemical_formula_sum "Si O2"
_cell_formula_units_Z 12
_cell_length_a 7.479006
_cell_length_b 5.697780
_cell_length_c 19.069366
_cell_angle_alpha 136.092001
_cell_angle_beta 48.352858
_cell_angle_gamma 123.671568
_cell_volume 416.602539
_symmetry_space_group_name_H-M "P -1"
_symmetry_group_IT_number 2
_symmetry_cell_setting 'triclinic'
loop_
_space_group_symop_operation_xyz
x,y,z
-x,-y,-z
loop_
_atom_site_type_symbol
_atom_site_label
_atom_site_fract_x
_atom_site_fract_y
_atom_site_fract_z
Si Si1 0.441609 0.163800 0.204340
Si Si2 0.921709 0.663898 0.769204
Si Si3 0.315579 0.464467 0.439678
Si Si4 0.791979 0.882600 0.464180
Si Si5 0.106790 0.361557 0.872816
Si Si6 0.779025 0.723716 0.966888
O O1 0.199906 0.270937 0.258594
O O2 0.431857 0.221355 0.302506
O O3 0.648534 0.424547 0.169723
O O4 0.524187 0.786710 0.084619
O O5 0.744072 0.727775 0.893036
O O6 0.019509 0.303683 0.669922
O O7 0.152145 0.967847 0.781774
O O8 0.517545 0.717008 0.483374
O O9 0.168896 0.198663 0.478875
O O10 0.163355 0.721237 0.490015
O O11 0.878203 0.365867 0.879541
O O12 0.000000 0.500000 0.000000
O O13 0.000000 0.000000 0.000000
#
# Coordination Sequence:
#
# PCOD8015217 Si02
#       6
#     2   2   2   2   2   2
#     4  11  25  44  68 104 138 176 237 290 348 421
#     4  12  25  44  68 102 139 178 232 293 349 419
#     4  10  24  46  72 103 138 191 236 291 352 423
#     4  10  24  44  75 100 140 189 239 287 355 421
#     4  11  24  42  69  97 138 187 223 284 358 419
#     4  10  21  42  66  97 134 178 227 280 345 420
#
# _framework density 28.804431999999998
#
# number of rings (size 3 to 8) (size 9 to 14) (size 15 to 20)
#    0.000    1.333    3.333    2.500    9.333    2.000 
#    3.000    0.000    0.000    0.000    0.000    0.000 
#    0.000    0.000    0.000    0.000    0.000    0.000 
#
# Total GULP energy -148691.095784 kJ/mol
# GULP energy per Si atom -12390.924649 kJ/mol
# Density = 2.873887 g / cm^3
# Si number density = 28.804432 Si / 1000 Ang^3
#
#
#
# Elastic Constant Matrix: (Units=GPa)
#
#
# Indices 1 2 3 4 5 6 
#
# 1 70.9704 27.5148 21.5886 0.3382 3.6538 -34.8571
# 2 27.5148 180.0482 66.6074 -10.9614 -1.8690 -8.8941
# 3 21.5886 66.6074 190.5782 3.5171 10.4145 -20.9861
# 4 0.3382 -10.9614 3.5171 49.4584 -21.0962 -4.1537
# 5 3.6538 -1.8690 10.4145 -21.0962 38.5605 -8.2362
# 6 -34.8571 -8.8941 -20.9861 -4.1537 -8.2362 36.1050
#
#
#
# Elastic Compliance Matrix: (Units=1/GPa)
#
#
# Indices 1 2 3 4 5 6 
#
# 1 0.029265 -0.002946 0.000604 0.003866 0.005346 0.029543
# 2 -0.002946 0.007023 -0.002487 0.002612 0.002353 -0.001722
# 3 0.000604 -0.002487 0.006539 -0.001712 -0.002226 0.003067
# 4 0.003866 0.002612 -0.001712 0.029924 0.018976 0.011152
# 5 0.005346 0.002353 -0.002226 0.018976 0.039883 0.015728
# 6 0.029543 -0.001722 0.003067 0.011152 0.015728 0.062449
#
#
# Mechanical properties :
#
#
# Convention : Reuss Voigt Hill
#
# Bulk Modulus (GPa) = 30.14809 74.77982 52.46396
# Shear Modulus (GPa) = 25.53681 46.55051 36.04366
#
# Velocity S-wave (km/s) = 2.98074 4.02442 3.54124
# Velocity P-wave (km/s) = 4.72606 6.90016 5.91388
#
# Compressibility (1/GPa) = 0.03316959
#
# Stress axis : x y z
#
# Youngs Moduli (GPa) = 34.17032 142.39548 152.92988
#
# Poissons Ratio (x) = 0.41943 -0.09238
# Poissons Ratio (y) = 0.10065 0.38037
# Poissons Ratio (z) = -0.02064 0.35417
#
# Static dielectric constant tensor:
#      x y z
#    x 5.874740 -0.767090 0.242180 
#    y -0.767090 7.098550 0.299490 
#    z 0.242180 0.299490 4.420780 
# 
# 
# High freq. dielectric constant tensor:
#      x y z
#    x 2.198290 0.007440 0.007490 
#    y 0.007440 2.197880 0.012520 
#    z 0.007490 0.012520 2.159400 
# 
# From -- ./inp_files/38538.got.cif
#   From: 2010.06.25/outbox.cif.g09.slc.cpg/sg2_20_cif.got.tgz:38538.got - 2010.06.27 13:26:56.
