data_PCOD8015286
_publ_section_title
;
Structure prediction by ZEFSAII (Michael W. Deem and Ramdas Pophale) SiO2 
 PCOD8015286
Probable space group: P -1
;
_chemical_formula_sum "Si O2"
_cell_formula_units_Z 16
_cell_length_a 8.406842
_cell_length_b 16.246815
_cell_length_c 13.200129
_cell_angle_alpha 25.959783
_cell_angle_beta 79.751807
_cell_angle_gamma 90.416306
_cell_volume 715.712332
_symmetry_space_group_name_H-M "P -1"
_symmetry_group_IT_number 2
_symmetry_cell_setting 'triclinic'
loop_
_space_group_symop_operation_xyz
x,y,z
-x,-y,-z
loop_
_atom_site_type_symbol
_atom_site_label
_atom_site_fract_x
_atom_site_fract_y
_atom_site_fract_z
Si Si1 0.984476 0.217622 0.574641
Si Si2 0.295002 0.911116 0.641465
Si Si3 0.700402 0.496016 0.885038
Si Si4 0.235677 0.901123 0.076959
Si Si5 0.300613 0.291888 0.144016
Si Si6 0.086249 0.866731 0.908970
Si Si7 0.193428 0.504006 0.748301
Si Si8 0.523539 0.319747 0.635059
O O1 0.183979 0.381420 0.358421
O O2 0.932107 0.191691 0.727465
O O3 0.853999 0.300233 0.436875
O O4 0.970300 0.004754 0.762885
O O5 0.247122 0.943307 0.726920
O O6 0.500000 0.000000 0.500000
O O7 0.222594 0.042549 0.428688
O O8 0.223324 0.668708 0.897620
O O9 0.713354 0.648766 0.804717
O O10 0.504801 0.386693 0.983989
O O11 0.357556 0.772545 0.213203
O O12 0.168865 0.884077 0.990219
O O13 0.338322 0.137961 0.833495
O O14 0.187239 0.370962 0.995634
O O15 0.953998 0.635888 0.158250
O O16 0.384489 0.585326 0.586430
O O17 0.500000 0.500000 0.500000
#
# Coordination Sequence:
#
# PCOD8015286 Si02
#       8
#     2   2   2   2   2   2   2   2
#     4  11  23  43  66  99 131 171 223 270 327 396
#     4  10  22  41  64  95 130 168 227 267 320 391
#     4  10  21  42  67  94 128 172 229 265 329 392
#     4  10  25  43  70  99 135 173 219 271 330 391
#     4  10  23  42  66  92 130 179 215 276 327 386
#     4  12  24  43  66  99 134 178 216 274 327 391
#     4  11  26  42  65 101 134 170 225 267 332 395
#     4  10  23  45  68  99 134 173 220 271 328 393
#
# _framework density 22.355350000000001
#
# number of rings (size 3 to 8) (size 9 to 14) (size 15 to 20)
#    0.000    1.500    2.500    1.125    1.750    7.000 
#    0.000    0.000    0.000    0.000    0.000    0.000 
#    0.000    0.000    0.000    0.000    0.000    0.000 
#
# Total GULP energy -198340.507797 kJ/mol
# GULP energy per Si atom -12396.281737 kJ/mol
# Density = 2.230447 g / cm^3
# Si number density = 22.355350 Si / 1000 Ang^3
#
#
#
# Elastic Constant Matrix: (Units=GPa)
#
#
# Indices 1 2 3 4 5 6 
#
# 1 80.1675 48.8426 47.2462 8.5692 -0.6390 -14.2370
# 2 48.8426 65.6909 42.6433 0.8917 -6.4481 -15.2997
# 3 47.2462 42.6433 133.6288 7.4914 -3.3299 -7.5369
# 4 8.5692 0.8917 7.4914 42.4319 -12.5079 -1.0717
# 5 -0.6390 -6.4481 -3.3299 -12.5079 43.9975 1.7300
# 6 -14.2370 -15.2997 -7.5369 -1.0717 1.7300 39.2284
#
#
#
# Elastic Compliance Matrix: (Units=1/GPa)
#
#
# Indices 1 2 3 4 5 6 
#
# 1 0.025477 -0.016535 -0.003409 -0.005291 -0.003901 0.002170
# 2 -0.016535 0.032004 -0.004206 0.005134 0.005372 0.005576
# 3 -0.003409 -0.004206 0.010032 -0.001070 -0.000173 -0.000972
# 4 -0.005291 0.005134 -0.001070 0.027172 0.008309 0.000252
# 5 -0.003901 0.005372 -0.000173 0.008309 0.025819 -0.000265
# 6 0.002170 0.005576 -0.000972 0.000252 -0.000265 0.028286
#
#
# Mechanical properties :
#
#
# Convention : Reuss Voigt Hill
#
# Bulk Modulus (GPa) = 52.05243 61.88349 56.96796
# Shear Modulus (GPa) = 24.57055 34.51525 29.54290
#
# Velocity S-wave (km/s) = 3.31885 3.93356 3.63921
# Velocity P-wave (km/s) = 6.16612 6.95502 6.57242
#
# Compressibility (1/GPa) = 0.01921140
#
# Stress axis : x y z
#
# Youngs Moduli (GPa) = 39.25080 31.24609 99.68187
#
# Poissons Ratio (x) = 0.51667 0.33984
# Poissons Ratio (y) = 0.64903 0.41928
# Poissons Ratio (z) = 0.13382 0.13143
#
# Static dielectric constant tensor:
#      x y z
#    x 4.042800 -0.503600 0.072020 
#    y -0.503600 3.758880 -0.169720 
#    z 0.072020 -0.169720 4.642850 
# 
# 
# High freq. dielectric constant tensor:
#      x y z
#    x 1.873880 -0.038290 0.002730 
#    y -0.038290 1.856270 -0.003130 
#    z 0.002730 -0.003130 1.912750 
# 
# From -- ./inp_files/398131.got.cif
#   From: 2010.06.25/outbox.cif.g09.slc.cpg/sg2_200_cif.got.tgz:398131.got - 2010.06.27 13:26:56.
