data_PCOD8015633
_publ_section_title
;
Structure prediction by ZEFSAII (Michael W. Deem and Ramdas Pophale) SiO2 
 PCOD8015633
Probable space group: P -1
;
_chemical_formula_sum "Si O2"
_cell_formula_units_Z 16
_cell_length_a 9.672563
_cell_length_b 10.557807
_cell_length_c 9.005768
_cell_angle_alpha 62.491014
_cell_angle_beta 57.186683
_cell_angle_gamma 71.336087
_cell_volume 682.540936
_symmetry_space_group_name_H-M "P -1"
_symmetry_group_IT_number 2
_symmetry_cell_setting 'triclinic'
loop_
_space_group_symop_operation_xyz
x,y,z
-x,-y,-z
loop_
_atom_site_type_symbol
_atom_site_label
_atom_site_fract_x
_atom_site_fract_y
_atom_site_fract_z
Si Si1 0.893516 0.699370 0.145666
Si Si2 0.775886 0.231141 0.209612
Si Si3 0.392648 0.279563 0.905410
Si Si4 0.282218 0.076667 0.663568
Si Si5 0.500453 0.553031 0.807893
Si Si6 0.843723 0.466807 0.513229
Si Si7 0.281440 0.791877 0.412663
Si Si8 0.599896 0.934063 0.715012
O O1 0.785754 0.750935 0.036576
O O2 0.851340 0.809585 0.245639
O O3 0.857623 0.540521 0.304560
O O4 0.085058 0.689293 0.997384
O O5 0.592078 0.287115 0.229402
O O6 0.774679 0.264228 0.366526
O O7 0.807980 0.065070 0.240234
O O8 0.387049 0.448660 0.843786
O O9 0.527153 0.247507 0.715955
O O10 0.438583 0.186894 0.078238
O O11 0.328714 0.138321 0.440493
O O12 0.438925 0.039749 0.702012
O O13 0.683566 0.547004 0.640596
O O14 0.500000 0.500000 0.000000
O O15 0.826948 0.294101 0.596036
O O16 0.000000 0.500000 0.500000
O O17 0.268560 0.966772 0.333968
#
# Coordination Sequence:
#
# PCOD8015633 Si02
#       8
#     2   2   2   2   2   2   2   2
#     4  12  25  43  67 100 135 180 223 281 333 394
#     4  11  24  44  65  98 138 178 224 274 334 396
#     4  11  23  41  71 103 131 176 225 277 337 396
#     4  10  23  42  69 100 137 177 226 274 334 392
#     4  11  24  41  69  97 133 177 224 275 338 402
#     4  11  26  45  67 100 134 173 224 286 337 395
#     4  10  22  44  66  96 132 174 219 276 332 400
#     4  10  21  42  73 100 132 177 225 277 329 407
#
# _framework density 23.441817
#
# number of rings (size 3 to 8) (size 9 to 14) (size 15 to 20)
#    0.000    1.250    1.250    3.750    5.250    6.000 
#    2.250    1.250    0.000    0.000    0.000    0.000 
#    0.000    0.000    0.000    0.000    0.000    0.000 
#
# Total GULP energy -198278.537925 kJ/mol
# GULP energy per Si atom -12392.408620 kJ/mol
# Density = 2.338846 g / cm^3
# Si number density = 23.441817 Si / 1000 Ang^3
#
#
#
# Elastic Constant Matrix: (Units=GPa)
#
#
# Indices 1 2 3 4 5 6 
#
# 1 112.5129 30.8267 33.4571 7.9938 -12.0834 12.2601
# 2 30.8267 75.2318 29.4611 4.6345 -7.1782 3.5116
# 3 33.4571 29.4611 135.4518 13.2922 -19.1727 -3.6152
# 4 7.9938 4.6345 13.2922 32.9707 -1.8335 -5.4678
# 5 -12.0834 -7.1782 -19.1727 -1.8335 34.2455 0.0526
# 6 12.2601 3.5116 -3.6152 -5.4678 0.0526 24.8735
#
#
#
# Elastic Compliance Matrix: (Units=1/GPa)
#
#
# Indices 1 2 3 4 5 6 
#
# 1 0.011368 -0.003360 -0.001675 -0.002465 0.002246 -0.005919
# 2 -0.003360 0.015790 -0.002479 -0.000541 0.000709 -0.001054
# 3 -0.001675 -0.002479 0.009175 -0.002401 0.003894 0.001973
# 4 -0.002465 -0.000541 -0.002401 0.033311 -0.000556 0.008266
# 5 0.002246 0.000709 0.003894 -0.000556 0.032294 -0.000832
# 6 -0.005919 -0.001054 0.001973 0.008266 -0.000832 0.045375
#
#
# Mechanical properties :
#
#
# Convention : Reuss Voigt Hill
#
# Bulk Modulus (GPa) = 46.93780 56.74293 51.84037
# Shear Modulus (GPa) = 29.50837 33.71471 31.61154
#
# Velocity S-wave (km/s) = 3.55179 3.79651 3.67619
# Velocity P-wave (km/s) = 6.07346 6.59367 6.33890
#
# Compressibility (1/GPa) = 0.02130479
#
# Stress axis : x y z
#
# Youngs Moduli (GPa) = 87.96745 63.33177 108.98890
#
# Poissons Ratio (x) = 0.21276 0.18259
# Poissons Ratio (y) = 0.29553 0.27021
# Poissons Ratio (z) = 0.14738 0.15701
#
# Static dielectric constant tensor:
#      x y z
#    x 3.810920 0.260090 0.002760 
#    y 0.260090 3.788970 0.069170 
#    z 0.002760 0.069170 4.243620 
# 
# 
# High freq. dielectric constant tensor:
#      x y z
#    x 1.908800 0.030410 -0.003820 
#    y 0.030410 1.934040 0.003530 
#    z -0.003820 0.003530 1.937960 
# 
# From -- ./inp_files/184828.got.cif
#   From: 2010.06.25/outbox.cif.g09.slc.cpg/sg2_93_cif.got.tgz:184828.got - 2010.06.27 13:26:56.
