data_PCOD8015508
_publ_section_title
;
Structure prediction by ZEFSAII (Michael W. Deem and Ramdas Pophale) SiO2 
 PCOD8015508
Probable space group: P -1
;
_chemical_formula_sum "Si O2"
_cell_formula_units_Z 16
_cell_length_a 22.193705
_cell_length_b 5.029530
_cell_length_c 22.685208
_cell_angle_alpha 83.353716
_cell_angle_beta 161.105264
_cell_angle_gamma 85.883485
_cell_volume 672.806916
_symmetry_space_group_name_H-M "P -1"
_symmetry_group_IT_number 2
_symmetry_cell_setting 'triclinic'
loop_
_space_group_symop_operation_xyz
x,y,z
-x,-y,-z
loop_
_atom_site_type_symbol
_atom_site_label
_atom_site_fract_x
_atom_site_fract_y
_atom_site_fract_z
Si Si1 0.843485 0.826295 0.418295
Si Si2 0.612279 0.963870 0.814964
Si Si3 0.700862 0.037891 0.674991
Si Si4 0.582737 0.337317 0.673154
Si Si5 0.173553 0.221938 0.460019
Si Si6 0.710680 0.472857 0.226639
Si Si7 0.027363 0.065111 0.787745
Si Si8 0.056452 0.665829 0.923519
O O1 0.810820 0.764190 0.456278
O O2 0.672921 0.775180 0.222666
O O3 0.105404 0.578978 0.649579
O O4 0.798136 0.177525 0.360243
O O5 0.499953 0.174873 0.645958
O O6 0.419421 0.941627 0.667730
O O7 0.856593 0.634266 0.032644
O O8 0.705558 0.096651 0.947880
O O9 0.764832 0.076825 0.799882
O O10 0.628646 0.360452 0.563355
O O11 0.500000 0.000000 0.500000
O O12 0.891611 0.721829 0.823495
O O13 0.707916 0.448000 0.826266
O O14 0.112809 0.559883 0.368648
O O15 0.994864 0.135550 0.280203
O O16 0.500000 0.500000 0.000000
O O17 0.934832 0.997219 0.763937
#
# Coordination Sequence:
#
# PCOD8015508 Si02
#       8
#     2   2   2   2   2   2   2   2
#     4  10  23  41  66 105 137 179 232 273 325 397
#     4  11  26  44  68  95 135 177 227 277 345 408
#     4  11  24  40  65  92 122 166 219 276 349 410
#     4  10  24  41  63  91 126 168 215 280 342 413
#     4  12  26  44  71 100 142 181 227 281 333 397
#     4  10  21  42  70 100 142 182 223 278 333 377
#     4  11  26  44  68  97 135 181 226 278 338 404
#     4  11  24  44  64  93 130 168 223 279 336 414
#
# _framework density 23.780968999999999
#
# number of rings (size 3 to 8) (size 9 to 14) (size 15 to 20)
#    0.000    1.250    1.250    3.000    7.000    8.000 
#    0.000    0.000    0.000    0.000    0.000    0.000 
#    0.000    0.000    0.000    0.000    0.000    0.000 
#
# Total GULP energy -198215.054684 kJ/mol
# GULP energy per Si atom -12388.440918 kJ/mol
# Density = 2.372684 g / cm^3
# Si number density = 23.780969 Si / 1000 Ang^3
#
#
#
# Elastic Constant Matrix: (Units=GPa)
#
#
# Indices 1 2 3 4 5 6 
#
# 1 144.5813 35.5496 50.2757 -0.3425 -9.1546 5.8187
# 2 35.5496 102.4461 15.4513 5.4841 -0.3106 -2.0096
# 3 50.2757 15.4513 66.4178 12.8806 -11.6597 -0.4116
# 4 -0.3425 5.4841 12.8806 35.3288 -6.2304 -6.8052
# 5 -9.1546 -0.3106 -11.6597 -6.2304 27.8498 5.4833
# 6 5.8187 -2.0096 -0.4116 -6.8052 5.4833 28.4008
#
#
#
# Elastic Compliance Matrix: (Units=1/GPa)
#
#
# Indices 1 2 3 4 5 6 
#
# 1 0.010396 -0.002656 -0.007653 0.003158 0.001267 -0.001917
# 2 -0.002656 0.010858 -0.000474 -0.001575 -0.001544 0.001226
# 3 -0.007653 -0.000474 0.023472 -0.007749 0.005789 -0.001100
# 4 0.003158 -0.001575 -0.007749 0.033331 0.003983 0.006347
# 5 0.001267 -0.001544 0.005789 0.003983 0.041049 -0.007256
# 6 -0.001917 0.001226 -0.001100 0.006347 -0.007256 0.038596
#
#
# Mechanical properties :
#
#
# Convention : Reuss Voigt Hill
#
# Bulk Modulus (GPa) = 43.17754 57.33313 50.25534
# Shear Modulus (GPa) = 26.73998 32.46047 29.60022
#
# Velocity S-wave (km/s) = 3.35689 3.69857 3.53186
# Velocity P-wave (km/s) = 5.76374 6.51156 6.14903
#
# Compressibility (1/GPa) = 0.02316019
#
# Stress axis : x y z
#
# Youngs Moduli (GPa) = 96.19454 92.09838 42.60473
#
# Poissons Ratio (x) = 0.24460 0.32605
# Poissons Ratio (y) = 0.25548 0.02018
# Poissons Ratio (z) = 0.73617 0.04362
#
# Static dielectric constant tensor:
#      x y z
#    x 4.421520 -0.211670 -0.342780 
#    y -0.211670 4.572460 0.218080 
#    z -0.342780 0.218080 4.134050 
# 
# 
# High freq. dielectric constant tensor:
#      x y z
#    x 1.931530 0.001260 -0.019300 
#    y 0.001260 1.948860 0.014310 
#    z -0.019300 0.014310 1.932780 
# 
# From -- ./inp_files/600762.got.cif
#   From: 2010.06.25/outbox.cif.g09.slc.cpg/sg2_301_cif.got.tgz:600762.got - 2010.06.27 13:26:56.
