data_PCOD8015555
_publ_section_title
;
Structure prediction by ZEFSAII (Michael W. Deem and Ramdas Pophale) SiO2 
 PCOD8015555
Probable space group: P -1
;
_chemical_formula_sum "Si O2"
_cell_formula_units_Z 16
_cell_length_a 14.600421
_cell_length_b 9.130461
_cell_length_c 5.565616
_cell_angle_alpha 88.795665
_cell_angle_beta 79.723144
_cell_angle_gamma 68.523274
_cell_volume 678.556452
_symmetry_space_group_name_H-M "P -1"
_symmetry_group_IT_number 2
_symmetry_cell_setting 'triclinic'
loop_
_space_group_symop_operation_xyz
x,y,z
-x,-y,-z
loop_
_atom_site_type_symbol
_atom_site_label
_atom_site_fract_x
_atom_site_fract_y
_atom_site_fract_z
Si Si1 0.026916 0.106541 0.678538
Si Si2 0.191857 0.693115 0.145317
Si Si3 0.587864 0.777726 0.310270
Si Si4 0.732153 0.803714 0.892505
Si Si5 0.895130 0.632054 0.488010
Si Si6 0.758261 0.490114 0.369582
Si Si7 0.370334 0.948225 0.462232
Si Si8 0.211076 0.959889 0.880692
O O1 0.097667 0.197119 0.544147
O O2 0.928719 0.243463 0.820446
O O3 0.097146 0.987357 0.847294
O O4 0.000000 0.000000 0.500000
O O5 0.224461 0.617616 0.395766
O O6 0.236775 0.595605 0.884637
O O7 0.228354 0.841959 0.104167
O O8 0.648411 0.627422 0.453241
O O9 0.471143 0.800540 0.343357
O O10 0.595883 0.940026 0.385420
O O11 0.645444 0.744419 0.027748
O O12 0.815693 0.650732 0.740644
O O13 0.683378 0.955164 0.744877
O O14 0.786661 0.868430 0.069282
O O15 0.842281 0.571395 0.299536
O O16 0.000000 0.500000 0.500000
O O17 0.295625 0.881148 0.639867
#
# Coordination Sequence:
#
# PCOD8015555 Si02
#       8
#     2   2   2   2   2   2   2   2
#     4  12  25  46  72 104 142 194 243 293 354 432
#     4  12  28  45  71  99 147 198 235 292 357 434
#     4  10  22  41  69 103 136 177 235 298 371 423
#     4  11  21  42  71 104 139 183 233 303 358 426
#     4  12  24  41  71 105 147 185 233 293 359 431
#     4  12  26  47  67 106 145 190 235 295 365 434
#     4  10  21  42  71 101 132 177 240 304 358 419
#     4  11  25  43  69 100 136 188 245 295 348 429
#
# _framework density 23.579467000000001
#
# number of rings (size 3 to 8) (size 9 to 14) (size 15 to 20)
#    0.000    0.750    3.750    3.750    3.500    0.500 
#    0.000    1.250    0.000    0.000    0.000    0.000 
#    0.000    0.000    0.000    0.000    0.000    0.000 
#
# Total GULP energy -198273.002844 kJ/mol
# GULP energy per Si atom -12392.062678 kJ/mol
# Density = 2.352580 g / cm^3
# Si number density = 23.579467 Si / 1000 Ang^3
#
#
#
# Elastic Constant Matrix: (Units=GPa)
#
#
# Indices 1 2 3 4 5 6 
#
# 1 92.7616 36.0692 25.1914 -2.4867 -16.7566 -46.8966
# 2 36.0692 97.1367 34.8108 -14.8545 -11.1433 -23.7457
# 3 25.1914 34.8108 100.4701 -16.4769 -12.6735 -17.4049
# 4 -2.4867 -14.8545 -16.4769 43.3856 1.3232 -6.6245
# 5 -16.7566 -11.1433 -12.6735 1.3232 35.2809 11.3425
# 6 -46.8966 -23.7457 -17.4049 -6.6245 11.3425 50.0227
#
#
#
# Elastic Compliance Matrix: (Units=1/GPa)
#
#
# Indices 1 2 3 4 5 6 
#
# 1 0.022266 -0.002579 -0.000455 0.003041 0.003330 0.019140
# 2 -0.002579 0.013820 -0.002759 0.004048 0.000865 0.003523
# 3 -0.000455 -0.002759 0.012443 0.004077 0.002397 0.002590
# 4 0.003041 0.004048 0.004077 0.027664 -0.000020 0.009859
# 5 0.003330 0.000865 0.002397 -0.000020 0.031989 -0.002890
# 6 0.019140 0.003523 0.002590 0.009859 -0.002890 0.042469
#
#
# Mechanical properties :
#
#
# Convention : Reuss Voigt Hill
#
# Bulk Modulus (GPa) = 27.06781 53.61235 40.34008
# Shear Modulus (GPa) = 28.64496 38.69100 33.66798
#
# Velocity S-wave (km/s) = 3.48922 4.05517 3.78279
# Velocity P-wave (km/s) = 5.26661 6.68671 6.01869
#
# Compressibility (1/GPa) = 0.03694425
#
# Stress axis : x y z
#
# Youngs Moduli (GPa) = 44.91156 72.35665 80.36846
#
# Poissons Ratio (x) = 0.18661 0.03655
# Poissons Ratio (y) = 0.11583 0.22171
# Poissons Ratio (z) = 0.02043 0.19960
#
# Static dielectric constant tensor:
#      x y z
#    x 4.355890 -0.109430 -0.248180 
#    y -0.109430 4.327710 0.001640 
#    z -0.248180 0.001640 4.357070 
# 
# 
# High freq. dielectric constant tensor:
#      x y z
#    x 1.927150 -0.009230 -0.010260 
#    y -0.009230 1.934290 -0.004580 
#    z -0.010260 -0.004580 1.932610 
# 
# From -- ./inp_files/90385.got.cif
#   From: 2010.06.25/outbox.cif.g09.slc.cpg/sg2_46_cif.got.tgz:90385.got - 2010.06.27 13:26:56.
