data_PCOD8015922
_publ_section_title
;
Structure prediction by ZEFSAII (Michael W. Deem and Ramdas Pophale) SiO2 
 PCOD8015922
Probable space group: P -1
;
_chemical_formula_sum "Si O2"
_cell_formula_units_Z 16
_cell_length_a 9.126527
_cell_length_b 14.023401
_cell_length_c 11.834493
_cell_angle_alpha 148.440144
_cell_angle_beta 98.696122
_cell_angle_gamma 96.325241
_cell_volume 695.004313
_symmetry_space_group_name_H-M "P -1"
_symmetry_group_IT_number 2
_symmetry_cell_setting 'triclinic'
loop_
_space_group_symop_operation_xyz
x,y,z
-x,-y,-z
loop_
_atom_site_type_symbol
_atom_site_label
_atom_site_fract_x
_atom_site_fract_y
_atom_site_fract_z
Si Si1 0.822652 0.415429 0.948825
Si Si2 0.679630 0.298832 0.051063
Si Si3 0.693454 0.368212 0.371367
Si Si4 0.314161 0.207940 0.212407
Si Si5 0.326589 0.297291 0.775800
Si Si6 0.128681 0.822786 0.654738
Si Si7 0.338534 0.966235 0.603278
Si Si8 0.752745 0.725397 0.492982
O O1 0.679978 0.218755 0.667662
O O2 0.812950 0.351595 0.016379
O O3 0.804436 0.618819 0.131990
O O4 0.000000 0.500000 0.000000
O O5 0.748991 0.310016 0.198437
O O6 0.620881 0.479763 0.227180
O O7 0.523469 0.075713 0.787896
O O8 0.494802 0.229338 0.223874
O O9 0.722788 0.600520 0.621806
O O10 0.804885 0.329234 0.438197
O O11 0.284612 0.156957 0.291001
O O12 0.180551 0.023520 0.938755
O O13 0.309284 0.134432 0.701982
O O14 0.276474 0.178615 0.528570
O O15 0.500000 0.500000 0.000000
O O16 0.929677 0.720477 0.520765
O O17 0.199168 0.878379 0.593774
#
# Coordination Sequence:
#
# PCOD8015922 Si02
#       8
#     2   2   2   2   2   2   2   2
#     4  11  25  44  68 104 138 168 224 288 340 394
#     4  10  21  43  67  95 132 174 228 270 324 406
#     4  10  23  44  69  96 135 177 223 277 326 399
#     4  10  22  42  70  98 132 177 231 266 331 411
#     4  11  24  46  72  95 133 183 225 282 334 396
#     4  12  25  42  67 103 139 174 220 281 339 395
#     4  12  24  42  72  98 132 181 234 267 333 412
#     4  10  23  43  66 100 138 170 224 285 337 391
#
# _framework density 23.021439999999998
#
# number of rings (size 3 to 8) (size 9 to 14) (size 15 to 20)
#    0.000    1.250    3.750    2.625    0.000    7.000 
#    0.000    3.750    0.000    0.000    0.000    0.000 
#    0.000    0.000    0.000    0.000    0.000    0.000 
#
# Total GULP energy -198284.954002 kJ/mol
# GULP energy per Si atom -12392.809625 kJ/mol
# Density = 2.296904 g / cm^3
# Si number density = 23.021440 Si / 1000 Ang^3
#
#
#
# Elastic Constant Matrix: (Units=GPa)
#
#
# Indices 1 2 3 4 5 6 
#
# 1 67.2588 41.0028 4.2287 -8.5077 -2.0695 11.1973
# 2 41.0028 147.2435 33.9498 -23.0127 -13.9059 -0.2313
# 3 4.2287 33.9498 105.6915 -19.0554 -9.8672 2.6372
# 4 -8.5077 -23.0127 -19.0554 34.4736 6.8659 -6.3653
# 5 -2.0695 -13.9059 -9.8672 6.8659 29.2387 -9.6418
# 6 11.1973 -0.2313 2.6372 -6.3653 -9.6418 40.2871
#
#
#
# Elastic Compliance Matrix: (Units=1/GPa)
#
#
# Indices 1 2 3 4 5 6 
#
# 1 0.019392 -0.005815 0.001128 0.001051 -0.003275 -0.006115
# 2 -0.005815 0.009835 -0.001951 0.003912 0.003785 0.003324
# 3 0.001128 -0.001951 0.011067 0.004757 0.001815 0.000137
# 4 0.001051 0.003912 0.004757 0.035994 -0.003505 0.004267
# 5 -0.003275 0.003785 0.001815 -0.003505 0.040486 0.009949
# 6 -0.006115 0.003324 0.000137 0.004267 0.009949 0.029587
#
#
# Mechanical properties :
#
#
# Convention : Reuss Voigt Hill
#
# Bulk Modulus (GPa) = 37.01163 53.17292 45.09227
# Shear Modulus (GPa) = 29.64885 36.86739 33.25812
#
# Velocity S-wave (km/s) = 3.59260 4.00614 3.80499
# Velocity P-wave (km/s) = 5.77243 6.67429 6.23967
#
# Compressibility (1/GPa) = 0.02701854
#
# Stress axis : x y z
#
# Youngs Moduli (GPa) = 51.56731 101.68217 90.36159
#
# Poissons Ratio (x) = 0.59128 -0.10195
# Poissons Ratio (y) = 0.29986 0.17627
# Poissons Ratio (z) = -0.05818 0.19835
#
# Static dielectric constant tensor:
#      x y z
#    x 3.741160 0.433500 0.209450 
#    y 0.433500 4.120940 -0.387190 
#    z 0.209450 -0.387190 4.394780 
# 
# 
# High freq. dielectric constant tensor:
#      x y z
#    x 1.891330 0.013100 -0.003420 
#    y 0.013100 1.915290 -0.011240 
#    z -0.003420 -0.011240 1.928110 
# 
# From -- ./inp_files/400099.got.cif
#   From: 2010.06.25/outbox.cif.g09.slc.cpg/sg2_201_cif.got.tgz:400099.got - 2010.06.27 13:26:56.
