data_PCOD8015058
_publ_section_title
;
Structure prediction by ZEFSAII (Michael W. Deem and Ramdas Pophale) SiO2 
 PCOD8015058
Probable space group: P -1
;
_chemical_formula_sum "Si O2"
_cell_formula_units_Z 16
_cell_length_a 7.495266
_cell_length_b 6.598002
_cell_length_c 15.947974
_cell_angle_alpha 59.533400
_cell_angle_beta 115.918638
_cell_angle_gamma 106.212322
_cell_volume 609.724727
_symmetry_space_group_name_H-M "P -1"
_symmetry_group_IT_number 2
_symmetry_cell_setting 'triclinic'
loop_
_space_group_symop_operation_xyz
x,y,z
-x,-y,-z
loop_
_atom_site_type_symbol
_atom_site_label
_atom_site_fract_x
_atom_site_fract_y
_atom_site_fract_z
Si Si1 0.819423 0.646112 0.407819
Si Si2 0.595153 0.238829 0.384026
Si Si3 0.614768 0.131289 0.921376
Si Si4 0.999342 0.444054 0.235734
Si Si5 0.252103 0.941644 0.799104
Si Si6 0.706030 0.673890 0.821691
Si Si7 0.009138 0.002741 0.900386
Si Si8 0.728915 0.767832 0.540049
O O1 0.701696 0.498736 0.340922
O O2 0.874235 0.896907 0.321984
O O3 0.685438 0.666243 0.459481
O O4 0.000000 0.500000 0.500000
O O5 0.470688 0.182315 0.284846
O O6 0.462024 0.268619 0.433099
O O7 0.760559 0.052498 0.473819
O O8 0.485414 0.045042 0.830259
O O9 0.625064 0.409213 0.885797
O O10 0.500000 0.000000 0.000000
O O11 0.848417 0.053439 0.975310
O O12 0.135409 0.337902 0.216359
O O13 0.077007 0.350789 0.360033
O O14 0.023154 0.724427 0.177601
O O15 0.776714 0.321789 0.194346
O O16 0.162204 0.931036 0.875741
O O17 0.808610 0.825640 0.887715
#
# Coordination Sequence:
#
# PCOD8015058 Si02
#       8
#     2   2   2   2   2   2   2   2
#     4  12  23  37  64  94 135 174 213 269 328 385
#     4  10  22  41  64  93 133 173 220 269 315 390
#     4  10  21  42  66  90 126 164 210 268 326 381
#     4  10  22  40  63  93 130 163 214 262 312 391
#     4  10  22  40  60  92 132 162 209 269 316 381
#     4  10  21  42  65  92 125 162 217 265 317 382
#     4  10  22  40  67  90 122 174 208 263 328 376
#     4  10  23  40  63  94 133 177 221 259 318 391
#
# _framework density 26.241350000000001
#
# number of rings (size 3 to 8) (size 9 to 14) (size 15 to 20)
#    0.000    1.750    1.250    2.250    0.000   10.000 
#    0.000    0.000    0.000    0.000    0.000    0.000 
#    0.000    0.000    0.000    0.000    0.000    0.000 
#
# Total GULP energy -198250.342610 kJ/mol
# GULP energy per Si atom -12390.646413 kJ/mol
# Density = 2.618162 g / cm^3
# Si number density = 26.241350 Si / 1000 Ang^3
#
#
#
# Elastic Constant Matrix: (Units=GPa)
#
#
# Indices 1 2 3 4 5 6 
#
# 1 46.0084 30.3418 27.6612 -3.7778 13.1119 9.4556
# 2 30.3418 205.5818 86.4204 0.9213 22.3038 41.2657
# 3 27.6612 86.4204 136.6604 -5.9383 15.9483 15.9361
# 4 -3.7778 0.9213 -5.9383 49.6016 0.1937 -0.7103
# 5 13.1119 22.3038 15.9483 0.1937 30.9244 -6.9861
# 6 9.4556 41.2657 15.9361 -0.7103 -6.9861 35.4289
#
#
#
# Elastic Compliance Matrix: (Units=1/GPa)
#
#
# Indices 1 2 3 4 5 6 
#
# 1 0.029338 0.000418 -0.003527 0.001723 -0.013025 -0.009263
# 2 0.000418 0.009439 -0.003968 -0.000744 -0.007372 -0.010790
# 3 -0.003527 -0.003968 0.010634 0.001091 -0.000997 0.000605
# 4 0.001723 -0.000744 0.001091 0.020442 -0.000848 0.000159
# 5 -0.013025 -0.007372 -0.000997 -0.000848 0.048687 0.022094
# 6 -0.009263 -0.010790 0.000605 0.000159 0.022094 0.047353
#
#
# Mechanical properties :
#
#
# Convention : Reuss Voigt Hill
#
# Bulk Modulus (GPa) = 28.36384 75.23304 51.79844
# Shear Modulus (GPa) = 26.06898 39.44611 32.75755
#
# Velocity S-wave (km/s) = 3.15529 3.88132 3.53699
# Velocity P-wave (km/s) = 4.90987 6.98700 6.03842
#
# Compressibility (1/GPa) = 0.03525616
#
# Stress axis : x y z
#
# Youngs Moduli (GPa) = 34.08595 105.93920 94.04204
#
# Poissons Ratio (x) = -0.04424 0.33170
# Poissons Ratio (y) = -0.01423 0.37312
# Poissons Ratio (z) = 0.12023 0.42032
#
# Static dielectric constant tensor:
#      x y z
#    x 5.065230 0.264140 0.223570 
#    y 0.264140 5.284670 0.440420 
#    z 0.223570 0.440420 5.135380 
# 
# 
# High freq. dielectric constant tensor:
#      x y z
#    x 2.054040 0.000060 -0.004560 
#    y 0.000060 2.061940 0.009080 
#    z -0.004560 0.009080 2.062560 
# 
# From -- ./inp_files/553290.got.cif
#   From: 2010.06.25/outbox.cif.g09.slc.cpg/sg2_277_cif.got.tgz:553290.got - 2010.06.27 13:26:56.
