data_PCOD8015757
_publ_section_title
;
Structure prediction by ZEFSAII (Michael W. Deem and Ramdas Pophale) SiO2 
 PCOD8015757
Probable space group: P -1
;
_chemical_formula_sum "Si O2"
_cell_formula_units_Z 14
_cell_length_a 11.948589
_cell_length_b 6.851179
_cell_length_c 15.607518
_cell_angle_alpha 43.779837
_cell_angle_beta 131.986828
_cell_angle_gamma 114.015863
_cell_volume 649.861213
_symmetry_space_group_name_H-M "P -1"
_symmetry_group_IT_number 2
_symmetry_cell_setting 'triclinic'
loop_
_space_group_symop_operation_xyz
x,y,z
-x,-y,-z
loop_
_atom_site_type_symbol
_atom_site_label
_atom_site_fract_x
_atom_site_fract_y
_atom_site_fract_z
Si Si1 0.151238 0.152399 0.621894
Si Si2 0.304347 0.584923 0.669032
Si Si3 0.674482 0.426483 0.123861
Si Si4 0.863906 0.374391 0.856571
Si Si5 0.885591 0.843574 0.590517
Si Si6 0.799467 0.803444 0.928380
Si Si7 0.412126 0.241680 0.314061
O O1 0.189205 0.426159 0.605382
O O2 0.085442 0.246092 0.465033
O O3 0.298892 0.915979 0.762811
O O4 0.022550 0.996374 0.650984
O O5 0.288899 0.471884 0.793642
O O6 0.472978 0.542313 0.727224
O O7 0.263459 0.928767 0.539079
O O8 0.500000 0.500000 0.000000
O O9 0.768511 0.562724 0.056496
O O10 0.871849 0.543823 0.719353
O O11 0.738622 0.561084 0.791203
O O12 0.807365 0.078487 0.902474
O O13 0.039368 0.307734 0.003018
O O14 0.658829 0.895080 0.761857
O O15 0.500000 0.000000 0.500000
#
# Coordination Sequence:
#
# PCOD8015757 Si02
#       7
#     2   2   2   2   2   2   2
#     4  10  23  40  67  95 131 174 214 276 330 387
#     4  11  24  41  67 101 127 171 219 276 338 383
#     4  11  23  43  64  92 133 165 220 275 320 394
#     4  11  25  45  69  95 133 186 219 268 332 400
#     4  10  21  43  64  97 133 167 224 271 325 396
#     4  11  26  48  67  95 136 182 223 269 333 395
#     4  12  26  44  67 102 137 171 224 278 327 403
#
# _framework density 21.543061000000002
#
# number of rings (size 3 to 8) (size 9 to 14) (size 15 to 20)
#    0.000    1.143    4.286    0.857    4.000    2.286 
#    5.143    0.000    0.000    0.000    0.000    0.000 
#    0.000    0.000    0.000    0.000    0.000    0.000 
#
# Total GULP energy -173472.141178 kJ/mol
# GULP energy per Si atom -12390.867227 kJ/mol
# Density = 2.149403 g / cm^3
# Si number density = 21.543061 Si / 1000 Ang^3
#
#
#
# Elastic Constant Matrix: (Units=GPa)
#
#
# Indices 1 2 3 4 5 6 
#
# 1 88.0820 14.8559 21.8498 9.1473 10.9571 0.1621
# 2 14.8559 87.6045 28.4156 15.5668 -3.7783 3.0679
# 3 21.8498 28.4156 93.3918 10.9903 0.7544 2.9038
# 4 9.1473 15.5668 10.9903 34.7072 2.5986 4.0260
# 5 10.9571 -3.7783 0.7544 2.5986 33.1824 0.5627
# 6 0.1621 3.0679 2.9038 4.0260 0.5627 26.1775
#
#
#
# Elastic Compliance Matrix: (Units=1/GPa)
#
#
# Indices 1 2 3 4 5 6 
#
# 1 0.012877 -0.001290 -0.002394 -0.001824 -0.004214 0.000708
# 2 -0.001290 0.013694 -0.003294 -0.004881 0.002451 -0.000534
# 3 -0.002394 -0.003294 0.012500 -0.001788 0.000283 -0.000717
# 4 -0.001824 -0.004881 -0.001788 0.032716 -0.002404 -0.004198
# 5 -0.004214 0.002451 0.000283 -0.002404 0.031999 -0.000611
# 6 0.000708 -0.000534 -0.000717 -0.004198 -0.000611 0.038997
#
#
# Mechanical properties :
#
#
# Convention : Reuss Voigt Hill
#
# Bulk Modulus (GPa) = 39.81396 44.36899 42.09148
# Shear Modulus (GPa) = 30.28325 32.41056 31.34691
#
# Velocity S-wave (km/s) = 3.75334 3.88294 3.81869
# Velocity P-wave (km/s) = 6.10776 6.38304 6.24691
#
# Compressibility (1/GPa) = 0.02511682
#
# Stress axis : x y z
#
# Youngs Moduli (GPa) = 77.66042 73.02672 79.99921
#
# Poissons Ratio (x) = 0.09418 0.19148
# Poissons Ratio (y) = 0.10015 0.26348
# Poissons Ratio (z) = 0.18588 0.24052
#
# Static dielectric constant tensor:
#      x y z
#    x 4.098360 0.134080 0.172260 
#    y 0.134080 3.965180 0.020130 
#    z 0.172260 0.020130 3.964140 
# 
# 
# High freq. dielectric constant tensor:
#      x y z
#    x 1.860410 0.003550 0.012780 
#    y 0.003550 1.830320 0.001560 
#    z 0.012780 0.001560 1.853040 
# 
# From -- ./inp_files/67637.got.cif
#   From: 2010.06.25/outbox.cif.g09.slc.cpg/sg2_34_cif.got.tgz:67637.got - 2010.06.27 13:26:56.
