data_PCOD8015219
_publ_section_title
;
Structure prediction by ZEFSAII (Michael W. Deem and Ramdas Pophale) SiO2 
 PCOD8015219
Probable space group: P -1
;
_chemical_formula_sum "Si O2"
_cell_formula_units_Z 16
_cell_length_a 8.798144
_cell_length_b 8.756321
_cell_length_c 14.787144
_cell_angle_alpha 101.069248
_cell_angle_beta 112.254703
_cell_angle_gamma 128.122779
_cell_volume 672.805814
_symmetry_space_group_name_H-M "P -1"
_symmetry_group_IT_number 2
_symmetry_cell_setting 'triclinic'
loop_
_space_group_symop_operation_xyz
x,y,z
-x,-y,-z
loop_
_atom_site_type_symbol
_atom_site_label
_atom_site_fract_x
_atom_site_fract_y
_atom_site_fract_z
Si Si1 0.841281 0.496712 0.899536
Si Si2 0.307039 0.967150 0.007349
Si Si3 0.457836 0.456913 0.636825
Si Si4 0.259076 0.288632 0.979587
Si Si5 0.368610 0.838616 0.539882
Si Si6 0.152615 0.365325 0.392577
Si Si7 0.691030 0.934773 0.782304
Si Si8 0.687432 0.932907 0.328295
O O1 0.603335 0.231297 0.777768
O O2 0.731085 0.577918 0.923690
O O3 0.000000 0.500000 0.000000
O O4 0.038036 0.695070 0.889694
O O5 0.346781 0.985069 0.127728
O O6 0.301294 0.143948 0.004647
O O7 0.500000 0.000000 0.000000
O O8 0.279771 0.359484 0.500883
O O9 0.715288 0.567556 0.666464
O O10 0.535545 0.664318 0.734508
O O11 0.308022 0.235308 0.646235
O O12 0.500000 0.500000 0.000000
O O13 0.987399 0.112651 0.849739
O O14 0.166062 0.559460 0.437942
O O15 0.585437 0.933321 0.666826
O O16 0.500000 0.000000 0.500000
O O17 0.214243 0.868828 0.554410
O O18 0.864932 0.088224 0.297191
#
# Coordination Sequence:
#
# PCOD8015219 Si02
#       8
#     2   2   2   2   2   2   2   2
#     4  11  24  44  64  99 141 178 233 292 342 419
#     4  11  23  45  72 102 142 185 236 295 363 433
#     4  10  21  42  66  97 135 176 234 287 353 418
#     4  11  23  41  67 105 139 180 234 292 353 432
#     4  11  23  45  66  98 144 183 234 296 352 415
#     4  10  23  41  65  97 136 180 232 293 347 421
#     4  10  23  45  69  99 143 186 227 296 356 421
#     4  12  22  40  70  96 131 185 228 287 357 417
#
# _framework density 23.781009000000001
#
# number of rings (size 3 to 8) (size 9 to 14) (size 15 to 20)
#    0.000    1.250    1.250    6.000    1.750    0.000 
#    4.500    5.000    0.000    0.000    0.000    0.000 
#    0.000    0.000    0.000    0.000    0.000    0.000 
#
# Total GULP energy -198260.698671 kJ/mol
# GULP energy per Si atom -12391.293667 kJ/mol
# Density = 2.372688 g / cm^3
# Si number density = 23.781009 Si / 1000 Ang^3
#
#
#
# Elastic Constant Matrix: (Units=GPa)
#
#
# Indices 1 2 3 4 5 6 
#
# 1 132.5569 52.2707 15.9894 9.0601 -9.7620 4.6085
# 2 52.2707 183.1336 29.5277 20.2009 5.0698 3.7108
# 3 15.9894 29.5277 69.8956 10.9987 4.7000 -0.8816
# 4 9.0601 20.2009 10.9987 39.8277 -4.3437 8.0204
# 5 -9.7620 5.0698 4.7000 -4.3437 26.5573 5.4878
# 6 4.6085 3.7108 -0.8816 8.0204 5.4878 52.0220
#
#
#
# Elastic Compliance Matrix: (Units=1/GPa)
#
#
# Indices 1 2 3 4 5 6 
#
# 1 0.009026 -0.002484 -0.001365 0.000285 0.004317 -0.001145
# 2 -0.002484 0.006809 -0.001704 -0.002763 -0.002444 0.000389
# 3 -0.001365 -0.001704 0.016273 -0.004078 -0.004049 0.001574
# 4 0.000285 -0.002763 -0.004078 0.029406 0.007237 -0.005194
# 5 0.004317 -0.002444 -0.004049 0.007237 0.042829 -0.005910
# 6 -0.001145 0.000389 0.001574 -0.005194 -0.005910 0.020747
#
#
# Mechanical properties :
#
#
# Convention : Reuss Voigt Hill
#
# Bulk Modulus (GPa) = 47.61540 64.57352 56.09446
# Shear Modulus (GPa) = 34.91685 42.86797 38.89241
#
# Velocity S-wave (km/s) = 3.83595 4.25033 4.04844
# Velocity P-wave (km/s) = 6.29963 7.16236 6.74480
#
# Compressibility (1/GPa) = 0.02100161
#
# Stress axis : x y z
#
# Youngs Moduli (GPa) = 110.78707 146.86971 61.45146
#
# Poissons Ratio (x) = 0.36482 0.08389
# Poissons Ratio (y) = 0.27519 0.10473
# Poissons Ratio (z) = 0.15123 0.25030
#
# Static dielectric constant tensor:
#      x y z
#    x 4.630100 -0.000570 -0.146180 
#    y -0.000570 4.650540 0.293330 
#    z -0.146180 0.293330 4.370300 
# 
# 
# High freq. dielectric constant tensor:
#      x y z
#    x 1.940770 -0.014990 -0.000940 
#    y -0.014990 1.966660 0.013800 
#    z -0.000940 0.013800 1.933850 
# 
# From -- ./inp_files/495271.got.cif
#   From: 2010.06.25/outbox.cif.g09.slc.cpg/sg2_248_cif.got.tgz:495271.got - 2010.06.27 13:26:56.
