data_PCOD8015180
_publ_section_title
;
Structure prediction by ZEFSAII (Michael W. Deem and Ramdas Pophale) SiO2 
 PCOD8015180
Probable space group: P -1
;
_chemical_formula_sum "Si O2"
_cell_formula_units_Z 16
_cell_length_a 10.954816
_cell_length_b 9.647946
_cell_length_c 9.027332
_cell_angle_alpha 86.592558
_cell_angle_beta 116.900431
_cell_angle_gamma 113.022800
_cell_volume 775.031012
_symmetry_space_group_name_H-M "P -1"
_symmetry_group_IT_number 2
_symmetry_cell_setting 'triclinic'
loop_
_space_group_symop_operation_xyz
x,y,z
-x,-y,-z
loop_
_atom_site_type_symbol
_atom_site_label
_atom_site_fract_x
_atom_site_fract_y
_atom_site_fract_z
Si Si1 0.097906 0.633848 0.292670
Si Si2 0.834696 0.631136 0.952238
Si Si3 0.655507 0.300444 0.795310
Si Si4 0.684169 0.800126 0.388604
Si Si5 0.847439 0.150504 0.420178
Si Si6 0.401436 0.830207 0.914571
Si Si7 0.610479 0.675086 0.033310
Si Si8 0.894243 0.687344 0.663395
O O1 0.243124 0.736864 0.267765
O O2 0.085280 0.734433 0.414595
O O3 0.107867 0.478582 0.362637
O O4 0.948679 0.588706 0.115619
O O5 0.707979 0.481192 0.819667
O O6 0.919625 0.730807 0.849610
O O7 0.749425 0.710747 0.996795
O O8 0.482915 0.222616 0.654304
O O9 0.683344 0.251034 0.977521
O O10 0.683856 0.747026 0.224016
O O11 0.739161 0.696218 0.527742
O O12 0.793637 0.977449 0.455084
O O13 0.712414 0.182979 0.276733
O O14 0.973972 0.183362 0.363312
O O15 0.509053 0.757302 0.910795
O O16 0.500000 0.000000 0.000000
O O17 0.500000 0.500000 0.000000
#
# Coordination Sequence:
#
# PCOD8015180 Si02
#       8
#     2   2   2   2   2   2   2   2
#     4  11  25  41  69  93 128 173 219 264 311 387
#     4  11  22  44  66  98 124 167 221 268 315 370
#     4  10  21  42  66  94 131 165 213 273 312 373
#     4  11  24  43  62  98 132 166 209 270 329 370
#     4  12  24  43  64  94 134 171 211 263 320 387
#     4  11  21  41  66  96 127 169 205 256 324 381
#     4  11  22  40  70  94 128 164 212 267 311 384
#     4  11  25  41  68  93 130 174 215 264 316 380
#
# _framework density 20.644335999999999
#
# number of rings (size 3 to 8) (size 9 to 14) (size 15 to 20)
#    0.000    1.000    5.000    4.500    1.750    3.500 
#    2.250    1.250    0.000    0.000    0.000    0.000 
#    0.000    0.000    0.000    0.000    0.000    0.000 
#
# Total GULP energy -198421.659971 kJ/mol
# GULP energy per Si atom -12401.353748 kJ/mol
# Density = 2.059735 g / cm^3
# Si number density = 20.644336 Si / 1000 Ang^3
#
#
#
# Elastic Constant Matrix: (Units=GPa)
#
#
# Indices 1 2 3 4 5 6 
#
# 1 127.2646 42.5242 30.1120 -6.3802 -8.8321 6.1342
# 2 42.5242 90.5086 29.0884 1.4060 3.8328 -3.1305
# 3 30.1120 29.0884 94.6862 -8.0653 9.2299 -6.1896
# 4 -6.3802 1.4060 -8.0653 29.9353 -2.4291 3.5116
# 5 -8.8321 3.8328 9.2299 -2.4291 31.5858 -4.2542
# 6 6.1342 -3.1305 -6.1896 3.5116 -4.2542 33.1962
#
#
#
# Elastic Compliance Matrix: (Units=1/GPa)
#
#
# Indices 1 2 3 4 5 6 
#
# 1 0.010402 -0.004445 -0.002287 0.002427 0.003964 -0.002516
# 2 -0.004445 0.014254 -0.002886 -0.002760 -0.002120 0.001648
# 3 -0.002287 -0.002886 0.012867 0.002610 -0.003604 0.001811
# 4 0.002427 -0.002760 0.002610 0.035384 0.002481 -0.003647
# 5 0.003964 -0.002120 -0.003604 0.002481 0.034616 0.002569
# 6 -0.002516 0.001648 0.001811 -0.003647 0.002569 0.031797
#
#
# Mechanical properties :
#
#
# Convention : Reuss Voigt Hill
#
# Bulk Modulus (GPa) = 54.68143 57.32318 56.00231
# Shear Modulus (GPa) = 30.36705 32.99243 31.67974
#
# Velocity S-wave (km/s) = 3.83947 4.00200 3.92158
# Velocity P-wave (km/s) = 6.79708 7.01299 6.90588
#
# Compressibility (1/GPa) = 0.01828774
#
# Stress axis : x y z
#
# Youngs Moduli (GPa) = 96.13589 70.15447 77.71701
#
# Poissons Ratio (x) = 0.31183 0.17772
# Poissons Ratio (y) = 0.42731 0.22431
# Poissons Ratio (z) = 0.21984 0.20248
#
# Static dielectric constant tensor:
#      x y z
#    x 4.004080 0.058920 0.018300 
#    y 0.058920 3.656350 0.013210 
#    z 0.018300 0.013210 3.447710 
# 
# 
# High freq. dielectric constant tensor:
#      x y z
#    x 1.821360 0.002500 0.005640 
#    y 0.002500 1.798980 -0.005700 
#    z 0.005640 -0.005700 1.806250 
# 
# From -- ./inp_files/243656.got.cif
#   From: 2010.06.25/outbox.cif.g09.slc.cpg/sg2_122_cif.got.tgz:243656.got - 2010.06.27 13:26:56.
