data_PCOD8015397
_publ_section_title
;
Structure prediction by ZEFSAII (Michael W. Deem and Ramdas Pophale) SiO2 
 PCOD8015397
Probable space group: P -1
;
_chemical_formula_sum "Si O2"
_cell_formula_units_Z 16
_cell_length_a 21.907687
_cell_length_b 8.766361
_cell_length_c 19.319629
_cell_angle_alpha 136.244565
_cell_angle_beta 158.155899
_cell_angle_gamma 32.864168
_cell_volume 718.300055
_symmetry_space_group_name_H-M "P -1"
_symmetry_group_IT_number 2
_symmetry_cell_setting 'triclinic'
loop_
_space_group_symop_operation_xyz
x,y,z
-x,-y,-z
loop_
_atom_site_type_symbol
_atom_site_label
_atom_site_fract_x
_atom_site_fract_y
_atom_site_fract_z
Si Si1 0.047721 0.331014 0.565136
Si Si2 0.761656 0.548566 0.087183
Si Si3 0.144661 0.797713 0.424974
Si Si4 0.435520 0.715059 0.236223
Si Si5 0.790319 0.752509 0.042518
Si Si6 0.976569 0.325472 0.973365
Si Si7 0.601010 0.841073 0.327325
Si Si8 0.180355 0.924152 0.351917
O O1 0.244741 0.274719 0.796960
O O2 0.000000 0.500000 0.500000
O O3 0.825844 0.525324 0.439458
O O4 0.126933 0.015085 0.530781
O O5 0.703833 0.715030 0.008543
O O6 0.600796 0.483560 0.908201
O O7 0.006844 0.242438 0.239742
O O8 0.387612 0.479187 0.580477
O O9 0.095153 0.916068 0.333880
O O10 0.968039 0.777296 0.256803
O O11 0.529181 0.815493 0.317075
O O12 0.209082 0.000856 0.123900
O O13 0.895504 0.481022 0.012564
O O14 0.582702 0.054306 0.888103
O O15 0.796862 0.309237 0.749880
O O16 0.000000 0.500000 0.000000
O O17 0.609279 0.103867 0.427312
#
# Coordination Sequence:
#
# PCOD8015397 Si02
#       8
#     2   2   2   2   2   2   2   2
#     4  11  24  45  72  95 134 181 221 273 345 392
#     4  10  23  44  66 100 136 170 226 282 324 401
#     4  12  23  43  68  99 135 176 222 282 326 396
#     4  11  25  43  70 100 139 174 227 275 332 399
#     4  12  25  43  71  99 140 173 226 280 331 396
#     4  11  22  47  70  98 134 185 217 273 342 392
#     4  11  23  43  67 103 133 177 225 277 333 397
#     4  10  21  42  68  96 138 170 224 278 324 400
#
# _framework density 22.274813999999999
#
# number of rings (size 3 to 8) (size 9 to 14) (size 15 to 20)
#    0.000    1.000    5.000    3.000    0.000    6.000 
#    0.000    0.000    0.000    0.000    0.000    0.000 
#    0.000    0.000    0.000    0.000    0.000    0.000 
#
# Total GULP energy -198407.246413 kJ/mol
# GULP energy per Si atom -12400.452901 kJ/mol
# Density = 2.222412 g / cm^3
# Si number density = 22.274814 Si / 1000 Ang^3
#
#
#
# Elastic Constant Matrix: (Units=GPa)
#
#
# Indices 1 2 3 4 5 6 
#
# 1 85.6933 17.5524 2.8975 12.5010 -3.8355 7.6192
# 2 17.5524 92.0488 30.7453 18.2500 -6.5114 4.8820
# 3 2.8975 30.7453 93.6241 11.6376 -2.3283 6.2104
# 4 12.5010 18.2500 11.6376 49.6170 2.4607 -2.0394
# 5 -3.8355 -6.5114 -2.3283 2.4607 32.6862 3.5634
# 6 7.6192 4.8820 6.2104 -2.0394 3.5634 24.5537
#
#
#
# Elastic Compliance Matrix: (Units=1/GPa)
#
#
# Indices 1 2 3 4 5 6 
#
# 1 0.012937 -0.001786 0.000913 -0.003095 0.001943 -0.004429
# 2 -0.001786 0.013500 -0.003704 -0.003860 0.002714 -0.001908
# 3 0.000913 -0.003704 0.012318 -0.001912 0.000709 -0.002924
# 4 -0.003095 -0.003860 -0.001912 0.023168 -0.003519 0.004647
# 5 0.001943 0.002714 0.000709 -0.003519 0.032366 -0.006312
# 6 -0.004429 -0.001908 -0.002924 0.004647 -0.006312 0.044522
#
#
# Mechanical properties :
#
#
# Convention : Reuss Voigt Hill
#
# Bulk Modulus (GPa) = 33.78235 41.52850 37.65543
# Shear Modulus (GPa) = 31.67907 36.04945 33.86426
#
# Velocity S-wave (km/s) = 3.77529 4.02729 3.90332
# Velocity P-wave (km/s) = 5.84832 6.34899 6.10379
#
# Compressibility (1/GPa) = 0.02960126
#
# Stress axis : x y z
#
# Youngs Moduli (GPa) = 77.29915 74.07388 81.17873
#
# Poissons Ratio (x) = 0.13228 -0.07411
# Poissons Ratio (y) = 0.13804 0.30070
# Poissons Ratio (z) = -0.07057 0.27438
#
# Static dielectric constant tensor:
#      x y z
#    x 3.819450 -0.190470 -0.008210 
#    y -0.190470 4.616280 0.074400 
#    z -0.008210 0.074400 4.442070 
# 
# 
# High freq. dielectric constant tensor:
#      x y z
#    x 1.860660 0.013280 -0.004700 
#    y 0.013280 1.879150 0.007910 
#    z -0.004700 0.007910 1.895040 
# 
# From -- ./inp_files/178723.got.cif
#   From: 2010.06.25/outbox.cif.g09.slc.cpg/sg2_90_cif.got.tgz:178723.got - 2010.06.27 13:26:56.
