data_PCOD8015881
_publ_section_title
;
Structure prediction by ZEFSAII (Michael W. Deem and Ramdas Pophale) SiO2 
 PCOD8015881
Probable space group: P -1
;
_chemical_formula_sum "Si O2"
_cell_formula_units_Z 16
_cell_length_a 9.158150
_cell_length_b 5.322723
_cell_length_c 15.908070
_cell_angle_alpha 126.071864
_cell_angle_beta 86.594870
_cell_angle_gamma 99.395852
_cell_volume 617.722465
_symmetry_space_group_name_H-M "P -1"
_symmetry_group_IT_number 2
_symmetry_cell_setting 'triclinic'
loop_
_space_group_symop_operation_xyz
x,y,z
-x,-y,-z
loop_
_atom_site_type_symbol
_atom_site_label
_atom_site_fract_x
_atom_site_fract_y
_atom_site_fract_z
Si Si1 0.423274 0.785665 0.705529
Si Si2 0.377820 0.502601 0.829677
Si Si3 0.217893 0.478212 0.515488
Si Si4 0.064979 0.169579 0.199135
Si Si5 0.257541 0.985952 0.297006
Si Si6 0.305948 0.345682 0.107172
Si Si7 0.937995 0.315382 0.582574
Si Si8 0.848833 0.622684 0.053090
O O1 0.352544 0.595735 0.752650
O O2 0.364096 0.604304 0.587117
O O3 0.598967 0.779912 0.697582
O O4 0.385573 0.137087 0.772942
O O5 0.526745 0.726048 0.903861
O O6 0.237789 0.571751 0.904388
O O7 0.220043 0.099821 0.416795
O O8 0.210949 0.648462 0.457951
O O9 0.077065 0.559618 0.587621
O O10 0.115877 0.006524 0.248556
O O11 0.175800 0.096505 0.105196
O O12 0.069170 0.547989 0.294034
O O13 0.900192 0.992417 0.147994
O O14 0.302665 0.644810 0.226784
O O15 0.268825 0.403448 0.023521
O O16 0.000000 0.000000 0.500000
O O17 0.000000 0.500000 0.000000
#
# Coordination Sequence:
#
# PCOD8015881 Si02
#       8
#     2   2   2   2   2   2   2   2
#     4  11  24  47  72 104 145 188 247 294 367 434
#     4  11  27  48  74 107 145 194 239 312 363 440
#     4  10  22  39  64 102 140 189 239 286 360 433
#     4  11  22  43  70 103 143 186 243 296 365 429
#     4  10  21  43  67 102 142 187 235 299 354 432
#     4  11  23  46  72 103 142 191 243 299 371 428
#     4  10  22  39  64 101 148 188 231 295 362 431
#     4  12  26  46  73 107 140 191 246 306 368 440
#
# _framework density 25.901596999999999
#
# number of rings (size 3 to 8) (size 9 to 14) (size 15 to 20)
#    0.000    1.250    2.500    2.625    1.750    3.000 
#    0.000    4.375    0.000    0.000    0.000    0.000 
#    0.000    0.000    0.000    0.000    0.000    0.000 
#
# Total GULP energy -198285.386956 kJ/mol
# GULP energy per Si atom -12392.836685 kJ/mol
# Density = 2.584264 g / cm^3
# Si number density = 25.901597 Si / 1000 Ang^3
#
#
#
# Elastic Constant Matrix: (Units=GPa)
#
#
# Indices 1 2 3 4 5 6 
#
# 1 103.0059 25.6957 52.0926 -6.2164 -0.2976 17.9651
# 2 25.6957 73.4098 28.7997 -26.2911 2.5592 -0.0321
# 3 52.0926 28.7997 123.1608 -22.2763 1.2409 4.1261
# 4 -6.2164 -26.2911 -22.2763 35.0980 1.8013 -12.8005
# 5 -0.2976 2.5592 1.2409 1.8013 42.8606 -4.8556
# 6 17.9651 -0.0321 4.1261 -12.8005 -4.8556 45.7854
#
#
#
# Elastic Compliance Matrix: (Units=1/GPa)
#
#
# Indices 1 2 3 4 5 6 
#
# 1 0.015253 -0.005949 -0.006365 -0.008653 0.000123 -0.007822
# 2 -0.005949 0.022265 0.000454 0.018675 -0.001332 0.007389
# 3 -0.006365 0.000454 0.012075 0.008235 -0.000351 0.003675
# 4 -0.008653 0.018675 0.008235 0.052524 -0.001675 0.017173
# 5 0.000123 -0.001332 -0.000351 -0.001675 0.023722 0.002030
# 6 -0.007822 0.007389 0.003675 0.017173 0.002030 0.029601
#
#
# Mechanical properties :
#
#
# Convention : Reuss Voigt Hill
#
# Bulk Modulus (GPa) = 38.65058 56.97249 47.81154
# Shear Modulus (GPa) = 26.62620 37.61468 32.12044
#
# Velocity S-wave (km/s) = 3.20968 3.81493 3.52532
# Velocity P-wave (km/s) = 5.35636 6.43804 5.92195
#
# Compressibility (1/GPa) = 0.02587283
#
# Stress axis : x y z
#
# Youngs Moduli (GPa) = 65.55908 44.91438 82.81324
#
# Poissons Ratio (x) = 0.26719 0.52710
# Poissons Ratio (y) = 0.39001 -0.03756
# Poissons Ratio (z) = 0.41728 -0.02037
#
# Static dielectric constant tensor:
#      x y z
#    x 5.339560 0.825340 -0.530570 
#    y 0.825340 4.908440 -0.293080 
#    z -0.530570 -0.293080 5.332020 
# 
# 
# High freq. dielectric constant tensor:
#      x y z
#    x 2.041700 0.018550 -0.011000 
#    y 0.018550 2.027470 -0.001590 
#    z -0.011000 -0.001590 2.048060 
# 
# From -- ./inp_files/95650.got.cif
#   From: 2010.06.25/outbox.cif.g09.slc.cpg/sg2_48_cif.got.tgz:95650.got - 2010.06.27 13:26:56.
