data_PCOD8015400
_publ_section_title
;
Structure prediction by ZEFSAII (Michael W. Deem and Ramdas Pophale) SiO2 
 PCOD8015400
Probable space group: P -1
;
_chemical_formula_sum "Si O2"
_cell_formula_units_Z 12
_cell_length_a 9.813984
_cell_length_b 8.505507
_cell_length_c 12.077322
_cell_angle_alpha 38.108999
_cell_angle_beta 69.523900
_cell_angle_gamma 81.720532
_cell_volume 567.649506
_symmetry_space_group_name_H-M "P -1"
_symmetry_group_IT_number 2
_symmetry_cell_setting 'triclinic'
loop_
_space_group_symop_operation_xyz
x,y,z
-x,-y,-z
loop_
_atom_site_type_symbol
_atom_site_label
_atom_site_fract_x
_atom_site_fract_y
_atom_site_fract_z
Si Si1 0.076873 0.109683 0.029939
Si Si2 0.959137 0.611330 0.766748
Si Si3 0.599135 0.801262 0.047458
Si Si4 0.341013 0.312112 0.138797
Si Si5 0.403702 0.213866 0.407368
Si Si6 0.083986 0.119981 0.584076
O O1 0.255926 0.151592 0.941247
O O2 0.040014 0.388486 0.904791
O O3 0.018709 0.916767 0.256777
O O4 0.000000 0.000000 0.000000
O O5 0.793299 0.536572 0.910825
O O6 0.053135 0.868985 0.653847
O O7 0.948739 0.645336 0.615989
O O8 0.506689 0.500546 0.242891
O O9 0.661249 0.869934 0.867065
O O10 0.500000 0.000000 0.000000
O O11 0.321014 0.151521 0.346549
O O12 0.500000 0.500000 0.000000
O O13 0.500000 0.000000 0.500000
O O14 0.257217 0.174449 0.549243
#
# Coordination Sequence:
#
# PCOD8015400 Si02
#       6
#     2   2   2   2   2   2
#     4  12  27  41  68  97 138 183 218 270 338 407
#     4  10  21  42  68  97 127 169 233 276 327 388
#     4  11  25  45  63  97 140 176 216 273 345 400
#     4   9  20  37  67  91 127 175 216 275 328 395
#     4  10  22  40  69  99 127 169 229 278 329 394
#     4  10  22  41  68  97 125 168 228 284 320 390
#
# _framework density 21.139804999999999
#
# number of rings (size 3 to 8) (size 9 to 14) (size 15 to 20)
#    0.000    1.667    1.667    1.500   11.667    0.667 
#    0.000    1.667    0.000    0.000    0.000    0.000 
#    0.000    0.000    0.000    0.000    0.000    0.000 
#
# Total GULP energy -148674.838231 kJ/mol
# GULP energy per Si atom -12389.569853 kJ/mol
# Density = 2.109169 g / cm^3
# Si number density = 21.139805 Si / 1000 Ang^3
#
#
#
# Elastic Constant Matrix: (Units=GPa)
#
#
# Indices 1 2 3 4 5 6 
#
# 1 176.9573 53.8844 42.8973 -4.8157 -18.4571 -13.6010
# 2 53.8844 100.5810 33.5940 2.4740 3.9725 -5.3950
# 3 42.8973 33.5940 78.7047 6.3703 -12.2772 -7.7939
# 4 -4.8157 2.4740 6.3703 29.8229 1.2017 5.4841
# 5 -18.4571 3.9725 -12.2772 1.2017 35.1066 -3.8568
# 6 -13.6010 -5.3950 -7.7939 5.4841 -3.8568 45.1868
#
#
#
# Elastic Compliance Matrix: (Units=1/GPa)
#
#
# Indices 1 2 3 4 5 6 
#
# 1 0.007837 -0.003608 -0.002070 0.001532 0.003941 0.001721
# 2 -0.003608 0.013615 -0.004680 -0.000384 -0.005133 -0.000659
# 3 -0.002070 -0.004680 0.017410 -0.004435 0.005997 0.002871
# 4 0.001532 -0.000384 -0.004435 0.035758 -0.002464 -0.004900
# 5 0.003941 -0.005133 0.005997 -0.002464 0.033846 0.004796
# 6 0.001721 -0.000659 0.002871 -0.004900 0.004796 0.024069
#
#
# Mechanical properties :
#
#
# Convention : Reuss Voigt Hill
#
# Bulk Modulus (GPa) = 55.10745 68.55493 61.83119
# Shear Modulus (GPa) = 31.38750 37.08109 34.23429
#
# Velocity S-wave (km/s) = 3.85744 4.19273 4.02857
# Velocity P-wave (km/s) = 6.77971 7.47919 7.13802
#
# Compressibility (1/GPa) = 0.01814637
#
# Stress axis : x y z
#
# Youngs Moduli (GPa) = 127.60693 73.44834 57.43757
#
# Poissons Ratio (x) = 0.26500 0.11889
# Poissons Ratio (y) = 0.46039 0.26880
# Poissons Ratio (z) = 0.26414 0.34372
#
# Static dielectric constant tensor:
#      x y z
#    x 4.478750 0.112530 -0.233270 
#    y 0.112530 4.434730 0.876700 
#    z -0.233270 0.876700 4.745770 
# 
# 
# High freq. dielectric constant tensor:
#      x y z
#    x 1.857480 0.000930 -0.013040 
#    y 0.000930 1.805850 0.011640 
#    z -0.013040 0.011640 1.821530 
# 
# From -- ./inp_files/240304.got.cif
#   From: 2010.06.25/outbox.cif.g09.slc.cpg/sg2_121_cif.got.tgz:240304.got - 2010.06.27 13:26:56.
