data_PCOD8015236
_publ_section_title
;
Structure prediction by ZEFSAII (Michael W. Deem and Ramdas Pophale) SiO2 
 PCOD8015236
Probable space group: P -1
;
_chemical_formula_sum "Si O2"
_cell_formula_units_Z 14
_cell_length_a 19.670990
_cell_length_b 11.148254
_cell_length_c 14.284180
_cell_angle_alpha 45.472021
_cell_angle_beta 29.447192
_cell_angle_gamma 24.100381
_cell_volume 556.224928
_symmetry_space_group_name_H-M "P -1"
_symmetry_group_IT_number 2
_symmetry_cell_setting 'triclinic'
loop_
_space_group_symop_operation_xyz
x,y,z
-x,-y,-z
loop_
_atom_site_type_symbol
_atom_site_label
_atom_site_fract_x
_atom_site_fract_y
_atom_site_fract_z
Si Si1 0.445602 0.491166 0.209157
Si Si2 0.674151 0.602108 0.909942
Si Si3 0.335259 0.246713 0.969761
Si Si4 0.576540 0.850602 0.592696
Si Si5 0.819903 0.536416 0.161052
Si Si6 0.060169 0.260179 0.460954
Si Si7 0.067851 0.884330 0.617644
O O1 0.578662 0.170237 0.196347
O O2 0.240990 0.641597 0.454209
O O3 0.656259 0.416350 0.026944
O O4 0.258643 0.761344 0.202001
O O5 0.863714 0.472630 0.670414
O O6 0.362493 0.011462 0.058629
O O7 0.803711 0.520384 0.900549
O O8 0.171728 0.493604 0.944247
O O9 0.667370 0.919970 0.750786
O O10 0.896526 0.491202 0.435115
O O11 0.500000 0.000000 0.500000
O O12 0.480547 0.092264 0.649273
O O13 0.900737 0.272215 0.247952
O O14 0.000000 0.500000 0.000000
O O15 0.180259 0.947786 0.476108
#
# Coordination Sequence:
#
# PCOD8015236 Si02
#       7
#     2   2   2   2   2   2   2
#     4  10  21  42  67 101 133 182 225 277 343 406
#     4  11  23  41  72  98 133 179 234 275 334 417
#     4  11  25  46  70  99 137 182 229 287 340 409
#     4  11  24  42  71 102 136 178 231 280 336 403
#     4  12  26  44  67 103 137 177 229 291 344 401
#     4  11  24  45  72 101 135 189 226 277 346 409
#     4  10  22  40  68  97 140 178 223 283 344 401
#
# _framework density 25.169673
#
# number of rings (size 3 to 8) (size 9 to 14) (size 15 to 20)
#    0.000    1.143    4.286    1.286    2.000    4.000 
#    0.000    0.714    0.000    0.000    0.000    0.000 
#    0.000    0.000    0.000    0.000    0.000    0.000 
#
# Total GULP energy -173459.867565 kJ/mol
# GULP energy per Si atom -12389.990540 kJ/mol
# Density = 2.511239 g / cm^3
# Si number density = 25.169673 Si / 1000 Ang^3
#
#
#
# Elastic Constant Matrix: (Units=GPa)
#
#
# Indices 1 2 3 4 5 6 
#
# 1 132.3940 53.5596 13.7419 -19.9769 12.9427 -20.2185
# 2 53.5596 139.7508 18.8699 -47.1666 4.9433 -17.4665
# 3 13.7419 18.8699 51.4383 -9.4144 -8.1906 -12.9233
# 4 -19.9769 -47.1666 -9.4144 39.2466 1.9044 5.5754
# 5 12.9427 4.9433 -8.1906 1.9044 40.8097 -9.7379
# 6 -20.2185 -17.4665 -12.9233 5.5754 -9.7379 53.7863
#
#
#
# Elastic Compliance Matrix: (Units=1/GPa)
#
#
# Indices 1 2 3 4 5 6 
#
# 1 0.009498 -0.002810 -0.001278 0.001022 -0.002551 0.001783
# 2 -0.002810 0.013455 -0.001491 0.014278 -0.001413 0.001219
# 3 -0.001278 -0.001491 0.023118 0.002001 0.006457 0.005552
# 4 0.001022 0.014278 0.002001 0.043771 -0.003621 0.000309
# 5 -0.002551 -0.001413 0.006457 -0.003621 0.028293 0.005631
# 6 0.001783 0.001219 0.005552 0.000309 0.005631 0.021980
#
#
# Mechanical properties :
#
#
# Convention : Reuss Voigt Hill
#
# Bulk Modulus (GPa) = 28.64118 55.10288 41.87203
# Shear Modulus (GPa) = 30.69172 42.59595 36.64383
#
# Velocity S-wave (km/s) = 3.49577 4.11828 3.81973
# Velocity P-wave (km/s) = 5.26287 6.67486 6.01047
#
# Compressibility (1/GPa) = 0.03491476
#
# Stress axis : x y z
#
# Youngs Moduli (GPa) = 105.28089 74.32254 43.25566
#
# Poissons Ratio (x) = 0.20882 0.05528
# Poissons Ratio (y) = 0.29581 0.06449
# Poissons Ratio (z) = 0.13454 0.11080
#
# Static dielectric constant tensor:
#      x y z
#    x 4.908370 0.425740 0.289180 
#    y 0.425740 4.753510 0.060650 
#    z 0.289180 0.060650 4.813830 
# 
# 
# High freq. dielectric constant tensor:
#      x y z
#    x 2.013190 0.022310 0.013510 
#    y 0.022310 1.998200 -0.013700 
#    z 0.013510 -0.013700 2.006350 
# 
# From -- ./inp_files/216321.got.cif
#   From: 2010.06.25/outbox.cif.g09.slc.cpg/sg2_109_cif.got.tgz:216321.got - 2010.06.27 13:26:56.
