data_PCOD8015297
_publ_section_title
;
Structure prediction by ZEFSAII (Michael W. Deem and Ramdas Pophale) SiO2 
 PCOD8015297
Probable space group: P -1
;
_chemical_formula_sum "Si O2"
_cell_formula_units_Z 14
_cell_length_a 13.996936
_cell_length_b 8.142345
_cell_length_c 9.266379
_cell_angle_alpha 109.460119
_cell_angle_beta 100.471652
_cell_angle_gamma 128.560741
_cell_volume 661.148099
_symmetry_space_group_name_H-M "P -1"
_symmetry_group_IT_number 2
_symmetry_cell_setting 'triclinic'
loop_
_space_group_symop_operation_xyz
x,y,z
-x,-y,-z
loop_
_atom_site_type_symbol
_atom_site_label
_atom_site_fract_x
_atom_site_fract_y
_atom_site_fract_z
Si Si1 0.463483 0.753389 0.442563
Si Si2 0.927120 0.084250 0.534305
Si Si3 0.075123 0.581298 0.890946
Si Si4 0.912371 0.077492 0.207759
Si Si5 0.335383 0.088091 0.206669
Si Si6 0.194298 0.222317 0.329590
Si Si7 0.410723 0.417140 0.093426
O O1 0.589566 0.840559 0.600093
O O2 0.314311 0.530061 0.424285
O O3 0.463055 0.662095 0.259314
O O4 0.500000 0.000000 0.500000
O O5 0.892835 0.122841 0.380906
O O6 0.031844 0.347537 0.731781
O O7 0.790841 0.849683 0.528606
O O8 0.000000 0.000000 0.500000
O O9 0.040526 0.696789 0.809967
O O10 0.000000 0.500000 0.000000
O O11 0.246363 0.803735 0.040969
O O12 0.035412 0.092817 0.227505
O O13 0.759351 0.789995 0.044091
O O14 0.221219 0.099609 0.189850
O O15 0.444344 0.296460 0.172891
O O16 0.500000 0.500000 0.000000
#
# Coordination Sequence:
#
# PCOD8015297 Si02
#       7
#     2   2   2   2   2   2   2
#     4  11  26  43  66  95 129 177 221 264 322 394
#     4  10  22  41  61  94 131 167 207 271 329 378
#     4  11  22  39  66  96 126 168 214 273 315 383
#     4  10  24  40  69  99 131 168 222 268 329 383
#     4  10  23  43  67  93 131 172 220 263 328 390
#     4  10  21  42  67  95 126 173 220 266 323 384
#     4  10  23  43  68  95 131 172 212 268 333 388
#
# _framework density 21.175284000000001
#
# number of rings (size 3 to 8) (size 9 to 14) (size 15 to 20)
#    0.000    1.714    1.429    2.143    6.000    7.429 
#   10.286    0.714    0.000    0.000    0.000    0.000 
#    0.000    0.000    0.000    0.000    0.000    0.000 
#
# Total GULP energy -173441.119676 kJ/mol
# GULP energy per Si atom -12388.651405 kJ/mol
# Density = 2.112709 g / cm^3
# Si number density = 21.175284 Si / 1000 Ang^3
#
#
#
# Elastic Constant Matrix: (Units=GPa)
#
#
# Indices 1 2 3 4 5 6 
#
# 1 88.3057 56.3456 61.9657 2.2444 0.0011 3.0698
# 2 56.3456 181.4486 83.4804 -10.4968 -18.7698 -1.6942
# 3 61.9657 83.4804 173.4930 1.4400 -20.6417 -5.6511
# 4 2.2444 -10.4968 1.4400 48.6266 0.2364 -8.6122
# 5 0.0011 -18.7698 -20.6417 0.2364 34.4507 2.3752
# 6 3.0698 -1.6942 -5.6511 -8.6122 2.3752 26.0219
#
#
#
# Elastic Compliance Matrix: (Units=1/GPa)
#
#
# Indices 1 2 3 4 5 6 
#
# 1 0.017480 -0.003723 -0.005129 -0.002085 -0.004835 -0.003667
# 2 -0.003723 0.008130 -0.002210 0.002141 0.003027 0.000921
# 3 -0.005129 -0.002210 0.009224 -0.000175 0.004185 0.002024
# 4 -0.002085 0.002141 -0.000175 0.022501 0.000372 0.007760
# 5 -0.004835 0.003027 0.004185 0.000372 0.033267 -0.001237
# 6 -0.003667 0.000921 0.002024 0.007760 -0.001237 0.042043
#
#
# Mechanical properties :
#
#
# Convention : Reuss Voigt Hill
#
# Bulk Modulus (GPa) = 78.67852 94.09230 86.38541
# Shear Modulus (GPa) = 31.44584 37.91689 34.68136
#
# Velocity S-wave (km/s) = 3.85778 4.23616 4.05139
# Velocity P-wave (km/s) = 7.55512 8.27395 7.92269
#
# Compressibility (1/GPa) = 0.01270995
#
# Stress axis : x y z
#
# Youngs Moduli (GPa) = 57.20958 123.00876 108.40968
#
# Poissons Ratio (x) = 0.45799 0.55603
# Poissons Ratio (y) = 0.21300 0.23953
# Poissons Ratio (z) = 0.29343 0.27179
#
# Static dielectric constant tensor:
#      x y z
#    x 3.477350 -0.057110 -0.134260 
#    y -0.057110 3.725340 -0.263570 
#    z -0.134260 -0.263570 4.498280 
# 
# 
# High freq. dielectric constant tensor:
#      x y z
#    x 1.793420 0.003090 -0.004270 
#    y 0.003090 1.855080 -0.012040 
#    z -0.004270 -0.012040 1.847380 
# 
# From -- ./inp_files/299260.got.cif
#   From: 2010.06.25/outbox.cif.g09.slc.cpg/sg2_150_cif.got.tgz:299260.got - 2010.06.27 13:26:56.
