data_PCOD8015290
_publ_section_title
;
Structure prediction by ZEFSAII (Michael W. Deem and Ramdas Pophale) SiO2 
 PCOD8015290
Probable space group: P -1
;
_chemical_formula_sum "Si O2"
_cell_formula_units_Z 16
_cell_length_a 9.232483
_cell_length_b 20.451262
_cell_length_c 14.274395
_cell_angle_alpha 38.516279
_cell_angle_beta 37.179578
_cell_angle_gamma 66.257444
_cell_volume 821.423355
_symmetry_space_group_name_H-M "P -1"
_symmetry_group_IT_number 2
_symmetry_cell_setting 'triclinic'
loop_
_space_group_symop_operation_xyz
x,y,z
-x,-y,-z
loop_
_atom_site_type_symbol
_atom_site_label
_atom_site_fract_x
_atom_site_fract_y
_atom_site_fract_z
Si Si1 0.165403 0.380574 0.801559
Si Si2 0.822091 0.631421 0.577902
Si Si3 0.060281 0.867668 0.695143
Si Si4 0.831206 0.822262 0.475652
Si Si5 0.133352 0.725560 0.122255
Si Si6 0.735511 0.432383 0.987005
Si Si7 0.829915 0.866972 0.623816
Si Si8 0.342061 0.996455 0.681678
O O1 0.500000 0.500000 0.500000
O O2 0.030030 0.358679 0.791543
O O3 0.988835 0.421167 0.911157
O O4 0.131424 0.254252 0.999825
O O5 0.980141 0.777785 0.376012
O O6 0.889027 0.553139 0.701192
O O7 0.946652 0.635195 0.408194
O O8 0.461806 0.557451 0.843538
O O9 0.934538 0.821883 0.706519
O O10 0.403181 0.920451 0.464668
O O11 0.029772 0.980884 0.613609
O O12 0.971078 0.851898 0.474321
O O13 0.847460 0.946327 0.292592
O O14 0.487484 0.702511 0.802293
O O15 0.473877 0.778709 0.899240
O O16 0.115542 0.847748 0.995829
O O17 0.500000 0.000000 0.500000
#
# Coordination Sequence:
#
# PCOD8015290 Si02
#       8
#     2   2   2   2   2   2   2   2
#     4  12  23  36  58  85 115 146 190 240 276 327
#     4   9  21  34  59  79 114 149 195 223 269 354
#     4  10  19  34  51  93 109 140 181 237 290 314
#     4  10  16  36  59  78 104 156 182 217 284 339
#     4  11  20  36  57  91 105 147 192 233 280 327
#     4   9  19  40  53  74 117 153 184 225 282 327
#     4  10  19  32  64  80 112 142 188 239 272 340
#     4  11  16  34  63  80 117 144 180 240 281 334
#
# _framework density 19.478383999999998
#
# number of rings (size 3 to 8) (size 9 to 14) (size 15 to 20)
#    0.750    1.000    6.250    0.000    1.750    2.000 
#    0.000    0.625    2.750    6.750    0.000    0.000 
#    0.000    0.000    0.000    0.000    0.000    0.000 
#
# Total GULP energy -198210.499605 kJ/mol
# GULP energy per Si atom -12388.156225 kJ/mol
# Density = 1.943405 g / cm^3
# Si number density = 19.478384 Si / 1000 Ang^3
#
#
#
# Elastic Constant Matrix: (Units=GPa)
#
#
# Indices 1 2 3 4 5 6 
#
# 1 106.3882 21.1994 23.1183 4.2461 -5.0974 10.1706
# 2 21.1994 42.5735 9.5936 2.0167 -1.0525 -4.6827
# 3 23.1183 9.5936 72.1485 -6.7032 1.3297 -2.4333
# 4 4.2461 2.0167 -6.7032 18.5184 3.4031 4.9938
# 5 -5.0974 -1.0525 1.3297 3.4031 31.3585 -5.5991
# 6 10.1706 -4.6827 -2.4333 4.9938 -5.5991 22.7597
#
#
#
# Elastic Compliance Matrix: (Units=1/GPa)
#
#
# Indices 1 2 3 4 5 6 
#
# 1 0.012034 -0.005783 -0.003492 -0.001881 0.000992 -0.006284
# 2 -0.005783 0.028289 -0.002146 -0.005702 0.002513 0.010044
# 3 -0.003492 -0.002146 0.015973 0.006946 -0.001923 0.000830
# 4 -0.001881 -0.005702 0.006946 0.063894 -0.010622 -0.016222
# 5 0.000992 0.002513 -0.001923 -0.010622 0.035313 0.010886
# 6 -0.006284 0.010044 0.000830 -0.016222 0.010886 0.055138
#
#
# Mechanical properties :
#
#
# Convention : Reuss Voigt Hill
#
# Bulk Modulus (GPa) = 29.89132 36.54808 33.21970
# Shear Modulus (GPa) = 20.43864 25.67391 23.05627
#
# Velocity S-wave (km/s) = 3.24280 3.63446 3.44421
# Velocity P-wave (km/s) = 5.42220 6.03462 5.73658
#
# Compressibility (1/GPa) = 0.03345453
#
# Stress axis : x y z
#
# Youngs Moduli (GPa) = 83.09740 35.34943 62.60425
#
# Poissons Ratio (x) = 0.20442 0.21862
# Poissons Ratio (y) = 0.48055 0.13434
# Poissons Ratio (z) = 0.29018 0.07586
#
# Static dielectric constant tensor:
#      x y z
#    x 3.639410 -0.068250 0.074750 
#    y -0.068250 3.510640 -0.215900 
#    z 0.074750 -0.215900 3.307230 
# 
# 
# High freq. dielectric constant tensor:
#      x y z
#    x 1.747590 -0.008520 0.014050 
#    y -0.008520 1.749660 -0.021850 
#    z 0.014050 -0.021850 1.733500 
# 
# From -- ./inp_files/508437.got.cif
#   From: 2010.06.25/outbox.cif.g09.slc.cpg/sg2_255_cif.got.tgz:508437.got - 2010.06.27 13:26:56.
