data_PCOD8015311
_publ_section_title
;
Structure prediction by ZEFSAII (Michael W. Deem and Ramdas Pophale) SiO2 
 PCOD8015311
Probable space group: P -1
;
_chemical_formula_sum "Si O2"
_cell_formula_units_Z 16
_cell_length_a 9.445158
_cell_length_b 9.657621
_cell_length_c 15.218474
_cell_angle_alpha 103.197130
_cell_angle_beta 144.152918
_cell_angle_gamma 70.517757
_cell_volume 764.189069
_symmetry_space_group_name_H-M "P -1"
_symmetry_group_IT_number 2
_symmetry_cell_setting 'triclinic'
loop_
_space_group_symop_operation_xyz
x,y,z
-x,-y,-z
loop_
_atom_site_type_symbol
_atom_site_label
_atom_site_fract_x
_atom_site_fract_y
_atom_site_fract_z
Si Si1 0.398049 0.612911 0.544667
Si Si2 0.741591 0.619742 0.884450
Si Si3 0.585397 0.384427 0.105116
Si Si4 0.070092 0.451548 0.431561
Si Si5 0.252574 0.949811 0.880105
Si Si6 0.239139 0.938415 0.442377
Si Si7 0.508598 0.168388 0.625995
Si Si8 0.992190 0.881283 0.051171
O O1 0.500000 0.500000 0.500000
O O2 0.585585 0.584900 0.718176
O O3 0.129826 0.588834 0.432020
O O4 0.328934 0.783885 0.513274
O O5 0.603687 0.609136 0.906692
O O6 0.810917 0.775171 0.925427
O O7 0.000000 0.500000 0.000000
O O8 0.655994 0.222322 0.077475
O O9 0.843346 0.408370 0.268457
O O10 0.500000 0.500000 0.000000
O O11 0.320267 0.321293 0.528579
O O12 0.000000 0.500000 0.500000
O O13 0.102789 0.028531 0.897739
O O14 0.064157 0.993464 0.707320
O O15 0.500000 0.000000 0.000000
O O16 0.347567 0.915756 0.396682
O O17 0.352281 0.057110 0.569662
O O18 0.713932 0.205631 0.800704
O O19 0.000000 0.000000 0.000000
#
# Coordination Sequence:
#
# PCOD8015311 Si02
#       8
#     2   2   2   2   2   2   2   2
#     4  12  26  44  74 105 140 190 240 284 356 425
#     4  12  28  48  68 107 150 183 242 300 348 430
#     4  12  29  47  72 105 144 191 236 296 361 422
#     4  12  25  45  66 100 144 183 233 291 346 411
#     4  11  24  46  70 100 141 187 237 290 356 420
#     4  10  22  41  70  99 133 180 235 285 339 418
#     4  10  21  42  67  96 135 181 230 283 344 411
#     4  11  25  42  73 102 142 183 234 291 359 428
#
# _framework density 20.937225000000002
#
# number of rings (size 3 to 8) (size 9 to 14) (size 15 to 20)
#    0.000    0.750    5.000    1.500    7.000    0.000 
#    0.000    1.250    0.000    0.000    0.000    0.000 
#    0.000    0.000    0.000    0.000    0.000    0.000 
#
# Total GULP energy -198257.455382 kJ/mol
# GULP energy per Si atom -12391.090961 kJ/mol
# Density = 2.088957 g / cm^3
# Si number density = 20.937225 Si / 1000 Ang^3
#
#
#
# Elastic Constant Matrix: (Units=GPa)
#
#
# Indices 1 2 3 4 5 6 
#
# 1 96.9036 31.9003 51.7517 8.5600 11.3594 22.8125
# 2 31.9003 114.0714 47.0134 2.4841 4.0372 20.8982
# 3 51.7517 47.0134 128.2362 2.6461 20.5450 10.9072
# 4 8.5600 2.4841 2.6461 44.1212 3.3491 4.1013
# 5 11.3594 4.0372 20.5450 3.3491 36.0338 2.5043
# 6 22.8125 20.8982 10.9072 4.1013 2.5043 41.8644
#
#
#
# Elastic Compliance Matrix: (Units=1/GPa)
#
#
# Indices 1 2 3 4 5 6 
#
# 1 0.015047 -0.000945 -0.004970 -0.001903 -0.001198 -0.006175
# 2 -0.000945 0.011243 -0.003602 0.000056 0.001382 -0.004247
# 3 -0.004970 -0.003602 0.011755 0.000679 -0.004911 0.001671
# 4 -0.001903 0.000056 0.000679 0.023256 -0.001862 -0.001335
# 5 -0.001198 0.001382 -0.004911 -0.001862 0.030978 -0.000428
# 6 -0.006175 -0.004247 0.001671 -0.001335 -0.000428 0.029093
#
#
# Mechanical properties :
#
#
# Convention : Reuss Voigt Hill
#
# Bulk Modulus (GPa) = 52.59718 66.72689 59.66203
# Shear Modulus (GPa) = 34.07374 38.30693 36.19033
#
# Velocity S-wave (km/s) = 4.03851 4.28203 4.16205
# Velocity P-wave (km/s) = 6.84996 7.50912 7.18710
#
# Compressibility (1/GPa) = 0.01901243
#
# Stress axis : x y z
#
# Youngs Moduli (GPa) = 66.45968 88.94324 85.07066
#
# Poissons Ratio (x) = 0.08401 0.42277
# Poissons Ratio (y) = 0.06278 0.30642
# Poissons Ratio (z) = 0.33028 0.32037
#
# Static dielectric constant tensor:
#      x y z
#    x 3.782690 0.145620 0.311740 
#    y 0.145620 4.627420 -0.410970 
#    z 0.311740 -0.410970 5.055110 
# 
# 
# High freq. dielectric constant tensor:
#      x y z
#    x 1.816440 0.009210 0.018570 
#    y 0.009210 1.838840 0.007960 
#    z 0.018570 0.007960 1.833730 
# 
# From -- ./inp_files/338005.got.cif
#   From: 2010.06.25/outbox.cif.g09.slc.cpg/sg2_170_cif.got.tgz:338005.got - 2010.06.27 13:26:56.
