data_PCOD8015247
_publ_section_title
;
Structure prediction by ZEFSAII (Michael W. Deem and Ramdas Pophale) SiO2 
 PCOD8015247
Probable space group: P -1
;
_chemical_formula_sum "Si O2"
_cell_formula_units_Z 16
_cell_length_a 25.084406
_cell_length_b 15.512031
_cell_length_c 9.777517
_cell_angle_alpha 46.051983
_cell_angle_beta 134.417383
_cell_angle_gamma 161.296742
_cell_volume 863.325818
_symmetry_space_group_name_H-M "P -1"
_symmetry_group_IT_number 2
_symmetry_cell_setting 'triclinic'
loop_
_space_group_symop_operation_xyz
x,y,z
-x,-y,-z
loop_
_atom_site_type_symbol
_atom_site_label
_atom_site_fract_x
_atom_site_fract_y
_atom_site_fract_z
Si Si1 0.403963 0.789665 0.233139
Si Si2 0.725326 0.107211 0.442388
Si Si3 0.118260 0.080366 0.445986
Si Si4 0.043759 0.229427 0.238540
Si Si5 0.390455 0.698801 0.996111
Si Si6 0.010335 0.679253 0.204425
Si Si7 0.032952 0.183291 0.815730
Si Si8 0.525447 0.403789 0.604490
O O1 0.237644 0.523358 0.317305
O O2 0.350444 0.682665 0.098084
O O3 0.565805 0.945528 0.402486
O O4 0.449549 0.995315 0.106198
O O5 0.843187 0.211452 0.650937
O O6 0.831696 0.358003 0.270961
O O7 0.649866 0.896510 0.440677
O O8 0.029986 0.083668 0.293542
O O9 0.320899 0.383730 0.462625
O O10 0.079778 0.947672 0.658223
O O11 0.038989 0.897138 0.375947
O O12 0.993369 0.268554 0.009864
O O13 0.429840 0.613706 0.163584
O O14 0.233165 0.496543 0.837175
O O15 0.055850 0.848787 0.208341
O O16 0.000000 0.000000 0.000000
O O17 0.500000 0.500000 0.500000
#
# Coordination Sequence:
#
# PCOD8015247 Si02
#       8
#     2   2   2   2   2   2   2   2
#     4  10  16  36  58  82 108 144 191 238 270 337
#     4  10  21  32  58  88 108 144 198 243 278 320
#     4  11  23  33  56  86 117 152 188 223 292 346
#     4  11  20  38  58  80 118 156 184 228 284 353
#     4  10  18  30  59  84 104 143 195 234 279 316
#     4  11  20  36  59  86 112 146 193 244 280 329
#     4  12  18  33  54  87 111 142 191 246 273 320
#     4  11  20  35  54  85 120 146 185 238 286 333
#
# _framework density 18.532979999999998
#
# number of rings (size 3 to 8) (size 9 to 14) (size 15 to 20)
#    0.000    1.250    7.500    2.250    0.000    0.000 
#    0.000    1.250    2.750   10.500    0.000    0.000 
#    0.000    0.000    0.000    0.000    0.000    0.000 
#
# Total GULP energy -198330.492394 kJ/mol
# GULP energy per Si atom -12395.655775 kJ/mol
# Density = 1.849080 g / cm^3
# Si number density = 18.532980 Si / 1000 Ang^3
#
#
#
# Elastic Constant Matrix: (Units=GPa)
#
#
# Indices 1 2 3 4 5 6 
#
# 1 63.4974 27.9220 39.6206 -10.3209 8.6390 -6.2092
# 2 27.9220 104.7052 44.0430 -4.5684 -2.2801 -4.2924
# 3 39.6206 44.0430 116.0955 -6.5358 12.0828 5.2976
# 4 -10.3209 -4.5684 -6.5358 31.6933 -3.2457 7.1848
# 5 8.6390 -2.2801 12.0828 -3.2457 24.6422 -1.5176
# 6 -6.2092 -4.2924 5.2976 7.1848 -1.5176 25.3652
#
#
#
# Elastic Compliance Matrix: (Units=1/GPa)
#
#
# Indices 1 2 3 4 5 6 
#
# 1 0.022687 -0.003226 -0.006044 0.004125 -0.004447 0.004836
# 2 -0.003226 0.012357 -0.004178 -0.000245 0.004445 0.002509
# 3 -0.006044 -0.004178 0.013068 0.000859 -0.004898 -0.005452
# 4 0.004125 -0.000245 0.000859 0.035323 0.002203 -0.009084
# 5 -0.004447 0.004445 -0.004898 0.002203 0.045414 0.002780
# 6 0.004836 0.002509 -0.005452 -0.009084 0.002780 0.044911
#
#
# Mechanical properties :
#
#
# Convention : Reuss Voigt Hill
#
# Bulk Modulus (GPa) = 47.13407 56.38547 51.75977
# Shear Modulus (GPa) = 24.06981 27.85429 25.96205
#
# Velocity S-wave (km/s) = 3.60773 3.88101 3.74686
# Velocity P-wave (km/s) = 6.54539 7.11150 6.83431
#
# Compressibility (1/GPa) = 0.02121607
#
# Stress axis : x y z
#
# Youngs Moduli (GPa) = 44.07770 80.92353 76.52151
#
# Poissons Ratio (x) = 0.26108 0.46251
# Poissons Ratio (y) = 0.14221 0.31970
# Poissons Ratio (z) = 0.26642 0.33809
#
# Static dielectric constant tensor:
#      x y z
#    x 3.223830 -0.151470 0.281630 
#    y -0.151470 3.732990 -0.022810 
#    z 0.281630 -0.022810 3.397330 
# 
# 
# High freq. dielectric constant tensor:
#      x y z
#    x 1.676460 -0.013360 0.036010 
#    y -0.013360 1.739660 -0.002940 
#    z 0.036010 -0.002940 1.704470 
# 
# From -- ./inp_files/354527.got.cif
#   From: 2010.06.25/outbox.cif.g09.slc.cpg/sg2_178_cif.got.tgz:354527.got - 2010.06.27 13:26:56.
