data_PCOD8015098
_publ_section_title
;
Structure prediction by ZEFSAII (Michael W. Deem and Ramdas Pophale) SiO2 
 PCOD8015098
Probable space group: P -1
;
_chemical_formula_sum "Si O2"
_cell_formula_units_Z 14
_cell_length_a 13.843302
_cell_length_b 26.113321
_cell_length_c 14.827135
_cell_angle_alpha 19.011898
_cell_angle_beta 29.096926
_cell_angle_gamma 20.404652
_cell_volume 605.168307
_symmetry_space_group_name_H-M "P -1"
_symmetry_group_IT_number 2
_symmetry_cell_setting 'triclinic'
loop_
_space_group_symop_operation_xyz
x,y,z
-x,-y,-z
loop_
_atom_site_type_symbol
_atom_site_label
_atom_site_fract_x
_atom_site_fract_y
_atom_site_fract_z
Si Si1 0.468141 0.677656 0.904373
Si Si2 0.383596 0.881732 0.894182
Si Si3 0.533805 0.483478 0.359849
Si Si4 0.959233 0.927339 0.787136
Si Si5 0.461641 0.865956 0.052184
Si Si6 0.829451 0.874306 0.512882
Si Si7 0.021535 0.230923 0.151893
O O1 0.439600 0.582683 0.172064
O O2 0.782404 0.496300 0.911893
O O3 0.268813 0.726096 0.906813
O O4 0.382563 0.900715 0.630614
O O5 0.690108 0.779069 0.787245
O O6 0.152996 0.071690 0.694798
O O7 0.411955 0.676257 0.209802
O O8 0.295419 0.983050 0.898270
O O9 0.405508 0.382471 0.649338
O O10 0.870733 0.288645 0.414495
O O11 0.906262 0.838652 0.895618
O O12 0.914153 0.131428 0.452325
O O13 0.743349 0.003454 0.914491
O O14 0.704591 0.859032 0.871490
#
# Coordination Sequence:
#
# PCOD8015098 Si02
#       7
#     2   2   2   2   2   2   2
#     4  11  20  43  69  94 134 173 214 272 325 384
#     4  10  23  38  65  98 131 175 219 263 320 389
#     4  11  22  41  64  96 137 171 215 266 324 388
#     4  11  24  47  69  96 131 170 224 272 328 384
#     4  12  23  44  67  99 135 172 214 274 326 386
#     4  10  21  42  65  98 131 177 217 264 320 392
#     4  11  25  45  71  96 129 174 218 276 328 387
#
# _framework density 23.134060999999999
#
# number of rings (size 3 to 8) (size 9 to 14) (size 15 to 20)
#    0.000    1.143    2.857    3.429    0.000    2.857 
#    7.714    0.714    0.000    0.000    0.000    0.000 
#    0.000    0.000    0.000    0.000    0.000    0.000 
#
# Total GULP energy -173631.831521 kJ/mol
# GULP energy per Si atom -12402.273680 kJ/mol
# Density = 2.308141 g / cm^3
# Si number density = 23.134061 Si / 1000 Ang^3
#
#
#
# Elastic Constant Matrix: (Units=GPa)
#
#
# Indices 1 2 3 4 5 6 
#
# 1 132.8912 26.5852 26.1203 -10.5086 5.7551 16.6624
# 2 26.5852 87.4516 14.0598 -5.1554 1.0428 15.6944
# 3 26.1203 14.0598 58.8705 -0.6147 0.6915 5.6947
# 4 -10.5086 -5.1554 -0.6147 19.5065 -6.6323 2.9453
# 5 5.7551 1.0428 0.6915 -6.6323 36.8610 2.2577
# 6 16.6624 15.6944 5.6947 2.9453 2.2577 40.6224
#
#
#
# Elastic Compliance Matrix: (Units=1/GPa)
#
#
# Indices 1 2 3 4 5 6 
#
# 1 0.009269 -0.001418 -0.003419 0.004889 -0.000273 -0.003114
# 2 -0.001418 0.013217 -0.002060 0.003628 0.000817 -0.004544
# 3 -0.003419 -0.002060 0.019010 -0.001757 -0.000060 -0.000336
# 4 0.004889 0.003628 -0.001757 0.059546 0.010374 -0.008055
# 5 -0.000273 0.000817 -0.000060 0.010374 0.029174 -0.002569
# 6 -0.003114 -0.004544 -0.000336 -0.008055 -0.002569 0.028424
#
#
# Mechanical properties :
#
#
# Convention : Reuss Voigt Hill
#
# Bulk Modulus (GPa) = 36.09570 45.86041 40.97806
# Shear Modulus (GPa) = 27.52302 33.56119 30.54210
#
# Velocity S-wave (km/s) = 3.45297 3.81297 3.63743
# Velocity P-wave (km/s) = 5.61552 6.26513 5.94920
#
# Compressibility (1/GPa) = 0.02770413
#
# Stress axis : x y z
#
# Youngs Moduli (GPa) = 107.88149 75.66144 52.60389
#
# Poissons Ratio (x) = 0.10728 0.17983
# Poissons Ratio (y) = 0.15297 0.10834
# Poissons Ratio (z) = 0.36881 0.15583
#
# Static dielectric constant tensor:
#      x y z
#    x 4.464720 0.110420 0.086680 
#    y 0.110420 3.830970 -0.070260 
#    z 0.086680 -0.070260 4.225640 
# 
# 
# High freq. dielectric constant tensor:
#      x y z
#    x 1.934920 0.007970 0.010200 
#    y 0.007970 1.895740 0.002590 
#    z 0.010200 0.002590 1.910640 
# 
# From -- ./inp_files/98406.got.cif
#   From: 2010.06.25/outbox.cif.g09.slc.cpg/sg2_50_cif.got.tgz:98406.got - 2010.06.27 13:26:56.
