data_PCOD8015730
_publ_section_title
;
Structure prediction by ZEFSAII (Michael W. Deem and Ramdas Pophale) SiO2 
 PCOD8015730
Probable space group: P -1
;
_chemical_formula_sum "Si O2"
_cell_formula_units_Z 14
_cell_length_a 6.866426
_cell_length_b 13.396062
_cell_length_c 13.892357
_cell_angle_alpha 138.442216
_cell_angle_beta 102.186333
_cell_angle_gamma 102.503183
_cell_volume 676.474989
_symmetry_space_group_name_H-M "P -1"
_symmetry_group_IT_number 2
_symmetry_cell_setting 'triclinic'
loop_
_space_group_symop_operation_xyz
x,y,z
-x,-y,-z
loop_
_atom_site_type_symbol
_atom_site_label
_atom_site_fract_x
_atom_site_fract_y
_atom_site_fract_z
Si Si1 0.429419 0.580472 0.827070
Si Si2 0.656082 0.992166 0.426017
Si Si3 0.103229 0.716464 0.900824
Si Si4 0.407753 0.527093 0.411356
Si Si5 0.396843 0.059365 0.288653
Si Si6 0.082947 0.230369 0.905424
Si Si7 0.798365 0.722596 0.260103
O O1 0.243259 0.630596 0.819478
O O2 0.433276 0.472151 0.657918
O O3 0.358896 0.463851 0.832522
O O4 0.698572 0.762079 0.011023
O O5 0.561404 0.008141 0.324336
O O6 0.941959 0.151871 0.570977
O O7 0.500000 0.000000 0.500000
O O8 0.637356 0.804225 0.297071
O O9 0.879375 0.640246 0.748204
O O10 0.987202 0.653013 0.951587
O O11 0.295039 0.941735 0.091761
O O12 0.500000 0.500000 0.500000
O O13 0.447599 0.724166 0.558245
O O14 0.154326 0.984772 0.276448
O O15 0.154892 0.319230 0.872328
#
# Coordination Sequence:
#
# PCOD8015730 Si02
#       7
#     2   2   2   2   2   2   2
#     4  11  22  41  62  93 131 160 216 255 298 376
#     4  11  20  35  54  92 131 166 213 243 301 369
#     4   9  22  43  63  92 126 161 206 254 315 369
#     4  11  25  45  67  91 120 161 212 269 322 363
#     4  10  21  43  64  86 131 164 199 261 308 370
#     4   9  21  38  57  90 129 165 201 244 310 363
#     4  11  22  32  61  94 126 175 204 246 299 368
#
# _framework density 20.695516999999999
#
# number of rings (size 3 to 8) (size 9 to 14) (size 15 to 20)
#    0.857    0.857    1.429    3.000    2.000    2.857 
#    2.571    0.714    0.000    0.000    0.000    0.000 
#    0.000    0.000    0.000    0.000    0.000    0.000 
#
# Total GULP energy -173443.195932 kJ/mol
# GULP energy per Si atom -12388.799709 kJ/mol
# Density = 2.064841 g / cm^3
# Si number density = 20.695517 Si / 1000 Ang^3
#
#
#
# Elastic Constant Matrix: (Units=GPa)
#
#
# Indices 1 2 3 4 5 6 
#
# 1 107.7868 14.4212 35.3813 1.4644 12.7424 -19.6450
# 2 14.4212 49.9909 24.7669 -8.3475 11.4630 -9.3912
# 3 35.3813 24.7669 111.5358 -5.8705 17.4306 -17.0514
# 4 1.4644 -8.3475 -5.8705 20.9696 -10.7700 4.5391
# 5 12.7424 11.4630 17.4306 -10.7700 29.5537 -3.1481
# 6 -19.6450 -9.3912 -17.0514 4.5391 -3.1481 20.4076
#
#
#
# Elastic Compliance Matrix: (Units=1/GPa)
#
#
# Indices 1 2 3 4 5 6 
#
# 1 0.012706 -0.000599 -0.001672 -0.006887 -0.005573 0.011230
# 2 -0.000599 0.025003 -0.003376 0.005194 -0.004895 0.006198
# 3 -0.001672 -0.003376 0.011910 -0.001843 -0.004981 0.006430
# 4 -0.006887 0.005194 -0.001843 0.065778 0.024237 -0.016671
# 5 -0.005573 -0.004895 -0.004981 0.024237 0.048883 -0.009630
# 6 0.011230 0.006198 0.006430 -0.016671 -0.009630 0.070259
#
#
# Mechanical properties :
#
#
# Convention : Reuss Voigt Hill
#
# Bulk Modulus (GPa) = 26.09301 46.49471 36.29386
# Shear Modulus (GPa) = 19.33423 27.16911 23.25167
#
# Velocity S-wave (km/s) = 3.05982 3.62719 3.35552
# Velocity P-wave (km/s) = 5.01186 6.32905 5.70857
#
# Compressibility (1/GPa) = 0.03832444
#
# Stress axis : x y z
#
# Youngs Moduli (GPa) = 78.70360 39.99481 83.96177
#
# Poissons Ratio (x) = 0.02397 0.14039
# Poissons Ratio (y) = 0.04717 0.28345
# Poissons Ratio (z) = 0.13160 0.13502
#
# Static dielectric constant tensor:
#      x y z
#    x 3.897250 0.062830 0.213170 
#    y 0.062830 3.322240 -0.015600 
#    z 0.213170 -0.015600 3.963090 
# 
# 
# High freq. dielectric constant tensor:
#      x y z
#    x 1.822560 0.002680 0.017570 
#    y 0.002680 1.760840 -0.012350 
#    z 0.017570 -0.012350 1.821120 
# 
# From -- ./inp_files/484512.got.cif
#   From: 2010.06.25/outbox.cif.g09.slc.cpg/sg2_243_cif.got.tgz:484512.got - 2010.06.27 13:26:56.
