data_PCOD8015575
_publ_section_title
;
Structure prediction by ZEFSAII (Michael W. Deem and Ramdas Pophale) SiO2 
 PCOD8015575
Probable space group: P -1
;
_chemical_formula_sum "Si O2"
_cell_formula_units_Z 16
_cell_length_a 21.404113
_cell_length_b 18.267859
_cell_length_c 6.722392
_cell_angle_alpha 116.911538
_cell_angle_beta 114.513766
_cell_angle_gamma 18.128897
_cell_volume 728.203673
_symmetry_space_group_name_H-M "P -1"
_symmetry_group_IT_number 2
_symmetry_cell_setting 'triclinic'
loop_
_space_group_symop_operation_xyz
x,y,z
-x,-y,-z
loop_
_atom_site_type_symbol
_atom_site_label
_atom_site_fract_x
_atom_site_fract_y
_atom_site_fract_z
Si Si1 0.789084 0.856823 0.002838
Si Si2 0.110469 0.459839 0.638013
Si Si3 0.801763 0.989504 0.947458
Si Si4 0.540530 0.889308 0.087631
Si Si5 0.476116 0.549657 0.806053
Si Si6 0.940845 0.766193 0.467369
Si Si7 0.228810 0.712239 0.415736
Si Si8 0.178025 0.578510 0.203746
O O1 0.680831 0.051572 0.975111
O O2 0.012652 0.602633 0.891117
O O3 0.679272 0.893515 0.862267
O O4 0.805884 0.858801 0.262066
O O5 0.345624 0.193281 0.680803
O O6 0.085604 0.546960 0.523514
O O7 0.000000 0.500000 0.500000
O O8 0.799996 0.976956 0.690725
O O9 0.031801 0.734345 0.013167
O O10 0.698300 0.188016 0.122374
O O11 0.641269 0.690395 0.904036
O O12 0.500000 0.000000 0.000000
O O13 0.393413 0.562623 0.601982
O O14 0.690736 0.343544 0.758546
O O15 0.500000 0.500000 0.000000
O O16 0.064436 0.690028 0.399836
O O17 0.255421 0.584787 0.314621
O O18 0.000000 0.000000 0.500000
#
# Coordination Sequence:
#
# PCOD8015575 Si02
#       8
#     2   2   2   2   2   2   2   2
#     4  10  23  44  67  92 135 175 228 281 341 410
#     4  11  24  44  65  97 134 175 225 291 342 406
#     4  10  21  44  68  97 139 181 224 285 341 412
#     4  12  25  43  68 100 134 179 228 281 343 409
#     4  11  26  43  70 109 141 179 238 283 347 421
#     4  10  21  42  71  92 130 187 225 279 353 399
#     4  11  25  46  73 102 145 186 225 291 353 412
#     4  11  23  45  69  98 139 181 231 284 348 411
#
# _framework density 21.971876000000002
#
# number of rings (size 3 to 8) (size 9 to 14) (size 15 to 20)
#    0.000    1.250    5.000    1.500    3.500    5.000 
#    6.750    0.000    0.000    0.000    0.000    0.000 
#    0.000    0.000    0.000    0.000    0.000    0.000 
#
# Total GULP energy -198297.712970 kJ/mol
# GULP energy per Si atom -12393.607061 kJ/mol
# Density = 2.192187 g / cm^3
# Si number density = 21.971876 Si / 1000 Ang^3
#
#
#
# Elastic Constant Matrix: (Units=GPa)
#
#
# Indices 1 2 3 4 5 6 
#
# 1 164.1708 38.3807 51.3353 -19.3396 3.7150 -11.6511
# 2 38.3807 76.6529 21.2655 -5.1151 -5.2449 -1.5488
# 3 51.3353 21.2655 125.8567 -15.8129 -14.6839 -7.5105
# 4 -19.3396 -5.1151 -15.8129 27.2919 -0.7507 9.0191
# 5 3.7150 -5.2449 -14.6839 -0.7507 43.4516 1.4718
# 6 -11.6511 -1.5488 -7.5105 9.0191 1.4718 35.3492
#
#
#
# Elastic Compliance Matrix: (Units=1/GPa)
#
#
# Indices 1 2 3 4 5 6 
#
# 1 0.008160 -0.003278 -0.002517 0.003238 -0.001931 0.001265
# 2 -0.003278 0.015092 -0.001023 0.000215 0.001786 -0.000766
# 3 -0.002517 -0.001023 0.010058 0.003911 0.003554 0.000117
# 4 0.003238 0.000215 0.003911 0.044449 0.002161 -0.009523
# 5 -0.001931 0.001786 0.003554 0.002161 0.024680 -0.001382
# 6 0.001265 -0.000766 0.000117 -0.009523 -0.001382 0.031185
#
#
# Mechanical properties :
#
#
# Convention : Reuss Voigt Hill
#
# Bulk Modulus (GPa) = 50.83100 65.40483 58.11791
# Shear Modulus (GPa) = 32.50603 38.26514 35.38559
#
# Velocity S-wave (km/s) = 3.85052 4.17772 4.01745
# Velocity P-wave (km/s) = 6.55389 7.28720 6.93025
#
# Compressibility (1/GPa) = 0.01967304
#
# Stress axis : x y z
#
# Youngs Moduli (GPa) = 122.55561 66.26036 99.42001
#
# Poissons Ratio (x) = 0.21718 0.25027
# Poissons Ratio (y) = 0.40170 0.10175
# Poissons Ratio (z) = 0.30851 0.06781
#
# Static dielectric constant tensor:
#      x y z
#    x 4.115460 -0.132880 0.012890 
#    y -0.132880 3.730540 0.091540 
#    z 0.012890 0.091540 4.008490 
# 
# 
# High freq. dielectric constant tensor:
#      x y z
#    x 1.882990 0.000940 0.005090 
#    y 0.000940 1.850810 0.003330 
#    z 0.005090 0.003330 1.869730 
# 
# From -- ./inp_files/120123.got.cif
#   From: 2010.06.25/outbox.cif.g09.slc.cpg/sg2_61_cif.got.tgz:120123.got - 2010.06.27 13:26:56.
