data_PCOD8015569
_publ_section_title
;
Structure prediction by ZEFSAII (Michael W. Deem and Ramdas Pophale) SiO2 
 PCOD8015569
Probable space group: P -1
;
_chemical_formula_sum "Si O2"
_cell_formula_units_Z 14
_cell_length_a 15.092672
_cell_length_b 16.277064
_cell_length_c 11.661885
_cell_angle_alpha 150.950669
_cell_angle_beta 150.867123
_cell_angle_gamma 31.312963
_cell_volume 625.363076
_symmetry_space_group_name_H-M "P -1"
_symmetry_group_IT_number 2
_symmetry_cell_setting 'triclinic'
loop_
_space_group_symop_operation_xyz
x,y,z
-x,-y,-z
loop_
_atom_site_type_symbol
_atom_site_label
_atom_site_fract_x
_atom_site_fract_y
_atom_site_fract_z
Si Si1 0.915504 0.613818 0.430740
Si Si2 0.758702 0.580802 0.591847
Si Si3 0.455984 0.894167 0.497807
Si Si4 0.139217 0.608651 0.305251
Si Si5 0.915049 0.981848 0.630131
Si Si6 0.259005 0.998366 0.184447
Si Si7 0.128428 0.657795 0.105571
O O1 0.784900 0.818777 0.566019
O O2 0.000000 0.500000 0.500000
O O3 0.104747 0.597980 0.546257
O O4 0.785979 0.518567 0.098185
O O5 0.562062 0.703350 0.452327
O O6 0.704336 0.500918 0.551674
O O7 0.893593 0.701343 0.912754
O O8 0.606597 0.995059 0.764203
O O9 0.278144 0.027452 0.538639
O O10 0.376696 0.845797 0.226725
O O11 0.238867 0.614666 0.302148
O O12 0.009456 0.814632 0.447660
O O13 0.000000 0.500000 0.000000
O O14 0.846575 0.168182 0.708289
O O15 0.063538 0.979359 0.896943
#
# Coordination Sequence:
#
# PCOD8015569 Si02
#       7
#     2   2   2   2   2   2   2
#     4  10  16  36  67  84 131 170 193 256 324 368
#     4   9  19  40  64  89 131 172 206 255 319 371
#     4  11  23  37  65  97 135 164 208 265 321 375
#     4  10  22  42  69  90 124 178 216 259 323 374
#     4  12  22  41  68  97 122 169 221 257 318 386
#     4  11  22  42  60 100 135 170 202 260 325 383
#     4   9  20  39  70  88 126 171 212 257 315 374
#
# _framework density 22.386994000000001
#
# number of rings (size 3 to 8) (size 9 to 14) (size 15 to 20)
#    0.857    0.857    4.286    1.714    0.000    0.000 
#    0.000   11.429    0.000    0.000    0.000    0.000 
#    0.000    0.000    0.000    0.000    0.000    0.000 
#
# Total GULP energy -173437.839347 kJ/mol
# GULP energy per Si atom -12388.417096 kJ/mol
# Density = 2.233604 g / cm^3
# Si number density = 22.386994 Si / 1000 Ang^3
#
#
#
# Elastic Constant Matrix: (Units=GPa)
#
#
# Indices 1 2 3 4 5 6 
#
# 1 124.5789 39.0038 40.4783 -9.7293 -26.5935 21.9731
# 2 39.0038 76.6050 43.8059 -6.9442 -9.7076 13.4675
# 3 40.4783 43.8059 66.0124 19.1749 -17.4274 0.9583
# 4 -9.7293 -6.9442 19.1749 35.7717 -0.1933 -9.5200
# 5 -26.5935 -9.7076 -17.4274 -0.1933 32.1469 -6.5363
# 6 21.9731 13.4675 0.9583 -9.5200 -6.5363 40.8397
#
#
#
# Elastic Compliance Matrix: (Units=1/GPa)
#
#
# Indices 1 2 3 4 5 6 
#
# 1 0.013422 0.000809 -0.009551 0.007727 0.005277 -0.004618
# 2 0.000809 0.030989 -0.028434 0.019727 -0.006578 -0.006441
# 3 -0.009551 -0.028434 0.053512 -0.034767 0.013811 0.007366
# 4 0.007727 0.019727 -0.034767 0.052903 -0.005866 0.001546
# 5 0.005277 -0.006578 0.013811 -0.005866 0.041819 0.004332
# 6 -0.004618 -0.006441 0.007366 0.001546 0.004332 0.029976
#
#
# Mechanical properties :
#
#
# Convention : Reuss Voigt Hill
#
# Bulk Modulus (GPa) = 42.42551 57.08581 49.75566
# Shear Modulus (GPa) = 16.40271 31.34554 23.87412
#
# Velocity S-wave (km/s) = 2.70976 3.74594 3.26916
# Velocity P-wave (km/s) = 5.36493 6.65314 6.04346
#
# Compressibility (1/GPa) = 0.02357073
#
# Stress axis : x y z
#
# Youngs Moduli (GPa) = 74.50707 32.26990 18.68733
#
# Poissons Ratio (x) = -0.02611 0.17849
# Poissons Ratio (y) = -0.06029 0.53135
# Poissons Ratio (z) = 0.71164 0.91755
#
# Static dielectric constant tensor:
#      x y z
#    x 5.409050 0.826120 -1.120180 
#    y 0.826120 4.509020 -0.436430 
#    z -1.120180 -0.436430 4.480410 
# 
# 
# High freq. dielectric constant tensor:
#      x y z
#    x 1.897310 0.026920 -0.015070 
#    y 0.026920 1.869040 -0.000840 
#    z -0.015070 -0.000840 1.844150 
# 
# From -- ./inp_files/456861.got.cif
#   From: 2010.06.25/outbox.cif.g09.slc.cpg/sg2_229_cif.got.tgz:456861.got - 2010.06.27 13:26:56.
