data_PCOD8015432
_publ_section_title
;
Structure prediction by ZEFSAII (Michael W. Deem and Ramdas Pophale) SiO2 
 PCOD8015432
Probable space group: P -1
;
_chemical_formula_sum "Si O2"
_cell_formula_units_Z 16
_cell_length_a 6.292156
_cell_length_b 17.709085
_cell_length_c 6.175227
_cell_angle_alpha 88.194605
_cell_angle_beta 100.734173
_cell_angle_gamma 83.758345
_cell_volume 671.103090
_symmetry_space_group_name_H-M "P -1"
_symmetry_group_IT_number 2
_symmetry_cell_setting 'triclinic'
loop_
_space_group_symop_operation_xyz
x,y,z
-x,-y,-z
loop_
_atom_site_type_symbol
_atom_site_label
_atom_site_fract_x
_atom_site_fract_y
_atom_site_fract_z
Si Si1 0.206330 0.532229 0.639141
Si Si2 0.082897 0.643187 0.973221
Si Si3 0.062635 0.776436 0.651112
Si Si4 0.261876 0.084927 0.374333
Si Si5 0.425074 0.948546 0.177390
Si Si6 0.534869 0.388995 0.660248
Si Si7 0.794261 0.707216 0.256981
Si Si8 0.522231 0.180235 0.096494
O O1 0.106490 0.567647 0.839599
O O2 0.410150 0.468530 0.714030
O O3 0.305553 0.598845 0.512739
O O4 0.000000 0.500000 0.500000
O O5 0.987866 0.719023 0.820932
O O6 0.322452 0.649771 0.112841
O O7 0.913385 0.637612 0.139728
O O8 0.322346 0.773870 0.728537
O O9 0.969860 0.864409 0.663282
O O10 0.981249 0.749170 0.405946
O O11 0.366015 0.078066 0.631912
O O12 0.414837 0.127243 0.245693
O O13 0.240610 0.999989 0.281154
O O14 0.344374 0.873386 0.058467
O O15 0.500000 0.000000 0.000000
O O16 0.355322 0.330304 0.588742
O O17 0.656667 0.764528 0.066859
#
# Coordination Sequence:
#
# PCOD8015432 Si02
#       8
#     2   2   2   2   2   2   2   2
#     4  11  26  49  72 105 141 188 238 291 355 425
#     4  12  25  45  70 105 141 186 232 289 360 422
#     4  12  25  41  70 105 139 188 238 283 360 426
#     4  10  21  42  69 100 140 185 237 300 346 421
#     4   9  20  42  70  98 140 185 237 295 353 407
#     4  11  25  46  73 101 141 188 235 292 358 421
#     4  12  26  45  70 105 147 185 236 296 352 426
#     4  11  23  44  68 100 141 188 233 294 355 419
#
# _framework density 23.841346999999999
#
# number of rings (size 3 to 8) (size 9 to 14) (size 15 to 20)
#    0.000    1.000    3.750    2.625    0.000    8.500 
#    2.250    5.625    0.000    0.000    0.000    0.000 
#    0.000    0.000    0.000    0.000    0.000    0.000 
#
# Total GULP energy -198263.222378 kJ/mol
# GULP energy per Si atom -12391.451399 kJ/mol
# Density = 2.378708 g / cm^3
# Si number density = 23.841347 Si / 1000 Ang^3
#
#
#
# Elastic Constant Matrix: (Units=GPa)
#
#
# Indices 1 2 3 4 5 6 
#
# 1 91.2864 32.8419 59.4278 15.2203 6.0249 3.5953
# 2 32.8419 75.5697 46.4565 7.8698 9.4534 -16.6938
# 3 59.4278 46.4565 124.1800 3.9665 19.5778 -5.9270
# 4 15.2203 7.8698 3.9665 51.0706 -4.5178 5.5199
# 5 6.0249 9.4534 19.5778 -4.5178 38.7043 0.0074
# 6 3.5953 -16.6938 -5.9270 5.5199 0.0074 38.6939
#
#
#
# Elastic Compliance Matrix: (Units=1/GPa)
#
#
# Indices 1 2 3 4 5 6 
#
# 1 0.017811 -0.003894 -0.007377 -0.003576 0.001493 -0.003955
# 2 -0.003894 0.020477 -0.004937 -0.002763 -0.002222 0.008835
# 3 -0.007377 -0.004937 0.014142 0.001394 -0.004636 0.000524
# 4 -0.003576 -0.002763 0.001394 0.021637 0.003053 -0.003734
# 5 0.001493 -0.002222 -0.004636 0.003053 0.028849 -0.002249
# 6 -0.003955 0.008835 0.000524 -0.003734 -0.002249 0.030636
#
#
# Mechanical properties :
#
#
# Convention : Reuss Voigt Hill
#
# Bulk Modulus (GPa) = 49.96351 63.16538 56.56445
# Shear Modulus (GPa) = 28.96194 35.84778 32.40486
#
# Velocity S-wave (km/s) = 3.48915 3.88183 3.69072
# Velocity P-wave (km/s) = 6.10200 6.82957 6.47601
#
# Compressibility (1/GPa) = 0.02001461
#
# Stress axis : x y z
#
# Youngs Moduli (GPa) = 56.14427 48.83428 70.71311
#
# Poissons Ratio (x) = 0.19014 0.52166
# Poissons Ratio (y) = 0.21860 0.34912
# Poissons Ratio (z) = 0.41418 0.24110
#
# Static dielectric constant tensor:
#      x y z
#    x 4.021230 -0.307790 -0.004440 
#    y -0.307790 4.802050 0.065840 
#    z -0.004440 0.065840 4.475420 
# 
# 
# High freq. dielectric constant tensor:
#      x y z
#    x 1.921760 -0.019850 0.008050 
#    y -0.019850 1.960800 -0.009710 
#    z 0.008050 -0.009710 1.952460 
# 
# From -- ./inp_files/11131.got.cif
#   From: 2010.06.25/outbox.cif.g09.slc.cpg/sg2_6_cif.got.tgz:11131.got - 2010.06.27 13:26:56.
