data_PCOD8015479
_publ_section_title
;
Structure prediction by ZEFSAII (Michael W. Deem and Ramdas Pophale) SiO2 
 PCOD8015479
Probable space group: P -1
;
_chemical_formula_sum "Si O2"
_cell_formula_units_Z 16
_cell_length_a 11.141863
_cell_length_b 6.765128
_cell_length_c 11.865186
_cell_angle_alpha 96.130759
_cell_angle_beta 58.579808
_cell_angle_gamma 90.760726
_cell_volume 757.897463
_symmetry_space_group_name_H-M "P -1"
_symmetry_group_IT_number 2
_symmetry_cell_setting 'triclinic'
loop_
_space_group_symop_operation_xyz
x,y,z
-x,-y,-z
loop_
_atom_site_type_symbol
_atom_site_label
_atom_site_fract_x
_atom_site_fract_y
_atom_site_fract_z
Si Si1 0.316821 0.685118 0.951912
Si Si2 0.222948 0.993641 0.836930
Si Si3 0.477110 0.963551 0.379482
Si Si4 0.760012 0.307315 0.584365
Si Si5 0.903487 0.624212 0.969280
Si Si6 0.049705 0.821082 0.718595
Si Si7 0.623942 0.722913 0.724328
Si Si8 0.784150 0.060076 0.778386
O O1 0.235586 0.800749 0.897829
O O2 0.481227 0.643947 0.842391
O O3 0.244102 0.475394 0.987717
O O4 0.304433 0.807518 0.080751
O O5 0.167629 0.930160 0.738406
O O6 0.373798 0.088767 0.755947
O O7 0.118062 0.155092 0.956486
O O8 0.384729 0.774278 0.396297
O O9 0.500000 0.000000 0.500000
O O10 0.404799 0.163069 0.372524
O O11 0.882054 0.283055 0.430660
O O12 0.734487 0.539926 0.636918
O O13 0.811596 0.189193 0.662503
O O14 0.982449 0.646136 0.812939
O O15 0.000000 0.500000 0.000000
O O16 0.934885 0.991783 0.749931
O O17 0.693311 0.870071 0.787079
#
# Coordination Sequence:
#
# PCOD8015479 Si02
#       8
#     2   2   2   2   2   2   2   2
#     4  11  23  45  69  96 128 168 221 275 324 376
#     4  11  22  43  67  96 134 164 217 278 323 382
#     4  10  21  42  69  96 126 169 210 267 335 376
#     4  11  25  45  65  99 133 173 218 262 321 391
#     4  12  24  39  65 103 128 172 217 263 335 382
#     4  12  24  44  65  95 140 173 212 267 322 393
#     4  10  25  44  67  99 127 169 224 268 320 383
#     4  11  25  45  67  93 132 178 217 263 326 381
#
# _framework density 21.111035999999999
#
# number of rings (size 3 to 8) (size 9 to 14) (size 15 to 20)
#    0.000    1.000    3.750    2.625    1.750    2.500 
#    4.500    0.000    0.000    0.000    0.000    0.000 
#    0.000    0.000    0.000    0.000    0.000    0.000 
#
# Total GULP energy -198513.012417 kJ/mol
# GULP energy per Si atom -12407.063276 kJ/mol
# Density = 2.106299 g / cm^3
# Si number density = 21.111036 Si / 1000 Ang^3
#
#
#
# Elastic Constant Matrix: (Units=GPa)
#
#
# Indices 1 2 3 4 5 6 
#
# 1 72.8010 25.5082 22.8921 -8.0168 13.0878 -7.8879
# 2 25.5082 89.4875 37.5612 2.4088 0.5320 2.5160
# 3 22.8921 37.5612 125.7413 -2.7564 6.0261 -10.3849
# 4 -8.0168 2.4088 -2.7564 33.6280 0.5812 -0.2935
# 5 13.0878 0.5320 6.0261 0.5812 37.2482 0.5408
# 6 -7.8879 2.5160 -10.3849 -0.2935 0.5408 33.6278
#
#
#
# Elastic Compliance Matrix: (Units=1/GPa)
#
#
# Indices 1 2 3 4 5 6 
#
# 1 0.017867 -0.004869 -0.001039 0.004668 -0.006177 0.004375
# 2 -0.004869 0.014329 -0.003842 -0.002571 0.002218 -0.003459
# 3 -0.001039 -0.003842 0.009617 0.000863 -0.001194 0.003040
# 4 0.004668 -0.002571 0.000863 0.031160 -0.002256 0.001862
# 5 -0.006177 0.002218 -0.001194 -0.002256 0.029250 -0.002473
# 6 0.004375 -0.003459 0.003040 0.001862 -0.002473 0.032017
#
#
# Mechanical properties :
#
#
# Convention : Reuss Voigt Hill
#
# Bulk Modulus (GPa) = 44.81687 51.10587 47.96137
# Shear Modulus (GPa) = 31.02183 34.37200 32.69691
#
# Velocity S-wave (km/s) = 3.83751 4.03942 3.93976
# Velocity P-wave (km/s) = 6.39613 6.78355 6.59269
#
# Compressibility (1/GPa) = 0.02231303
#
# Stress axis : x y z
#
# Youngs Moduli (GPa) = 55.96864 69.79081 103.98384
#
# Poissons Ratio (x) = 0.33981 0.10802
# Poissons Ratio (y) = 0.27251 0.39951
# Poissons Ratio (z) = 0.05814 0.26814
#
# Static dielectric constant tensor:
#      x y z
#    x 3.954300 0.046000 -0.037830 
#    y 0.046000 3.844320 -0.090790 
#    z -0.037830 -0.090790 3.970880 
# 
# 
# High freq. dielectric constant tensor:
#      x y z
#    x 1.840350 0.002680 0.001060 
#    y 0.002680 1.825090 -0.008000 
#    z 0.001060 -0.008000 1.835740 
# 
# From -- ./inp_files/69218.got.cif
#   From: 2010.06.25/outbox.cif.g09.slc.cpg/sg2_35_cif.got.tgz:69218.got - 2010.06.27 13:26:56.
