data_PCOD8015131
_publ_section_title
;
Structure prediction by ZEFSAII (Michael W. Deem and Ramdas Pophale) SiO2 
 PCOD8015131
Probable space group: P -1
;
_chemical_formula_sum "Si O2"
_cell_formula_units_Z 16
_cell_length_a 25.946929
_cell_length_b 9.092434
_cell_length_c 14.684863
_cell_angle_alpha 133.938257
_cell_angle_beta 158.557321
_cell_angle_gamma 36.855656
_cell_volume 738.914173
_symmetry_space_group_name_H-M "P -1"
_symmetry_group_IT_number 2
_symmetry_cell_setting 'triclinic'
loop_
_space_group_symop_operation_xyz
x,y,z
-x,-y,-z
loop_
_atom_site_type_symbol
_atom_site_label
_atom_site_fract_x
_atom_site_fract_y
_atom_site_fract_z
Si Si1 0.116827 0.289365 0.386021
Si Si2 0.185003 0.175165 0.920311
Si Si3 0.246623 0.865677 0.717847
Si Si4 0.320574 0.715228 0.063995
Si Si5 0.762718 0.132361 0.739608
Si Si6 0.614348 0.599140 0.133054
Si Si7 0.444981 0.303313 0.407369
Si Si8 0.972617 0.142689 0.235201
O O1 0.290995 0.270973 0.680798
O O2 0.034482 0.294838 0.350126
O O3 0.980388 0.540337 0.212143
O O4 0.165316 0.044212 0.305667
O O5 0.163124 0.097507 0.750346
O O6 0.364566 0.146961 0.214626
O O7 0.189048 0.993382 0.923827
O O8 0.271132 0.626227 0.703429
O O9 0.125462 0.932286 0.460352
O O10 0.428728 0.807053 0.960015
O O11 0.471704 0.697730 0.361098
O O12 0.415944 0.505311 0.053045
O O13 0.202382 0.665693 0.910853
O O14 0.592283 0.164366 0.512028
O O15 0.710777 0.409346 0.750057
O O16 0.918500 0.011290 0.017839
#
# Coordination Sequence:
#
# PCOD8015131 Si02
#       8
#     2   2   2   2   2   2   2   2
#     4  12  24  39  65  90 127 161 205 248 305 365
#     4  11  22  40  65  94 122 162 202 253 302 366
#     4  10  23  42  64  88 128 157 204 254 308 357
#     4  10  23  41  65  90 125 161 205 249 308 355
#     4  10  23  42  61  92 127 160 199 257 306 353
#     4  10  23  43  62  92 121 164 202 256 302 362
#     4  10  21  42  66  89 124 161 204 253 301 361
#     4  11  23  41  60  91 125 161 201 250 303 361
#
# _framework density 21.653393999999999
#
# number of rings (size 3 to 8) (size 9 to 14) (size 15 to 20)
#    0.000    1.500    1.250    3.000    1.750    4.500 
#    0.000    6.875    0.000    0.000    0.000    0.000 
#    0.000    0.000    0.000    0.000    0.000    0.000 
#
# Total GULP energy -198451.974485 kJ/mol
# GULP energy per Si atom -12403.248405 kJ/mol
# Density = 2.160411 g / cm^3
# Si number density = 21.653394 Si / 1000 Ang^3
#
#
#
# Elastic Constant Matrix: (Units=GPa)
#
#
# Indices 1 2 3 4 5 6 
#
# 1 105.9333 34.3439 35.6269 4.9820 -2.8910 6.8679
# 2 34.3439 61.2135 31.9367 2.6209 0.4074 -5.0042
# 3 35.6269 31.9367 102.5026 3.2690 -13.9375 4.6050
# 4 4.9820 2.6209 3.2690 26.3496 8.5338 9.7689
# 5 -2.8910 0.4074 -13.9375 8.5338 41.6257 4.5704
# 6 6.8679 -5.0042 4.6050 9.7689 4.5704 20.7354
#
#
#
# Elastic Compliance Matrix: (Units=1/GPa)
#
#
# Indices 1 2 3 4 5 6 
#
# 1 0.012592 -0.006504 -0.001996 0.000338 0.000819 -0.005637
# 2 -0.006504 0.024377 -0.006199 -0.003777 -0.003300 0.011921
# 3 -0.001996 -0.006199 0.013285 -0.000557 0.004992 -0.004623
# 4 0.000338 -0.003777 -0.000557 0.049121 -0.007744 -0.022335
# 5 0.000819 -0.003300 0.004992 -0.007744 0.027885 -0.004674
# 6 -0.005637 0.011921 -0.004623 -0.022335 -0.004674 0.065550
#
#
# Mechanical properties :
#
#
# Convention : Reuss Voigt Hill
#
# Bulk Modulus (GPa) = 47.94555 52.60716 50.27636
# Shear Modulus (GPa) = 21.81884 28.92492 25.37188
#
# Velocity S-wave (km/s) = 3.17778 3.65884 3.42676
# Velocity P-wave (km/s) = 5.97116 6.49595 6.23907
#
# Compressibility (1/GPa) = 0.02085699
#
# Stress axis : x y z
#
# Youngs Moduli (GPa) = 79.41710 41.02159 75.27156
#
# Poissons Ratio (x) = 0.26680 0.15026
# Poissons Ratio (y) = 0.51652 0.46658
# Poissons Ratio (z) = 0.15854 0.25428
#
# Static dielectric constant tensor:
#      x y z
#    x 4.046840 0.084360 0.053270 
#    y 0.084360 3.576960 0.022410 
#    z 0.053270 0.022410 3.943480 
# 
# 
# High freq. dielectric constant tensor:
#      x y z
#    x 1.859220 0.004010 0.006510 
#    y 0.004010 1.826520 0.004030 
#    z 0.006510 0.004030 1.865200 
# 
# From -- ./inp_files/174985.got.cif
#   From: 2010.06.25/outbox.cif.g09.slc.cpg/sg2_88_cif.got.tgz:174985.got - 2010.06.27 13:26:56.
