data_PCOD8015189
_publ_section_title
;
Structure prediction by ZEFSAII (Michael W. Deem and Ramdas Pophale) SiO2 
 PCOD8015189
Probable space group: P -1
;
_chemical_formula_sum "Si O2"
_cell_formula_units_Z 14
_cell_length_a 11.949264
_cell_length_b 12.073278
_cell_length_c 5.184201
_cell_angle_alpha 83.868440
_cell_angle_beta 51.678923
_cell_angle_gamma 100.856549
_cell_volume 551.468545
_symmetry_space_group_name_H-M "P -1"
_symmetry_group_IT_number 2
_symmetry_cell_setting 'triclinic'
loop_
_space_group_symop_operation_xyz
x,y,z
-x,-y,-z
loop_
_atom_site_type_symbol
_atom_site_label
_atom_site_fract_x
_atom_site_fract_y
_atom_site_fract_z
Si Si1 0.558763 0.354801 0.854178
Si Si2 0.231594 0.891174 0.993007
Si Si3 0.607923 0.126600 0.744650
Si Si4 0.107418 0.227529 0.663994
Si Si5 0.148208 0.102362 0.165070
Si Si6 0.640595 0.525657 0.105446
Si Si7 0.849994 0.536055 0.199588
O O1 0.516176 0.216933 0.897669
O O2 0.400587 0.383996 0.057188
O O3 0.700074 0.421049 0.448770
O O4 0.629381 0.400588 0.021936
O O5 0.342209 0.871197 0.622610
O O6 0.254865 0.838855 0.252008
O O7 0.065482 0.821437 0.155934
O O8 0.264856 0.032833 0.944490
O O9 0.500000 0.000000 0.000000
O O10 0.203199 0.194117 0.302830
O O11 0.148386 0.369900 0.601582
O O12 0.126007 0.168964 0.922822
O O13 0.000000 0.000000 0.500000
O O14 0.500000 0.500000 0.500000
O O15 0.810328 0.586336 0.969145
O O16 0.000000 0.500000 0.000000
#
# Coordination Sequence:
#
# PCOD8015189 Si02
#       7
#     2   2   2   2   2   2   2
#     4  10  24  47  70  97 142 189 236 293 352 422
#     4  11  23  46  66 101 141 180 222 303 359 407
#     4  12  27  45  70 101 131 184 242 296 352 414
#     4  11  23  40  69 104 139 188 225 282 364 434
#     4  10  21  42  66  94 140 181 228 268 344 434
#     4   9  22  47  69  94 138 190 237 288 351 414
#     4  11  25  41  69 109 141 180 235 295 363 423
#
# _framework density 25.386762000000001
#
# number of rings (size 3 to 8) (size 9 to 14) (size 15 to 20)
#    0.000    1.429    0.000    5.571    8.000    1.714 
#   12.857    0.000    0.000    0.000    0.000    0.000 
#    0.000    0.000    0.000    0.000    0.000    0.000 
#
# Total GULP energy -173437.023046 kJ/mol
# GULP energy per Si atom -12388.358789 kJ/mol
# Density = 2.532898 g / cm^3
# Si number density = 25.386762 Si / 1000 Ang^3
#
#
#
# Elastic Constant Matrix: (Units=GPa)
#
#
# Indices 1 2 3 4 5 6 
#
# 1 151.0625 49.2454 38.0163 33.2291 3.7538 -2.1723
# 2 49.2454 195.9652 34.6214 42.0500 -2.8016 7.5345
# 3 38.0163 34.6214 68.2278 34.0927 8.6794 2.1700
# 4 33.2291 42.0500 34.0927 50.9245 2.5556 3.1279
# 5 3.7538 -2.8016 8.6794 2.5556 47.9344 10.1311
# 6 -2.1723 7.5345 2.1700 3.1279 10.1311 33.7043
#
#
#
# Elastic Compliance Matrix: (Units=1/GPa)
#
#
# Indices 1 2 3 4 5 6 
#
# 1 0.008283 -0.001064 -0.002673 -0.002799 -0.000354 0.001310
# 2 -0.001064 0.006452 -0.000718 -0.004121 0.001109 -0.001416
# 3 -0.002673 -0.000718 0.023600 -0.013332 -0.003559 0.000776
# 4 -0.002799 -0.004121 -0.013332 0.033856 0.000975 -0.001836
# 5 -0.000354 0.001109 -0.003559 0.000975 0.023038 -0.007057
# 6 0.001310 -0.001416 0.000776 -0.001836 -0.007057 0.032312
#
#
# Mechanical properties :
#
#
# Convention : Reuss Voigt Hill
#
# Bulk Modulus (GPa) = 33.98423 73.22464 53.60443
# Shear Modulus (GPa) = 34.18579 46.07079 40.12829
#
# Velocity S-wave (km/s) = 3.67358 4.26462 3.98009
# Velocity P-wave (km/s) = 5.60440 7.29078 6.50249
#
# Compressibility (1/GPa) = 0.02942541
#
# Stress axis : x y z
#
# Youngs Moduli (GPa) = 120.73352 154.99635 42.37222
#
# Poissons Ratio (x) = 0.16491 0.11326
# Poissons Ratio (y) = 0.12845 0.03041
# Poissons Ratio (z) = 0.32273 0.11124
#
# Static dielectric constant tensor:
#      x y z
#    x 5.728910 -0.205030 0.480020 
#    y -0.205030 5.275560 0.485530 
#    z 0.480020 0.485530 4.934980 
# 
# 
# High freq. dielectric constant tensor:
#      x y z
#    x 2.024880 0.009930 0.010010 
#    y 0.009930 2.022560 0.017140 
#    z 0.010010 0.017140 2.010670 
# 
# From -- ./inp_files/70243.got.cif
#   From: 2010.06.25/outbox.cif.g09.slc.cpg/sg2_36_cif.got.tgz:70243.got - 2010.06.27 13:26:56.
