data_PCOD8015740
_publ_section_title
;
Structure prediction by ZEFSAII (Michael W. Deem and Ramdas Pophale) SiO2 
 PCOD8015740
Probable space group: P -1
;
_chemical_formula_sum "Si O2"
_cell_formula_units_Z 12
_cell_length_a 6.806224
_cell_length_b 8.345446
_cell_length_c 15.140896
_cell_angle_alpha 88.655136
_cell_angle_beta 139.123481
_cell_angle_gamma 100.315936
_cell_volume 545.292413
_symmetry_space_group_name_H-M "P -1"
_symmetry_group_IT_number 2
_symmetry_cell_setting 'triclinic'
loop_
_space_group_symop_operation_xyz
x,y,z
-x,-y,-z
loop_
_atom_site_type_symbol
_atom_site_label
_atom_site_fract_x
_atom_site_fract_y
_atom_site_fract_z
Si Si1 0.223220 0.833086 0.676541
Si Si2 0.652600 0.122709 0.731356
Si Si3 0.323211 0.694453 0.084527
Si Si4 0.673995 0.617244 0.811638
Si Si5 0.422480 0.398166 0.564699
Si Si6 0.221388 0.026699 0.845538
O O1 0.521228 0.759965 0.790849
O O2 0.131637 0.889987 0.740293
O O3 0.939821 0.690210 0.546245
O O4 0.328190 0.986203 0.641291
O O5 0.765967 0.223244 0.857431
O O6 0.602100 0.251363 0.636842
O O7 0.909866 0.027076 0.792003
O O8 0.358761 0.511197 0.116912
O O9 0.651214 0.793164 0.156917
O O10 0.042939 0.692816 0.920042
O O11 0.511654 0.532395 0.669824
O O12 0.500000 0.500000 0.500000
O O13 0.500000 0.000000 0.000000
#
# Coordination Sequence:
#
# PCOD8015740 Si02
#       6
#     2   2   2   2   2   2
#     4  11  24  42  65  92 127 169 207 256 315 368
#     4  10  23  45  65  92 129 163 210 259 310 375
#     4   9  21  41  66  94 124 165 205 261 323 362
#     4  10  21  43  64  91 133 161 206 265 313 371
#     4  11  26  42  64  94 125 172 214 251 311 370
#     4  11  23  39  68  96 125 162 212 259 314 373
#
# _framework density 22.006540000000001
#
# number of rings (size 3 to 8) (size 9 to 14) (size 15 to 20)
#    0.000    1.667    0.000    3.000    7.000    3.333 
#    3.000    3.333    0.000    0.000    0.000    0.000 
#    0.000    0.000    0.000    0.000    0.000    0.000 
#
# Total GULP energy -148804.997813 kJ/mol
# GULP energy per Si atom -12400.416484 kJ/mol
# Density = 2.195645 g / cm^3
# Si number density = 22.006540 Si / 1000 Ang^3
#
#
#
# Elastic Constant Matrix: (Units=GPa)
#
#
# Indices 1 2 3 4 5 6 
#
# 1 93.4624 35.3895 31.1792 -1.8634 5.1308 5.1412
# 2 35.3895 96.3325 30.2567 -0.2444 2.0354 4.2730
# 3 31.1792 30.2567 107.7294 10.4544 0.5159 15.8028
# 4 -1.8634 -0.2444 10.4544 43.7563 0.7703 5.7078
# 5 5.1308 2.0354 0.5159 0.7703 25.9377 0.1383
# 6 5.1412 4.2730 15.8028 5.7078 0.1383 27.1957
#
#
#
# Elastic Compliance Matrix: (Units=1/GPa)
#
#
# Indices 1 2 3 4 5 6 
#
# 1 0.013301 -0.003937 -0.002781 0.001321 -0.002303 -0.000545
# 2 -0.003937 0.012600 -0.002459 0.000481 -0.000176 0.000093
# 3 -0.002781 -0.002459 0.011796 -0.002247 0.000604 -0.005474
# 4 0.001321 0.000481 -0.002247 0.023995 -0.000945 -0.004051
# 5 -0.002303 -0.000176 0.000604 -0.000945 0.039039 0.000112
# 6 -0.000545 0.000093 -0.005474 -0.004051 0.000112 0.040889
#
#
# Mechanical properties :
#
#
# Convention : Reuss Voigt Hill
#
# Bulk Modulus (GPa) = 51.69659 54.57502 53.13580
# Shear Modulus (GPa) = 30.04440 32.75789 31.40114
#
# Velocity S-wave (km/s) = 3.69894 3.86236 3.78153
# Velocity P-wave (km/s) = 6.46415 6.68908 6.57758
#
# Compressibility (1/GPa) = 0.01934364
#
# Stress axis : x y z
#
# Youngs Moduli (GPa) = 75.18487 79.36499 84.77333
#
# Poissons Ratio (x) = 0.31242 0.23575
# Poissons Ratio (y) = 0.29597 0.20846
# Poissons Ratio (z) = 0.20909 0.19516
#
# Static dielectric constant tensor:
#      x y z
#    x 3.718670 0.204130 0.036650 
#    y 0.204130 4.275570 0.061010 
#    z 0.036650 0.061010 3.986760 
# 
# 
# High freq. dielectric constant tensor:
#      x y z
#    x 1.845150 0.008100 0.004170 
#    y 0.008100 1.886930 0.005960 
#    z 0.004170 0.005960 1.871120 
# 
# From -- ./inp_files/17735.got.cif
#   From: 2010.06.25/outbox.cif.g09.slc.cpg/sg2_9_cif.got.tgz:17735.got - 2010.06.27 13:26:56.
