data_PCOD8015483
_publ_section_title
;
Structure prediction by ZEFSAII (Michael W. Deem and Ramdas Pophale) SiO2 
 PCOD8015483
Probable space group: P -1
;
_chemical_formula_sum "Si O2"
_cell_formula_units_Z 12
_cell_length_a 8.683112
_cell_length_b 9.015264
_cell_length_c 8.757742
_cell_angle_alpha 127.761951
_cell_angle_beta 82.473341
_cell_angle_gamma 99.910674
_cell_volume 533.602169
_symmetry_space_group_name_H-M "P -1"
_symmetry_group_IT_number 2
_symmetry_cell_setting 'triclinic'
loop_
_space_group_symop_operation_xyz
x,y,z
-x,-y,-z
loop_
_atom_site_type_symbol
_atom_site_label
_atom_site_fract_x
_atom_site_fract_y
_atom_site_fract_z
Si Si1 0.795535 0.706776 0.516627
Si Si2 0.984978 0.448272 0.144989
Si Si3 0.243068 0.937254 0.065769
Si Si4 0.567883 0.838961 0.056208
Si Si5 0.462332 0.208509 0.634965
Si Si6 0.297924 0.478652 0.295203
O O1 0.936289 0.633282 0.356617
O O2 0.659132 0.739619 0.440221
O O3 0.742716 0.531904 0.527074
O O4 0.842187 0.900074 0.731586
O O5 0.148384 0.404520 0.165377
O O6 0.866551 0.257975 0.058547
O O7 0.000000 0.500000 0.000000
O O8 0.398341 0.911485 0.126756
O O9 0.298227 0.001889 0.927449
O O10 0.606264 0.759034 0.167693
O O11 0.566934 0.659135 0.832083
O O12 0.631907 0.316771 0.641362
O O13 0.500000 0.000000 0.500000
#
# Coordination Sequence:
#
# PCOD8015483 Si02
#       6
#     2   2   2   2   2   2
#     4  11  25  45  68 100 135 178 222 277 329 400
#     4  12  26  45  69  96 141 178 220 277 333 404
#     4  10  23  44  68 101 131 177 222 272 338 388
#     4  10  21  42  69  97 133 170 225 277 324 394
#     4  12  23  40  70 102 130 169 228 279 325 389
#     4  11  25  44  67 100 135 180 219 271 341 394
#
# _framework density 22.488664
#
# number of rings (size 3 to 8) (size 9 to 14) (size 15 to 20)
#    0.000    1.000    1.667    4.500    2.333    3.333 
#    3.000    0.000    0.000    0.000    0.000    0.000 
#    0.000    0.000    0.000    0.000    0.000    0.000 
#
# Total GULP energy -148744.738194 kJ/mol
# GULP energy per Si atom -12395.394850 kJ/mol
# Density = 2.243748 g / cm^3
# Si number density = 22.488664 Si / 1000 Ang^3
#
#
#
# Elastic Constant Matrix: (Units=GPa)
#
#
# Indices 1 2 3 4 5 6 
#
# 1 64.5327 49.1524 28.0734 2.3377 -3.2769 -6.7809
# 2 49.1524 170.6215 39.9384 -11.8407 15.0111 -2.2653
# 3 28.0734 39.9384 80.6518 -5.4136 -21.8753 -6.1759
# 4 2.3377 -11.8407 -5.4136 56.4081 -7.5206 11.4661
# 5 -3.2769 15.0111 -21.8753 -7.5206 40.2453 -3.6261
# 6 -6.7809 -2.2653 -6.1759 11.4661 -3.6261 26.5203
#
#
#
# Elastic Compliance Matrix: (Units=1/GPa)
#
#
# Indices 1 2 3 4 5 6 
#
# 1 0.022668 -0.005804 -0.004390 -0.003608 0.001494 0.006042
# 2 -0.005804 0.009172 -0.004364 0.001573 -0.006265 -0.003254
# 3 -0.004390 -0.004364 0.020041 0.002092 0.012918 0.004034
# 4 -0.003608 0.001573 0.002092 0.020634 0.003322 -0.008768
# 5 0.001494 -0.006265 0.012918 0.003322 0.035514 0.006275
# 6 0.006042 -0.003254 0.004034 -0.008768 0.006275 0.044562
#
#
# Mechanical properties :
#
#
# Convention : Reuss Voigt Hill
#
# Bulk Modulus (GPa) = 43.92951 61.12603 52.52777
# Shear Modulus (GPa) = 26.41359 37.87753 32.14556
#
# Velocity S-wave (km/s) = 3.43086 4.10847 3.78486
# Velocity P-wave (km/s) = 5.93893 7.05307 6.51984
#
# Compressibility (1/GPa) = 0.02276374
#
# Stress axis : x y z
#
# Youngs Moduli (GPa) = 44.11447 109.03072 49.89661
#
# Poissons Ratio (x) = 0.63284 0.21906
# Poissons Ratio (y) = 0.25605 0.21776
# Poissons Ratio (z) = 0.19368 0.47584
#
# Static dielectric constant tensor:
#      x y z
#    x 4.193320 -0.112130 -0.359350 
#    y -0.112130 3.780140 0.189030 
#    z -0.359350 0.189030 4.066310 
# 
# 
# High freq. dielectric constant tensor:
#      x y z
#    x 1.871520 -0.013440 -0.014220 
#    y -0.013440 1.908430 -0.009660 
#    z -0.014220 -0.009660 1.891580 
# 
# From -- ./inp_files/146467.got.cif
#   From: 2010.06.25/outbox.cif.g09.slc.cpg/sg2_74_cif.got.tgz:146467.got - 2010.06.27 13:26:56.
