data_PCOD8015165
_publ_section_title
;
Structure prediction by ZEFSAII (Michael W. Deem and Ramdas Pophale) SiO2 
 PCOD8015165
Probable space group: P -1
;
_chemical_formula_sum "Si O2"
_cell_formula_units_Z 16
_cell_length_a 9.146660
_cell_length_b 22.983393
_cell_length_c 7.691026
_cell_angle_alpha 102.317026
_cell_angle_beta 100.580761
_cell_angle_gamma 26.855102
_cell_volume 713.480531
_symmetry_space_group_name_H-M "P -1"
_symmetry_group_IT_number 2
_symmetry_cell_setting 'triclinic'
loop_
_space_group_symop_operation_xyz
x,y,z
-x,-y,-z
loop_
_atom_site_type_symbol
_atom_site_label
_atom_site_fract_x
_atom_site_fract_y
_atom_site_fract_z
Si Si1 0.835189 0.206578 0.630291
Si Si2 0.737214 0.875167 0.084360
Si Si3 0.441657 0.449062 0.586901
Si Si4 0.806058 0.971934 0.685327
Si Si5 0.055187 0.324816 0.095661
Si Si6 0.105554 0.610555 0.293168
Si Si7 0.710486 0.148976 0.060696
Si Si8 0.594185 0.172925 0.678043
O O1 0.512355 0.356052 0.594969
O O2 0.733907 0.173178 0.582022
O O3 0.977850 0.183033 0.823387
O O4 0.132817 0.101491 0.489722
O O5 0.534005 0.916344 0.220968
O O6 0.901918 0.762335 0.942912
O O7 0.500000 0.000000 0.000000
O O8 0.352465 0.483195 0.383572
O O9 0.784928 0.360098 0.637762
O O10 0.175858 0.573393 0.733695
O O11 0.123811 0.854649 0.806055
O O12 0.811403 0.036323 0.642710
O O13 0.406765 0.228613 0.148418
O O14 0.903169 0.399892 0.923230
O O15 0.764176 0.720881 0.381983
O O16 0.579714 0.213603 0.884548
O O17 0.000000 0.000000 0.000000
#
# Coordination Sequence:
#
# PCOD8015165 Si02
#       8
#     2   2   2   2   2   2   2   2
#     4  12  26  40  64 107 134 169 227 283 327 400
#     4  12  25  42  70 103 133 170 225 281 340 396
#     4  11  25  43  71  95 133 182 236 269 330 405
#     4  11  22  43  67  93 142 171 215 279 346 405
#     4  11  22  45  72  94 138 178 224 275 336 406
#     4  10  22  45  68  91 131 187 220 273 339 396
#     4   9  18  39  67  92 122 178 217 259 335 405
#     4  10  21  42  66  92 135 174 221 276 343 400
#
# _framework density 22.425279
#
# number of rings (size 3 to 8) (size 9 to 14) (size 15 to 20)
#    0.000    1.250    5.000    1.875    3.500    3.500 
#    2.250    1.250    0.000    0.000    0.000    0.000 
#    0.000    0.000    0.000    0.000    0.000    0.000 
#
# Total GULP energy -198267.662696 kJ/mol
# GULP energy per Si atom -12391.728918 kJ/mol
# Density = 2.237424 g / cm^3
# Si number density = 22.425279 Si / 1000 Ang^3
#
#
#
# Elastic Constant Matrix: (Units=GPa)
#
#
# Indices 1 2 3 4 5 6 
#
# 1 88.5462 48.2671 20.2730 4.0062 -0.8083 -10.2081
# 2 48.2671 104.9067 35.4363 2.3097 -6.2751 12.3262
# 3 20.2730 35.4363 52.6051 -2.8064 -4.3319 11.4652
# 4 4.0062 2.3097 -2.8064 39.8002 -3.5671 5.0054
# 5 -0.8083 -6.2751 -4.3319 -3.5671 23.8427 -10.5628
# 6 -10.2081 12.3262 11.4652 5.0054 -10.5628 41.5015
#
#
#
# Elastic Compliance Matrix: (Units=1/GPa)
#
#
# Indices 1 2 3 4 5 6 
#
# 1 0.017259 -0.007653 -0.003276 -0.002428 0.001162 0.008012
# 2 -0.007653 0.015896 -0.006704 0.000012 0.000679 -0.004580
# 3 -0.003276 -0.006704 0.026411 0.003437 0.000616 -0.006369
# 4 -0.002428 0.000012 0.003437 0.026362 0.002698 -0.004043
# 5 0.001162 0.000679 0.000616 0.002698 0.047893 0.011778
# 6 0.008012 -0.004580 -0.006369 -0.004043 0.011778 0.032671
#
#
# Mechanical properties :
#
#
# Convention : Reuss Voigt Hill
#
# Bulk Modulus (GPa) = 41.15290 50.44564 45.79927
# Shear Modulus (GPa) = 23.82557 30.50097 27.16327
#
# Velocity S-wave (km/s) = 3.26305 3.69198 3.48412
# Velocity P-wave (km/s) = 5.70856 6.38107 6.05416
#
# Compressibility (1/GPa) = 0.02429962
#
# Stress axis : x y z
#
# Youngs Moduli (GPa) = 57.94002 62.90753 37.86369
#
# Poissons Ratio (x) = 0.48141 0.12405
# Poissons Ratio (y) = 0.44339 0.25385
# Poissons Ratio (z) = 0.18983 0.42175
#
# Static dielectric constant tensor:
#      x y z
#    x 4.138120 -0.206590 0.193480 
#    y -0.206590 3.845950 -0.353090 
#    z 0.193480 -0.353090 4.298930 
# 
# 
# High freq. dielectric constant tensor:
#      x y z
#    x 1.880930 -0.015920 0.002880 
#    y -0.015920 1.872710 -0.014650 
#    z 0.002880 -0.014650 1.880530 
# 
# From -- ./inp_files/222220.got.cif
#   From: 2010.06.25/outbox.cif.g09.slc.cpg/sg2_112_cif.got.tgz:222220.got - 2010.06.27 13:26:56.
