data_PCOD8015718
_publ_section_title
;
Structure prediction by ZEFSAII (Michael W. Deem and Ramdas Pophale) SiO2 
 PCOD8015718
Probable space group: P -1
;
_chemical_formula_sum "Si O2"
_cell_formula_units_Z 10
_cell_length_a 12.228667
_cell_length_b 5.727891
_cell_length_c 18.249723
_cell_angle_alpha 58.056142
_cell_angle_beta 26.922897
_cell_angle_gamma 73.293578
_cell_volume 430.976239
_symmetry_space_group_name_H-M "P -1"
_symmetry_group_IT_number 2
_symmetry_cell_setting 'triclinic'
loop_
_space_group_symop_operation_xyz
x,y,z
-x,-y,-z
loop_
_atom_site_type_symbol
_atom_site_label
_atom_site_fract_x
_atom_site_fract_y
_atom_site_fract_z
Si Si1 0.853511 0.136884 0.121692
Si Si2 0.314585 0.801103 0.420946
Si Si3 0.093376 0.130653 0.718183
Si Si4 0.514752 0.074187 0.104175
Si Si5 0.151227 0.220797 0.210119
O O1 0.573323 0.084461 0.259754
O O2 0.788322 0.936545 0.268094
O O3 0.000000 0.500000 0.000000
O O4 0.000000 0.000000 0.000000
O O5 0.300428 0.483018 0.512477
O O6 0.024551 0.789018 0.611909
O O7 0.359342 0.830583 0.302360
O O8 0.074312 0.910012 0.698449
O O9 0.774056 0.039316 0.931145
O O10 0.299313 0.010479 0.176528
O O11 0.617445 0.432067 0.008920
#
# Coordination Sequence:
#
# PCOD8015718 Si02
#       5
#     2   2   2   2   2
#     4  12  27  47  74  98 137 185 227 285 348 405
#     4  11  24  41  67  98 135 175 230 279 340 406
#     4  11  24  41  67  98 133 176 229 279 341 405
#     4  10  21  43  63  96 138 174 225 275 345 401
#     4  10  23  39  67  97 132 181 221 284 331 413
#
# _framework density 23.203137000000002
#
# number of rings (size 3 to 8) (size 9 to 14) (size 15 to 20)
#    0.000    1.200    2.000    3.000    5.600    3.200 
#    0.000    0.000    0.000    0.000    0.000    0.000 
#    0.000    0.000    0.000    0.000    0.000    0.000 
#
# Total GULP energy -123932.408505 kJ/mol
# GULP energy per Si atom -12393.240850 kJ/mol
# Density = 2.315033 g / cm^3
# Si number density = 23.203137 Si / 1000 Ang^3
#
#
#
# Elastic Constant Matrix: (Units=GPa)
#
#
# Indices 1 2 3 4 5 6 
#
# 1 96.2867 0.8883 12.2861 -6.7215 17.3488 0.1781
# 2 0.8883 69.5240 16.6248 -11.5096 9.7692 2.9746
# 3 12.2861 16.6248 93.8957 -2.7953 21.8454 -0.3568
# 4 -6.7215 -11.5096 -2.7953 30.5980 -4.8816 -3.4619
# 5 17.3488 9.7692 21.8454 -4.8816 45.3132 -1.9411
# 6 0.1781 2.9746 -0.3568 -3.4619 -1.9411 37.3186
#
#
#
# Elastic Compliance Matrix: (Units=1/GPa)
#
#
# Indices 1 2 3 4 5 6 
#
# 1 0.011330 0.000932 -0.000654 0.002125 -0.004001 -0.000146
# 2 0.000932 0.016203 -0.002324 0.005640 -0.002161 -0.000907
# 3 -0.000654 -0.002324 0.012355 -0.000736 -0.005286 -0.000037
# 4 0.002125 0.005640 -0.000736 0.035911 0.002322 0.002985
# 5 -0.004001 -0.002161 -0.005286 0.002322 0.026940 0.001757
# 6 -0.000146 -0.000907 -0.000037 0.002985 0.001757 0.027237
#
#
# Mechanical properties :
#
#
# Convention : Reuss Voigt Hill
#
# Bulk Modulus (GPa) = 27.93555 35.47831 31.70693
# Shear Modulus (GPa) = 34.24648 37.97309 36.10978
#
# Velocity S-wave (km/s) = 3.84597 4.04982 3.94921
# Velocity P-wave (km/s) = 5.63805 6.09849 5.87278
#
# Compressibility (1/GPa) = 0.03579668
#
# Stress axis : x y z
#
# Youngs Moduli (GPa) = 88.26163 61.71532 80.94019
#
# Poissons Ratio (x) = -0.05751 0.05293
# Poissons Ratio (y) = -0.08224 0.18807
# Poissons Ratio (z) = 0.05772 0.14340
#
# Static dielectric constant tensor:
#      x y z
#    x 4.252650 -0.039810 0.044300 
#    y -0.039810 4.065530 -0.015270 
#    z 0.044300 -0.015270 4.165800 
# 
# 
# High freq. dielectric constant tensor:
#      x y z
#    x 1.930110 0.000380 0.002740 
#    y 0.000380 1.901450 0.001110 
#    z 0.002740 0.001110 1.922480 
# 
# From -- ./inp_files/1430.got.cif
#   From: 2010.06.25/outbox.cif.g09.slc.cpg/sg2_1_cif.got.tgz:1430.got - 2010.06.27 13:26:56.
