data_PCOD8015924
_publ_section_title
;
Structure prediction by ZEFSAII (Michael W. Deem and Ramdas Pophale) SiO2 
 PCOD8015924
Probable space group: P -1
;
_chemical_formula_sum "Si O2"
_cell_formula_units_Z 16
_cell_length_a 11.190132
_cell_length_b 6.953511
_cell_length_c 17.961781
_cell_angle_alpha 138.597031
_cell_angle_beta 50.540185
_cell_angle_gamma 112.724475
_cell_volume 702.363692
_symmetry_space_group_name_H-M "P -1"
_symmetry_group_IT_number 2
_symmetry_cell_setting 'triclinic'
loop_
_space_group_symop_operation_xyz
x,y,z
-x,-y,-z
loop_
_atom_site_type_symbol
_atom_site_label
_atom_site_fract_x
_atom_site_fract_y
_atom_site_fract_z
Si Si1 0.619578 0.763051 0.770865
Si Si2 0.389943 0.409299 0.822266
Si Si3 0.202069 0.720139 0.117962
Si Si4 0.455943 0.191868 0.351979
Si Si5 0.085219 0.645735 0.444164
Si Si6 0.899916 0.752240 0.161638
Si Si7 0.242292 0.622393 0.663017
Si Si8 0.970766 0.334466 0.694463
O O1 0.465785 0.696594 0.855873
O O2 0.576877 0.888193 0.742398
O O3 0.731161 0.442299 0.633587
O O4 0.709051 0.001223 0.843703
O O5 0.267478 0.358740 0.789547
O O6 0.516064 0.108776 0.697658
O O7 0.292683 0.467860 0.955310
O O8 0.189685 0.597351 0.171872
O O9 0.013436 0.811071 0.201422
O O10 0.303918 0.415311 0.507440
O O11 0.607325 0.353628 0.338960
O O12 0.062033 0.526696 0.334808
O O13 0.000000 0.500000 0.500000
O O14 0.024581 0.987959 0.568221
O O15 0.851044 0.058284 0.227594
O O16 0.000000 0.500000 0.000000
O O17 0.114062 0.471414 0.713984
#
# Coordination Sequence:
#
# PCOD8015924 Si02
#       8
#     2   2   2   2   2   2   2   2
#     4  12  24  40  69  94 132 178 218 274 333 387
#     4  10  24  47  64  91 137 177 221 272 326 391
#     4  11  24  42  66 100 130 173 227 271 327 395
#     4  10  24  43  63  98 132 171 221 272 328 399
#     4  11  23  42  63  97 139 171 216 276 330 393
#     4   9  21  45  69  94 131 172 222 274 325 393
#     4  10  21  43  67  95 134 169 220 275 330 397
#     4  11  24  39  67  99 131 173 220 274 334 381
#
# _framework density 22.780221999999998
#
# number of rings (size 3 to 8) (size 9 to 14) (size 15 to 20)
#    0.000    1.500    1.250    2.625    7.000    0.500 
#    6.750    4.375    0.000    0.000    0.000    0.000 
#    0.000    0.000    0.000    0.000    0.000    0.000 
#
# Total GULP energy -198247.716827 kJ/mol
# GULP energy per Si atom -12390.482302 kJ/mol
# Density = 2.272837 g / cm^3
# Si number density = 22.780222 Si / 1000 Ang^3
#
#
#
# Elastic Constant Matrix: (Units=GPa)
#
#
# Indices 1 2 3 4 5 6 
#
# 1 109.6457 55.9740 21.5787 -3.1347 0.9673 15.9589
# 2 55.9740 119.5946 30.4830 -6.5849 -2.7024 30.0789
# 3 21.5787 30.4830 89.4089 5.4599 -6.1116 0.7749
# 4 -3.1347 -6.5849 5.4599 27.0225 -0.7847 -5.7888
# 5 0.9673 -2.7024 -6.1116 -0.7847 29.6779 3.6567
# 6 15.9589 30.0789 0.7749 -5.7888 3.6567 42.1590
#
#
#
# Elastic Compliance Matrix: (Units=1/GPa)
#
#
# Indices 1 2 3 4 5 6 
#
# 1 0.012136 -0.005188 -0.001236 0.000202 -0.001024 -0.000754
# 2 -0.005188 0.013707 -0.003349 0.001826 0.001719 -0.007653
# 3 -0.001236 -0.003349 0.012937 -0.003081 0.002069 0.002017
# 4 0.000202 0.001826 -0.003081 0.038960 0.000060 0.004022
# 5 -0.001024 0.001719 0.002069 0.000060 0.034792 -0.003886
# 6 -0.000754 -0.007653 0.002017 0.004022 -0.003886 0.030317
#
#
# Mechanical properties :
#
#
# Convention : Reuss Voigt Hill
#
# Bulk Modulus (GPa) = 51.98915 59.41340 55.70127
# Shear Modulus (GPa) = 29.61965 33.81279 31.71622
#
# Velocity S-wave (km/s) = 3.60979 3.85685 3.73536
# Velocity P-wave (km/s) = 6.34395 6.78022 6.56571
#
# Compressibility (1/GPa) = 0.01923478
#
# Stress axis : x y z
#
# Youngs Moduli (GPa) = 82.39726 72.95441 77.29834
#
# Poissons Ratio (x) = 0.37845 0.09556
# Poissons Ratio (y) = 0.42744 0.25887
# Poissons Ratio (z) = 0.10187 0.24432
#
# Static dielectric constant tensor:
#      x y z
#    x 28.596510 -67.000560 -9.554330 
#    y -67.000560 192.619150 26.547770 
#    z -9.554330 26.547770 7.808850 
# 
# 
# High freq. dielectric constant tensor:
#      x y z
#    x 1.910510 0.018090 -0.005920 
#    y 0.018090 1.892900 0.004200 
#    z -0.005920 0.004200 1.890280 
# 
# From -- ./inp_files/564564.got.cif
#   From: 2010.06.25/outbox.cif.g09.slc.cpg/sg2_283_cif.got.tgz:564564.got - 2010.06.27 13:26:56.
