data_PCOD8015291
_publ_section_title
;
Structure prediction by ZEFSAII (Michael W. Deem and Ramdas Pophale) SiO2 
 PCOD8015291
Probable space group: P -1
;
_chemical_formula_sum "Si O2"
_cell_formula_units_Z 16
_cell_length_a 5.594892
_cell_length_b 20.117430
_cell_length_c 7.069270
_cell_angle_alpha 63.230055
_cell_angle_beta 122.814361
_cell_angle_gamma 116.522741
_cell_volume 574.897760
_symmetry_space_group_name_H-M "P -1"
_symmetry_group_IT_number 2
_symmetry_cell_setting 'triclinic'
loop_
_space_group_symop_operation_xyz
x,y,z
-x,-y,-z
loop_
_atom_site_type_symbol
_atom_site_label
_atom_site_fract_x
_atom_site_fract_y
_atom_site_fract_z
Si Si1 0.888185 0.910405 0.871219
Si Si2 0.248370 0.825579 0.637740
Si Si3 0.578918 0.589644 0.463218
Si Si4 0.130325 0.639548 0.418228
Si Si5 0.146610 0.077854 0.719536
Si Si6 0.649926 0.589670 0.956637
Si Si7 0.773743 0.342533 0.085446
Si Si8 0.243108 0.809279 0.227236
O O1 0.956941 0.922213 0.108565
O O2 0.991928 0.833228 0.964146
O O3 0.549624 0.892870 0.693828
O O4 0.061328 0.987973 0.733038
O O5 0.258019 0.748481 0.852919
O O6 0.163280 0.797519 0.426397
O O7 0.007221 0.869588 0.546203
O O8 0.500000 0.500000 0.500000
O O9 0.407647 0.598768 0.580729
O O10 0.938967 0.630898 0.546931
O O11 0.396519 0.630197 0.194194
O O12 0.271906 0.725828 0.286629
O O13 0.861189 0.599232 0.217269
O O14 0.488646 0.116678 0.794266
O O15 0.401294 0.639836 0.820989
O O16 0.870715 0.613687 0.835908
O O17 0.500000 0.500000 0.000000
#
# Coordination Sequence:
#
# PCOD8015291 Si02
#       8
#     2   2   2   2   2   2   2   2
#     4  10  22  45  72 100 146 185 237 295 360 426
#     4  11  25  43  69 102 144 187 239 297 359 437
#     4  10  21  43  69  95 131 183 238 290 361 425
#     4  10  23  41  67  98 135 181 232 294 360 422
#     4  10  24  42  70 108 138 189 236 295 359 433
#     4  10  21  42  67  94 130 178 237 288 357 427
#     4  10  23  41  65  98 134 180 231 293 358 420
#     4  11  25  43  69 103 142 187 239 295 361 435
#
# _framework density 27.831037999999999
#
# number of rings (size 3 to 8) (size 9 to 14) (size 15 to 20)
#    0.000    1.750    0.000    3.000    8.750    1.500 
#   13.500    0.000    0.000    0.000    0.000    0.000 
#    0.000    0.000    0.000    0.000    0.000    0.000 
#
# Total GULP energy -198338.530560 kJ/mol
# GULP energy per Si atom -12396.158160 kJ/mol
# Density = 2.776769 g / cm^3
# Si number density = 27.831038 Si / 1000 Ang^3
#
#
#
# Elastic Constant Matrix: (Units=GPa)
#
#
# Indices 1 2 3 4 5 6 
#
# 1 164.6473 25.0955 54.7606 2.9893 19.0069 18.2505
# 2 25.0955 120.0210 22.2713 -33.5667 3.6374 16.4315
# 3 54.7606 22.2713 121.0569 -19.4633 9.8607 -10.3727
# 4 2.9893 -33.5667 -19.4633 46.9477 3.9638 11.5716
# 5 19.0069 3.6374 9.8607 3.9638 59.1008 -3.8817
# 6 18.2505 16.4315 -10.3727 11.5716 -3.8817 45.4654
#
#
#
# Elastic Compliance Matrix: (Units=1/GPa)
#
#
# Indices 1 2 3 4 5 6 
#
# 1 0.008197 -0.000920 -0.003964 -0.001767 -0.002035 -0.003586
# 2 -0.000920 0.012708 -0.000682 0.010783 -0.001572 -0.007258
# 3 -0.003964 -0.000682 0.011090 0.003568 -0.000549 0.003413
# 4 -0.001767 0.010783 0.003568 0.033689 -0.003690 -0.011263
# 5 -0.002035 -0.001572 -0.000549 -0.003690 0.018257 0.003758
# 6 -0.003586 -0.007258 0.003413 -0.011263 0.003758 0.030024
#
#
# Mechanical properties :
#
#
# Convention : Reuss Voigt Hill
#
# Bulk Modulus (GPa) = 47.93273 67.77555 57.85414
# Shear Modulus (GPa) = 37.86406 50.54263 44.20334
#
# Velocity S-wave (km/s) = 3.69249 4.26614 3.98964
# Velocity P-wave (km/s) = 5.95311 6.97653 6.48504
#
# Compressibility (1/GPa) = 0.02086257
#
# Stress axis : x y z
#
# Youngs Moduli (GPa) = 121.99818 78.69144 90.17126
#
# Poissons Ratio (x) = 0.07239 0.35747
# Poissons Ratio (y) = 0.11223 0.06148
# Poissons Ratio (z) = 0.48364 0.05365
#
# Static dielectric constant tensor:
#      x y z
#    x 6.158040 -0.350620 -0.154080 
#    y -0.350620 5.075010 0.061470 
#    z -0.154080 0.061470 5.725470 
# 
# 
# High freq. dielectric constant tensor:
#      x y z
#    x 2.148690 -0.001690 0.001710 
#    y -0.001690 2.123750 0.017670 
#    z 0.001710 0.017670 2.175220 
# 
# From -- ./inp_files/141204.got.cif
#   From: 2010.06.25/outbox.cif.g09.slc.cpg/sg2_71_cif.got.tgz:141204.got - 2010.06.27 13:26:56.
