data_PCOD8015216
_publ_section_title
;
Structure prediction by ZEFSAII (Michael W. Deem and Ramdas Pophale) SiO2 
 PCOD8015216
Probable space group: P -1
;
_chemical_formula_sum "Si O2"
_cell_formula_units_Z 16
_cell_length_a 11.480756
_cell_length_b 23.534187
_cell_length_c 9.996642
_cell_angle_alpha 49.754922
_cell_angle_beta 130.529712
_cell_angle_gamma 159.623794
_cell_volume 707.824885
_symmetry_space_group_name_H-M "P -1"
_symmetry_group_IT_number 2
_symmetry_cell_setting 'triclinic'
loop_
_space_group_symop_operation_xyz
x,y,z
-x,-y,-z
loop_
_atom_site_type_symbol
_atom_site_label
_atom_site_fract_x
_atom_site_fract_y
_atom_site_fract_z
Si Si1 0.601168 0.407222 0.933274
Si Si2 0.671183 0.864562 0.865548
Si Si3 0.919158 0.977341 0.321376
Si Si4 0.800920 0.223152 0.247438
Si Si5 0.302034 0.341049 0.576260
Si Si6 0.639205 0.382788 0.559470
Si Si7 0.418514 0.885945 0.046272
Si Si8 0.841479 0.519157 0.222561
O O1 0.269743 0.290899 0.777022
O O2 0.932817 0.593663 0.844770
O O3 0.606082 0.321004 0.035354
O O4 0.574457 0.415836 0.058768
O O5 0.509087 0.875609 0.750621
O O6 0.759686 0.895872 0.727005
O O7 0.000000 0.000000 0.000000
O O8 0.656091 0.801862 0.350124
O O9 0.769188 0.993699 0.158314
O O10 0.000000 0.000000 0.500000
O O11 0.940198 0.207454 0.445120
O O12 0.670932 0.139005 0.135924
O O13 0.500000 0.500000 0.500000
O O14 0.570442 0.412860 0.575741
O O15 0.627761 0.418952 0.351773
O O16 0.985284 0.485690 0.674993
O O17 0.111033 0.703890 0.159920
O O18 0.500000 0.000000 0.000000
#
# Coordination Sequence:
#
# PCOD8015216 Si02
#       8
#     2   2   2   2   2   2   2   2
#     4  10  22  41  69  98 129 174 226 277 319 402
#     4  12  23  42  69  98 129 175 229 274 332 400
#     4  11  24  42  66  96 129 174 223 276 333 392
#     4  10  23  44  66  96 135 181 222 271 341 395
#     4  10  23  40  63  98 137 168 214 280 332 380
#     4  10  21  42  66  97 133 173 232 274 317 407
#     4  10  22  44  65  99 139 172 216 282 342 398
#     4   9  21  41  73  98 126 182 230 270 330 394
#
# _framework density 22.604461000000001
#
# number of rings (size 3 to 8) (size 9 to 14) (size 15 to 20)
#    0.000    1.750    1.250    1.875    8.750    0.000 
#    4.500    5.625    0.000    0.000    0.000    0.000 
#    0.000    0.000    0.000    0.000    0.000    0.000 
#
# Total GULP energy -198215.628251 kJ/mol
# GULP energy per Si atom -12388.476766 kJ/mol
# Density = 2.255301 g / cm^3
# Si number density = 22.604461 Si / 1000 Ang^3
#
#
#
# Elastic Constant Matrix: (Units=GPa)
#
#
# Indices 1 2 3 4 5 6 
#
# 1 143.8633 55.2654 78.4763 3.9203 2.8803 -17.6339
# 2 55.2654 63.1856 41.0680 10.2628 6.7079 -10.9157
# 3 78.4763 41.0680 150.7910 25.0825 -14.9125 -8.5317
# 4 3.9203 10.2628 25.0825 37.1383 -14.4320 -0.3653
# 5 2.8803 6.7079 -14.9125 -14.4320 34.9998 -3.3481
# 6 -17.6339 -10.9157 -8.5317 -0.3653 -3.3481 32.4123
#
#
#
# Elastic Compliance Matrix: (Units=1/GPa)
#
#
# Indices 1 2 3 4 5 6 
#
# 1 0.013279 -0.008576 -0.005121 0.004690 0.000600 0.003103
# 2 -0.008576 0.027722 -0.002366 -0.008570 -0.008859 0.003036
# 3 -0.005121 -0.002366 0.011090 -0.004925 0.003535 -0.000354
# 4 0.004690 -0.008570 -0.004925 0.037885 0.014811 0.000326
# 5 0.000600 -0.008859 0.003535 0.014811 0.038060 0.002372
# 6 0.003103 0.003036 -0.000354 0.000326 0.002372 0.033719
#
#
# Mechanical properties :
#
#
# Convention : Reuss Voigt Hill
#
# Bulk Modulus (GPa) = 50.08340 78.60661 64.34500
# Shear Modulus (GPa) = 24.93338 33.11210 29.02274
#
# Velocity S-wave (km/s) = 3.32479 3.83149 3.58710
# Velocity P-wave (km/s) = 6.07812 7.37726 6.75898
#
# Compressibility (1/GPa) = 0.01996670
#
# Stress axis : x y z
#
# Youngs Moduli (GPa) = 75.30514 36.07262 90.17383
#
# Poissons Ratio (x) = 0.30936 0.46174
# Poissons Ratio (y) = 0.64582 0.21331
# Poissons Ratio (z) = 0.38560 0.08533
#
# Static dielectric constant tensor:
#      x y z
#    x 3.603120 -0.210700 -0.994080 
#    y -0.210700 5.013580 -0.379110 
#    z -0.994080 -0.379110 1.073280 
# 
# 
# High freq. dielectric constant tensor:
#      x y z
#    x 1.882010 -0.019710 -0.006390 
#    y -0.019710 1.886130 0.000220 
#    z -0.006390 0.000220 1.903480 
# 
# From -- ./inp_files/439247.got.cif
#   From: 2010.06.25/outbox.cif.g09.slc.cpg/sg2_220_cif.got.tgz:439247.got - 2010.06.27 13:26:56.
