data_PCOD8015129
_publ_section_title
;
Structure prediction by ZEFSAII (Michael W. Deem and Ramdas Pophale) SiO2 
 PCOD8015129
Probable space group: P -1
;
_chemical_formula_sum "Si O2"
_cell_formula_units_Z 16
_cell_length_a 14.998992
_cell_length_b 11.762806
_cell_length_c 11.676710
_cell_angle_alpha 49.789159
_cell_angle_beta 61.556783
_cell_angle_gamma 30.098693
_cell_volume 770.561036
_symmetry_space_group_name_H-M "P -1"
_symmetry_group_IT_number 2
_symmetry_cell_setting 'triclinic'
loop_
_space_group_symop_operation_xyz
x,y,z
-x,-y,-z
loop_
_atom_site_type_symbol
_atom_site_label
_atom_site_fract_x
_atom_site_fract_y
_atom_site_fract_z
Si Si1 0.109500 0.956606 0.055371
Si Si2 0.906413 0.383379 0.090045
Si Si3 0.436963 0.847262 0.373665
Si Si4 0.463054 0.468903 0.279429
Si Si5 0.513051 0.740267 0.137740
Si Si6 0.350930 0.111699 0.801439
Si Si7 0.050055 0.364378 0.226440
Si Si8 0.375645 0.796900 0.860041
O O1 0.272815 0.662856 0.204916
O O2 0.182431 0.007243 0.903242
O O3 0.990224 0.156467 0.104467
O O4 0.000000 0.000000 0.000000
O O5 0.716985 0.549761 0.141096
O O6 0.026467 0.267298 0.205363
O O7 0.886044 0.559365 0.918301
O O8 0.533968 0.602357 0.549304
O O9 0.443936 0.793494 0.272146
O O10 0.543119 0.871003 0.313163
O O11 0.221871 0.112988 0.365358
O O12 0.490444 0.613514 0.165964
O O13 0.625130 0.193296 0.284630
O O14 0.389171 0.017402 0.971504
O O15 0.132763 0.400148 0.738075
O O16 0.439970 0.877287 0.817744
O O17 0.500000 0.500000 0.000000
#
# Coordination Sequence:
#
# PCOD8015129 Si02
#       8
#     2   2   2   2   2   2   2   2
#     4  11  22  39  67  96 124 168 229 276 316 383
#     4  11  21  37  67 102 125 166 230 278 314 381
#     4  12  26  42  66  98 141 177 206 272 343 386
#     4  11  25  45  62  96 136 173 219 270 334 390
#     4  12  21  42  70  96 130 180 221 269 324 389
#     4  12  22  43  69  97 131 172 229 270 317 396
#     4  11  22  39  64  98 134 167 217 272 328 386
#     4  10  21  42  66  89 123 168 220 273 315 385
#
# _framework density 20.764091000000001
#
# number of rings (size 3 to 8) (size 9 to 14) (size 15 to 20)
#    0.000    0.750    6.250    3.750    1.750    0.500 
#    4.500    1.875    0.000    0.000    0.000    0.000 
#    0.000    0.000    0.000    0.000    0.000    0.000 
#
# Total GULP energy -198316.801145 kJ/mol
# GULP energy per Si atom -12394.800072 kJ/mol
# Density = 2.071683 g / cm^3
# Si number density = 20.764091 Si / 1000 Ang^3
#
#
#
# Elastic Constant Matrix: (Units=GPa)
#
#
# Indices 1 2 3 4 5 6 
#
# 1 109.1943 37.8946 23.5294 -14.1940 -6.1582 -9.5362
# 2 37.8946 106.0770 23.3106 -3.7186 4.8395 -7.8977
# 3 23.5294 23.3106 75.8185 -9.6026 2.5114 -17.5970
# 4 -14.1940 -3.7186 -9.6026 20.4268 -0.9450 5.1657
# 5 -6.1582 4.8395 2.5114 -0.9450 22.5304 -0.9615
# 6 -9.5362 -7.8977 -17.5970 5.1657 -0.9615 43.4698
#
#
#
# Elastic Compliance Matrix: (Units=1/GPa)
#
#
# Indices 1 2 3 4 5 6 
#
# 1 0.012083 -0.003869 -0.001708 0.006969 0.004639 0.000531
# 2 -0.003869 0.011442 -0.002356 -0.001977 -0.003317 0.000438
# 3 -0.001708 -0.002356 0.016288 0.004661 -0.001359 0.005207
# 4 0.006969 -0.001977 0.004661 0.056725 0.004036 -0.003595
# 5 0.004639 -0.003317 -0.001359 0.004036 0.046703 0.000418
# 6 0.000531 0.000438 0.005207 -0.003595 0.000418 0.025745
#
#
# Mechanical properties :
#
#
# Convention : Reuss Voigt Hill
#
# Bulk Modulus (GPa) = 41.76065 51.17324 46.46695
# Shear Modulus (GPa) = 25.92920 31.04238 28.48579
#
# Velocity S-wave (km/s) = 3.53760 3.87072 3.70790
# Velocity P-wave (km/s) = 6.06974 6.68395 6.38424
#
# Compressibility (1/GPa) = 0.02394599
#
# Stress axis : x y z
#
# Youngs Moduli (GPa) = 82.76417 87.40081 61.39625
#
# Poissons Ratio (x) = 0.33814 0.10487
# Poissons Ratio (y) = 0.32020 0.14465
# Poissons Ratio (z) = 0.14136 0.20592
#
# Static dielectric constant tensor:
#      x y z
#    x 3.943340 0.104530 0.062590 
#    y 0.104530 4.056650 0.210480 
#    z 0.062590 0.210480 3.532850 
# 
# 
# High freq. dielectric constant tensor:
#      x y z
#    x 1.826450 0.003250 -0.000530 
#    y 0.003250 1.821020 0.010640 
#    z -0.000530 0.010640 1.776490 
# 
# From -- ./inp_files/272325.got.cif
#   From: 2010.06.25/outbox.cif.g09.slc.cpg/sg2_137_cif.got.tgz:272325.got - 2010.06.27 13:26:56.
