data_PCOD8015016
_publ_section_title
;
Structure prediction by ZEFSAII (Michael W. Deem and Ramdas Pophale) SiO2 
 PCOD8015016
Probable space group: P -1
;
_chemical_formula_sum "Si O2"
_cell_formula_units_Z 14
_cell_length_a 10.848688
_cell_length_b 5.088205
_cell_length_c 13.088180
_cell_angle_alpha 55.528977
_cell_angle_beta 120.119802
_cell_angle_gamma 99.206321
_cell_volume 507.341419
_symmetry_space_group_name_H-M "P -1"
_symmetry_group_IT_number 2
_symmetry_cell_setting 'triclinic'
loop_
_space_group_symop_operation_xyz
x,y,z
-x,-y,-z
loop_
_atom_site_type_symbol
_atom_site_label
_atom_site_fract_x
_atom_site_fract_y
_atom_site_fract_z
Si Si1 0.743569 0.111625 0.582128
Si Si2 0.866556 0.380732 0.263371
Si Si3 0.288100 0.888786 0.060485
Si Si4 0.451046 0.400002 0.891309
Si Si5 0.382398 0.181286 0.238159
Si Si6 0.025589 0.778012 0.874532
Si Si7 0.168277 0.247309 0.508148
O O1 0.603896 0.058719 0.604722
O O2 0.737424 0.490122 0.468679
O O3 0.761281 0.895333 0.536911
O O4 0.877581 0.015673 0.736094
O O5 0.718223 0.643139 0.164649
O O6 0.899956 0.402240 0.154117
O O7 0.000078 0.421670 0.383661
O O8 0.827203 0.024321 0.344703
O O9 0.432824 0.903957 0.045137
O O10 0.304082 0.049079 0.139428
O O11 0.277982 0.511480 0.156738
O O12 0.131313 0.016163 0.913718
O O13 0.464055 0.714476 0.753320
O O14 0.500000 0.500000 0.000000
O O15 0.000000 0.500000 0.000000
#
# Coordination Sequence:
#
# PCOD8015016 Si02
#       7
#     2   2   2   2   2   2   2
#     4  11  23  43  69  93 136 164 231 267 326 382
#     4  10  22  45  67  97 135 170 226 267 327 390
#     4  10  22  39  61  94 135 163 213 252 339 384
#     4  10  21  42  64  98 133 175 209 270 328 400
#     4  10  22  40  62  92 133 170 210 268 314 397
#     4  11  21  38  67 101 131 172 210 276 333 389
#     4  10  25  45  68  97 124 184 218 275 316 385
#
# _framework density 27.594826000000001
#
# number of rings (size 3 to 8) (size 9 to 14) (size 15 to 20)
#    0.857    0.857    2.857    0.857    2.000    9.714 
#    7.714    1.429    0.000    0.000    0.000    0.000 
#    0.000    0.000    0.000    0.000    0.000    0.000 
#
# Total GULP energy -173561.567729 kJ/mol
# GULP energy per Si atom -12397.254838 kJ/mol
# Density = 2.753202 g / cm^3
# Si number density = 27.594826 Si / 1000 Ang^3
#
#
#
# Elastic Constant Matrix: (Units=GPa)
#
#
# Indices 1 2 3 4 5 6 
#
# 1 136.6967 23.7721 47.6454 -10.3399 -27.1677 13.7265
# 2 23.7721 106.9538 7.4687 -9.0414 8.5470 -7.3257
# 3 47.6454 7.4687 68.3731 -9.5671 -6.8706 -6.8143
# 4 -10.3399 -9.0414 -9.5671 27.8858 16.4021 2.3551
# 5 -27.1677 8.5470 -6.8706 16.4021 32.7658 -9.3385
# 6 13.7265 -7.3257 -6.8143 2.3551 -9.3385 32.4496
#
#
#
# Elastic Compliance Matrix: (Units=1/GPa)
#
#
# Indices 1 2 3 4 5 6 
#
# 1 0.013714 -0.004253 -0.009199 -0.006350 0.012401 -0.004663
# 2 -0.004253 0.011812 0.002012 0.008866 -0.010255 0.001294
# 3 -0.009199 0.002012 0.022002 0.007258 -0.005193 0.006945
# 4 -0.006350 0.008866 0.007258 0.063779 -0.040885 -0.010183
# 5 0.012401 -0.010255 -0.005193 -0.040885 0.066706 0.013513
# 6 -0.004663 0.001294 0.006945 -0.010183 0.013513 0.039168
#
#
# Mechanical properties :
#
#
# Convention : Reuss Voigt Hill
#
# Bulk Modulus (GPa) = 40.56992 52.19953 46.38472
# Shear Modulus (GPa) = 20.13878 34.16273 27.15076
#
# Velocity S-wave (km/s) = 2.70442 3.52236 3.14013
# Velocity P-wave (km/s) = 4.94831 5.95820 5.47658
#
# Compressibility (1/GPa) = 0.02464881
#
# Stress axis : x y z
#
# Youngs Moduli (GPa) = 72.91796 84.65802 45.45019
#
# Poissons Ratio (x) = 0.36005 0.41810
# Poissons Ratio (y) = 0.31012 -0.09146
# Poissons Ratio (z) = 0.67078 -0.17037
#
# Static dielectric constant tensor:
#      x y z
#    x 5.630380 0.553920 -0.092810 
#    y 0.553920 5.133250 -0.493970 
#    z -0.092810 -0.493970 5.110980 
# 
# 
# High freq. dielectric constant tensor:
#      x y z
#    x 2.131160 0.019600 -0.020410 
#    y 0.019600 2.121250 -0.027900 
#    z -0.020410 -0.027900 2.115450 
# 
# From -- ./inp_files/510126.got.cif
#   From: 2010.06.25/outbox.cif.g09.slc.cpg/sg2_256_cif.got.tgz:510126.got - 2010.06.27 13:26:56.
