data_PCOD8015312
_publ_section_title
;
Structure prediction by ZEFSAII (Michael W. Deem and Ramdas Pophale) SiO2 
 PCOD8015312
Probable space group: P -1
;
_chemical_formula_sum "Si O2"
_cell_formula_units_Z 12
_cell_length_a 11.404390
_cell_length_b 14.800187
_cell_length_c 11.368867
_cell_angle_alpha 40.936499
_cell_angle_beta 119.466190
_cell_angle_gamma 151.699362
_cell_volume 494.798437
_symmetry_space_group_name_H-M "P -1"
_symmetry_group_IT_number 2
_symmetry_cell_setting 'triclinic'
loop_
_space_group_symop_operation_xyz
x,y,z
-x,-y,-z
loop_
_atom_site_type_symbol
_atom_site_label
_atom_site_fract_x
_atom_site_fract_y
_atom_site_fract_z
Si Si1 0.797808 0.906389 0.909790
Si Si2 0.641230 0.062532 0.692911
Si Si3 0.833594 0.707937 0.730836
Si Si4 0.741672 0.601299 0.529091
Si Si5 0.988047 0.576190 0.036196
Si Si6 0.752203 0.316262 0.723596
O O1 0.766149 0.028822 0.831800
O O2 0.471502 0.538187 0.106909
O O3 0.946693 0.054664 0.707927
O O4 0.000000 0.000000 0.000000
O O5 0.557905 0.075083 0.757554
O O6 0.897780 0.374418 0.441107
O O7 0.355913 0.772991 0.752076
O O8 0.774980 0.584873 0.696079
O O9 0.026642 0.775130 0.835055
O O10 0.000000 0.000000 0.500000
O O11 0.500000 0.500000 0.500000
O O12 0.647110 0.377494 0.631564
O O13 0.244591 0.772917 0.066050
O O14 0.000000 0.500000 0.000000
#
# Coordination Sequence:
#
# PCOD8015312 Si02
#       6
#     2   2   2   2   2   2
#     4  10  21  42  67  96 136 177 226 279 336 412
#     4   9  22  40  67  99 130 175 227 275 343 403
#     4  11  25  44  63 102 137 178 229 279 348 402
#     4  11  22  41  70  98 136 176 223 287 340 407
#     4  11  22  41  64  96 136 173 222 282 333 407
#     4  10  21  43  67  99 131 177 224 280 341 408
#
# _framework density 24.252302
#
# number of rings (size 3 to 8) (size 9 to 14) (size 15 to 20)
#    0.000    1.667    3.333    0.500    0.000    4.000 
#    3.000    0.000    0.000    0.000    0.000    0.000 
#    0.000    0.000    0.000    0.000    0.000    0.000 
#
# Total GULP energy -148750.988975 kJ/mol
# GULP energy per Si atom -12395.915748 kJ/mol
# Density = 2.419710 g / cm^3
# Si number density = 24.252302 Si / 1000 Ang^3
#
#
#
# Elastic Constant Matrix: (Units=GPa)
#
#
# Indices 1 2 3 4 5 6 
#
# 1 131.6365 36.3310 38.1726 2.0510 9.2870 7.9393
# 2 36.3310 127.0969 21.5874 6.6080 16.7194 9.9419
# 3 38.1726 21.5874 118.0434 -4.7458 0.5794 12.2542
# 4 2.0510 6.6080 -4.7458 36.8601 0.4803 5.6998
# 5 9.2870 16.7194 0.5794 0.4803 46.9833 4.1392
# 6 7.9393 9.9419 12.2542 5.6998 4.1392 29.8407
#
#
#
# Elastic Compliance Matrix: (Units=1/GPa)
#
#
# Indices 1 2 3 4 5 6 
#
# 1 0.008966 -0.001948 -0.002502 -0.000382 -0.001001 -0.000497
# 2 -0.001948 0.009127 -0.000925 -0.001379 -0.002705 -0.001504
# 3 -0.002502 -0.000925 0.009909 0.002131 0.001001 -0.003641
# 4 -0.000382 -0.001379 0.002131 0.028571 0.000766 -0.005877
# 5 -0.001001 -0.002705 0.001001 0.000766 0.022647 -0.002531
# 6 -0.000497 -0.001504 -0.003641 -0.005877 -0.002531 0.037114
#
#
# Mechanical properties :
#
#
# Convention : Reuss Voigt Hill
#
# Bulk Modulus (GPa) = 57.96535 63.21764 60.59149
# Shear Modulus (GPa) = 37.64063 41.44919 39.54491
#
# Velocity S-wave (km/s) = 3.94387 4.13859 4.04240
# Velocity P-wave (km/s) = 6.68518 6.99718 6.84296
#
# Compressibility (1/GPa) = 0.01725169
#
# Stress axis : x y z
#
# Youngs Moduli (GPa) = 111.52802 109.56359 100.92306
#
# Poissons Ratio (x) = 0.21339 0.25252
# Poissons Ratio (y) = 0.21722 0.09339
# Poissons Ratio (z) = 0.27906 0.10138
#
# Static dielectric constant tensor:
#      x y z
#    x 4.592130 0.226110 -0.447350 
#    y 0.226110 4.571210 -0.256010 
#    z -0.447350 -0.256010 4.941590 
# 
# 
# High freq. dielectric constant tensor:
#      x y z
#    x 1.969950 0.019140 -0.016520 
#    y 0.019140 1.943810 -0.009230 
#    z -0.016520 -0.009230 1.992140 
# 
# From -- ./inp_files/183505.got.cif
#   From: 2010.06.25/outbox.cif.g09.slc.cpg/sg2_92_cif.got.tgz:183505.got - 2010.06.27 13:26:56.
