data_PCOD8015406
_publ_section_title
;
Structure prediction by ZEFSAII (Michael W. Deem and Ramdas Pophale) SiO2 
 PCOD8015406
Probable space group: P -1
;
_chemical_formula_sum "Si O2"
_cell_formula_units_Z 14
_cell_length_a 8.906042
_cell_length_b 12.349690
_cell_length_c 11.680230
_cell_angle_alpha 45.802733
_cell_angle_beta 79.310373
_cell_angle_gamma 51.837894
_cell_volume 652.044590
_symmetry_space_group_name_H-M "P -1"
_symmetry_group_IT_number 2
_symmetry_cell_setting 'triclinic'
loop_
_space_group_symop_operation_xyz
x,y,z
-x,-y,-z
loop_
_atom_site_type_symbol
_atom_site_label
_atom_site_fract_x
_atom_site_fract_y
_atom_site_fract_z
Si Si1 0.381510 0.654984 0.572122
Si Si2 0.046133 0.598817 0.014358
Si Si3 0.028506 0.106145 0.824901
Si Si4 0.321179 0.448206 0.562975
Si Si5 0.746761 0.807939 0.127063
Si Si6 0.513421 0.620842 0.815866
Si Si7 0.932625 0.068653 0.291008
O O1 0.397351 0.479030 0.644334
O O2 0.470323 0.721434 0.421134
O O3 0.534342 0.539939 0.745031
O O4 0.134965 0.860952 0.481044
O O5 0.287386 0.404979 0.169916
O O6 0.880812 0.710759 0.061337
O O7 0.000000 0.500000 0.000000
O O8 0.045864 0.763631 0.833680
O O9 0.823823 0.345279 0.646885
O O10 0.201559 0.096543 0.861943
O O11 0.101626 0.966923 0.805758
O O12 0.000000 0.000000 0.000000
O O13 0.206270 0.375924 0.672269
O O14 0.500000 0.000000 0.000000
O O15 0.278152 0.856060 0.673849
O O16 0.500000 0.500000 0.000000
#
# Coordination Sequence:
#
# PCOD8015406 Si02
#       7
#     2   2   2   2   2   2   2
#     4  10  21  42  68  97 136 166 230 276 340 402
#     4  11  25  43  64  98 139 174 222 280 338 398
#     4  11  23  43  68  95 139 176 231 275 338 400
#     4  10  24  39  70 102 134 176 217 292 340 395
#     4  12  26  41  71 101 137 177 227 287 335 398
#     4  10  23  39  66  91 127 177 217 265 330 404
#     4  10  22  42  67  98 125 183 222 273 335 412
#
# _framework density 21.470924
#
# number of rings (size 3 to 8) (size 9 to 14) (size 15 to 20)
#    0.000    1.429    1.429    2.571   12.000    0.000 
#    0.000    0.714    0.000    0.000    0.000    0.000 
#    0.000    0.000    0.000    0.000    0.000    0.000 
#
# Total GULP energy -173452.168617 kJ/mol
# GULP energy per Si atom -12389.440616 kJ/mol
# Density = 2.142206 g / cm^3
# Si number density = 21.470924 Si / 1000 Ang^3
#
#
#
# Elastic Constant Matrix: (Units=GPa)
#
#
# Indices 1 2 3 4 5 6 
#
# 1 170.7525 66.2909 55.6110 8.0021 18.1411 14.0826
# 2 66.2909 98.9047 29.4101 1.0250 15.2486 1.4891
# 3 55.6110 29.4101 96.9888 7.5798 6.3486 7.3464
# 4 8.0021 1.0250 7.5798 23.3173 2.3893 11.0281
# 5 18.1411 15.2486 6.3486 2.3893 43.2601 4.0652
# 6 14.0826 1.4891 7.3464 11.0281 4.0652 53.7320
#
#
#
# Elastic Compliance Matrix: (Units=1/GPa)
#
#
# Indices 1 2 3 4 5 6 
#
# 1 0.009218 -0.004876 -0.003525 -0.000949 -0.001436 -0.001495
# 2 -0.004876 0.014252 -0.001518 0.001351 -0.002928 0.001035
# 3 -0.003525 -0.001518 0.013016 -0.002867 0.000285 -0.000247
# 4 -0.000949 0.001351 -0.002867 0.048617 -0.001472 -0.009264
# 5 -0.001436 -0.002928 0.000285 -0.001472 0.024899 -0.001163
# 6 -0.001495 0.001035 -0.000247 -0.009264 -0.001163 0.020997
#
#
# Mechanical properties :
#
#
# Convention : Reuss Voigt Hill
#
# Bulk Modulus (GPa) = 60.07029 74.36331 67.21680
# Shear Modulus (GPa) = 31.97162 38.41749 35.19455
#
# Velocity S-wave (km/s) = 3.86303 4.23458 4.05306
# Velocity P-wave (km/s) = 6.92355 7.65627 7.29911
#
# Compressibility (1/GPa) = 0.01664717
#
# Stress axis : x y z
#
# Youngs Moduli (GPa) = 108.48223 70.16385 76.82699
#
# Poissons Ratio (x) = 0.34214 0.27084
# Poissons Ratio (y) = 0.52899 0.11663
# Poissons Ratio (z) = 0.38244 0.10652
#
# Static dielectric constant tensor:
#      x y z
#    x 4.301250 -0.224870 0.289190 
#    y -0.224870 4.233690 -0.008600 
#    z 0.289190 -0.008600 3.837620 
# 
# 
# High freq. dielectric constant tensor:
#      x y z
#    x 1.849640 -0.007210 0.022620 
#    y -0.007210 1.855770 0.011340 
#    z 0.022620 0.011340 1.837670 
# 
# From -- ./inp_files/199808.got.cif
#   From: 2010.06.25/outbox.cif.g09.slc.cpg/sg2_100_cif.got.tgz:199808.got - 2010.06.27 13:26:56.
