data_PCOD8015905
_publ_section_title
;
Structure prediction by ZEFSAII (Michael W. Deem and Ramdas Pophale) SiO2 
 PCOD8015905
Probable space group: P -1
;
_chemical_formula_sum "Si O2"
_cell_formula_units_Z 16
_cell_length_a 9.532872
_cell_length_b 33.428105
_cell_length_c 12.941476
_cell_angle_alpha 24.664204
_cell_angle_beta 43.056866
_cell_angle_gamma 28.090629
_cell_volume 755.518395
_symmetry_space_group_name_H-M "P -1"
_symmetry_group_IT_number 2
_symmetry_cell_setting 'triclinic'
loop_
_space_group_symop_operation_xyz
x,y,z
-x,-y,-z
loop_
_atom_site_type_symbol
_atom_site_label
_atom_site_fract_x
_atom_site_fract_y
_atom_site_fract_z
Si Si1 0.745586 0.955815 0.681980
Si Si2 0.944681 0.562770 0.589270
Si Si3 0.249195 0.615494 0.177519
Si Si4 0.232033 0.927662 0.418922
Si Si5 0.072266 0.127153 0.644572
Si Si6 0.466849 0.454267 0.230491
Si Si7 0.263567 0.403540 0.996542
Si Si8 0.686871 0.117173 0.755662
O O1 0.893088 0.994033 0.452877
O O2 0.772882 0.969367 0.758958
O O3 0.378953 0.076622 0.558136
O O4 0.926898 0.792859 0.940421
O O5 0.783522 0.543121 0.647410
O O6 0.681676 0.729635 0.383341
O O7 0.202282 0.531112 0.458915
O O8 0.105868 0.446262 0.869212
O O9 0.340670 0.569079 0.117561
O O10 0.544846 0.565167 0.187396
O O11 0.296061 0.923891 0.274238
O O12 0.501042 0.767462 0.705085
O O13 0.818155 0.287948 0.458992
O O14 0.903858 0.133691 0.622944
O O15 0.193747 0.011031 0.937564
O O16 0.500000 0.500000 0.000000
O O17 0.000000 0.500000 0.000000
#
# Coordination Sequence:
#
# PCOD8015905 Si02
#       8
#     2   2   2   2   2   2   2   2
#     4  10  23  43  64  95 132 165 218 270 319 384
#     4  11  22  43  66  97 137 171 216 274 323 388
#     4  11  24  45  65  97 134 172 217 275 327 384
#     4  10  23  42  64  96 132 171 219 266 320 385
#     4  10  23  42  67  96 125 170 218 261 332 391
#     4  11  26  44  69  98 129 170 222 268 330 397
#     4  11  22  39  68  96 131 178 217 264 324 383
#     4  10  21  43  67  93 130 172 217 267 320 390
#
# _framework density 21.177513000000001
#
# number of rings (size 3 to 8) (size 9 to 14) (size 15 to 20)
#    0.000    1.500    2.500    1.500    8.750    1.000 
#    9.000    0.000    0.000    0.000    0.000    0.000 
#    0.000    0.000    0.000    0.000    0.000    0.000 
#
# Total GULP energy -198444.356488 kJ/mol
# GULP energy per Si atom -12402.772281 kJ/mol
# Density = 2.112931 g / cm^3
# Si number density = 21.177513 Si / 1000 Ang^3
#
#
#
# Elastic Constant Matrix: (Units=GPa)
#
#
# Indices 1 2 3 4 5 6 
#
# 1 60.4777 40.7555 22.0676 -22.1039 4.8006 4.6676
# 2 40.7555 103.4487 27.7683 -14.6226 3.4813 -2.6803
# 3 22.0676 27.7683 68.7720 -14.7584 8.8824 4.5348
# 4 -22.1039 -14.6226 -14.7584 29.0767 3.6229 -1.0022
# 5 4.8006 3.4813 8.8824 3.6229 32.6576 -0.8054
# 6 4.6676 -2.6803 4.5348 -1.0022 -0.8054 54.9690
#
#
#
# Elastic Compliance Matrix: (Units=1/GPa)
#
#
# Indices 1 2 3 4 5 6 
#
# 1 0.030415 -0.008895 -0.001333 0.018538 -0.005282 -0.002646
# 2 -0.008895 0.013853 -0.003300 -0.001529 0.000940 0.001689
# 3 -0.001333 -0.003300 0.018695 0.007436 -0.005400 -0.001534
# 4 0.018538 -0.001529 0.007436 0.052744 -0.010472 -0.001454
# 5 -0.005282 0.000940 -0.005400 -0.010472 0.033958 0.001246
# 6 -0.002646 0.001689 -0.001534 -0.001454 0.001246 0.018617
#
#
# Mechanical properties :
#
#
# Convention : Reuss Voigt Hill
#
# Bulk Modulus (GPa) = 27.85002 45.98678 36.91840
# Shear Modulus (GPa) = 24.11878 32.81447 28.46662
#
# Velocity S-wave (km/s) = 3.37840 3.94063 3.67030
# Velocity P-wave (km/s) = 5.32892 6.51666 5.95249
#
# Compressibility (1/GPa) = 0.03590662
#
# Stress axis : x y z
#
# Youngs Moduli (GPa) = 32.87895 72.18775 53.48915
#
# Poissons Ratio (x) = 0.64211 0.07130
# Poissons Ratio (y) = 0.29246 0.17652
# Poissons Ratio (z) = 0.04383 0.23822
#
# Static dielectric constant tensor:
#      x y z
#    x 3.968300 -0.219790 -0.081270 
#    y -0.219790 4.104270 -0.245520 
#    z -0.081270 -0.245520 3.726960 
# 
# 
# High freq. dielectric constant tensor:
#      x y z
#    x 1.834720 -0.010120 -0.007670 
#    y -0.010120 1.839950 -0.006300 
#    z -0.007670 -0.006300 1.819760 
# 
# From -- ./inp_files/205186.got.cif
#   From: 2010.06.25/outbox.cif.g09.slc.cpg/sg2_103_cif.got.tgz:205186.got - 2010.06.27 13:26:56.
