data_PCOD8015361
_publ_section_title
;
Structure prediction by ZEFSAII (Michael W. Deem and Ramdas Pophale) SiO2 
 PCOD8015361
Probable space group: P -1
;
_chemical_formula_sum "Si O2"
_cell_formula_units_Z 16
_cell_length_a 12.563367
_cell_length_b 15.764395
_cell_length_c 9.424848
_cell_angle_alpha 71.580194
_cell_angle_beta 38.159356
_cell_angle_gamma 48.262248
_cell_volume 768.522927
_symmetry_space_group_name_H-M "P -1"
_symmetry_group_IT_number 2
_symmetry_cell_setting 'triclinic'
loop_
_space_group_symop_operation_xyz
x,y,z
-x,-y,-z
loop_
_atom_site_type_symbol
_atom_site_label
_atom_site_fract_x
_atom_site_fract_y
_atom_site_fract_z
Si Si1 0.671015 0.655240 0.021298
Si Si2 0.583681 0.222236 0.490251
Si Si3 0.080352 0.980538 0.089096
Si Si4 0.933239 0.385221 0.801309
Si Si5 0.534734 0.882024 0.535571
Si Si6 0.749749 0.244902 0.799924
Si Si7 0.531310 0.393998 0.228637
Si Si8 0.958880 0.348467 0.468431
O O1 0.879680 0.502787 0.860004
O O2 0.785131 0.709644 0.832266
O O3 0.604905 0.679661 0.243279
O O4 0.422364 0.731852 0.153535
O O5 0.533496 0.139644 0.531086
O O6 0.557223 0.294828 0.343276
O O7 0.865140 0.121896 0.307915
O O8 0.083103 0.889153 0.225500
O O9 0.353171 0.920841 0.834829
O O10 0.000000 0.000000 0.000000
O O11 0.192652 0.248965 0.644699
O O12 0.926311 0.398164 0.633841
O O13 0.727290 0.394928 0.074022
O O14 0.500000 0.000000 0.500000
O O15 0.942524 0.246497 0.534911
O O16 0.571313 0.358778 0.039244
O O17 0.261699 0.532937 0.460091
#
# Coordination Sequence:
#
# PCOD8015361 Si02
#       8
#     2   2   2   2   2   2   2   2
#     4  12  25  43  65 103 143 172 215 278 346 392
#     4  11  26  43  64 100 135 176 221 278 338 391
#     4  10  21  42  68  90 128 173 225 273 319 389
#     4  11  22  39  70 102 129 175 225 276 329 396
#     4  11  23  40  67 100 125 173 228 275 325 395
#     4  11  21  43  67  96 130 176 226 271 325 394
#     4  11  20  42  67  99 129 171 228 274 325 397
#     4  11  23  38  69 101 132 177 225 269 328 402
#
# _framework density 20.819157000000001
#
# number of rings (size 3 to 8) (size 9 to 14) (size 15 to 20)
#    0.000    1.000    5.000    3.375    5.250    3.000 
#    4.500    0.625    0.000    0.000    0.000    0.000 
#    0.000    0.000    0.000    0.000    0.000    0.000 
#
# Total GULP energy -198369.424476 kJ/mol
# GULP energy per Si atom -12398.089030 kJ/mol
# Density = 2.077177 g / cm^3
# Si number density = 20.819157 Si / 1000 Ang^3
#
#
#
# Elastic Constant Matrix: (Units=GPa)
#
#
# Indices 1 2 3 4 5 6 
#
# 1 77.6959 34.9115 48.0844 -4.2434 -18.3879 -1.5615
# 2 34.9115 116.5389 29.0207 -1.8278 -12.1658 -8.8214
# 3 48.0844 29.0207 103.7461 -3.7267 -16.2924 10.6473
# 4 -4.2434 -1.8278 -3.7267 35.3160 2.9226 -12.4894
# 5 -18.3879 -12.1658 -16.2924 2.9226 25.4238 -1.3115
# 6 -1.5615 -8.8214 10.6473 -12.4894 -1.3115 23.9551
#
#
#
# Elastic Compliance Matrix: (Units=1/GPa)
#
#
# Indices 1 2 3 4 5 6 
#
# 1 0.021809 -0.003005 -0.008382 0.002995 0.008934 0.006091
# 2 -0.003005 0.010560 -0.001777 0.001800 0.001818 0.005520
# 3 -0.008382 -0.001777 0.015315 -0.003053 0.002765 -0.009448
# 4 0.002995 0.001800 -0.003053 0.035992 -0.001990 0.020871
# 5 0.008934 0.001818 0.002765 -0.001990 0.048751 0.001654
# 6 0.006091 0.005520 -0.009448 0.020871 0.001654 0.059346
#
#
# Mechanical properties :
#
#
# Convention : Reuss Voigt Hill
#
# Bulk Modulus (GPa) = 46.82811 58.00155 52.41483
# Shear Modulus (GPa) = 22.20049 29.33659 25.76854
#
# Velocity S-wave (km/s) = 3.26904 3.75789 3.52196
# Velocity P-wave (km/s) = 6.06552 6.83734 6.46296
#
# Compressibility (1/GPa) = 0.02135469
#
# Stress axis : x y z
#
# Youngs Moduli (GPa) = 45.85326 94.70040 65.29471
#
# Poissons Ratio (x) = 0.28460 0.54729
# Poissons Ratio (y) = 0.13780 0.11605
# Poissons Ratio (z) = 0.38433 0.16831
#
# Static dielectric constant tensor:
#      x y z
#    x 3.661900 -0.004640 -0.382460 
#    y -0.004640 3.836220 0.020200 
#    z -0.382460 0.020200 4.035470 
# 
# 
# High freq. dielectric constant tensor:
#      x y z
#    x 1.795410 -0.009650 -0.024860 
#    y -0.009650 1.823270 -0.005710 
#    z -0.024860 -0.005710 1.811460 
# 
# From -- ./inp_files/272333.got.cif
#   From: 2010.06.25/outbox.cif.g09.slc.cpg/sg2_137_cif.got.tgz:272333.got - 2010.06.27 13:26:56.
