data_PCOD8015021
_publ_section_title
;
Structure prediction by ZEFSAII (Michael W. Deem and Ramdas Pophale) SiO2 
 PCOD8015021
Probable space group: P -1
;
_chemical_formula_sum "Si O2"
_cell_formula_units_Z 16
_cell_length_a 10.232477
_cell_length_b 13.332690
_cell_length_c 22.047866
_cell_angle_alpha 25.933805
_cell_angle_beta 137.918261
_cell_angle_gamma 145.667623
_cell_volume 741.907394
_symmetry_space_group_name_H-M "P -1"
_symmetry_group_IT_number 2
_symmetry_cell_setting 'triclinic'
loop_
_space_group_symop_operation_xyz
x,y,z
-x,-y,-z
loop_
_atom_site_type_symbol
_atom_site_label
_atom_site_fract_x
_atom_site_fract_y
_atom_site_fract_z
Si Si1 0.314210 0.373166 0.879909
Si Si2 0.132638 0.040042 0.118370
Si Si3 0.876877 0.158933 0.198349
Si Si4 0.551423 0.397221 0.657481
Si Si5 0.130615 0.154061 0.401247
Si Si6 0.221675 0.572762 0.403266
Si Si7 0.293874 0.841918 0.562853
Si Si8 0.171931 0.354622 0.082900
O O1 0.326856 0.653243 0.723225
O O2 0.567245 0.438301 0.917425
O O3 0.258892 0.276436 0.983178
O O4 0.133948 0.151703 0.890336
O O5 0.146108 0.175965 0.113173
O O6 0.256532 0.870266 0.260339
O O7 0.937405 0.072268 0.328603
O O8 0.032546 0.156836 0.198610
O O9 0.611044 0.929132 0.216287
O O10 0.928728 0.457509 0.066305
O O11 0.705778 0.522279 0.703500
O O12 0.403299 0.539928 0.522817
O O13 0.737169 0.474511 0.626274
O O14 0.305846 0.070834 0.484635
O O15 0.000000 0.000000 0.500000
O O16 0.957646 0.341680 0.456767
O O17 0.500000 0.000000 0.500000
#
# Coordination Sequence:
#
# PCOD8015021 Si02
#       8
#     2   2   2   2   2   2   2   2
#     4  10  23  40  67  98 134 171 229 283 330 411
#     4  10  23  42  67  98 130 179 229 276 346 399
#     4  11  26  44  64  99 137 174 235 281 333 407
#     4  11  22  41  69  97 135 176 230 283 335 400
#     4  12  24  42  71  99 130 184 229 277 345 407
#     4  10  21  42  65 100 136 172 227 287 328 408
#     4  11  23  41  65 100 144 174 215 287 344 403
#     4  11  25  44  66  93 138 184 220 281 341 409
#
# _framework density 21.566033000000001
#
# number of rings (size 3 to 8) (size 9 to 14) (size 15 to 20)
#    0.000    1.250    2.500    2.625    3.500    5.000 
#    0.000    3.750    0.000    0.000    0.000    0.000 
#    0.000    0.000    0.000    0.000    0.000    0.000 
#
# Total GULP energy -198359.170372 kJ/mol
# GULP energy per Si atom -12397.448148 kJ/mol
# Density = 2.151695 g / cm^3
# Si number density = 21.566033 Si / 1000 Ang^3
#
#
#
# Elastic Constant Matrix: (Units=GPa)
#
#
# Indices 1 2 3 4 5 6 
#
# 1 124.9771 45.7902 38.8954 -7.8695 3.0747 6.1022
# 2 45.7902 97.3445 22.5258 -16.9269 -3.5893 -1.8416
# 3 38.8954 22.5258 83.4609 -9.7819 2.6026 -11.6632
# 4 -7.8695 -16.9269 -9.7819 26.3970 2.6407 1.7460
# 5 3.0747 -3.5893 2.6026 2.6407 33.4183 -9.5089
# 6 6.1022 -1.8416 -11.6632 1.7460 -9.5089 36.7546
#
#
#
# Elastic Compliance Matrix: (Units=1/GPa)
#
#
# Indices 1 2 3 4 5 6 
#
# 1 0.011323 -0.004546 -0.004646 -0.000759 -0.002286 -0.004137
# 2 -0.004546 0.013880 -0.000669 0.007027 0.001795 0.001369
# 3 -0.004646 -0.000669 0.015509 0.003515 0.000467 0.005613
# 4 -0.000759 0.007027 0.003515 0.043885 -0.003300 -0.001345
# 5 -0.002286 0.001795 0.000467 -0.003300 0.033217 0.009368
# 6 -0.004137 0.001369 0.005613 -0.001345 0.009368 0.032232
#
#
# Mechanical properties :
#
#
# Convention : Reuss Voigt Hill
#
# Bulk Modulus (GPa) = 47.63856 57.80058 52.71957
# Shear Modulus (GPa) = 28.28633 32.55206 30.41920
#
# Velocity S-wave (km/s) = 3.62555 3.88933 3.75976
# Velocity P-wave (km/s) = 6.29792 6.85777 6.58380
#
# Compressibility (1/GPa) = 0.02099140
#
# Stress axis : x y z
#
# Youngs Moduli (GPa) = 88.31277 72.04665 64.47804
#
# Poissons Ratio (x) = 0.32751 0.29956
# Poissons Ratio (y) = 0.40145 0.04312
# Poissons Ratio (z) = 0.41030 0.04818
#
# Static dielectric constant tensor:
#      x y z
#    x 3.904260 0.177900 0.128560 
#    y 0.177900 3.990410 -0.093350 
#    z 0.128560 -0.093350 4.002690 
# 
# 
# High freq. dielectric constant tensor:
#      x y z
#    x 1.846580 0.010950 0.006310 
#    y 0.010950 1.848380 -0.010580 
#    z 0.006310 -0.010580 1.849860 
# 
# From -- ./inp_files/577945.got.cif
#   From: 2010.06.25/outbox.cif.g09.slc.cpg/sg2_289_cif.got.tgz:577945.got - 2010.06.27 13:26:56.
