data_PCOD8015767
_publ_section_title
;
Structure prediction by ZEFSAII (Michael W. Deem and Ramdas Pophale) SiO2 
 PCOD8015767
Probable space group: P -1
;
_chemical_formula_sum "Si O2"
_cell_formula_units_Z 16
_cell_length_a 13.352578
_cell_length_b 13.938967
_cell_length_c 12.187814
_cell_angle_alpha 40.606608
_cell_angle_beta 146.822971
_cell_angle_gamma 121.037711
_cell_volume 760.837259
_symmetry_space_group_name_H-M "P -1"
_symmetry_group_IT_number 2
_symmetry_cell_setting 'triclinic'
loop_
_space_group_symop_operation_xyz
x,y,z
-x,-y,-z
loop_
_atom_site_type_symbol
_atom_site_label
_atom_site_fract_x
_atom_site_fract_y
_atom_site_fract_z
Si Si1 0.292026 0.811405 0.428985
Si Si2 0.998835 0.061866 0.609710
Si Si3 0.493877 0.320716 0.473986
Si Si4 0.902131 0.861265 0.128931
Si Si5 0.327227 0.073684 0.572206
Si Si6 0.393583 0.879524 0.047308
Si Si7 0.630742 0.328296 0.986069
Si Si8 0.551271 0.773045 0.904024
O O1 0.361370 0.716311 0.463790
O O2 0.470557 0.760323 0.721048
O O3 0.111488 0.766401 0.351503
O O4 0.220774 0.998557 0.185252
O O5 0.885829 0.936205 0.604510
O O6 0.076176 0.059564 0.805354
O O7 0.178511 0.010486 0.734881
O O8 0.857686 0.237530 0.299643
O O9 0.324791 0.240675 0.376643
O O10 0.616159 0.247409 0.758513
O O11 0.390702 0.506320 0.230990
O O12 0.782399 0.741083 0.136837
O O13 0.435591 0.049798 0.815180
O O14 0.452066 0.945935 0.712183
O O15 0.442473 0.784414 0.061280
O O16 0.498342 0.351565 0.954033
#
# Coordination Sequence:
#
# PCOD8015767 Si02
#       8
#     2   2   2   2   2   2   2   2
#     4  11  21  36  67  85 124 155 205 247 298 354
#     4  11  20  40  62  94 117 152 210 254 293 353
#     4  10  22  42  62  89 122 167 198 246 307 363
#     4  11  20  36  62  93 117 154 205 250 289 360
#     4   9  20  37  62  89 117 153 209 239 296 359
#     4  10  21  43  65  84 123 165 207 242 297 363
#     4  11  24  40  63  88 131 158 196 258 308 349
#     4  11  21  38  60  95 119 156 203 251 300 351
#
# _framework density 21.029463
#
# number of rings (size 3 to 8) (size 9 to 14) (size 15 to 20)
#    0.750    0.750    6.250    1.125    0.000    2.500 
#    2.250    2.500    0.000    0.000    0.000    0.000 
#    0.000    0.000    0.000    0.000    0.000    0.000 
#
# Total GULP energy -198372.657448 kJ/mol
# GULP energy per Si atom -12398.291091 kJ/mol
# Density = 2.098160 g / cm^3
# Si number density = 21.029463 Si / 1000 Ang^3
#
#
#
# Elastic Constant Matrix: (Units=GPa)
#
#
# Indices 1 2 3 4 5 6 
#
# 1 88.6833 22.2561 36.5524 13.4439 14.2173 4.6629
# 2 22.2561 50.1935 35.6380 2.5305 6.2570 14.8605
# 3 36.5524 35.6380 80.3849 14.5201 3.8048 14.1260
# 4 13.4439 2.5305 14.5201 37.7854 0.6129 -4.3730
# 5 14.2173 6.2570 3.8048 0.6129 36.4647 12.9230
# 6 4.6629 14.8605 14.1260 -4.3730 12.9230 34.8163
#
#
#
# Elastic Compliance Matrix: (Units=1/GPa)
#
#
# Indices 1 2 3 4 5 6 
#
# 1 0.015535 -0.003079 -0.005518 -0.002708 -0.006113 0.003401
# 2 -0.003079 0.031946 -0.011806 0.002569 -0.000251 -0.008017
# 3 -0.005518 -0.011806 0.022121 -0.006442 0.003912 -0.005458
# 4 -0.002708 0.002569 -0.006442 0.030478 -0.001437 0.006241
# 5 -0.006113 -0.000251 0.003912 -0.001437 0.034273 -0.013563
# 6 0.003401 -0.008017 -0.005458 0.006241 -0.013563 0.039721
#
#
# Mechanical properties :
#
#
# Convention : Reuss Voigt Hill
#
# Bulk Modulus (GPa) = 34.72799 45.35053 40.03926
# Shear Modulus (GPa) = 22.27381 30.13430 26.20406
#
# Velocity S-wave (km/s) = 3.25802 3.78955 3.53379
# Velocity P-wave (km/s) = 5.54101 6.38433 5.97756
#
# Compressibility (1/GPa) = 0.02879521
#
# Stress axis : x y z
#
# Youngs Moduli (GPa) = 64.37171 31.30281 45.20531
#
# Poissons Ratio (x) = 0.09637 0.24946
# Poissons Ratio (y) = 0.19818 0.53372
# Poissons Ratio (z) = 0.35522 0.36958
#
# Static dielectric constant tensor:
#      x y z
#    x 4.084960 0.134160 -0.157730 
#    y 0.134160 3.552540 0.227840 
#    z -0.157730 0.227840 3.746080 
# 
# 
# High freq. dielectric constant tensor:
#      x y z
#    x 1.845550 0.002810 -0.017220 
#    y 0.002810 1.801280 0.022840 
#    z -0.017220 0.022840 1.807690 
# 
# From -- ./inp_files/451160.got.cif
#   From: 2010.06.25/outbox.cif.g09.slc.cpg/sg2_226_cif.got.tgz:451160.got - 2010.06.27 13:26:56.
