data_PCOD8015890
_publ_section_title
;
Structure prediction by ZEFSAII (Michael W. Deem and Ramdas Pophale) SiO2 
 PCOD8015890
Probable space group: P -1
;
_chemical_formula_sum "Si O2"
_cell_formula_units_Z 12
_cell_length_a 16.059037
_cell_length_b 9.487413
_cell_length_c 19.791515
_cell_angle_alpha 36.621199
_cell_angle_beta 162.813897
_cell_angle_gamma 135.193972
_cell_volume 502.658191
_symmetry_space_group_name_H-M "P -1"
_symmetry_group_IT_number 2
_symmetry_cell_setting 'triclinic'
loop_
_space_group_symop_operation_xyz
x,y,z
-x,-y,-z
loop_
_atom_site_type_symbol
_atom_site_label
_atom_site_fract_x
_atom_site_fract_y
_atom_site_fract_z
Si Si1 0.802072 0.939710 0.558751
Si Si2 0.257385 0.729971 0.439979
Si Si3 0.099978 0.329733 0.395007
Si Si4 0.593750 0.982978 0.002254
Si Si5 0.786915 0.767533 0.751376
Si Si6 0.409727 0.515610 0.788168
O O1 0.766105 0.757499 0.542043
O O2 0.634681 0.883889 0.517021
O O3 0.654926 0.234495 0.312786
O O4 0.153917 0.890430 0.866317
O O5 0.115604 0.602159 0.322160
O O6 0.577021 0.730023 0.661686
O O7 0.299295 0.579655 0.600665
O O8 0.062325 0.024994 0.185173
O O9 0.757779 0.350749 0.123068
O O10 0.296299 0.118041 0.678311
O O11 0.733165 0.681208 0.211866
O O12 0.500000 0.000000 0.000000
O O13 0.000000 0.500000 0.000000
#
# Coordination Sequence:
#
# PCOD8015890 Si02
#       6
#     2   2   2   2   2   2
#     4  11  26  42  65  99 129 167 217 265 314 379
#     4  10  23  42  66  92 129 170 207 262 318 376
#     4  12  23  41  66  98 128 169 211 264 320 374
#     4  12  23  43  68  91 133 173 210 262 319 377
#     4  10  21  43  67  90 126 169 212 258 319 378
#     4  11  24  43  65  97 132 170 215 257 317 380
#
# _framework density 23.873082
#
# number of rings (size 3 to 8) (size 9 to 14) (size 15 to 20)
#    0.000    1.000    3.333    3.000    0.000    5.333 
#    0.000   13.333    0.000    0.000    0.000    0.000 
#    0.000    0.000    0.000    0.000    0.000    0.000 
#
# Total GULP energy -148691.313031 kJ/mol
# GULP energy per Si atom -12390.942753 kJ/mol
# Density = 2.381875 g / cm^3
# Si number density = 23.873082 Si / 1000 Ang^3
#
#
#
# Elastic Constant Matrix: (Units=GPa)
#
#
# Indices 1 2 3 4 5 6 
#
# 1 90.0237 41.5288 0.9607 -2.0266 -5.0120 -18.3473
# 2 41.5288 169.8897 23.5449 -37.6874 -14.3407 -34.0997
# 3 0.9607 23.5449 65.2359 -19.7265 -4.7182 -9.4758
# 4 -2.0266 -37.6874 -19.7265 40.7040 -4.9701 6.9937
# 5 -5.0120 -14.3407 -4.7182 -4.9701 21.3898 -7.3469
# 6 -18.3473 -34.0997 -9.4758 6.9937 -7.3469 49.0990
#
#
#
# Elastic Compliance Matrix: (Units=1/GPa)
#
#
# Indices 1 2 3 4 5 6 
#
# 1 0.013264 -0.002840 0.000980 -0.001865 0.002286 0.003781
# 2 -0.002840 0.011457 0.001320 0.011360 0.012489 0.007401
# 3 0.000980 0.001320 0.019621 0.011118 0.009723 0.004941
# 4 -0.001865 0.011360 0.011118 0.041887 0.021634 0.006609
# 5 0.002286 0.012489 0.009723 0.021634 0.069249 0.018685
# 6 0.003781 0.007401 0.004941 0.006609 0.018685 0.029728
#
#
# Mechanical properties :
#
#
# Convention : Reuss Voigt Hill
#
# Bulk Modulus (GPa) = 23.11455 50.80202 36.95829
# Shear Modulus (GPa) = 24.91203 39.51290 32.21246
#
# Velocity S-wave (km/s) = 3.23386 4.07273 3.67730
# Velocity P-wave (km/s) = 4.86283 6.59109 5.79178
#
# Compressibility (1/GPa) = 0.04326280
#
# Stress axis : x y z
#
# Youngs Moduli (GPa) = 75.39424 87.28164 50.96547
#
# Poissons Ratio (x) = 0.24787 -0.04996
# Poissons Ratio (y) = 0.21411 -0.06728
# Poissons Ratio (z) = -0.07391 -0.11522
#
# Static dielectric constant tensor:
#      x y z
#    x 4.684190 -0.055700 0.091290 
#    y -0.055700 5.060870 -0.512600 
#    z 0.091290 -0.512600 4.189120 
# 
# 
# High freq. dielectric constant tensor:
#      x y z
#    x 1.948470 -0.009740 0.008640 
#    y -0.009740 1.965940 -0.033120 
#    z 0.008640 -0.033120 1.924050 
# 
# From -- ./inp_files/23815.got.cif
#   From: 2010.06.25/outbox.cif.g09.slc.cpg/sg2_12_cif.got.tgz:23815.got - 2010.06.27 13:26:56.
