data_PCOD8015855
_publ_section_title
;
Structure prediction by ZEFSAII (Michael W. Deem and Ramdas Pophale) SiO2 
 PCOD8015855
Probable space group: P -1
;
_chemical_formula_sum "Si O2"
_cell_formula_units_Z 16
_cell_length_a 8.858178
_cell_length_b 14.399603
_cell_length_c 9.637485
_cell_angle_alpha 99.745681
_cell_angle_beta 131.294354
_cell_angle_gamma 109.268842
_cell_volume 730.594702
_symmetry_space_group_name_H-M "P -1"
_symmetry_group_IT_number 2
_symmetry_cell_setting 'triclinic'
loop_
_space_group_symop_operation_xyz
x,y,z
-x,-y,-z
loop_
_atom_site_type_symbol
_atom_site_label
_atom_site_fract_x
_atom_site_fract_y
_atom_site_fract_z
Si Si1 0.496885 0.890975 0.819801
Si Si2 0.275580 0.217579 0.947471
Si Si3 0.330595 0.171234 0.654122
Si Si4 0.870995 0.616704 0.699937
Si Si5 0.580293 0.545153 0.794705
Si Si6 0.886395 0.138861 0.209931
Si Si7 0.295721 0.951613 0.480591
Si Si8 0.212773 0.582198 0.038562
O O1 0.326333 0.862587 0.841516
O O2 0.334815 0.871055 0.581317
O O3 0.582422 0.806182 0.857098
O O4 0.752882 0.022826 0.006507
O O5 0.342774 0.201291 0.830523
O O6 0.978996 0.130182 0.772462
O O7 0.375195 0.350127 0.062424
O O8 0.568961 0.283386 0.745659
O O9 0.074203 0.139712 0.428917
O O10 0.334895 0.059429 0.616865
O O11 0.733675 0.582396 0.754864
O O12 0.707797 0.544585 0.448496
O O13 0.977242 0.751072 0.781543
O O14 0.083298 0.594437 0.829473
O O15 0.651903 0.479389 0.925553
O O16 0.500000 0.000000 0.500000
O O17 0.000000 0.500000 0.000000
#
# Coordination Sequence:
#
# PCOD8015855 Si02
#       8
#     2   2   2   2   2   2   2   2
#     4  11  24  43  67 101 133 180 220 279 339 402
#     4  12  26  45  69 102 139 178 230 278 334 412
#     4  12  23  47  71  99 137 185 222 280 342 399
#     4  10  21  43  66  95 132 175 220 281 336 394
#     4  10  24  41  65  98 131 174 228 277 330 397
#     4  11  21  42  74  95 134 180 228 271 344 400
#     4  12  28  44  69 105 140 174 225 280 339 408
#     4  10  22  41  69  96 133 177 221 278 337 392
#
# _framework density 21.899968000000001
#
# number of rings (size 3 to 8) (size 9 to 14) (size 15 to 20)
#    0.000    1.000    3.750    3.375    5.250    3.000 
#    0.000    1.250    0.000    0.000    0.000    0.000 
#    0.000    0.000    0.000    0.000    0.000    0.000 
#
# Total GULP energy -198372.613056 kJ/mol
# GULP energy per Si atom -12398.288316 kJ/mol
# Density = 2.185012 g / cm^3
# Si number density = 21.899968 Si / 1000 Ang^3
#
#
#
# Elastic Constant Matrix: (Units=GPa)
#
#
# Indices 1 2 3 4 5 6 
#
# 1 56.9538 20.9823 38.9428 -4.1462 9.3458 -16.4501
# 2 20.9823 112.7535 38.2421 -14.9812 16.2078 -30.7280
# 3 38.9428 38.2421 84.4772 -8.0959 24.7095 -26.5198
# 4 -4.1462 -14.9812 -8.0959 48.1964 -3.9387 14.3416
# 5 9.3458 16.2078 24.7095 -3.9387 36.2936 0.5208
# 6 -16.4501 -30.7280 -26.5198 14.3416 0.5208 42.6515
#
#
#
# Elastic Compliance Matrix: (Units=1/GPa)
#
#
# Indices 1 2 3 4 5 6 
#
# 1 0.026043 -0.000472 -0.011250 -0.000569 0.001061 0.002888
# 2 -0.000472 0.012262 -0.001724 0.000965 -0.004180 0.007306
# 3 -0.011250 -0.001724 0.025002 -0.001597 -0.013681 0.010668
# 4 -0.000569 0.000965 -0.001597 0.023537 0.003478 -0.008473
# 5 0.001061 -0.004180 -0.013681 0.003478 0.039022 -0.012755
# 6 0.002888 0.007306 0.010668 -0.008473 -0.012755 0.039462
#
#
# Mechanical properties :
#
#
# Convention : Reuss Voigt Hill
#
# Bulk Modulus (GPa) = 27.46165 50.05764 38.75965
# Shear Modulus (GPa) = 24.46690 35.82946 30.14818
#
# Velocity S-wave (km/s) = 3.34610 4.04920 3.71432
# Velocity P-wave (km/s) = 5.24360 6.69092 6.01098
#
# Compressibility (1/GPa) = 0.03641441
#
# Stress axis : x y z
#
# Youngs Moduli (GPa) = 38.39827 81.55361 39.99667
#
# Poissons Ratio (x) = 0.03847 0.44996
# Poissons Ratio (y) = 0.01811 0.06897
# Poissons Ratio (z) = 0.43198 0.14064
#
# Static dielectric constant tensor:
#      x y z
#    x 3.785730 -0.079130 0.487580 
#    y -0.079130 4.348160 -0.155790 
#    z 0.487580 -0.155790 4.210630 
# 
# 
# High freq. dielectric constant tensor:
#      x y z
#    x 1.841490 -0.001680 0.035550 
#    y -0.001680 1.881910 -0.008530 
#    z 0.035550 -0.008530 1.862260 
# 
# From -- ./inp_files/208057.got.cif
#   From: 2010.06.25/outbox.cif.g09.slc.cpg/sg2_105_cif.got.tgz:208057.got - 2010.06.27 13:26:56.
