data_PCOD8015327
_publ_section_title
;
Structure prediction by ZEFSAII (Michael W. Deem and Ramdas Pophale) SiO2 
 PCOD8015327
Probable space group: P -1
;
_chemical_formula_sum "Si O2"
_cell_formula_units_Z 16
_cell_length_a 14.313896
_cell_length_b 17.282912
_cell_length_c 8.623360
_cell_angle_alpha 38.187475
_cell_angle_beta 138.645799
_cell_angle_gamma 144.614218
_cell_volume 726.900908
_symmetry_space_group_name_H-M "P -1"
_symmetry_group_IT_number 2
_symmetry_cell_setting 'triclinic'
loop_
_space_group_symop_operation_xyz
x,y,z
-x,-y,-z
loop_
_atom_site_type_symbol
_atom_site_label
_atom_site_fract_x
_atom_site_fract_y
_atom_site_fract_z
Si Si1 0.830258 0.387642 0.875477
Si Si2 0.978295 0.364965 0.781817
Si Si3 0.887360 0.908247 0.150784
Si Si4 0.267690 0.959536 0.075426
Si Si5 0.684010 0.577798 0.301976
Si Si6 0.199701 0.049342 0.518771
Si Si7 0.299848 0.380267 0.103010
Si Si8 0.402494 0.943330 0.807192
O O1 0.875847 0.341180 0.846996
O O2 0.722607 0.459815 0.600931
O O3 0.715668 0.236699 0.069107
O O4 0.000000 0.500000 0.000000
O O5 0.000000 0.500000 0.500000
O O6 0.865001 0.215049 0.774559
O O7 0.160707 0.391927 0.006212
O O8 0.794154 0.731599 0.290607
O O9 0.747270 0.946047 0.954380
O O10 0.002701 0.958688 0.369676
O O11 0.000000 0.000000 0.000000
O O12 0.217515 0.990635 0.796830
O O13 0.459805 0.999658 0.249349
O O14 0.485922 0.513236 0.180254
O O15 0.733270 0.606248 0.139067
O O16 0.283213 0.225461 0.356515
O O17 0.291797 0.016347 0.545799
O O18 0.500000 0.000000 0.000000
#
# Coordination Sequence:
#
# PCOD8015327 Si02
#       8
#     2   2   2   2   2   2   2   2
#     4  12  25  44  70 100 140 177 220 285 341 395
#     4  12  24  44  68  98 134 179 227 271 340 413
#     4  12  24  43  63  98 137 170 221 274 334 394
#     4  11  24  42  73  99 129 180 229 275 327 408
#     4  11  24  42  65  99 139 179 218 280 341 396
#     4  11  21  41  69  96 131 173 225 269 331 400
#     4  11  24  41  68 100 133 181 226 271 342 406
#     4  10  21  42  67  98 128 173 228 267 326 393
#
# _framework density 22.011251999999999
#
# number of rings (size 3 to 8) (size 9 to 14) (size 15 to 20)
#    0.000    0.750    6.250    2.625    0.000    1.000 
#    0.000    2.500    0.000    0.000    0.000    0.000 
#    0.000    0.000    0.000    0.000    0.000    0.000 
#
# Total GULP energy -198453.651170 kJ/mol
# GULP energy per Si atom -12403.353198 kJ/mol
# Density = 2.196115 g / cm^3
# Si number density = 22.011252 Si / 1000 Ang^3
#
#
#
# Elastic Constant Matrix: (Units=GPa)
#
#
# Indices 1 2 3 4 5 6 
#
# 1 126.1359 22.3342 17.8933 -9.8918 35.9569 14.0112
# 2 22.3342 126.2460 20.4775 -15.6189 9.6645 9.1285
# 3 17.8933 20.4775 68.0978 -25.7310 15.6109 2.9019
# 4 -9.8918 -15.6189 -25.7310 34.9667 -6.0323 2.4798
# 5 35.9569 9.6645 15.6109 -6.0323 36.3367 1.6721
# 6 14.0112 9.1285 2.9019 2.4798 1.6721 35.9632
#
#
#
# Elastic Compliance Matrix: (Units=1/GPa)
#
#
# Indices 1 2 3 4 5 6 
#
# 1 0.011766 -0.000809 0.000537 0.001717 -0.011188 -0.004020
# 2 -0.000809 0.008791 -0.001131 0.002926 -0.000474 -0.002005
# 3 0.000537 -0.001131 0.022303 0.014986 -0.007213 -0.002419
# 4 0.001717 0.002926 0.014986 0.041495 -0.001778 -0.005399
# 5 -0.011188 -0.000474 -0.007213 -0.001778 0.041371 0.003260
# 6 -0.004020 -0.002005 -0.002419 -0.005399 0.003260 0.030297
#
#
# Mechanical properties :
#
#
# Convention : Reuss Voigt Hill
#
# Bulk Modulus (GPa) = 24.96771 49.09887 37.03329
# Shear Modulus (GPa) = 29.03928 38.77163 33.90545
#
# Velocity S-wave (km/s) = 3.63615 4.20151 3.92901
# Velocity P-wave (km/s) = 5.38484 6.77434 6.11916
#
# Compressibility (1/GPa) = 0.04005173
#
# Stress axis : x y z
#
# Youngs Moduli (GPa) = 84.99400 113.75485 44.83700
#
# Poissons Ratio (x) = 0.09202 -0.02406
# Poissons Ratio (y) = 0.06875 0.05073
# Poissons Ratio (z) = -0.04560 0.12871
#
# Static dielectric constant tensor:
#      x y z
#    x 4.473680 0.187410 0.467730 
#    y 0.187410 4.054440 -0.092270 
#    z 0.467730 -0.092270 3.891900 
# 
# 
# High freq. dielectric constant tensor:
#      x y z
#    x 1.872330 0.010490 0.023930 
#    y 0.010490 1.874390 -0.010800 
#    z 0.023930 -0.010800 1.857690 
# 
# From -- ./inp_files/261757.got.cif
#   From: 2010.06.25/outbox.cif.g09.slc.cpg/sg2_131_cif.got.tgz:261757.got - 2010.06.27 13:26:56.
