data_PCOD8015976
_publ_section_title
;
Structure prediction by ZEFSAII (Michael W. Deem and Ramdas Pophale) SiO2 
 PCOD8015976
Probable space group: P -1
;
_chemical_formula_sum "Si O2"
_cell_formula_units_Z 16
_cell_length_a 9.210595
_cell_length_b 21.093228
_cell_length_c 21.879634
_cell_angle_alpha 19.483493
_cell_angle_beta 146.420884
_cell_angle_gamma 136.672513
_cell_volume 744.435932
_symmetry_space_group_name_H-M "P -1"
_symmetry_group_IT_number 2
_symmetry_cell_setting 'triclinic'
loop_
_space_group_symop_operation_xyz
x,y,z
-x,-y,-z
loop_
_atom_site_type_symbol
_atom_site_label
_atom_site_fract_x
_atom_site_fract_y
_atom_site_fract_z
Si Si1 0.187375 0.595006 0.646304
Si Si2 0.522040 0.411010 0.814372
Si Si3 0.449569 0.698516 0.762824
Si Si4 0.292693 0.109389 0.944689
Si Si5 0.214712 0.978851 0.889688
Si Si6 0.936067 0.883082 0.758486
Si Si7 0.201539 0.645888 0.276931
Si Si8 0.291627 0.756481 0.338215
O O1 0.400909 0.503002 0.751836
O O2 0.373815 0.646901 0.716000
O O3 0.038122 0.434647 0.761311
O O4 0.942161 0.789389 0.362157
O O5 0.534881 0.590209 0.610192
O O6 0.325192 0.307723 0.804989
O O7 0.822160 0.251995 0.077434
O O8 0.723320 0.760734 0.802532
O O9 0.202705 0.895329 0.520825
O O10 0.500000 0.500000 0.000000
O O11 0.459371 0.059489 0.982594
O O12 0.422513 0.922156 0.206840
O O13 0.961673 0.147284 0.790367
O O14 0.073543 0.898403 0.857732
O O15 0.178125 0.860138 0.045261
O O16 0.500000 0.500000 0.500000
O O17 0.168293 0.665399 0.320617
#
# Coordination Sequence:
#
# PCOD8015976 Si02
#       8
#     2   2   2   2   2   2   2   2
#     4  11  25  39  61  95 121 159 206 257 311 356
#     4  11  23  40  62  88 131 160 202 257 303 363
#     4  10  21  43  68  88 118 152 201 256 311 375
#     4  10  22  40  57  84 121 174 214 242 299 354
#     4  10  23  39  62  88 127 159 208 257 298 358
#     4   9  21  41  64  91 116 160 198 245 317 375
#     4  12  24  37  59  92 123 167 215 253 293 357
#     4  11  24  37  60  86 126 172 211 245 301 357
#
# _framework density 21.492782999999999
#
# number of rings (size 3 to 8) (size 9 to 14) (size 15 to 20)
#    0.000    1.500    1.250    3.375    5.250    4.500 
#    0.000    0.625    0.000    0.000    0.000    0.000 
#    0.000    0.000    0.000    0.000    0.000    0.000 
#
# Total GULP energy -198380.201004 kJ/mol
# GULP energy per Si atom -12398.762563 kJ/mol
# Density = 2.144386 g / cm^3
# Si number density = 21.492783 Si / 1000 Ang^3
#
#
#
# Elastic Constant Matrix: (Units=GPa)
#
#
# Indices 1 2 3 4 5 6 
#
# 1 141.8734 38.4158 78.1759 -4.6565 15.9310 -6.6360
# 2 38.4158 67.2076 37.0305 -10.6998 8.4036 8.9125
# 3 78.1759 37.0305 166.1915 -11.6301 1.7365 3.6132
# 4 -4.6565 -10.6998 -11.6301 31.7625 4.9785 2.7900
# 5 15.9310 8.4036 1.7365 4.9785 41.0155 -10.6333
# 6 -6.6360 8.9125 3.6132 2.7900 -10.6333 28.7656
#
#
#
# Elastic Compliance Matrix: (Units=1/GPa)
#
#
# Indices 1 2 3 4 5 6 
#
# 1 0.010994 -0.004373 -0.004363 -0.001480 -0.002015 0.003838
# 2 -0.004373 0.021976 -0.001979 0.007995 -0.006475 -0.010738
# 3 -0.004363 -0.001979 0.008649 0.001777 0.001206 -0.001207
# 4 -0.001480 0.007995 0.001777 0.036720 -0.008082 -0.009591
# 5 -0.002015 -0.006475 0.001206 -0.008082 0.030950 0.013614
# 6 0.003838 -0.010738 -0.001207 -0.009591 0.013614 0.045090
#
#
# Mechanical properties :
#
#
# Convention : Reuss Voigt Hill
#
# Bulk Modulus (GPa) = 49.53390 75.83520 62.68455
# Shear Modulus (GPa) = 27.39166 35.08541 31.23854
#
# Velocity S-wave (km/s) = 3.57383 4.04471 3.81654
# Velocity P-wave (km/s) = 6.33455 7.56132 6.97496
#
# Compressibility (1/GPa) = 0.02018819
#
# Stress axis : x y z
#
# Youngs Moduli (GPa) = 90.95886 45.50518 115.62621
#
# Poissons Ratio (x) = 0.19898 0.50450
# Poissons Ratio (y) = 0.39774 0.22883
# Poissons Ratio (z) = 0.39687 0.09006
#
# Static dielectric constant tensor:
#      x y z
#    x 4.093780 -0.215460 0.087480 
#    y -0.215460 4.356160 -0.177790 
#    z 0.087480 -0.177790 4.331670 
# 
# 
# High freq. dielectric constant tensor:
#      x y z
#    x 1.842600 -0.000630 0.008490 
#    y -0.000630 1.844250 -0.025410 
#    z 0.008490 -0.025410 1.856390 
# 
# From -- ./inp_files/299723.got.cif
#   From: 2010.06.25/outbox.cif.g09.slc.cpg/sg2_150_cif.got.tgz:299723.got - 2010.06.27 13:26:56.
