data_PCOD8015140
_publ_section_title
;
Structure prediction by ZEFSAII (Michael W. Deem and Ramdas Pophale) SiO2 
 PCOD8015140
Probable space group: P -1
;
_chemical_formula_sum "Si O2"
_cell_formula_units_Z 16
_cell_length_a 21.036950
_cell_length_b 5.133968
_cell_length_c 8.550611
_cell_angle_alpha 58.568952
_cell_angle_beta 60.114102
_cell_angle_gamma 73.621662
_cell_volume 682.893409
_symmetry_space_group_name_H-M "P -1"
_symmetry_group_IT_number 2
_symmetry_cell_setting 'triclinic'
loop_
_space_group_symop_operation_xyz
x,y,z
-x,-y,-z
loop_
_atom_site_type_symbol
_atom_site_label
_atom_site_fract_x
_atom_site_fract_y
_atom_site_fract_z
Si Si1 0.769749 0.418616 0.457711
Si Si2 0.513383 0.355557 0.364172
Si Si3 0.111971 0.308891 0.962742
Si Si4 0.079658 0.737132 0.339066
Si Si5 0.361836 0.411996 0.048601
Si Si6 0.794898 0.725266 0.657597
Si Si7 0.386311 0.714438 0.245513
Si Si8 0.986712 0.596524 0.220131
O O1 0.809747 0.548341 0.214332
O O2 0.781725 0.645595 0.516650
O O3 0.683415 0.391071 0.532837
O O4 0.805044 0.084939 0.558044
O O5 0.500000 0.500000 0.500000
O O6 0.458959 0.519874 0.257365
O O7 0.500000 0.000000 0.500000
O O8 0.596939 0.424847 0.194651
O O9 0.073766 0.220552 0.869102
O O10 0.057442 0.546995 0.040807
O O11 0.126820 0.034152 0.153404
O O12 0.131274 0.445415 0.319326
O O13 0.010190 0.774847 0.292804
O O14 0.050646 0.708704 0.563641
O O15 0.275896 0.378837 0.123680
O O16 0.369174 0.645711 0.108900
O O17 0.397918 0.074973 0.144960
#
# Coordination Sequence:
#
# PCOD8015140 Si02
#       8
#     2   2   2   2   2   2   2   2
#     4  10  23  42  66  92 128 165 214 267 319 381
#     4  12  24  38  62 100 134 164 208 274 308 362
#     4  11  23  40  64  91 124 169 214 268 327 382
#     4  11  23  40  64  91 124 169 214 268 327 382
#     4  10  21  42  66  90 124 176 212 251 313 387
#     4  10  23  42  66  92 128 165 214 267 319 381
#     4  10  21  42  66  90 124 176 212 251 313 387
#     4  10  24  40  60  92 128 162 218 262 330 390
#
# _framework density 23.429718000000001
#
# number of rings (size 3 to 8) (size 9 to 14) (size 15 to 20)
#    0.000    1.500    1.250    3.000    3.500    5.000 
#    2.250    0.000    0.000    0.000    0.000    0.000 
#    0.000    0.000    0.000    0.000    0.000    0.000 
#
# Total GULP energy -198328.278863 kJ/mol
# GULP energy per Si atom -12395.517429 kJ/mol
# Density = 2.337639 g / cm^3
# Si number density = 23.429718 Si / 1000 Ang^3
#
#
#
# Elastic Constant Matrix: (Units=GPa)
#
#
# Indices 1 2 3 4 5 6 
#
# 1 40.4627 1.2492 25.8792 5.3353 -12.2961 -2.7702
# 2 1.2492 83.7597 30.7904 0.9235 -15.7191 4.7069
# 3 25.8792 30.7904 186.7133 11.4778 -40.7606 -6.5359
# 4 5.3353 0.9235 11.4778 36.1235 -5.0092 0.5746
# 5 -12.2961 -15.7191 -40.7606 -5.0092 41.8715 5.3025
# 6 -2.7702 4.7069 -6.5359 0.5746 5.3025 22.1263
#
#
#
# Elastic Compliance Matrix: (Units=1/GPa)
#
#
# Indices 1 2 3 4 5 6 
#
# 1 0.028636 0.001663 -0.002758 -0.002594 0.005903 0.001070
# 2 0.001663 0.013624 -0.001661 0.000641 0.004607 -0.004302
# 3 -0.002758 -0.001661 0.007296 -0.001131 0.005421 0.000894
# 4 -0.002594 0.000641 -0.001131 0.028729 0.002073 -0.002038
# 5 0.005903 0.004607 0.005421 0.002073 0.033729 -0.006777
# 6 0.001070 -0.004302 0.000894 -0.002038 -0.006777 0.048185
#
#
# Mechanical properties :
#
#
# Convention : Reuss Voigt Hill
#
# Bulk Modulus (GPa) = 22.70460 47.41922 35.06191
# Shear Modulus (GPa) = 27.71743 36.89206 32.30474
#
# Velocity S-wave (km/s) = 3.44321 3.97241 3.71724
# Velocity P-wave (km/s) = 5.05165 6.42829 5.78109
#
# Compressibility (1/GPa) = 0.04404393
#
# Stress axis : x y z
#
# Youngs Moduli (GPa) = 34.92139 73.39910 137.05832
#
# Poissons Ratio (x) = -0.12206 0.37796
# Poissons Ratio (y) = -0.05808 0.22772
# Poissons Ratio (z) = 0.09630 0.12195
#
# Static dielectric constant tensor:
#      x y z
#    x 4.716550 -0.152300 -0.449560 
#    y -0.152300 4.067580 0.109710 
#    z -0.449560 0.109710 4.602100 
# 
# 
# High freq. dielectric constant tensor:
#      x y z
#    x 1.911430 0.001360 -0.023400 
#    y 0.001360 1.923720 0.007400 
#    z -0.023400 0.007400 1.936760 
# 
# From -- ./inp_files/48453.got.cif
#   From: 2010.06.25/outbox.cif.g09.slc.cpg/sg2_25_cif.got.tgz:48453.got - 2010.06.27 13:26:56.
