data_PCOD8015268
_publ_section_title
;
Structure prediction by ZEFSAII (Michael W. Deem and Ramdas Pophale) SiO2 
 PCOD8015268
Probable space group: P -1
;
_chemical_formula_sum "Si O2"
_cell_formula_units_Z 12
_cell_length_a 12.235862
_cell_length_b 11.302323
_cell_length_c 11.190380
_cell_angle_alpha 145.132484
_cell_angle_beta 133.449009
_cell_angle_gamma 41.842393
_cell_volume 578.189356
_symmetry_space_group_name_H-M "P -1"
_symmetry_group_IT_number 2
_symmetry_cell_setting 'triclinic'
loop_
_space_group_symop_operation_xyz
x,y,z
-x,-y,-z
loop_
_atom_site_type_symbol
_atom_site_label
_atom_site_fract_x
_atom_site_fract_y
_atom_site_fract_z
Si Si1 0.793524 0.027429 0.626699
Si Si2 0.668664 0.476938 0.761502
Si Si3 0.643761 0.592311 0.579787
Si Si4 0.652224 0.269427 0.963924
Si Si5 0.101922 0.612497 0.599507
Si Si6 0.438532 0.101172 0.813382
O O1 0.788924 0.240641 0.722028
O O2 0.723397 0.104126 0.768774
O O3 0.684170 0.910294 0.390245
O O4 0.983844 0.839173 0.624933
O O5 0.732940 0.465586 0.664277
O O6 0.476186 0.515892 0.651175
O O7 0.673820 0.694511 0.012337
O O8 0.777428 0.565931 0.555883
O O9 0.527719 0.857900 0.746528
O O10 0.588618 0.143276 0.906698
O O11 0.500000 0.500000 0.000000
O O12 0.796581 0.323264 0.172192
O O13 0.000000 0.500000 0.500000
#
# Coordination Sequence:
#
# PCOD8015268 Si02
#       6
#     2   2   2   2   2   2
#     4  11  24  38  63  96 132 162 204 261 319 375
#     4  10  21  42  67  92 125 165 218 257 302 372
#     4  10  22  41  66  95 122 168 215 257 305 373
#     4  12  21  41  67  90 125 167 214 260 304 369
#     4  12  25  42  63  95 132 166 204 261 325 373
#     4  11  20  41  66  95 122 166 214 260 305 368
#
# _framework density 20.754448
#
# number of rings (size 3 to 8) (size 9 to 14) (size 15 to 20)
#    0.000    1.000    3.333    4.500    0.000    0.667 
#    0.000    0.833    0.000    0.000    0.000    0.000 
#    0.000    0.000    0.000    0.000    0.000    0.000 
#
# Total GULP energy -148849.077460 kJ/mol
# GULP energy per Si atom -12404.089788 kJ/mol
# Density = 2.070721 g / cm^3
# Si number density = 20.754448 Si / 1000 Ang^3
#
#
#
# Elastic Constant Matrix: (Units=GPa)
#
#
# Indices 1 2 3 4 5 6 
#
# 1 96.6189 25.7545 41.1231 -7.7169 -6.8321 9.2287
# 2 25.7545 125.3353 48.5177 -3.4495 -5.6279 6.5768
# 3 41.1231 48.5177 142.2434 -3.3546 -5.8182 -2.0167
# 4 -7.7169 -3.4495 -3.3546 32.5115 -3.8527 -0.9015
# 5 -6.8321 -5.6279 -5.8182 -3.8527 29.5257 -0.7245
# 6 9.2287 6.5768 -2.0167 -0.9015 -0.7245 29.5061
#
#
#
# Elastic Compliance Matrix: (Units=1/GPa)
#
#
# Indices 1 2 3 4 5 6 
#
# 1 0.012749 -0.000979 -0.003243 0.002764 0.002391 -0.003848
# 2 -0.000979 0.009475 -0.002922 0.000539 0.001026 -0.001964
# 3 -0.003243 -0.002922 0.009018 -0.000024 0.000523 0.002294
# 4 0.002764 0.000539 -0.000024 0.032056 0.004923 0.000114
# 5 0.002391 0.001026 0.000523 0.004923 0.035365 0.000078
# 6 -0.003848 -0.001964 0.002294 0.000114 0.000078 0.035695
#
#
# Mechanical properties :
#
#
# Convention : Reuss Voigt Hill
#
# Bulk Modulus (GPa) = 58.98669 66.10979 62.54824
# Shear Modulus (GPa) = 32.40529 34.89548 33.65038
#
# Velocity S-wave (km/s) = 3.95570 4.10487 4.03098
# Velocity P-wave (km/s) = 7.02469 7.37490 7.20193
#
# Compressibility (1/GPa) = 0.01695298
#
# Stress axis : x y z
#
# Youngs Moduli (GPa) = 78.43968 105.54362 110.89088
#
# Poissons Ratio (x) = 0.10331 0.35966
# Poissons Ratio (y) = 0.07678 0.32402
# Poissons Ratio (z) = 0.25441 0.30839
#
# Static dielectric constant tensor:
#      x y z
#    x 3.578240 0.183650 0.041500 
#    y 0.183650 3.839150 0.100190 
#    z 0.041500 0.100190 4.218890 
# 
# 
# High freq. dielectric constant tensor:
#      x y z
#    x 1.801660 0.015320 -0.009440 
#    y 0.015320 1.815680 0.005210 
#    z -0.009440 0.005210 1.824790 
# 
# From -- ./inp_files/18798.got.cif
#   From: 2010.06.25/outbox.cif.g09.slc.cpg/sg2_10_cif.got.tgz:18798.got - 2010.06.27 13:26:56.
