data_PCOD8015357
_publ_section_title
;
Structure prediction by ZEFSAII (Michael W. Deem and Ramdas Pophale) SiO2 
 PCOD8015357
Probable space group: P -1
;
_chemical_formula_sum "Si O2"
_cell_formula_units_Z 16
_cell_length_a 14.608635
_cell_length_b 8.861770
_cell_length_c 12.093004
_cell_angle_alpha 109.679637
_cell_angle_beta 136.537723
_cell_angle_gamma 47.073206
_cell_volume 748.950885
_symmetry_space_group_name_H-M "P -1"
_symmetry_group_IT_number 2
_symmetry_cell_setting 'triclinic'
loop_
_space_group_symop_operation_xyz
x,y,z
-x,-y,-z
loop_
_atom_site_type_symbol
_atom_site_label
_atom_site_fract_x
_atom_site_fract_y
_atom_site_fract_z
Si Si1 0.173852 0.635792 0.899192
Si Si2 0.838474 0.376322 0.534632
Si Si3 0.223559 0.185735 0.059035
Si Si4 0.535948 0.031290 0.163140
Si Si5 0.823711 0.079632 0.178109
Si Si6 0.420032 0.659590 0.768328
Si Si7 0.813654 0.565673 0.346095
Si Si8 0.090556 0.378377 0.209264
O O1 0.091632 0.849677 0.808189
O O2 0.226949 0.449770 0.818761
O O3 0.022569 0.683099 0.859660
O O4 0.363102 0.539631 0.095255
O O5 0.666243 0.399549 0.408206
O O6 0.827498 0.402870 0.398761
O O7 0.815862 0.579014 0.608105
O O8 0.020032 0.136946 0.668902
O O9 0.351234 0.206666 0.111923
O O10 0.238410 0.184519 0.205818
O O11 0.022613 0.398891 0.903002
O O12 0.267835 0.972189 0.999856
O O13 0.635398 0.120415 0.269655
O O14 0.652754 0.819838 0.291657
O O15 0.500000 0.000000 0.000000
O O16 0.666623 0.277927 0.168241
O O17 0.000000 0.500000 0.500000
#
# Coordination Sequence:
#
# PCOD8015357 Si02
#       8
#     2   2   2   2   2   2   2   2
#     4  12  23  38  64  96 126 165 209 256 314 376
#     4  11  25  40  60  95 132 166 202 261 321 368
#     4  10  21  42  68  88 124 169 216 255 304 378
#     4  12  22  39  67  98 122 161 214 258 315 373
#     4  11  23  38  64  95 128 162 206 261 319 368
#     4  12  23  37  62  99 130 152 202 270 316 365
#     4  12  23  37  64  94 131 164 205 262 315 371
#     4  10  22  44  65  88 124 176 213 250 308 378
#
# _framework density 21.363216999999999
#
# number of rings (size 3 to 8) (size 9 to 14) (size 15 to 20)
#    0.000    0.750    6.250    1.500    3.500    0.500 
#    0.000    1.250    0.000    0.000    0.000    0.000 
#    0.000    0.000    0.000    0.000    0.000    0.000 
#
# Total GULP energy -198217.224040 kJ/mol
# GULP energy per Si atom -12388.576502 kJ/mol
# Density = 2.131459 g / cm^3
# Si number density = 21.363217 Si / 1000 Ang^3
#
#
#
# Elastic Constant Matrix: (Units=GPa)
#
#
# Indices 1 2 3 4 5 6 
#
# 1 136.4005 42.1637 39.6002 19.1408 5.4584 1.6180
# 2 42.1637 63.7364 30.0517 2.2705 0.0707 10.3184
# 3 39.6002 30.0517 94.4786 8.3622 20.3883 -0.6275
# 4 19.1408 2.2705 8.3622 35.9462 12.7972 -5.1910
# 5 5.4584 0.0707 20.3883 12.7972 31.8934 4.5188
# 6 1.6180 10.3184 -0.6275 -5.1910 4.5188 39.6978
#
#
#
# Elastic Compliance Matrix: (Units=1/GPa)
#
#
# Indices 1 2 3 4 5 6 
#
# 1 0.010454 -0.005514 -0.002590 -0.005325 0.002010 0.000041
# 2 -0.005514 0.023482 -0.006495 -0.000158 0.006055 -0.006691
# 3 -0.002590 -0.006495 0.015973 0.002640 -0.011334 0.003682
# 4 -0.005325 -0.000158 0.002640 0.036979 -0.016609 0.007026
# 5 0.002010 0.006055 -0.011334 -0.016609 0.046220 -0.009268
# 6 0.000041 -0.006691 0.003682 0.007026 -0.009268 0.028960
#
#
# Mechanical properties :
#
#
# Convention : Reuss Voigt Hill
#
# Bulk Modulus (GPa) = 48.28436 57.58298 52.93367
# Shear Modulus (GPa) = 25.23107 33.69414 29.46260
#
# Velocity S-wave (km/s) = 3.44037 3.97571 3.71769
# Velocity P-wave (km/s) = 6.19937 6.93454 6.57724
#
# Compressibility (1/GPa) = 0.02071064
#
# Stress axis : x y z
#
# Youngs Moduli (GPa) = 95.65652 42.58622 62.60703
#
# Poissons Ratio (x) = 0.23481 0.16216
# Poissons Ratio (y) = 0.52742 0.40664
# Poissons Ratio (z) = 0.24776 0.27661
#
# Static dielectric constant tensor:
#      x y z
#    x 3.292840 -0.671340 0.401680 
#    y -0.671340 2.659260 0.729430 
#    z 0.401680 0.729430 3.725300 
# 
# 
# High freq. dielectric constant tensor:
#      x y z
#    x 1.831840 0.027460 0.009670 
#    y 0.027460 1.825190 0.006680 
#    z 0.009670 0.006680 1.830600 
# 
# From -- ./inp_files/181863.got.cif
#   From: 2010.06.25/outbox.cif.g09.slc.cpg/sg2_91_cif.got.tgz:181863.got - 2010.06.27 13:26:56.
