data_PCOD8015013
_publ_section_title
;
Structure prediction by ZEFSAII (Michael W. Deem and Ramdas Pophale) SiO2 
 PCOD8015013
Probable space group: P -1
;
_chemical_formula_sum "Si O2"
_cell_formula_units_Z 16
_cell_length_a 8.124707
_cell_length_b 18.355210
_cell_length_c 9.852640
_cell_angle_alpha 146.501064
_cell_angle_beta 123.275482
_cell_angle_gamma 56.872407
_cell_volume 665.269068
_symmetry_space_group_name_H-M "P -1"
_symmetry_group_IT_number 2
_symmetry_cell_setting 'triclinic'
loop_
_space_group_symop_operation_xyz
x,y,z
-x,-y,-z
loop_
_atom_site_type_symbol
_atom_site_label
_atom_site_fract_x
_atom_site_fract_y
_atom_site_fract_z
Si Si1 0.292041 0.956988 0.807122
Si Si2 0.898301 0.312088 0.972046
Si Si3 0.800600 0.934073 0.360713
Si Si4 0.033777 0.442970 0.776725
Si Si5 0.913539 0.132860 0.937743
Si Si6 0.520106 0.240973 0.044404
Si Si7 0.664170 0.332728 0.505389
Si Si8 0.453188 0.396951 0.979701
O O1 0.294235 0.803468 0.602030
O O2 0.208480 0.987918 0.665035
O O3 0.121355 0.052243 0.969184
O O4 0.500000 0.000000 0.000000
O O5 0.993728 0.439833 0.168418
O O6 0.654430 0.349891 0.909283
O O7 0.951426 0.266979 0.082017
O O8 0.003952 0.187180 0.731387
O O9 0.806372 0.042095 0.647149
O O10 0.597931 0.879127 0.193880
O O11 0.865371 0.352358 0.543494
O O12 0.266431 0.362574 0.753547
O O13 0.000000 0.500000 0.000000
O O14 0.756432 0.175169 0.052395
O O15 0.491366 0.328532 0.306600
O O16 0.455762 0.329162 0.021538
O O17 0.585150 0.444259 0.756609
#
# Coordination Sequence:
#
# PCOD8015013 Si02
#       8
#     2   2   2   2   2   2   2   2
#     4  11  23  44  65  96 129 171 212 266 332 378
#     4  10  21  42  64  98 128 160 217 266 319 376
#     4  11  22  42  72  91 129 173 215 271 317 383
#     4  10  22  39  66  96 126 171 212 267 315 380
#     4  10  25  41  69  93 128 172 220 266 314 388
#     4  11  23  46  62  96 130 172 219 265 322 380
#     4  11  24  43  65  93 137 169 210 266 328 384
#     4  10  23  40  68  98 127 168 219 264 317 387
#
# _framework density 24.050418000000001
#
# number of rings (size 3 to 8) (size 9 to 14) (size 15 to 20)
#    0.000    1.500    1.250    4.125    8.750    0.500 
#    2.250    1.875    0.000    0.000    0.000    0.000 
#    0.000    0.000    0.000    0.000    0.000    0.000 
#
# Total GULP energy -198261.853687 kJ/mol
# GULP energy per Si atom -12391.365855 kJ/mol
# Density = 2.399568 g / cm^3
# Si number density = 24.050418 Si / 1000 Ang^3
#
#
#
# Elastic Constant Matrix: (Units=GPa)
#
#
# Indices 1 2 3 4 5 6 
#
# 1 95.9389 36.7589 28.1344 24.3464 19.3014 -2.6991
# 2 36.7589 110.0999 45.6411 29.6037 17.2731 -2.0637
# 3 28.1344 45.6411 82.3086 5.1920 24.4482 2.8775
# 4 24.3464 29.6037 5.1920 37.7728 5.5774 4.6933
# 5 19.3014 17.2731 24.4482 5.5774 37.2675 9.7379
# 6 -2.6991 -2.0637 2.8775 4.6933 9.7379 37.8687
#
#
#
# Elastic Compliance Matrix: (Units=1/GPa)
#
#
# Indices 1 2 3 4 5 6 
#
# 1 0.014729 -0.000689 -0.002701 -0.008254 -0.005239 0.003588
# 2 -0.000689 0.015599 -0.007502 -0.010962 -0.001098 0.003012
# 3 -0.002701 -0.007502 0.019425 0.006306 -0.008645 -0.000636
# 4 -0.008254 -0.010962 0.006306 0.040229 0.001004 -0.006909
# 5 -0.005239 -0.001098 -0.008645 0.001004 0.038111 -0.009701
# 6 0.003588 0.003012 -0.000636 -0.006909 -0.009701 0.030226
#
#
# Mechanical properties :
#
#
# Convention : Reuss Voigt Hill
#
# Bulk Modulus (GPa) = 35.75450 56.60180 46.17815
# Shear Modulus (GPa) = 26.39556 34.43600 30.41578
#
# Velocity S-wave (km/s) = 3.31646 3.78805 3.56007
# Velocity P-wave (km/s) = 5.43728 6.53591 6.01175
#
# Compressibility (1/GPa) = 0.02796851
#
# Stress axis : x y z
#
# Youngs Moduli (GPa) = 67.89253 64.10766 51.48096
#
# Poissons Ratio (x) = 0.04419 0.13905
# Poissons Ratio (y) = 0.04680 0.38620
# Poissons Ratio (z) = 0.18338 0.48092
#
# Static dielectric constant tensor:
#      x y z
#    x 4.874310 -0.311450 0.317070 
#    y -0.311450 4.667370 0.144830 
#    z 0.317070 0.144830 4.147290 
# 
# 
# High freq. dielectric constant tensor:
#      x y z
#    x 1.967470 -0.002950 0.018130 
#    y -0.002950 1.964700 0.011080 
#    z 0.018130 0.011080 1.930280 
# 
# From -- ./inp_files/405159.got.cif
#   From: 2010.06.25/outbox.cif.g09.slc.cpg/sg2_203_cif.got.tgz:405159.got - 2010.06.27 13:26:56.
