data_PCOD8015910
_publ_section_title
;
Structure prediction by ZEFSAII (Michael W. Deem and Ramdas Pophale) SiO2 
 PCOD8015910
Probable space group: P -1
;
_chemical_formula_sum "Si O2"
_cell_formula_units_Z 16
_cell_length_a 8.558034
_cell_length_b 14.211979
_cell_length_c 9.063587
_cell_angle_alpha 79.578972
_cell_angle_beta 44.970991
_cell_angle_gamma 77.298714
_cell_volume 759.522791
_symmetry_space_group_name_H-M "P -1"
_symmetry_group_IT_number 2
_symmetry_cell_setting 'triclinic'
loop_
_space_group_symop_operation_xyz
x,y,z
-x,-y,-z
loop_
_atom_site_type_symbol
_atom_site_label
_atom_site_fract_x
_atom_site_fract_y
_atom_site_fract_z
Si Si1 0.294616 0.225296 0.653770
Si Si2 0.065220 0.084356 0.333974
Si Si3 0.933374 0.606926 0.695335
Si Si4 0.550978 0.296848 0.950858
Si Si5 0.206001 0.038011 0.930883
Si Si6 0.438869 0.140268 0.269022
Si Si7 0.965428 0.389877 0.707100
Si Si8 0.289554 0.741530 0.466598
O O1 0.234472 0.145365 0.831108
O O2 0.344884 0.174851 0.478834
O O3 0.085952 0.308712 0.758276
O O4 0.501732 0.276791 0.557519
O O5 0.232951 0.142384 0.294159
O O6 0.846654 0.157469 0.420803
O O7 0.174863 0.038024 0.126310
O O8 0.000000 0.000000 0.500000
O O9 0.910151 0.620697 0.530828
O O10 0.979889 0.494270 0.737943
O O11 0.139639 0.655323 0.609281
O O12 0.702865 0.653810 0.908512
O O13 0.627518 0.248171 0.758529
O O14 0.705828 0.377830 0.866492
O O15 0.590194 0.214529 0.074411
O O16 0.428881 0.965869 0.767824
O O17 0.000000 0.000000 0.000000
#
# Coordination Sequence:
#
# PCOD8015910 Si02
#       8
#     2   2   2   2   2   2   2   2
#     4  12  24  42  61  97 135 170 208 269 331 382
#     4  12  23  42  65  93 127 173 221 262 309 383
#     4  10  21  43  67  94 127 169 222 267 315 379
#     4  11  20  42  67  95 123 170 219 266 316 378
#     4  12  25  40  63  96 135 168 212 268 329 381
#     4  12  22  41  65  92 125 172 220 258 315 388
#     4  10  22  40  68  97 125 170 219 267 316 387
#     4  11  24  40  64  94 136 164 211 271 325 381
#
# _framework density 21.065859
#
# number of rings (size 3 to 8) (size 9 to 14) (size 15 to 20)
#    0.000    0.750    2.500    6.375    0.000    0.500 
#    0.000    0.625    0.000    0.000    0.000    0.000 
#    0.000    0.000    0.000    0.000    0.000    0.000 
#
# Total GULP energy -198523.315708 kJ/mol
# GULP energy per Si atom -12407.707232 kJ/mol
# Density = 2.101791 g / cm^3
# Si number density = 21.065859 Si / 1000 Ang^3
#
#
#
# Elastic Constant Matrix: (Units=GPa)
#
#
# Indices 1 2 3 4 5 6 
#
# 1 115.6545 30.5080 29.1087 -2.9247 -12.0171 8.1316
# 2 30.5080 129.1711 35.8612 -9.0857 -5.6455 -4.8700
# 3 29.1087 35.8612 88.7263 -7.4757 -6.2756 0.0470
# 4 -2.9247 -9.0857 -7.4757 29.9586 -2.7073 -5.0499
# 5 -12.0171 -5.6455 -6.2756 -2.7073 34.7113 -0.6594
# 6 8.1316 -4.8700 0.0470 -5.0499 -0.6594 34.6570
#
#
#
# Elastic Compliance Matrix: (Units=1/GPa)
#
#
# Indices 1 2 3 4 5 6 
#
# 1 0.010183 -0.001721 -0.002481 -0.000343 0.002720 -0.002626
# 2 -0.001721 0.009226 -0.002930 0.002298 0.000593 0.002050
# 3 -0.002481 -0.002930 0.013569 0.002465 0.001320 0.000536
# 4 -0.000343 0.002298 0.002465 0.035946 0.003613 0.005707
# 5 0.002720 0.000593 0.001320 0.003613 0.030378 0.000548
# 6 -0.002626 0.002050 0.000536 0.005707 0.000548 0.030600
#
#
# Mechanical properties :
#
#
# Convention : Reuss Voigt Hill
#
# Bulk Modulus (GPa) = 53.42864 58.27864 55.85364
# Shear Modulus (GPa) = 33.24359 35.73699 34.49029
#
# Velocity S-wave (km/s) = 3.97681 4.12326 4.05070
# Velocity P-wave (km/s) = 6.81942 7.09883 6.96052
#
# Compressibility (1/GPa) = 0.01871655
#
# Stress axis : x y z
#
# Youngs Moduli (GPa) = 98.20025 108.38429 73.69486
#
# Poissons Ratio (x) = 0.18650 0.18280
# Poissons Ratio (y) = 0.16898 0.21593
# Poissons Ratio (z) = 0.24359 0.31757
#
# Static dielectric constant tensor:
#      x y z
#    x 3.771190 0.089590 -0.014900 
#    y 0.089590 3.913370 0.010140 
#    z -0.014900 0.010140 3.606540 
# 
# 
# High freq. dielectric constant tensor:
#      x y z
#    x 1.823320 0.006610 -0.010300 
#    y 0.006610 1.833380 -0.000220 
#    z -0.010300 -0.000220 1.832690 
# 
# From -- ./inp_files/37857.got.cif
#   From: 2010.06.25/outbox.cif.g09.slc.cpg/sg2_19_cif.got.tgz:37857.got - 2010.06.27 13:26:56.
