data_PCOD8015457
_publ_section_title
;
Structure prediction by ZEFSAII (Michael W. Deem and Ramdas Pophale) SiO2 
 PCOD8015457
Probable space group: P -1
;
_chemical_formula_sum "Si O2"
_cell_formula_units_Z 16
_cell_length_a 9.097312
_cell_length_b 9.331122
_cell_length_c 14.089163
_cell_angle_alpha 44.554501
_cell_angle_beta 99.642873
_cell_angle_gamma 76.628219
_cell_volume 713.074058
_symmetry_space_group_name_H-M "P -1"
_symmetry_group_IT_number 2
_symmetry_cell_setting 'triclinic'
loop_
_space_group_symop_operation_xyz
x,y,z
-x,-y,-z
loop_
_atom_site_type_symbol
_atom_site_label
_atom_site_fract_x
_atom_site_fract_y
_atom_site_fract_z
Si Si1 0.143893 0.372025 0.406768
Si Si2 0.587349 0.068996 0.062212
Si Si3 0.607526 0.705938 0.376035
Si Si4 0.781767 0.961201 0.818714
Si Si5 0.233498 0.426941 0.880327
Si Si6 0.151240 0.667485 0.558808
Si Si7 0.890161 0.837976 0.687242
Si Si8 0.041333 0.076363 0.871605
O O1 0.328122 0.303458 0.504621
O O2 0.174337 0.271296 0.350282
O O3 0.016415 0.651920 0.259500
O O4 0.046679 0.269566 0.511321
O O5 0.650206 0.881404 0.241585
O O6 0.438048 0.325165 0.967671
O O7 0.751941 0.087868 0.041197
O O8 0.500000 0.000000 0.000000
O O9 0.719518 0.447640 0.461734
O O10 0.404052 0.795243 0.308521
O O11 0.794758 0.844384 0.771905
O O12 0.933387 0.025830 0.804283
O O13 0.802981 0.782817 0.990465
O O14 0.206792 0.480905 0.739633
O O15 0.098697 0.668051 0.806041
O O16 0.152453 0.904368 0.473986
O O17 0.000000 0.000000 0.000000
#
# Coordination Sequence:
#
# PCOD8015457 Si02
#       8
#     2   2   2   2   2   2   2   2
#     4  11  23  41  66  97 134 173 223 268 334 394
#     4  11  20  40  67  96 129 167 220 269 330 385
#     4  11  23  41  71  99 129 172 223 278 327 388
#     4  11  26  43  68  98 138 172 221 274 337 389
#     4  10  21  42  69  92 130 179 216 266 331 397
#     4  11  21  40  72  96 131 170 225 275 328 393
#     4  11  24  43  68  94 137 179 217 271 331 398
#     4  12  24  40  68 104 131 170 222 277 331 386
#
# _framework density 22.438061000000001
#
# number of rings (size 3 to 8) (size 9 to 14) (size 15 to 20)
#    0.000    1.000    2.500    6.750    1.750    2.500 
#    0.000    0.625   11.000    0.000    0.000    0.000 
#    0.000    0.000    0.000    0.000    0.000    0.000 
#
# Total GULP energy -198288.980064 kJ/mol
# GULP energy per Si atom -12393.061254 kJ/mol
# Density = 2.238699 g / cm^3
# Si number density = 22.438061 Si / 1000 Ang^3
#
#
#
# Elastic Constant Matrix: (Units=GPa)
#
#
# Indices 1 2 3 4 5 6 
#
# 1 138.4160 40.4079 37.1639 -3.2972 19.1589 -9.2865
# 2 40.4079 118.6754 32.6702 -5.7450 10.7856 -6.5880
# 3 37.1639 32.6702 87.4027 -7.6594 11.4073 8.2753
# 4 -3.2972 -5.7450 -7.6594 29.5716 -5.2766 0.6660
# 5 19.1589 10.7856 11.4073 -5.2766 36.6487 -4.0887
# 6 -9.2865 -6.5880 8.2753 0.6660 -4.0887 31.5131
#
#
#
# Elastic Compliance Matrix: (Units=1/GPa)
#
#
# Indices 1 2 3 4 5 6 
#
# 1 0.009209 -0.001874 -0.003141 -0.000764 -0.003087 0.002763
# 2 -0.001874 0.010129 -0.003043 0.000797 -0.000687 0.002258
# 3 -0.003141 -0.003043 0.015017 0.002650 -0.002410 -0.005874
# 4 -0.000764 0.000797 0.002650 0.035366 0.004327 -0.000941
# 5 -0.003087 -0.000687 -0.002410 0.004327 0.030865 0.003493
# 6 0.002763 0.002258 -0.005874 -0.000941 0.003493 0.035035
#
#
# Mechanical properties :
#
#
# Convention : Reuss Voigt Hill
#
# Bulk Modulus (GPa) = 54.82872 62.77533 58.80203
# Shear Modulus (GPa) = 31.68216 35.16348 33.42282
#
# Velocity S-wave (km/s) = 3.76171 3.96300 3.86367
# Velocity P-wave (km/s) = 6.58452 6.99846 6.79464
#
# Compressibility (1/GPa) = 0.01823862
#
# Stress axis : x y z
#
# Youngs Moduli (GPa) = 108.58369 98.72942 66.58912
#
# Poissons Ratio (x) = 0.18503 0.20915
# Poissons Ratio (y) = 0.20350 0.20266
# Poissons Ratio (z) = 0.34106 0.30047
#
# Static dielectric constant tensor:
#      x y z
#    x 4.843720 -0.244770 -0.144990 
#    y -0.244770 4.049210 0.026220 
#    z -0.144990 0.026220 4.429580 
# 
# 
# High freq. dielectric constant tensor:
#      x y z
#    x 1.873580 -0.022230 0.001320 
#    y -0.022230 1.869100 0.000930 
#    z 0.001320 0.000930 1.900000 
# 
# From -- ./inp_files/494398.got.cif
#   From: 2010.06.25/outbox.cif.g09.slc.cpg/sg2_248_cif.got.tgz:494398.got - 2010.06.27 13:26:56.
