data_PCOD8015150
_publ_section_title
;
Structure prediction by ZEFSAII (Michael W. Deem and Ramdas Pophale) SiO2 
 PCOD8015150
Probable space group: P -1
;
_chemical_formula_sum "Si O2"
_cell_formula_units_Z 12
_cell_length_a 12.524507
_cell_length_b 9.055795
_cell_length_c 15.130002
_cell_angle_alpha 29.557099
_cell_angle_beta 130.466554
_cell_angle_gamma 111.804106
_cell_volume 552.204115
_symmetry_space_group_name_H-M "P -1"
_symmetry_group_IT_number 2
_symmetry_cell_setting 'triclinic'
loop_
_space_group_symop_operation_xyz
x,y,z
-x,-y,-z
loop_
_atom_site_type_symbol
_atom_site_label
_atom_site_fract_x
_atom_site_fract_y
_atom_site_fract_z
Si Si1 0.561774 0.788289 0.052619
Si Si2 0.074418 0.761322 0.753159
Si Si3 0.570809 0.753070 0.419073
Si Si4 0.549924 0.743992 0.743380
Si Si5 0.060706 0.609026 0.217202
Si Si6 0.064835 0.571880 0.584932
O O1 0.560394 0.430300 0.237017
O O2 0.742056 0.700280 0.166447
O O3 0.500000 0.000000 0.000000
O O4 0.440876 0.045904 0.780753
O O5 0.038858 0.447189 0.885788
O O6 0.264950 0.578746 0.976785
O O7 0.000000 0.000000 0.500000
O O8 0.974975 0.027286 0.641762
O O9 0.500000 0.500000 0.500000
O O10 0.761598 0.542611 0.649736
O O11 0.482236 0.025070 0.307864
O O12 0.500000 0.000000 0.500000
O O13 0.040338 0.452618 0.378969
O O14 0.000000 0.000000 0.000000
O O15 0.000000 0.500000 0.500000
#
# Coordination Sequence:
#
# PCOD8015150 Si02
#       6
#     2   2   2   2   2   2
#     4  12  24  43  68  98 134 178 225 279 337 401
#     4  10  21  42  66  91 126 173 218 266 327 394
#     4  12  24  43  68  98 134 178 225 279 337 401
#     4  12  26  44  67 101 137 177 225 280 338 400
#     4  11  23  41  64  93 127 170 218 270 328 393
#     4  11  23  41  64  93 127 170 218 270 328 393
#
# _framework density 21.731093000000001
#
# number of rings (size 3 to 8) (size 9 to 14) (size 15 to 20)
#    0.000    0.667    0.000   10.500    0.000    2.667 
#    0.000    2.500    0.000    0.000    0.000    0.000 
#    0.000    0.000    0.000    0.000    0.000    0.000 
#
# Total GULP energy -148695.744145 kJ/mol
# GULP energy per Si atom -12391.312012 kJ/mol
# Density = 2.168163 g / cm^3
# Si number density = 21.731093 Si / 1000 Ang^3
#
#
#
# Elastic Constant Matrix: (Units=GPa)
#
#
# Indices 1 2 3 4 5 6 
#
# 1 84.7760 36.7037 23.8132 -4.1357 5.8577 1.4051
# 2 36.7037 188.4169 34.2127 -30.0957 -6.4109 -9.3349
# 3 23.8132 34.2127 106.3709 -2.4462 6.6156 -4.7481
# 4 -4.1357 -30.0957 -2.4462 49.1936 1.1122 4.3517
# 5 5.8577 -6.4109 6.6156 1.1122 51.6334 -2.2063
# 6 1.4051 -9.3349 -4.7481 4.3517 -2.2063 47.3970
#
#
#
# Elastic Compliance Matrix: (Units=1/GPa)
#
#
# Indices 1 2 3 4 5 6 
#
# 1 0.013574 -0.002399 -0.002226 -0.000300 -0.001595 -0.001145
# 2 -0.002399 0.006750 -0.001585 0.003735 0.001274 0.000958
# 3 -0.002226 -0.001585 0.010507 -0.000678 -0.001241 0.000811
# 4 -0.000300 0.003735 -0.000678 0.022678 0.000036 -0.001404
# 5 -0.001595 0.001274 -0.001241 0.000036 0.019912 0.001097
# 6 -0.001145 0.000958 0.000811 -0.001404 0.001097 0.021582
#
#
# Mechanical properties :
#
#
# Convention : Reuss Voigt Hill
#
# Bulk Modulus (GPa) = 54.31245 63.22476 58.76861
# Shear Modulus (GPa) = 44.03013 48.63375 46.33194
#
# Velocity S-wave (km/s) = 4.50614 4.73586 4.62243
# Velocity P-wave (km/s) = 7.21949 7.68517 7.45596
#
# Compressibility (1/GPa) = 0.01841198
#
# Stress axis : x y z
#
# Youngs Moduli (GPa) = 73.66884 148.15103 95.17598
#
# Poissons Ratio (x) = 0.35540 0.21187
# Poissons Ratio (y) = 0.17673 0.15081
# Poissons Ratio (z) = 0.16399 0.23475
#
# Static dielectric constant tensor:
#      x y z
#    x 3.515960 -0.356550 0.315830 
#    y -0.356550 3.359280 0.631460 
#    z 0.315830 0.631460 3.207860 
# 
# 
# High freq. dielectric constant tensor:
#      x y z
#    x 1.843300 0.004790 0.016410 
#    y 0.004790 1.889380 -0.012940 
#    z 0.016410 -0.012940 1.860420 
# 
# From -- ./inp_files/160760.got.cif
#   From: 2010.06.25/outbox.cif.g09.slc.cpg/sg2_81_cif.got.tgz:160760.got - 2010.06.27 13:26:56.
