data_PCOD8015105
_publ_section_title
;
Structure prediction by ZEFSAII (Michael W. Deem and Ramdas Pophale) SiO2 
 PCOD8015105
Probable space group: P -1
;
_chemical_formula_sum "Si O2"
_cell_formula_units_Z 16
_cell_length_a 13.190468
_cell_length_b 19.113783
_cell_length_c 9.781976
_cell_angle_alpha 34.510622
_cell_angle_beta 142.763156
_cell_angle_gamma 146.405623
_cell_volume 724.190021
_symmetry_space_group_name_H-M "P -1"
_symmetry_group_IT_number 2
_symmetry_cell_setting 'triclinic'
loop_
_space_group_symop_operation_xyz
x,y,z
-x,-y,-z
loop_
_atom_site_type_symbol
_atom_site_label
_atom_site_fract_x
_atom_site_fract_y
_atom_site_fract_z
Si Si1 0.298989 0.987917 0.830263
Si Si2 0.448195 0.724280 0.035535
Si Si3 0.173677 0.984945 0.995268
Si Si4 0.107005 0.747563 0.520874
Si Si5 0.015093 0.169144 0.473171
Si Si6 0.538748 0.306019 0.587859
Si Si7 0.695890 0.568105 0.793116
Si Si8 0.046742 0.541307 0.327548
O O1 0.345940 0.150730 0.595852
O O2 0.144428 0.868925 0.753912
O O3 0.227615 0.935465 0.992810
O O4 0.500000 0.000000 0.000000
O O5 0.660023 0.861185 0.016369
O O6 0.318036 0.772158 0.735755
O O7 0.388903 0.692665 0.181581
O O8 0.428120 0.582208 0.175737
O O9 0.113791 0.861996 0.238523
O O10 0.999200 0.016464 0.731996
O O11 0.021844 0.760921 0.549501
O O12 0.969479 0.588493 0.570402
O O13 0.229727 0.294507 0.450055
O O14 0.460419 0.417820 0.300715
O O15 0.723224 0.336613 0.640547
O O16 0.890819 0.586202 0.042531
O O17 0.000000 0.500000 0.500000
#
# Coordination Sequence:
#
# PCOD8015105 Si02
#       8
#     2   2   2   2   2   2   2   2
#     4  11  24  41  69  97 131 179 229 275 330 403
#     4  10  21  42  66 100 126 174 226 274 333 397
#     4  11  24  41  66  99 134 177 217 280 339 396
#     4  11  25  42  65  96 140 177 216 278 342 402
#     4  12  23  42  68 102 130 174 229 277 336 394
#     4  11  23  43  70  98 131 178 230 278 333 398
#     4  11  23  42  73  97 133 173 231 284 325 405
#     4  11  27  45  67  99 137 181 221 280 345 402
#
# _framework density 22.093648000000002
#
# number of rings (size 3 to 8) (size 9 to 14) (size 15 to 20)
#    0.000    1.000    2.500    5.250    5.250    2.500 
#    2.250    0.000    0.000    0.000    0.000    0.000 
#    0.000    0.000    0.000    0.000    0.000    0.000 
#
# Total GULP energy -198351.550239 kJ/mol
# GULP energy per Si atom -12396.971890 kJ/mol
# Density = 2.204336 g / cm^3
# Si number density = 22.093648 Si / 1000 Ang^3
#
#
#
# Elastic Constant Matrix: (Units=GPa)
#
#
# Indices 1 2 3 4 5 6 
#
# 1 49.2622 35.6709 -11.3926 9.1203 4.0203 -23.4460
# 2 35.6709 47.6700 25.7724 9.1844 -13.5689 -1.5465
# 3 -11.3926 25.7724 70.8750 -10.5810 8.4507 -9.1335
# 4 9.1203 9.1844 -10.5810 28.4195 -0.0973 0.5885
# 5 4.0203 -13.5689 8.4507 -0.0973 35.2028 -2.0137
# 6 -23.4460 -1.5465 -9.1335 0.5885 -2.0137 34.2189
#
#
#
# Elastic Compliance Matrix: (Units=1/GPa)
#
#
# Indices 1 2 3 4 5 6 
#
# 1 -0.023427 0.040399 -0.025950 -0.014715 0.023319 -0.019527
# 2 0.040399 -0.026584 0.022942 0.003453 -0.018559 0.031451
# 3 -0.025950 0.022942 -0.001792 0.000628 0.011291 -0.016568
# 4 -0.014715 0.003453 0.000628 0.039249 0.002380 -0.010293
# 5 0.023319 -0.018559 0.011291 0.002380 0.016979 0.019111
# 6 -0.019527 0.031451 -0.016568 -0.010293 0.019111 0.014145
#
#
# Mechanical properties :
#
#
# Convention : Reuss Voigt Hill
#
# Bulk Modulus (GPa) = 43.51687 29.76761 36.64224
# Shear Modulus (GPa) = -102.98082 27.41870 -37.78106
#
# Velocity S-wave (km/s) = -6.83464 3.52664 -4.13975
# Velocity P-wave (km/s) = 6.52255 5.48503 2.49581
#
# Compressibility (1/GPa) = 0.02297959
#
# Stress axis : x y z
#
# Youngs Moduli (GPa) = -42.68496 -37.61710 -558.09928
#
# Poissons Ratio (x) = 1.51970 -14.48258
# Poissons Ratio (y) = 1.72444 12.80387
# Poissons Ratio (z) = -1.10767 0.86301
#
# Static dielectric constant tensor:
#      x y z
#    x 3.857020 -0.235030 0.196310 
#    y -0.235030 4.380680 -0.124000 
#    z 0.196310 -0.124000 4.164750 
# 
# 
# High freq. dielectric constant tensor:
#      x y z
#    x 1.862670 -0.009380 0.021490 
#    y -0.009380 1.879300 -0.003820 
#    z 0.021490 -0.003820 1.876740 
# 
# From -- ./inp_files/257646.got.cif
#   From: 2010.06.25/outbox.cif.g09.slc.cpg/sg2_129_cif.got.tgz:257646.got - 2010.06.27 13:26:56.
