data_PCOD8015735
_publ_section_title
;
Structure prediction by ZEFSAII (Michael W. Deem and Ramdas Pophale) SiO2 
 PCOD8015735
Probable space group: P -1
;
_chemical_formula_sum "Si O2"
_cell_formula_units_Z 12
_cell_length_a 11.954844
_cell_length_b 8.590182
_cell_length_c 14.245446
_cell_angle_alpha 81.140216
_cell_angle_beta 29.806722
_cell_angle_gamma 99.563004
_cell_volume 569.149547
_symmetry_space_group_name_H-M "P -1"
_symmetry_group_IT_number 2
_symmetry_cell_setting 'triclinic'
loop_
_space_group_symop_operation_xyz
x,y,z
-x,-y,-z
loop_
_atom_site_type_symbol
_atom_site_label
_atom_site_fract_x
_atom_site_fract_y
_atom_site_fract_z
Si Si1 0.244718 0.726297 0.979487
Si Si2 0.702003 0.675959 0.708703
Si Si3 0.806566 0.114036 0.810895
Si Si4 0.798104 0.759047 0.842083
Si Si5 0.838595 0.282860 0.287199
Si Si6 0.219459 0.959844 0.816700
O O1 0.153592 0.751017 0.144716
O O2 0.982449 0.514311 0.148440
O O3 0.525848 0.740199 0.781595
O O4 0.309412 0.896739 0.847067
O O5 0.958853 0.735737 0.449653
O O6 0.510603 0.439403 0.886357
O O7 0.172681 0.210967 0.294139
O O8 0.843537 0.950864 0.835354
O O9 0.500000 0.000000 0.000000
O O10 0.041137 0.747048 0.703580
O O11 0.919121 0.210590 0.145630
O O12 0.501313 0.163232 0.551646
O O13 0.000000 0.000000 0.000000
#
# Coordination Sequence:
#
# PCOD8015735 Si02
#       6
#     2   2   2   2   2   2
#     4  11  24  42  64  94 126 167 205 257 315 368
#     4  10  23  42  62  92 130 166 207 255 310 376
#     4  12  24  36  61  97 127 168 208 248 308 372
#     4  10  21  43  64  89 129 168 204 258 313 366
#     4  10  24  43  65  92 123 165 209 258 312 367
#     4  11  24  43  67  92 121 162 213 263 310 366
#
# _framework density 21.084088999999999
#
# number of rings (size 3 to 8) (size 9 to 14) (size 15 to 20)
#    0.000    1.333    1.667    3.000    2.333    6.667 
#    0.000    0.000    0.000    0.000    0.000    0.000 
#    0.000    0.000    0.000    0.000    0.000    0.000 
#
# Total GULP energy -148886.799193 kJ/mol
# GULP energy per Si atom -12407.233266 kJ/mol
# Density = 2.103610 g / cm^3
# Si number density = 21.084089 Si / 1000 Ang^3
#
#
#
# Elastic Constant Matrix: (Units=GPa)
#
#
# Indices 1 2 3 4 5 6 
#
# 1 91.1592 19.6736 35.6924 6.7394 7.3526 9.6690
# 2 19.6736 93.8653 47.7262 8.1206 2.3259 22.6514
# 3 35.6924 47.7262 122.0912 20.7755 7.3040 16.7633
# 4 6.7394 8.1206 20.7755 26.2327 2.9262 1.8731
# 5 7.3526 2.3259 7.3040 2.9262 28.3975 -4.2130
# 6 9.6690 22.6514 16.7633 1.8731 -4.2130 41.4569
#
#
#
# Elastic Compliance Matrix: (Units=1/GPa)
#
#
# Indices 1 2 3 4 5 6 
#
# 1 0.012705 -0.000632 -0.003039 -0.000245 -0.002676 -0.001650
# 2 -0.000632 0.014632 -0.004631 -0.000188 -0.000720 -0.006040
# 3 -0.003039 -0.004631 0.012456 -0.007365 -0.001519 -0.001619
# 4 -0.000245 -0.000188 -0.007365 0.044286 -0.002458 0.000887
# 5 -0.002676 -0.000720 -0.001519 -0.002458 0.037433 0.005547
# 6 -0.001650 -0.006040 -0.001619 0.000887 0.005547 0.028985
#
#
# Mechanical properties :
#
#
# Convention : Reuss Voigt Hill
#
# Bulk Modulus (GPa) = 43.12261 57.03335 50.07798
# Shear Modulus (GPa) = 28.59942 32.81899 30.70920
#
# Velocity S-wave (km/s) = 3.68699 3.94963 3.82057
# Velocity P-wave (km/s) = 6.21468 6.92160 6.57765
#
# Compressibility (1/GPa) = 0.02318969
#
# Stress axis : x y z
#
# Youngs Moduli (GPa) = 78.70927 68.34289 80.28543
#
# Poissons Ratio (x) = 0.04320 0.24396
# Poissons Ratio (y) = 0.04976 0.37177
# Poissons Ratio (z) = 0.23918 0.31647
#
# Static dielectric constant tensor:
#      x y z
#    x 3.969980 0.164520 0.032030 
#    y 0.164520 3.982690 -0.092270 
#    z 0.032030 -0.092270 3.749280 
# 
# 
# High freq. dielectric constant tensor:
#      x y z
#    x 1.831380 0.003400 -0.000280 
#    y 0.003400 1.830010 -0.008040 
#    z -0.000280 -0.008040 1.828730 
# 
# From -- ./inp_files/49678.got.cif
#   From: 2010.06.25/outbox.cif.g09.slc.cpg/sg2_25_cif.got.tgz:49678.got - 2010.06.27 13:26:56.
