data_PCOD8015270
_publ_section_title
;
Structure prediction by ZEFSAII (Michael W. Deem and Ramdas Pophale) SiO2 
 PCOD8015270
Probable space group: P -1
;
_chemical_formula_sum "Si O2"
_cell_formula_units_Z 16
_cell_length_a 13.765275
_cell_length_b 11.204115
_cell_length_c 13.343570
_cell_angle_alpha 84.985207
_cell_angle_beta 32.556193
_cell_angle_gamma 108.058724
_cell_volume 770.469295
_symmetry_space_group_name_H-M "P -1"
_symmetry_group_IT_number 2
_symmetry_cell_setting 'triclinic'
loop_
_space_group_symop_operation_xyz
x,y,z
-x,-y,-z
loop_
_atom_site_type_symbol
_atom_site_label
_atom_site_fract_x
_atom_site_fract_y
_atom_site_fract_z
Si Si1 0.017625 0.266932 0.769123
Si Si2 0.475544 0.973124 0.904798
Si Si3 0.091700 0.198085 0.151254
Si Si4 0.690872 0.197122 0.513366
Si Si5 0.919819 0.452649 0.956424
Si Si6 0.502684 0.581121 0.756661
Si Si7 0.837893 0.958077 0.050684
Si Si8 0.825598 0.922651 0.560996
O O1 0.917860 0.312169 0.937493
O O2 0.316309 0.423036 0.465431
O O3 0.827131 0.180004 0.845533
O O4 0.017845 0.132348 0.819604
O O5 0.617675 0.144512 0.700250
O O6 0.592949 0.902841 0.778060
O O7 0.500000 0.000000 0.000000
O O8 0.823003 0.138263 0.361266
O O9 0.291238 0.393143 0.006200
O O10 0.217146 0.193213 0.947121
O O11 0.033604 0.065170 0.288701
O O12 0.429381 0.100741 0.686537
O O13 0.883062 0.397419 0.307569
O O14 0.642791 0.386927 0.187157
O O15 0.000000 0.500000 0.000000
O O16 0.689908 0.732473 0.664465
O O17 0.000000 0.000000 0.000000
O O18 0.000000 0.000000 0.500000
#
# Coordination Sequence:
#
# PCOD8015270 Si02
#       8
#     2   2   2   2   2   2   2   2
#     4  11  23  41  65  97 131 170 223 270 328 401
#     4  10  21  42  67  92 127 172 215 272 339 384
#     4  10  23  43  63  92 132 170 216 274 323 395
#     4   9  23  42  61  91 129 167 224 268 322 398
#     4  11  25  42  65  94 135 180 218 275 332 387
#     4  11  23  43  68  93 134 172 221 275 328 395
#     4  11  24  38  64  95 129 172 221 271 330 389
#     4  11  22  41  69  96 130 169 220 274 336 397
#
# _framework density 20.766562
#
# number of rings (size 3 to 8) (size 9 to 14) (size 15 to 20)
#    0.000    1.500    2.500    1.500    7.000    1.500 
#    0.000    1.875    0.000    0.000    0.000    0.000 
#    0.000    0.000    0.000    0.000    0.000    0.000 
#
# Total GULP energy -198247.754923 kJ/mol
# GULP energy per Si atom -12390.484683 kJ/mol
# Density = 2.071930 g / cm^3
# Si number density = 20.766562 Si / 1000 Ang^3
#
#
#
# Elastic Constant Matrix: (Units=GPa)
#
#
# Indices 1 2 3 4 5 6 
#
# 1 135.0426 52.8454 50.5470 -1.9820 -17.4278 11.9610
# 2 52.8454 120.0603 44.1118 -4.5814 0.5081 10.4215
# 3 50.5470 44.1118 119.5060 2.9678 -15.6195 -1.2108
# 4 -1.9820 -4.5814 2.9678 33.9820 -4.9377 -2.5623
# 5 -17.4278 0.5081 -15.6195 -4.9377 26.7242 0.8247
# 6 11.9610 10.4215 -1.2108 -2.5623 0.8247 29.9985
#
#
#
# Elastic Compliance Matrix: (Units=1/GPa)
#
#
# Indices 1 2 3 4 5 6 
#
# 1 0.010805 -0.003520 -0.002557 0.000990 0.005903 -0.003266
# 2 -0.003520 0.011355 -0.003299 0.000814 -0.004212 -0.002489
# 3 -0.002557 -0.003299 0.011339 -0.000701 0.004818 0.002431
# 4 0.000990 0.000814 -0.000701 0.030635 0.005827 0.001750
# 5 0.005903 -0.004212 0.004818 0.005827 0.045286 -0.001443
# 6 -0.003266 -0.002489 0.002431 0.001750 -0.001443 0.035789
#
#
# Mechanical properties :
#
#
# Convention : Reuss Voigt Hill
#
# Bulk Modulus (GPa) = 67.80731 74.40193 71.10462
# Shear Modulus (GPa) = 29.60740 33.28126 31.44433
#
# Velocity S-wave (km/s) = 3.77997 4.00764 3.89547
# Velocity P-wave (km/s) = 7.19541 7.57102 7.38561
#
# Compressibility (1/GPa) = 0.01474767
#
# Stress axis : x y z
#
# Youngs Moduli (GPa) = 92.54673 88.06333 88.19406
#
# Poissons Ratio (x) = 0.31000 0.22553
# Poissons Ratio (y) = 0.32578 0.29091
# Poissons Ratio (z) = 0.23666 0.29048
#
# Static dielectric constant tensor:
#      x y z
#    x 3.415550 -0.330920 -0.243700 
#    y -0.330920 3.716800 0.053530 
#    z -0.243700 0.053530 3.991180 
# 
# 
# High freq. dielectric constant tensor:
#      x y z
#    x 1.802970 -0.020750 -0.016960 
#    y -0.020750 1.810570 0.007390 
#    z -0.016960 0.007390 1.824670 
# 
# From -- ./inp_files/259001.got.cif
#   From: 2010.06.25/outbox.cif.g09.slc.cpg/sg2_130_cif.got.tgz:259001.got - 2010.06.27 13:26:56.
