data_PCOD8015973
_publ_section_title
;
Structure prediction by ZEFSAII (Michael W. Deem and Ramdas Pophale) SiO2 
 PCOD8015973
Probable space group: P -1
;
_chemical_formula_sum "Si O2"
_cell_formula_units_Z 10
_cell_length_a 12.466870
_cell_length_b 5.517688
_cell_length_c 13.056182
_cell_angle_alpha 94.028071
_cell_angle_beta 150.468204
_cell_angle_gamma 96.614537
_cell_volume 412.226172
_symmetry_space_group_name_H-M "P -1"
_symmetry_group_IT_number 2
_symmetry_cell_setting 'triclinic'
loop_
_space_group_symop_operation_xyz
x,y,z
-x,-y,-z
loop_
_atom_site_type_symbol
_atom_site_label
_atom_site_fract_x
_atom_site_fract_y
_atom_site_fract_z
Si Si1 0.036536 0.254384 0.469594
Si Si2 0.435550 0.563587 0.685930
Si Si3 0.296708 0.737731 0.202198
Si Si4 0.160083 0.954203 0.904422
Si Si5 0.221786 0.799687 0.363512
O O1 0.304956 0.344476 0.654767
O O2 0.000000 0.500000 0.500000
O O3 0.856783 0.182719 0.223107
O O4 0.000000 0.000000 0.500000
O O5 0.612890 0.492836 0.757125
O O6 0.221548 0.580893 0.439132
O O7 0.582661 0.826760 0.874205
O O8 0.152724 0.677815 0.188116
O O9 0.512220 0.004110 0.406075
O O10 0.134633 0.760761 0.973992
O O11 0.955443 0.068515 0.743787
#
# Coordination Sequence:
#
# PCOD8015973 Si02
#       5
#     2   2   2   2   2
#     4  12  29  51  75 101 142 192 248 315 368 412
#     4  11  25  44  72 105 144 185 242 292 356 438
#     4  10  22  40  72 107 145 188 233 280 355 444
#     4  11  25  44  73 103 145 187 238 294 358 433
#     4  10  21  43  68 108 152 186 224 285 360 433
#
# _framework density 24.258527999999998
#
# number of rings (size 3 to 8) (size 9 to 14) (size 15 to 20)
#    0.000    1.200    2.000    2.400    8.400    2.400 
#    0.000    0.000    0.000    0.000    0.000    0.000 
#    0.000    0.000    0.000    0.000    0.000    0.000 
#
# Total GULP energy -124016.305464 kJ/mol
# GULP energy per Si atom -12401.630546 kJ/mol
# Density = 2.420331 g / cm^3
# Si number density = 24.258528 Si / 1000 Ang^3
#
#
#
# Elastic Constant Matrix: (Units=GPa)
#
#
# Indices 1 2 3 4 5 6 
#
# 1 136.7547 70.5688 65.7069 -1.8127 -32.6771 -2.0266
# 2 70.5688 133.2609 51.1453 -32.2524 -24.0561 -2.4755
# 3 65.7069 51.1453 125.9577 -19.9337 -39.3723 -2.2495
# 4 -1.8127 -32.2524 -19.9337 46.1363 -10.1740 -1.1312
# 5 -32.6771 -24.0561 -39.3723 -10.1740 45.4410 2.2263
# 6 -2.0266 -2.4755 -2.2495 -1.1312 2.2263 50.3744
#
#
#
# Elastic Compliance Matrix: (Units=1/GPa)
#
#
# Indices 1 2 3 4 5 6 
#
# 1 0.013028 -0.006386 -0.005115 -0.006124 0.000193 -0.000164
# 2 -0.006386 0.014529 0.001632 0.012216 0.007225 0.000485
# 3 -0.005115 0.001632 0.015776 0.010681 0.013235 0.000234
# 4 -0.006124 0.012216 0.010681 0.039023 0.020014 0.000823
# 5 0.000193 0.007225 0.013235 0.020014 0.041941 -0.000450
# 6 -0.000164 0.000485 0.000234 0.000823 -0.000450 0.019917
#
#
# Mechanical properties :
#
#
# Convention : Reuss Voigt Hill
#
# Bulk Modulus (GPa) = 42.38055 85.64615 64.01335
# Shear Modulus (GPa) = 29.10067 42.29381 35.69724
#
# Velocity S-wave (km/s) = 3.46729 4.18001 3.84022
# Velocity P-wave (km/s) = 5.79118 7.66021 6.79031
#
# Compressibility (1/GPa) = 0.02359573
#
# Stress axis : x y z
#
# Youngs Moduli (GPa) = 76.75892 68.82561 63.38708
#
# Poissons Ratio (x) = 0.43954 0.32421
# Poissons Ratio (y) = 0.49020 -0.10346
# Poissons Ratio (z) = 0.39260 -0.11233
#
# Static dielectric constant tensor:
#      x y z
#    x 4.368200 0.153190 -0.314260 
#    y 0.153190 4.391270 0.129750 
#    z -0.314260 0.129750 4.585260 
# 
# 
# High freq. dielectric constant tensor:
#      x y z
#    x 1.957940 0.005390 -0.010580 
#    y 0.005390 1.972490 0.016720 
#    z -0.010580 0.016720 1.982040 
# 
# From -- ./inp_files/1448.got.cif
#   From: 2010.06.25/outbox.cif.g09.slc.cpg/sg2_1_cif.got.tgz:1448.got - 2010.06.27 13:26:56.
