data_PCOD8015588
_publ_section_title
;
Structure prediction by ZEFSAII (Michael W. Deem and Ramdas Pophale) SiO2 
 PCOD8015588
Probable space group: P -1
;
_chemical_formula_sum "Si O2"
_cell_formula_units_Z 16
_cell_length_a 8.782677
_cell_length_b 15.086908
_cell_length_c 8.646585
_cell_angle_alpha 86.229421
_cell_angle_beta 95.028993
_cell_angle_gamma 40.414090
_cell_volume 724.166475
_symmetry_space_group_name_H-M "P -1"
_symmetry_group_IT_number 2
_symmetry_cell_setting 'triclinic'
loop_
_space_group_symop_operation_xyz
x,y,z
-x,-y,-z
loop_
_atom_site_type_symbol
_atom_site_label
_atom_site_fract_x
_atom_site_fract_y
_atom_site_fract_z
Si Si1 0.544496 0.662784 0.866456
Si Si2 0.441958 0.461814 0.857232
Si Si3 0.237215 0.140442 0.020974
Si Si4 0.174865 0.615498 0.244767
Si Si5 0.640460 0.797329 0.695826
Si Si6 0.003874 0.920638 0.884737
Si Si7 0.036904 0.699061 0.565857
Si Si8 0.857938 0.977825 0.543123
O O1 0.642136 0.544100 0.772528
O O2 0.670202 0.695918 0.813867
O O3 0.254776 0.800414 0.826479
O O4 0.611840 0.610229 0.059097
O O5 0.679618 0.357331 0.781235
O O6 0.211234 0.599750 0.733714
O O7 0.500000 0.500000 0.000000
O O8 0.279782 0.158304 0.192648
O O9 0.063371 0.134280 0.014973
O O10 0.085431 0.273068 0.877030
O O11 0.500000 0.000000 0.000000
O O12 0.145958 0.618678 0.423708
O O13 0.809559 0.735548 0.568883
O O14 0.374898 0.924311 0.594252
O O15 0.806690 0.017000 0.717541
O O16 0.000000 0.000000 0.000000
O O17 0.991207 0.824711 0.543395
O O18 0.000000 0.000000 0.500000
#
# Coordination Sequence:
#
# PCOD8015588 Si02
#       8
#     2   2   2   2   2   2   2   2
#     4  11  24  48  73 106 144 193 253 292 366 440
#     4  10  21  42  71  98 137 191 242 299 349 433
#     4  12  26  46  75 108 149 190 245 304 373 438
#     4  11  25  43  75 107 146 193 243 302 368 443
#     4  12  26  46  72 106 153 193 238 309 374 433
#     4  12  26  48  73 108 141 193 252 301 361 437
#     4  12  26  45  71 110 147 193 240 304 379 428
#     4  12  26  45  74 102 147 192 246 302 360 443
#
# _framework density 22.094366999999998
#
# number of rings (size 3 to 8) (size 9 to 14) (size 15 to 20)
#    0.000    0.500    3.750    5.250    3.500    2.500 
#    2.250    0.000    0.000    0.000    0.000    0.000 
#    0.000    0.000    0.000    0.000    0.000    0.000 
#
# Total GULP energy -198249.625458 kJ/mol
# GULP energy per Si atom -12390.601591 kJ/mol
# Density = 2.204408 g / cm^3
# Si number density = 22.094367 Si / 1000 Ang^3
#
#
#
# Elastic Constant Matrix: (Units=GPa)
#
#
# Indices 1 2 3 4 5 6 
#
# 1 144.0015 58.6322 45.6313 1.8005 -21.9514 0.8871
# 2 58.6322 116.0097 59.2067 0.0290 -4.7131 -4.1062
# 3 45.6313 59.2067 139.8820 -5.4451 -1.7417 6.6693
# 4 1.8005 0.0290 -5.4451 47.1413 -6.2319 -3.5575
# 5 -21.9514 -4.7131 -1.7417 -6.2319 48.5031 0.7450
# 6 0.8871 -4.1062 6.6693 -3.5575 0.7450 28.9305
#
#
#
# Elastic Compliance Matrix: (Units=1/GPa)
#
#
# Indices 1 2 3 4 5 6 
#
# 1 0.009617 -0.004036 -0.001351 -0.000053 0.003915 -0.000664
# 2 -0.004036 0.012935 -0.004318 -0.000236 -0.000800 0.002947
# 3 -0.001351 -0.004318 0.009572 0.000889 -0.000532 -0.002655
# 4 -0.000053 -0.000236 0.000889 0.021862 0.002757 0.002380
# 5 0.003915 -0.000800 -0.000532 0.002757 0.022652 -0.000355
# 6 -0.000664 0.002947 -0.002655 0.002380 -0.000355 0.035918
#
#
# Mechanical properties :
#
#
# Convention : Reuss Voigt Hill
#
# Bulk Modulus (GPa) = 78.64689 80.75931 79.70310
# Shear Modulus (GPa) = 36.70971 40.67650 38.69310
#
# Velocity S-wave (km/s) = 4.08057 4.29538 4.18935
# Velocity P-wave (km/s) = 7.60753 7.82507 7.71707
#
# Compressibility (1/GPa) = 0.01271506
#
# Stress axis : x y z
#
# Youngs Moduli (GPa) = 103.98088 77.30795 104.47329
#
# Poissons Ratio (x) = 0.31198 0.14112
# Poissons Ratio (y) = 0.41963 0.45114
# Poissons Ratio (z) = 0.14046 0.33383
#
# Static dielectric constant tensor:
#      x y z
#    x 4.395130 0.004820 -0.314390 
#    y 0.004820 3.981670 -0.262670 
#    z -0.314390 -0.262670 4.359280 
# 
# 
# High freq. dielectric constant tensor:
#      x y z
#    x 1.876310 -0.011420 -0.015780 
#    y -0.011420 1.857330 -0.014110 
#    z -0.015780 -0.014110 1.885990 
# 
# From -- ./inp_files/207377.got.cif
#   From: 2010.06.25/outbox.cif.g09.slc.cpg/sg2_104_cif.got.tgz:207377.got - 2010.06.27 13:26:56.
