data_PCOD8015525
_publ_section_title
;
Structure prediction by ZEFSAII (Michael W. Deem and Ramdas Pophale) SiO2 
 PCOD8015525
Probable space group: P -1
;
_chemical_formula_sum "Si O2"
_cell_formula_units_Z 16
_cell_length_a 9.032392
_cell_length_b 29.105744
_cell_length_c 9.846198
_cell_angle_alpha 153.447890
_cell_angle_beta 43.106039
_cell_angle_gamma 137.119603
_cell_volume 763.320623
_symmetry_space_group_name_H-M "P -1"
_symmetry_group_IT_number 2
_symmetry_cell_setting 'triclinic'
loop_
_space_group_symop_operation_xyz
x,y,z
-x,-y,-z
loop_
_atom_site_type_symbol
_atom_site_label
_atom_site_fract_x
_atom_site_fract_y
_atom_site_fract_z
Si Si1 0.821858 0.168492 0.186746
Si Si2 0.634968 0.816190 0.382305
Si Si3 0.112638 0.843655 0.196518
Si Si4 0.402212 0.569216 0.850280
Si Si5 0.383959 0.743689 0.959545
Si Si6 0.921912 0.333574 0.787037
Si Si7 0.781989 0.915889 0.262317
Si Si8 0.586688 0.561525 0.240271
O O1 0.552047 0.134156 0.290736
O O2 0.929007 0.268437 0.473304
O O3 0.878621 0.201297 0.079882
O O4 0.952482 0.081370 0.918164
O O5 0.709780 0.888231 0.391291
O O6 0.849166 0.826644 0.365716
O O7 0.540139 0.692722 0.079944
O O8 0.244105 0.967807 0.448071
O O9 0.226790 0.777195 0.043026
O O10 0.500000 0.500000 0.500000
O O11 0.394414 0.524963 0.889476
O O12 0.155436 0.563139 0.938965
O O13 0.425244 0.632116 0.588443
O O14 0.253186 0.732502 0.160177
O O15 0.622085 0.831623 0.045507
O O16 0.168573 0.365495 0.768873
O O17 0.500000 0.500000 0.000000
#
# Coordination Sequence:
#
# PCOD8015525 Si02
#       8
#     2   2   2   2   2   2   2   2
#     4  10  21  42  70  93 125 178 219 272 317 391
#     4  10  22  42  66  99 134 167 227 273 323 384
#     4  11  27  38  71  99 138 173 220 277 332 386
#     4  11  22  43  69  97 128 177 220 272 327 394
#     4  12  25  47  63 100 144 170 216 281 329 395
#     4  11  24  45  68  91 135 178 213 274 330 390
#     4  11  21  46  68  98 131 181 221 269 334 391
#     4  12  28  44  69 100 132 174 225 269 336 395
#
# _framework density 20.961047000000001
#
# number of rings (size 3 to 8) (size 9 to 14) (size 15 to 20)
#    0.000    1.000    5.000    2.250    7.000    3.500 
#    0.000    0.625    0.000    0.000    0.000    0.000 
#    0.000    0.000    0.000    0.000    0.000    0.000 
#
# Total GULP energy -198356.720741 kJ/mol
# GULP energy per Si atom -12397.295046 kJ/mol
# Density = 2.091334 g / cm^3
# Si number density = 20.961047 Si / 1000 Ang^3
#
#
#
# Elastic Constant Matrix: (Units=GPa)
#
#
# Indices 1 2 3 4 5 6 
#
# 1 151.9187 42.0374 43.6077 -9.6104 -10.7477 -0.1607
# 2 42.0374 77.5936 42.9885 -2.1385 -9.3628 5.2360
# 3 43.6077 42.9885 104.4917 -8.9607 -1.6251 -5.9571
# 4 -9.6104 -2.1385 -8.9607 30.5678 -0.6708 -6.6682
# 5 -10.7477 -9.3628 -1.6251 -0.6708 42.2925 -1.2429
# 6 -0.1607 5.2360 -5.9571 -6.6682 -1.2429 38.8943
#
#
#
# Elastic Compliance Matrix: (Units=1/GPa)
#
#
# Indices 1 2 3 4 5 6 
#
# 1 0.008241 -0.003241 -0.001884 0.001964 0.001352 0.000562
# 2 -0.003241 0.018998 -0.006857 -0.002498 0.002963 -0.003955
# 3 -0.001884 -0.006857 0.013679 0.003695 -0.001307 0.003602
# 4 0.001964 -0.002498 0.003695 0.035803 0.000864 0.007076
# 5 0.001352 0.002963 -0.001307 0.000864 0.024618 0.000341
# 6 0.000562 -0.003955 0.003602 0.007076 0.000341 0.028021
#
#
# Mechanical properties :
#
#
# Convention : Reuss Voigt Hill
#
# Bulk Modulus (GPa) = 58.98467 65.69681 62.34074
# Shear Modulus (GPa) = 31.45149 36.04229 33.74689
#
# Velocity S-wave (km/s) = 3.87780 4.15117 4.01681
# Velocity P-wave (km/s) = 6.94629 7.37473 7.16372
#
# Compressibility (1/GPa) = 0.01695356
#
# Stress axis : x y z
#
# Youngs Moduli (GPa) = 121.34916 52.63721 73.10339
#
# Poissons Ratio (x) = 0.17061 0.13774
# Poissons Ratio (y) = 0.39333 0.50125
# Poissons Ratio (z) = 0.22864 0.36092
#
# Static dielectric constant tensor:
#      x y z
#    x 4.135840 0.136330 -0.341040 
#    y 0.136330 3.819530 -0.031890 
#    z -0.341040 -0.031890 4.033770 
# 
# 
# High freq. dielectric constant tensor:
#      x y z
#    x 1.833460 0.008960 -0.011770 
#    y 0.008960 1.808580 -0.003250 
#    z -0.011770 -0.003250 1.829210 
# 
# From -- ./inp_files/227625.got.cif
#   From: 2010.06.25/outbox.cif.g09.slc.cpg/sg2_114_cif.got.tgz:227625.got - 2010.06.27 13:26:56.
