data_PCOD8015877
_publ_section_title
;
Structure prediction by ZEFSAII (Michael W. Deem and Ramdas Pophale) SiO2 
 PCOD8015877
Probable space group: P -1
;
_chemical_formula_sum "Si O2"
_cell_formula_units_Z 16
_cell_length_a 9.014789
_cell_length_b 5.652241
_cell_length_c 14.861166
_cell_angle_alpha 114.973779
_cell_angle_beta 86.361518
_cell_angle_gamma 98.454107
_cell_volume 678.972274
_symmetry_space_group_name_H-M "P -1"
_symmetry_group_IT_number 2
_symmetry_cell_setting 'triclinic'
loop_
_space_group_symop_operation_xyz
x,y,z
-x,-y,-z
loop_
_atom_site_type_symbol
_atom_site_label
_atom_site_fract_x
_atom_site_fract_y
_atom_site_fract_z
Si Si1 0.207847 0.046976 0.430881
Si Si2 0.912514 0.845254 0.897307
Si Si3 0.299653 0.538318 0.623821
Si Si4 0.977389 0.644570 0.117083
Si Si5 0.671589 0.639047 0.215317
Si Si6 0.911011 0.222700 0.439157
Si Si7 0.454317 0.044663 0.281861
Si Si8 0.573656 0.840399 0.896617
O O1 0.278481 0.335607 0.509062
O O2 0.038904 0.029183 0.392619
O O3 0.200471 0.854589 0.485356
O O4 0.313692 0.945946 0.334808
O O5 0.735746 0.786742 0.915767
O O6 0.964258 0.550306 0.839377
O O7 0.942723 0.047093 0.842149
O O8 0.000000 0.000000 0.000000
O O9 0.248788 0.405892 0.699628
O O10 0.190602 0.762769 0.643491
O O11 0.475475 0.655672 0.646922
O O12 0.801117 0.659233 0.139134
O O13 0.000000 0.500000 0.000000
O O14 0.597821 0.901141 0.270534
O O15 0.536791 0.423559 0.156173
O O16 0.000000 0.500000 0.500000
O O17 0.403671 0.005609 0.174274
O O18 0.500000 0.000000 0.000000
#
# Coordination Sequence:
#
# PCOD8015877 Si02
#       8
#     2   2   2   2   2   2   2   2
#     4  10  21  43  67 100 136 180 223 284 355 418
#     4  10  23  44  71 103 132 188 237 296 357 429
#     4  10  22  42  68  99 131 183 222 287 347 426
#     4  10  23  43  71  98 138 182 240 294 357 425
#     4  11  26  43  69 102 137 184 238 296 357 430
#     4   9  20  39  68  95 135 177 227 280 342 416
#     4  11  26  42  67 102 138 175 236 287 354 430
#     4  11  26  46  70  98 140 187 235 297 362 428
#
# _framework density 23.565027000000001
#
# number of rings (size 3 to 8) (size 9 to 14) (size 15 to 20)
#    0.000    1.750    0.000    2.625    8.750    7.500 
#    6.750    0.000    0.000    0.000    0.000    0.000 
#    0.000    0.000    0.000    0.000    0.000    0.000 
#
# Total GULP energy -198259.892619 kJ/mol
# GULP energy per Si atom -12391.243289 kJ/mol
# Density = 2.351139 g / cm^3
# Si number density = 23.565027 Si / 1000 Ang^3
#
#
#
# Elastic Constant Matrix: (Units=GPa)
#
#
# Indices 1 2 3 4 5 6 
#
# 1 153.7479 40.5048 62.3794 -13.4287 -20.8644 -1.1947
# 2 40.5048 120.2081 22.6110 -14.8669 -13.0386 -10.1009
# 3 62.3794 22.6110 102.3727 -16.4644 -15.6803 1.5162
# 4 -13.4287 -14.8669 -16.4644 27.8808 4.1123 1.5353
# 5 -20.8644 -13.0386 -15.6803 4.1123 49.2605 -7.8580
# 6 -1.1947 -10.1009 1.5162 1.5353 -7.8580 34.9041
#
#
#
# Elastic Compliance Matrix: (Units=1/GPa)
#
#
# Indices 1 2 3 4 5 6 
#
# 1 0.009288 -0.001938 -0.004907 0.000240 0.001901 0.000388
# 2 -0.001938 0.009942 -0.000149 0.003825 0.001936 0.003085
# 3 -0.004907 -0.000149 0.013968 0.005583 0.001756 -0.000668
# 4 0.000240 0.003825 0.005583 0.041492 -0.000751 -0.001122
# 5 0.001901 0.001936 0.001756 -0.000751 0.023164 0.005797
# 6 0.000388 0.003085 -0.000668 -0.001122 0.005797 0.030939
#
#
# Mechanical properties :
#
#
# Convention : Reuss Voigt Hill
#
# Bulk Modulus (GPa) = 52.05814 69.70212 60.88013
# Shear Modulus (GPa) = 33.51548 39.13132 36.32340
#
# Velocity S-wave (km/s) = 3.77537 4.07943 3.93034
# Velocity P-wave (km/s) = 6.41434 7.19943 6.81820
#
# Compressibility (1/GPa) = 0.01920929
#
# Stress axis : x y z
#
# Youngs Moduli (GPa) = 107.67014 100.58127 71.59190
#
# Poissons Ratio (x) = 0.19493 0.35132
# Poissons Ratio (y) = 0.20867 0.01067
# Poissons Ratio (z) = 0.52836 0.01499
#
# Static dielectric constant tensor:
#      x y z
#    x 4.188360 -0.117240 -0.245800 
#    y -0.117240 4.883440 -0.071100 
#    z -0.245800 -0.071100 3.642260 
# 
# 
# High freq. dielectric constant tensor:
#      x y z
#    x 1.943790 0.005550 0.007520 
#    y 0.005550 1.945490 -0.007200 
#    z 0.007520 -0.007200 1.908410 
# 
# From -- ./inp_files/116993.got.cif
#   From: 2010.06.25/outbox.cif.g09.slc.cpg/sg2_59_cif.got.tgz:116993.got - 2010.06.27 13:26:56.
