data_PCOD8015899
_publ_section_title
;
Structure prediction by ZEFSAII (Michael W. Deem and Ramdas Pophale) SiO2 
 PCOD8015899
Probable space group: P -1
;
_chemical_formula_sum "Si O2"
_cell_formula_units_Z 12
_cell_length_a 9.659606
_cell_length_b 13.103960
_cell_length_c 13.712810
_cell_angle_alpha 33.894822
_cell_angle_beta 145.827779
_cell_angle_gamma 127.431639
_cell_volume 526.147378
_symmetry_space_group_name_H-M "P -1"
_symmetry_group_IT_number 2
_symmetry_cell_setting 'triclinic'
loop_
_space_group_symop_operation_xyz
x,y,z
-x,-y,-z
loop_
_atom_site_type_symbol
_atom_site_label
_atom_site_fract_x
_atom_site_fract_y
_atom_site_fract_z
Si Si1 0.391085 0.570035 0.174317
Si Si2 0.736608 0.385619 0.352473
Si Si3 0.494433 0.176127 0.792443
Si Si4 0.226164 0.347699 0.000821
Si Si5 0.995406 0.015735 0.099174
Si Si6 0.074315 0.356421 0.267571
O O1 0.631933 0.496248 0.303090
O O2 0.483779 0.652863 0.260136
O O3 0.278077 0.393143 0.278775
O O4 0.155330 0.714780 0.863296
O O5 0.857627 0.527488 0.245973
O O6 0.943631 0.190836 0.651657
O O7 0.521653 0.328634 0.208038
O O8 0.225140 0.212506 0.550218
O O9 0.500000 0.000000 0.000000
O O10 0.719329 0.135674 0.877159
O O11 0.055533 0.445438 0.913569
O O12 0.199341 0.134703 0.147874
O O13 0.000000 0.000000 0.000000
#
# Coordination Sequence:
#
# PCOD8015899 Si02
#       6
#     2   2   2   2   2   2
#     4  10  22  42  70  90 122 172 213 264 319 375
#     4  10  23  43  67  95 124 168 218 263 318 383
#     4  12  26  42  64  97 132 167 211 268 319 382
#     4  10  22  43  68  91 128 170 212 267 319 375
#     4  12  26  41  62  99 131 168 209 263 326 381
#     4  10  21  43  67  92 123 170 218 257 321 383
#
# _framework density 22.807299
#
# number of rings (size 3 to 8) (size 9 to 14) (size 15 to 20)
#    0.000    1.333    1.667    3.000    4.667    1.333 
#    3.000    0.000    0.000    0.000    0.000    0.000 
#    0.000    0.000    0.000    0.000    0.000    0.000 
#
# Total GULP energy -148777.138433 kJ/mol
# GULP energy per Si atom -12398.094869 kJ/mol
# Density = 2.275539 g / cm^3
# Si number density = 22.807299 Si / 1000 Ang^3
#
#
#
# Elastic Constant Matrix: (Units=GPa)
#
#
# Indices 1 2 3 4 5 6 
#
# 1 83.3115 13.9541 -4.7904 -3.1748 -9.8940 -22.3613
# 2 13.9541 52.0611 20.2792 3.4086 0.6786 -11.3582
# 3 -4.7904 20.2792 126.0317 12.7442 -13.2800 -9.7860
# 4 -3.1748 3.4086 12.7442 30.1989 0.7478 -5.8009
# 5 -9.8940 0.6786 -13.2800 0.7478 33.4164 -0.7216
# 6 -22.3613 -11.3582 -9.7860 -5.8009 -0.7216 33.0422
#
#
#
# Elastic Compliance Matrix: (Units=1/GPa)
#
#
# Indices 1 2 3 4 5 6 
#
# 1 0.016608 -0.003136 0.002354 0.003174 0.006095 0.011549
# 2 -0.003136 0.022490 -0.003642 -0.000419 -0.002728 0.004397
# 3 0.002354 -0.003642 0.009625 -0.002988 0.004723 0.002770
# 4 0.003174 -0.000419 -0.002988 0.036210 -0.000888 0.007457
# 5 0.006095 -0.002728 0.004723 -0.000888 0.033794 0.005168
# 6 0.011549 0.004397 0.002770 0.007457 0.005168 0.041834
#
#
# Mechanical properties :
#
#
# Convention : Reuss Voigt Hill
#
# Bulk Modulus (GPa) = 25.07820 35.58781 30.33300
# Shear Modulus (GPa) = 27.36728 34.79560 31.08144
#
# Velocity S-wave (km/s) = 3.46777 3.91017 3.69560
# Velocity P-wave (km/s) = 5.20129 6.00196 5.61591
#
# Compressibility (1/GPa) = 0.03987527
#
# Stress axis : x y z
#
# Youngs Moduli (GPa) = 60.21029 44.46515 103.89815
#
# Poissons Ratio (x) = 0.13945 -0.24457
# Poissons Ratio (y) = 0.18883 0.37835
# Poissons Ratio (z) = -0.14173 0.16192
#
# Static dielectric constant tensor:
#      x y z
#    x 4.237950 0.098650 -0.018130 
#    y 0.098650 4.072660 0.384620 
#    z -0.018130 0.384620 4.407490 
# 
# 
# High freq. dielectric constant tensor:
#      x y z
#    x 1.916360 -0.007290 -0.007850 
#    y -0.007290 1.883020 0.019720 
#    z -0.007850 0.019720 1.900790 
# 
# From -- ./inp_files/158646.got.cif
#   From: 2010.06.25/outbox.cif.g09.slc.cpg/sg2_80_cif.got.tgz:158646.got - 2010.06.27 13:26:56.
