data_PCOD8015304
_publ_section_title
;
Structure prediction by ZEFSAII (Michael W. Deem and Ramdas Pophale) SiO2 
 PCOD8015304
Probable space group: P -1
;
_chemical_formula_sum "Si O2"
_cell_formula_units_Z 16
_cell_length_a 28.795989
_cell_length_b 11.770949
_cell_length_c 17.717906
_cell_angle_alpha 28.079237
_cell_angle_beta 160.004766
_cell_angle_gamma 160.052085
_cell_volume 700.577801
_symmetry_space_group_name_H-M "P -1"
_symmetry_group_IT_number 2
_symmetry_cell_setting 'triclinic'
loop_
_space_group_symop_operation_xyz
x,y,z
-x,-y,-z
loop_
_atom_site_type_symbol
_atom_site_label
_atom_site_fract_x
_atom_site_fract_y
_atom_site_fract_z
Si Si1 0.379566 0.182188 0.055837
Si Si2 0.290660 0.673885 0.024356
Si Si3 0.381826 0.890514 0.459914
Si Si4 0.629781 0.412333 0.084799
Si Si5 0.315666 0.309790 0.379982
Si Si6 0.576395 0.528440 0.774929
Si Si7 0.970378 0.697582 0.662251
Si Si8 0.914505 0.427263 0.579418
O O1 0.490435 0.069495 0.302945
O O2 0.500000 0.500000 0.000000
O O3 0.361466 0.307913 0.032739
O O4 0.175879 0.855450 0.906083
O O5 0.139039 0.687655 0.759625
O O6 0.237308 0.478750 0.137469
O O7 0.300759 0.473950 0.094749
O O8 0.483505 0.052429 0.112296
O O9 0.178593 0.503482 0.377656
O O10 0.500000 0.000000 0.500000
O O11 0.330818 0.105071 0.274177
O O12 0.832470 0.535062 0.336050
O O13 0.564181 0.344881 0.937570
O O14 0.500000 0.500000 0.500000
O O15 0.373060 0.345353 0.534974
O O16 0.160385 0.925651 0.348636
O O17 0.874252 0.431294 0.603475
O O18 0.000000 0.000000 0.500000
#
# Coordination Sequence:
#
# PCOD8015304 Si02
#       8
#     2   2   2   2   2   2   2   2
#     4  12  25  45  75 104 139 190 241 298 357 420
#     4  11  25  42  74 101 136 185 235 289 357 418
#     4  12  27  49  71 102 147 190 234 300 368 416
#     4  12  24  45  67 102 145 179 234 291 351 434
#     4  10  21  42  67  95 134 178 224 284 342 409
#     4  11  25  47  68 100 147 184 229 292 359 428
#     4  12  25  43  73 107 138 185 249 292 344 435
#     4  12  24  42  71 105 139 179 240 291 350 421
#
# _framework density 22.838291000000002
#
# number of rings (size 3 to 8) (size 9 to 14) (size 15 to 20)
#    0.000    0.500    6.250    3.000    3.500    1.000 
#    0.000    0.000    0.000    0.000    0.000    0.000 
#    0.000    0.000    0.000    0.000    0.000    0.000 
#
# Total GULP energy -198319.643443 kJ/mol
# GULP energy per Si atom -12394.977715 kJ/mol
# Density = 2.278631 g / cm^3
# Si number density = 22.838291 Si / 1000 Ang^3
#
#
#
# Elastic Constant Matrix: (Units=GPa)
#
#
# Indices 1 2 3 4 5 6 
#
# 1 75.9126 31.0458 36.0690 5.3349 -16.9535 0.0059
# 2 31.0458 90.6770 33.1270 6.5764 -2.9801 2.3659
# 3 36.0690 33.1270 154.8477 8.3713 -10.9720 7.2320
# 4 5.3349 6.5764 8.3713 37.9321 -2.0985 4.6535
# 5 -16.9535 -2.9801 -10.9720 -2.0985 44.7261 0.4147
# 6 0.0059 2.3659 7.2320 4.6535 0.4147 33.7593
#
#
#
# Elastic Compliance Matrix: (Units=1/GPa)
#
#
# Indices 1 2 3 4 5 6 
#
# 1 0.017783 -0.004880 -0.002692 -0.000863 0.005706 0.000965
# 2 -0.004880 0.013391 -0.001744 -0.001285 -0.001442 -0.000369
# 3 -0.002692 -0.001744 0.007617 -0.000788 0.000708 -0.001409
# 4 -0.000863 -0.001285 -0.000788 0.027352 0.000710 -0.003520
# 5 0.005706 -0.001442 0.000708 0.000710 0.024636 -0.000452
# 6 0.000965 -0.000369 -0.001409 -0.003520 -0.000452 0.030440
#
#
# Mechanical properties :
#
#
# Convention : Reuss Voigt Hill
#
# Bulk Modulus (GPa) = 49.60520 57.99120 53.79820
# Shear Modulus (GPa) = 34.11335 38.02988 36.07162
#
# Velocity S-wave (km/s) = 3.86902 4.08509 3.97852
# Velocity P-wave (km/s) = 6.45960 6.90636 6.68671
#
# Compressibility (1/GPa) = 0.02015918
#
# Stress axis : x y z
#
# Youngs Moduli (GPa) = 56.23414 74.67505 131.29100
#
# Poissons Ratio (x) = 0.36440 0.35348
# Poissons Ratio (y) = 0.27442 0.22892
# Poissons Ratio (z) = 0.15140 0.13021
#
# Static dielectric constant tensor:
#      x y z
#    x 4.906540 -0.287730 -0.044860 
#    y -0.287730 4.114150 -0.161870 
#    z -0.044860 -0.161870 4.697240 
# 
# 
# High freq. dielectric constant tensor:
#      x y z
#    x 1.879340 -0.015750 -0.007170 
#    y -0.015750 1.898860 -0.009340 
#    z -0.007170 -0.009340 1.919580 
# 
# From -- ./inp_files/519072.got.cif
#   From: 2010.06.25/outbox.cif.g09.slc.cpg/sg2_260_cif.got.tgz:519072.got - 2010.06.27 13:26:56.
