data_PCOD8015505
_publ_section_title
;
Structure prediction by ZEFSAII (Michael W. Deem and Ramdas Pophale) SiO2 
 PCOD8015505
Probable space group: P -1
;
_chemical_formula_sum "Si O2"
_cell_formula_units_Z 16
_cell_length_a 23.013129
_cell_length_b 5.139178
_cell_length_c 13.346232
_cell_angle_alpha 90.465287
_cell_angle_beta 23.287553
_cell_angle_gamma 88.768961
_cell_volume 622.334610
_symmetry_space_group_name_H-M "P -1"
_symmetry_group_IT_number 2
_symmetry_cell_setting 'triclinic'
loop_
_space_group_symop_operation_xyz
x,y,z
-x,-y,-z
loop_
_atom_site_type_symbol
_atom_site_label
_atom_site_fract_x
_atom_site_fract_y
_atom_site_fract_z
Si Si1 0.224296 0.230444 0.023621
Si Si2 0.728360 0.512978 0.574873
Si Si3 0.500062 0.529935 0.382766
Si Si4 0.332125 0.064066 0.642633
Si Si5 0.086981 0.558546 0.544947
Si Si6 0.898420 0.766327 0.148177
Si Si7 0.781408 0.962911 0.760367
Si Si8 0.473813 0.197646 0.953009
O O1 0.180611 0.040080 0.181307
O O2 0.086788 0.394108 0.194641
O O3 0.332408 0.420286 0.911447
O O4 0.312367 0.073296 0.794881
O O5 0.880473 0.395307 0.386588
O O6 0.768288 0.748733 0.438637
O O7 0.628928 0.311433 0.672125
O O8 0.637813 0.581077 0.820627
O O9 0.500000 0.500000 0.500000
O O10 0.453315 0.257376 0.411192
O O11 0.384441 0.767997 0.530164
O O12 0.179195 0.172855 0.834759
O O13 0.121720 0.260550 0.454048
O O14 0.177176 0.755217 0.338733
O O15 0.000000 0.500000 0.000000
O O16 0.000000 0.000000 0.000000
O O17 0.606752 0.930675 0.013552
O O18 0.500000 0.000000 0.000000
#
# Coordination Sequence:
#
# PCOD8015505 Si02
#       8
#     2   2   2   2   2   2   2   2
#     4  11  24  42  69  93 139 184 216 284 347 403
#     4  10  24  43  69  98 139 178 235 289 351 411
#     4  10  23  43  65  97 128 178 234 280 334 408
#     4  11  25  45  68 100 138 176 238 284 342 415
#     4  11  24  43  63 100 134 177 223 284 339 425
#     4  12  28  47  72 107 142 189 238 287 359 427
#     4  11  25  40  65 101 134 170 233 271 349 411
#     4  10  21  42  70 100 132 182 230 294 347 411
#
# _framework density 25.709644000000001
#
# number of rings (size 3 to 8) (size 9 to 14) (size 15 to 20)
#    0.000    1.250    1.250    3.750    3.500   10.000 
#    0.000    0.000    0.000    0.000    0.000    0.000 
#    0.000    0.000    0.000    0.000    0.000    0.000 
#
# Total GULP energy -198279.690062 kJ/mol
# GULP energy per Si atom -12392.480629 kJ/mol
# Density = 2.565113 g / cm^3
# Si number density = 25.709644 Si / 1000 Ang^3
#
#
#
# Elastic Constant Matrix: (Units=GPa)
#
#
# Indices 1 2 3 4 5 6 
#
# 1 72.3252 14.9844 26.3354 7.1946 -9.9903 -14.4826
# 2 14.9844 122.8321 24.6822 -10.0703 -4.9754 -14.9699
# 3 26.3354 24.6822 94.3786 -17.3405 -22.2493 -3.6992
# 4 7.1946 -10.0703 -17.3405 39.5642 -12.6483 -7.6781
# 5 -9.9903 -4.9754 -22.2493 -12.6483 41.8061 -0.2066
# 6 -14.4826 -14.9699 -3.6992 -7.6781 -0.2066 33.0736
#
#
#
# Elastic Compliance Matrix: (Units=1/GPa)
#
#
# Indices 1 2 3 4 5 6 
#
# 1 0.017510 -0.000762 -0.005361 -0.004681 -0.000148 0.005635
# 2 -0.000762 0.009344 -0.001112 0.003354 0.001375 0.004558
# 3 -0.005361 -0.001112 0.017527 0.012524 0.011714 0.002090
# 4 -0.004681 0.003354 0.012524 0.040289 0.018186 0.010336
# 5 -0.000148 0.001375 0.011714 0.018186 0.035816 0.006314
# 6 0.005635 0.004558 0.002090 0.010336 0.006314 0.037439
#
#
# Mechanical properties :
#
#
# Convention : Reuss Voigt Hill
#
# Bulk Modulus (GPa) = 33.43200 46.83779 40.13490
# Shear Modulus (GPa) = 27.41759 37.79102 32.60431
#
# Velocity S-wave (km/s) = 3.26917 3.83811 3.56501
# Velocity P-wave (km/s) = 5.22321 6.15621 5.70880
#
# Compressibility (1/GPa) = 0.02991146
#
# Stress axis : x y z
#
# Youngs Moduli (GPa) = 57.11029 107.02294 57.05544
#
# Poissons Ratio (x) = 0.08153 0.30586
# Poissons Ratio (y) = 0.04351 0.06344
# Poissons Ratio (z) = 0.30616 0.11900
#
# Static dielectric constant tensor:
#      x y z
#    x 4.831930 -0.003590 -0.526750 
#    y -0.003590 4.615130 -0.894920 
#    z -0.526750 -0.894920 4.787240 
# 
# 
# High freq. dielectric constant tensor:
#      x y z
#    x 2.034450 -0.020360 -0.021080 
#    y -0.020360 2.021090 -0.010130 
#    z -0.021080 -0.010130 2.030890 
# 
# From -- ./inp_files/542131.got.cif
#   From: 2010.06.25/outbox.cif.g09.slc.cpg/sg2_272_cif.got.tgz:542131.got - 2010.06.27 13:26:56.
