data_PCOD8015571
_publ_section_title
;
Structure prediction by ZEFSAII (Michael W. Deem and Ramdas Pophale) SiO2 
 PCOD8015571
Probable space group: P -1
;
_chemical_formula_sum "Si O2"
_cell_formula_units_Z 14
_cell_length_a 11.095923
_cell_length_b 12.515850
_cell_length_c 11.143819
_cell_angle_alpha 131.147853
_cell_angle_beta 42.061935
_cell_angle_gamma 142.956005
_cell_volume 616.328396
_symmetry_space_group_name_H-M "P -1"
_symmetry_group_IT_number 2
_symmetry_cell_setting 'triclinic'
loop_
_space_group_symop_operation_xyz
x,y,z
-x,-y,-z
loop_
_atom_site_type_symbol
_atom_site_label
_atom_site_fract_x
_atom_site_fract_y
_atom_site_fract_z
Si Si1 0.926144 0.099223 0.552539
Si Si2 0.041215 0.464284 0.810924
Si Si3 0.668184 0.459420 0.952057
Si Si4 0.585176 0.723745 0.226668
Si Si5 0.851435 0.089744 0.162024
Si Si6 0.828952 0.828397 0.824873
Si Si7 0.430036 0.783197 0.619625
O O1 0.007628 0.278902 0.694615
O O2 0.043579 0.151498 0.375044
O O3 0.652361 0.967154 0.645706
O O4 0.000000 0.000000 0.500000
O O5 0.297638 0.632444 0.709080
O O6 0.000000 0.500000 0.000000
O O7 0.866606 0.450613 0.837551
O O8 0.746662 0.660526 0.065447
O O9 0.441562 0.323230 0.099335
O O10 0.622716 0.409037 0.808018
O O11 0.492971 0.700210 0.410779
O O12 0.709973 0.925226 0.239498
O O13 0.733092 0.180066 0.292705
O O14 0.086490 0.227140 0.164742
O O15 0.882478 0.018657 0.961651
#
# Coordination Sequence:
#
# PCOD8015571 Si02
#       7
#     2   2   2   2   2   2   2
#     4  12  29  49  76 103 141 195 249 296 350 428
#     4  12  32  50  71 103 146 195 248 298 349 425
#     4  10  24  43  70 104 148 184 233 290 362 429
#     4  10  21  42  71 108 142 183 230 293 365 433
#     4  10  22  39  72 110 143 181 222 292 364 432
#     4  10  22  42  71 104 142 182 234 284 364 420
#     4  12  27  45  77 104 148 184 240 303 361 423
#
# _framework density 22.715163
#
# number of rings (size 3 to 8) (size 9 to 14) (size 15 to 20)
#    0.000    1.143    1.429    3.000   16.000    1.714 
#    0.000    0.000    0.000    0.000    0.000    0.000 
#    0.000    0.000    0.000    0.000    0.000    0.000 
#
# Total GULP energy -173588.963839 kJ/mol
# GULP energy per Si atom -12399.211703 kJ/mol
# Density = 2.266346 g / cm^3
# Si number density = 22.715163 Si / 1000 Ang^3
#
#
#
# Elastic Constant Matrix: (Units=GPa)
#
#
# Indices 1 2 3 4 5 6 
#
# 1 64.2077 13.7991 21.6433 12.0875 -11.9996 -12.4991
# 2 13.7991 150.4510 44.7529 -4.1747 10.2917 -13.9444
# 3 21.6433 44.7529 137.9558 10.3929 21.1342 -18.2551
# 4 12.0875 -4.1747 10.3929 32.1749 -4.1557 -5.9962
# 5 -11.9996 10.2917 21.1342 -4.1557 41.6617 0.4447
# 6 -12.4991 -13.9444 -18.2551 -5.9962 0.4447 31.1509
#
#
#
# Elastic Compliance Matrix: (Units=1/GPa)
#
#
# Indices 1 2 3 4 5 6 
#
# 1 0.019919 -0.001160 -0.002800 -0.004947 0.006900 0.004781
# 2 -0.001160 0.007705 -0.002048 0.002391 -0.000984 0.002258
# 3 -0.002800 -0.002048 0.009833 -0.002491 -0.005573 0.003322
# 4 -0.004947 0.002391 -0.002491 0.035218 0.002714 0.004366
# 5 0.006900 -0.000984 -0.005573 0.002714 0.029340 -0.000834
# 6 0.004781 0.002258 0.003322 0.004366 -0.000834 0.037830
#
#
# Mechanical properties :
#
#
# Convention : Reuss Voigt Hill
#
# Bulk Modulus (GPa) = 39.30698 57.00057 48.15377
# Shear Modulus (GPa) = 31.18314 39.15880 35.17097
#
# Velocity S-wave (km/s) = 3.70914 4.15650 3.93917
# Velocity P-wave (km/s) = 5.97373 6.94143 6.47568
#
# Compressibility (1/GPa) = 0.02544077
#
# Stress axis : x y z
#
# Youngs Moduli (GPa) = 50.20253 129.78180 101.69363
#
# Poissons Ratio (x) = 0.15056 0.28478
# Poissons Ratio (y) = 0.05824 0.20829
# Poissons Ratio (z) = 0.14059 0.26582
#
# Static dielectric constant tensor:
#      x y z
#    x 3.980160 0.002850 -0.085440 
#    y 0.002850 4.565170 -0.006730 
#    z -0.085440 -0.006730 4.205980 
# 
# 
# High freq. dielectric constant tensor:
#      x y z
#    x 1.879070 -0.001990 -0.002800 
#    y -0.001990 1.922960 -0.004310 
#    z -0.002800 -0.004310 1.900070 
# 
# From -- ./inp_files/431923.got.cif
#   From: 2010.06.25/outbox.cif.g09.slc.cpg/sg2_216_cif.got.tgz:431923.got - 2010.06.27 13:26:56.
