data_PCOD8015653
_publ_section_title
;
Structure prediction by ZEFSAII (Michael W. Deem and Ramdas Pophale) SiO2 
 PCOD8015653
Probable space group: P -1
;
_chemical_formula_sum "Si O2"
_cell_formula_units_Z 12
_cell_length_a 12.406201
_cell_length_b 10.147009
_cell_length_c 9.195775
_cell_angle_alpha 127.873209
_cell_angle_beta 52.185056
_cell_angle_gamma 148.703258
_cell_volume 463.492312
_symmetry_space_group_name_H-M "P -1"
_symmetry_group_IT_number 2
_symmetry_cell_setting 'triclinic'
loop_
_space_group_symop_operation_xyz
x,y,z
-x,-y,-z
loop_
_atom_site_type_symbol
_atom_site_label
_atom_site_fract_x
_atom_site_fract_y
_atom_site_fract_z
Si Si1 0.285617 0.401761 0.709461
Si Si2 0.154841 0.832383 0.043649
Si Si3 0.766486 0.410754 0.355353
Si Si4 0.214763 0.958175 0.395145
Si Si5 0.750884 0.287140 0.585976
Si Si6 0.529572 0.365450 0.979050
O O1 0.384048 0.613872 0.641084
O O2 0.052655 0.249003 0.835187
O O3 0.718987 0.787603 0.477739
O O4 0.425401 0.535553 0.827481
O O5 0.272967 0.941456 0.176055
O O6 0.114447 0.607737 0.864525
O O7 0.310497 0.058489 0.948086
O O8 0.646779 0.210192 0.456643
O O9 0.957673 0.705543 0.459078
O O10 0.332874 0.952400 0.415209
O O11 0.713957 0.420575 0.799586
O O12 0.000000 0.500000 0.500000
O O13 0.500000 0.500000 0.000000
#
# Coordination Sequence:
#
# PCOD8015653 Si02
#       6
#     2   2   2   2   2   2
#     4  11  24  46  74 102 145 190 230 292 355 418
#     4  11  24  45  74 102 144 188 236 291 349 422
#     4  10  21  42  74 103 137 188 238 278 351 428
#     4  10  22  42  76 106 137 191 234 282 360 422
#     4  10  23  45  71 100 145 183 229 287 349 417
#     4  12  30  46  70 110 142 183 246 291 351 420
#
# _framework density 25.890397
#
# number of rings (size 3 to 8) (size 9 to 14) (size 15 to 20)
#    0.000    1.333    0.000    7.000    9.333    4.667 
#    0.000    0.000    0.000    0.000    0.000    0.000 
#    0.000    0.000    0.000    0.000    0.000    0.000 
#
# Total GULP energy -148826.360306 kJ/mol
# GULP energy per Si atom -12402.196692 kJ/mol
# Density = 2.583147 g / cm^3
# Si number density = 25.890397 Si / 1000 Ang^3
#
#
#
# Elastic Constant Matrix: (Units=GPa)
#
#
# Indices 1 2 3 4 5 6 
#
# 1 195.8567 58.9767 59.9577 4.5154 18.6031 -40.2414
# 2 58.9767 68.2581 41.1305 -6.5319 2.7356 -36.6881
# 3 59.9577 41.1305 142.4593 7.8553 -0.5978 -25.6924
# 4 4.5154 -6.5319 7.8553 44.2529 -3.2803 2.0151
# 5 18.6031 2.7356 -0.5978 -3.2803 59.2386 -5.6772
# 6 -40.2414 -36.6881 -25.6924 2.0151 -5.6772 50.5619
#
#
#
# Elastic Compliance Matrix: (Units=1/GPa)
#
#
# Indices 1 2 3 4 5 6 
#
# 1 0.007571 -0.004899 -0.001416 -0.001471 -0.002096 0.001575
# 2 -0.004899 0.030417 -0.004090 0.005125 0.001920 0.016105
# 3 -0.001416 -0.004090 0.009029 -0.002042 0.000674 0.000650
# 4 -0.001471 0.005125 -0.002042 0.023952 0.001602 0.000735
# 5 -0.002096 0.001920 0.000674 0.001602 0.017737 0.001995
# 6 0.001575 0.016105 0.000650 0.000735 0.001995 0.033242
#
#
# Mechanical properties :
#
#
# Convention : Reuss Voigt Hill
#
# Bulk Modulus (GPa) = 38.15616 80.74488 59.45052
# Shear Modulus (GPa) = 33.00469 47.24464 40.12466
#
# Velocity S-wave (km/s) = 3.57429 4.27640 3.94101
# Velocity P-wave (km/s) = 5.63947 7.45911 6.61218
#
# Compressibility (1/GPa) = 0.02620809
#
# Stress axis : x y z
#
# Youngs Moduli (GPa) = 132.08542 32.87592 110.75404
#
# Poissons Ratio (x) = 0.16105 0.15679
# Poissons Ratio (y) = 0.64704 0.45301
# Poissons Ratio (z) = 0.18699 0.13447
#
# Static dielectric constant tensor:
#      x y z
#    x 5.170640 -0.293890 0.456330 
#    y -0.293890 4.932080 -0.268490 
#    z 0.456330 -0.268490 4.852840 
# 
# 
# High freq. dielectric constant tensor:
#      x y z
#    x 2.054410 -0.004010 0.006870 
#    y -0.004010 2.061990 -0.014560 
#    z 0.006870 -0.014560 2.038860 
# 
# From -- ./inp_files/301631.got.cif
#   From: 2010.06.25/outbox.cif.g09.slc.cpg/sg2_151_cif.got.tgz:301631.got - 2010.06.27 13:26:56.
