data_PCOD8015239
_publ_section_title
;
Structure prediction by ZEFSAII (Michael W. Deem and Ramdas Pophale) SiO2 
 PCOD8015239
Probable space group: P -1
;
_chemical_formula_sum "Si O2"
_cell_formula_units_Z 16
_cell_length_a 8.636925
_cell_length_b 15.573155
_cell_length_c 11.887305
_cell_angle_alpha 122.286563
_cell_angle_beta 118.850458
_cell_angle_gamma 110.057470
_cell_volume 692.217371
_symmetry_space_group_name_H-M "P -1"
_symmetry_group_IT_number 2
_symmetry_cell_setting 'triclinic'
loop_
_space_group_symop_operation_xyz
x,y,z
-x,-y,-z
loop_
_atom_site_type_symbol
_atom_site_label
_atom_site_fract_x
_atom_site_fract_y
_atom_site_fract_z
Si Si1 0.135051 0.835671 0.500448
Si Si2 0.278325 0.600764 0.071663
Si Si3 0.295433 0.329396 0.585797
Si Si4 0.388160 0.336502 0.380148
Si Si5 0.988910 0.110809 0.879340
Si Si6 0.360867 0.730239 0.463789
Si Si7 0.363958 0.868340 0.261842
Si Si8 0.358512 0.328094 0.952869
O O1 0.283559 0.795993 0.553183
O O2 0.014097 0.831855 0.568060
O O3 0.854451 0.697163 0.215381
O O4 0.389376 0.029327 0.678403
O O5 0.446550 0.631250 0.260391
O O6 0.284786 0.723294 0.178162
O O7 0.439808 0.646638 0.042210
O O8 0.922177 0.408462 0.818406
O O9 0.200790 0.269346 0.381804
O O10 0.417539 0.499337 0.773050
O O11 0.500000 0.500000 0.500000
O O12 0.642498 0.370760 0.527032
O O13 0.199140 0.189581 0.116045
O O14 0.926742 0.203599 0.931752
O O15 0.157700 0.167386 0.858264
O O16 0.687068 0.900385 0.634843
O O17 0.500000 0.000000 0.500000
#
# Coordination Sequence:
#
# PCOD8015239 Si02
#       8
#     2   2   2   2   2   2   2   2
#     4  10  21  42  67 102 135 173 214 290 337 395
#     4  11  24  42  72 106 130 180 219 278 355 394
#     4  11  23  41  71 100 143 173 227 276 341 407
#     4  12  26  43  65  97 137 185 229 274 336 405
#     4  11  25  45  66  98 140 179 226 279 330 397
#     4  11  24  43  69  96 131 176 237 274 330 400
#     4  11  24  42  70 106 142 164 224 287 338 403
#     4  11  20  43  70  99 144 171 220 281 340 404
#
# _framework density 23.114125999999999
#
# number of rings (size 3 to 8) (size 9 to 14) (size 15 to 20)
#    0.000    1.000    5.000    1.875    3.500    3.500 
#    0.000    6.250    0.000    0.000    0.000    0.000 
#    0.000    0.000    0.000    0.000    0.000    0.000 
#
# Total GULP energy -198305.632679 kJ/mol
# GULP energy per Si atom -12394.102042 kJ/mol
# Density = 2.306152 g / cm^3
# Si number density = 23.114126 Si / 1000 Ang^3
#
#
#
# Elastic Constant Matrix: (Units=GPa)
#
#
# Indices 1 2 3 4 5 6 
#
# 1 98.7053 66.4297 33.7608 4.2444 9.6918 16.9881
# 2 66.4297 140.1791 45.8285 -1.1946 5.9872 10.7636
# 3 33.7608 45.8285 79.8714 -0.0900 1.8088 11.4340
# 4 4.2444 -1.1946 -0.0900 40.1797 4.4491 -3.8316
# 5 9.6918 5.9872 1.8088 4.4491 32.1043 5.1705
# 6 16.9881 10.7636 11.4340 -3.8316 5.1705 54.7834
#
#
#
# Elastic Compliance Matrix: (Units=1/GPa)
#
#
# Indices 1 2 3 4 5 6 
#
# 1 0.016319 -0.006527 -0.002649 -0.001909 -0.002797 -0.003095
# 2 -0.006527 0.011473 -0.003916 0.001111 -0.000213 0.000685
# 3 -0.002649 -0.003916 0.016133 -0.000082 0.000934 -0.001870
# 4 -0.001909 0.001111 -0.000082 0.025763 -0.003604 0.002533
# 5 -0.002797 -0.000213 0.000934 -0.003604 0.032905 -0.002643
# 6 -0.003095 0.000685 -0.001870 0.002533 -0.002643 0.019896
#
#
# Mechanical properties :
#
#
# Convention : Reuss Voigt Hill
#
# Bulk Modulus (GPa) = 56.36333 67.86597 62.11465
# Shear Modulus (GPa) = 32.34426 36.92926 34.63676
#
# Velocity S-wave (km/s) = 3.74482 4.00145 3.87526
# Velocity P-wave (km/s) = 6.56780 7.12557 6.85236
#
# Compressibility (1/GPa) = 0.01774203
#
# Stress axis : x y z
#
# Youngs Moduli (GPa) = 61.27800 87.16162 61.98384
#
# Poissons Ratio (x) = 0.56888 0.16418
# Poissons Ratio (y) = 0.39994 0.24274
# Poissons Ratio (z) = 0.16231 0.34134
#
# Static dielectric constant tensor:
#      x y z
#    x 4.449450 -0.064710 0.251940 
#    y -0.064710 4.597980 -0.067440 
#    z 0.251940 -0.067440 4.093310 
# 
# 
# High freq. dielectric constant tensor:
#      x y z
#    x 1.925010 0.005610 0.000930 
#    y 0.005610 1.917730 0.013870 
#    z 0.000930 0.013870 1.891670 
# 
# From -- ./inp_files/399476.got.cif
#   From: 2010.06.25/outbox.cif.g09.slc.cpg/sg2_200_cif.got.tgz:399476.got - 2010.06.27 13:26:56.
