data_PCOD8015919
_publ_section_title
;
Structure prediction by ZEFSAII (Michael W. Deem and Ramdas Pophale) SiO2 
 PCOD8015919
Probable space group: P -1
;
_chemical_formula_sum "Si O2"
_cell_formula_units_Z 14
_cell_length_a 11.546358
_cell_length_b 12.435798
_cell_length_c 12.050962
_cell_angle_alpha 109.066482
_cell_angle_beta 96.920564
_cell_angle_gamma 144.899633
_cell_volume 658.913076
_symmetry_space_group_name_H-M "P -1"
_symmetry_group_IT_number 2
_symmetry_cell_setting 'triclinic'
loop_
_space_group_symop_operation_xyz
x,y,z
-x,-y,-z
loop_
_atom_site_type_symbol
_atom_site_label
_atom_site_fract_x
_atom_site_fract_y
_atom_site_fract_z
Si Si1 0.496568 0.265089 0.163639
Si Si2 0.964765 0.287518 0.974590
Si Si3 0.741241 0.883896 0.370974
Si Si4 0.384651 0.410204 0.580816
Si Si5 0.114616 0.746140 0.418914
Si Si6 0.423205 0.564921 0.011566
Si Si7 0.347400 0.831669 0.261147
O O1 0.482570 0.354930 0.279799
O O2 0.770609 0.430744 0.284989
O O3 0.208439 0.933724 0.025233
O O4 0.498942 0.314183 0.056620
O O5 0.730175 0.163063 0.852263
O O6 0.090808 0.304609 0.909054
O O7 0.220740 0.590864 0.158565
O O8 0.533465 0.617620 0.332246
O O9 0.590782 0.777729 0.201242
O O10 0.802760 0.047589 0.509443
O O11 0.040310 0.095111 0.437052
O O12 0.500000 0.500000 0.500000
O O13 0.198729 0.758316 0.322201
O O14 0.304543 0.862621 0.581416
O O15 0.500000 0.500000 0.000000
#
# Coordination Sequence:
#
# PCOD8015919 Si02
#       7
#     2   2   2   2   2   2   2
#     4  11  25  41  67 101 131 172 226 269 325 396
#     4  11  25  43  67  98 130 177 219 275 329 386
#     4  10  22  41  64  91 134 176 210 269 334 388
#     4  10  23  39  64  95 129 172 221 271 323 392
#     4  10  21  43  67  95 125 174 219 274 331 382
#     4  12  24  44  65  94 141 175 213 268 331 396
#     4  10  22  44  70  91 132 175 220 273 335 384
#
# _framework density 21.247112000000001
#
# number of rings (size 3 to 8) (size 9 to 14) (size 15 to 20)
#    0.000    1.429    4.286    0.000    4.000    2.857 
#    0.000    1.429    0.000    0.000    0.000    0.000 
#    0.000    0.000    0.000    0.000    0.000    0.000 
#
# Total GULP energy -173481.439407 kJ/mol
# GULP energy per Si atom -12391.531386 kJ/mol
# Density = 2.119875 g / cm^3
# Si number density = 21.247112 Si / 1000 Ang^3
#
#
#
# Elastic Constant Matrix: (Units=GPa)
#
#
# Indices 1 2 3 4 5 6 
#
# 1 122.3682 55.3242 30.5674 1.2894 -4.5628 12.4725
# 2 55.3242 148.5526 54.4457 -7.9798 -2.8097 3.8159
# 3 30.5674 54.4457 87.4622 -17.9010 2.4170 -2.1639
# 4 1.2894 -7.9798 -17.9010 26.9338 4.3976 -8.7305
# 5 -4.5628 -2.8097 2.4170 4.3976 25.7594 -6.7075
# 6 12.4725 3.8159 -2.1639 -8.7305 -6.7075 15.6620
#
#
#
# Elastic Compliance Matrix: (Units=1/GPa)
#
#
# Indices 1 2 3 4 5 6 
#
# 1 0.012353 -0.002966 -0.004801 -0.009558 0.000015 -0.015099
# 2 -0.002966 0.009759 -0.005269 -0.000895 0.000971 -0.000827
# 3 -0.004801 -0.005269 0.020622 0.018311 -0.001977 0.017316
# 4 -0.009558 -0.000895 0.018311 0.064586 -0.002772 0.045175
# 5 0.000015 0.000971 -0.001977 -0.002772 0.043951 0.016756
# 6 -0.015099 -0.000827 0.017316 0.045175 0.016756 0.110825
#
#
# Mechanical properties :
#
#
# Convention : Reuss Voigt Hill
#
# Bulk Modulus (GPa) = 60.01726 71.00640 65.51183
# Shear Modulus (GPa) = 17.02296 28.20742 22.61519
#
# Velocity S-wave (km/s) = 2.83360 3.64756 3.26604
# Velocity P-wave (km/s) = 6.24614 7.15762 6.71736
#
# Compressibility (1/GPa) = 0.01666187
#
# Stress axis : x y z
#
# Youngs Moduli (GPa) = 80.95481 102.47145 48.49196
#
# Poissons Ratio (x) = 0.30394 0.23281
# Poissons Ratio (y) = 0.24012 0.25549
# Poissons Ratio (z) = 0.38866 0.53990
#
# Static dielectric constant tensor:
#      x y z
#    x 4.398460 -0.041160 0.230680 
#    y -0.041160 3.536540 -0.038740 
#    z 0.230680 -0.038740 4.068480 
# 
# 
# High freq. dielectric constant tensor:
#      x y z
#    x 1.854170 0.005350 0.004670 
#    y 0.005350 1.805080 -0.007170 
#    z 0.004670 -0.007170 1.840870 
# 
# From -- ./inp_files/68213.got.cif
#   From: 2010.06.25/outbox.cif.g09.slc.cpg/sg2_35_cif.got.tgz:68213.got - 2010.06.27 13:26:56.
