data_PCOD8015308
_publ_section_title
;
Structure prediction by ZEFSAII (Michael W. Deem and Ramdas Pophale) SiO2 
 PCOD8015308
Probable space group: P -1
;
_chemical_formula_sum "Si O2"
_cell_formula_units_Z 16
_cell_length_a 9.858295
_cell_length_b 13.146719
_cell_length_c 19.949469
_cell_angle_alpha 40.928447
_cell_angle_beta 26.989648
_cell_angle_gamma 50.816200
_cell_volume 761.207207
_symmetry_space_group_name_H-M "P -1"
_symmetry_group_IT_number 2
_symmetry_cell_setting 'triclinic'
loop_
_space_group_symop_operation_xyz
x,y,z
-x,-y,-z
loop_
_atom_site_type_symbol
_atom_site_label
_atom_site_fract_x
_atom_site_fract_y
_atom_site_fract_z
Si Si1 0.719464 0.590277 0.070769
Si Si2 0.693046 0.132833 0.689285
Si Si3 0.622853 0.117621 0.573528
Si Si4 0.550720 0.240696 0.158564
Si Si5 0.827751 0.593032 0.655541
Si Si6 0.765358 0.678666 0.149906
Si Si7 0.223738 0.197520 0.188322
Si Si8 0.632104 0.576033 0.472357
O O1 0.409657 0.468979 0.266773
O O2 0.726579 0.705844 0.073701
O O3 0.742731 0.674345 0.947431
O O4 0.000000 0.500000 0.000000
O O5 0.760318 0.127244 0.582873
O O6 0.363909 0.180783 0.824175
O O7 0.945521 0.261664 0.547330
O O8 0.713012 0.963089 0.795335
O O9 0.374344 0.236554 0.616215
O O10 0.888949 0.174832 0.376692
O O11 0.483051 0.938101 0.709145
O O12 0.339347 0.347496 0.236259
O O13 0.473095 0.245646 0.111774
O O14 0.891816 0.320206 0.979406
O O15 0.021167 0.454379 0.659566
O O16 0.578705 0.509133 0.333782
O O17 0.500000 0.500000 0.500000
#
# Coordination Sequence:
#
# PCOD8015308 Si02
#       8
#     2   2   2   2   2   2   2   2
#     4  12  27  43  62  95 139 174 223 267 326 392
#     4  10  21  42  67  96 133 164 220 275 332 386
#     4  11  20  40  68 103 131 165 219 280 328 384
#     4  11  22  41  72  96 129 171 224 271 333 379
#     4  11  22  42  67  94 131 176 218 266 333 384
#     4  11  25  43  64  97 141 171 211 281 326 387
#     4  11  23  40  70  98 128 172 221 274 326 399
#     4  11  22  40  68 100 134 164 217 273 326 384
#
# _framework density 21.019245000000002
#
# number of rings (size 3 to 8) (size 9 to 14) (size 15 to 20)
#    0.000    1.000    6.250    1.500    1.750    6.000 
#    0.000    3.750    0.000    0.000    0.000    0.000 
#    0.000    0.000    0.000    0.000    0.000    0.000 
#
# Total GULP energy -198415.018496 kJ/mol
# GULP energy per Si atom -12400.938656 kJ/mol
# Density = 2.097140 g / cm^3
# Si number density = 21.019245 Si / 1000 Ang^3
#
#
#
# Elastic Constant Matrix: (Units=GPa)
#
#
# Indices 1 2 3 4 5 6 
#
# 1 113.8658 40.8649 48.0281 -2.6447 -12.5844 -4.0126
# 2 40.8649 114.1287 37.0332 -1.5338 -2.8813 -27.6106
# 3 48.0281 37.0332 91.8152 7.4035 -12.1277 -6.7915
# 4 -2.6447 -1.5338 7.4035 28.6663 -4.3704 0.6812
# 5 -12.5844 -2.8813 -12.1277 -4.3704 36.3420 9.4266
# 6 -4.0126 -27.6106 -6.7915 0.6812 9.4266 29.7238
#
#
#
# Elastic Compliance Matrix: (Units=1/GPa)
#
#
# Indices 1 2 3 4 5 6 
#
# 1 0.012639 -0.003739 -0.005152 0.002978 0.003814 -0.004222
# 2 -0.003739 0.014413 -0.003510 0.000275 -0.004819 0.013603
# 3 -0.005152 -0.003510 0.015644 -0.004222 0.002969 -0.001226
# 4 0.002978 0.000275 -0.004222 0.037059 0.004795 -0.002677
# 5 0.003814 -0.004819 0.002969 0.004795 0.033672 -0.014072
# 6 -0.004222 0.013603 -0.001226 -0.002677 -0.014072 0.049953
#
#
# Mechanical properties :
#
#
# Convention : Reuss Voigt Hill
#
# Bulk Modulus (GPa) = 55.88428 63.51802 59.70115
# Shear Modulus (GPa) = 25.75371 31.87198 28.81284
#
# Velocity S-wave (km/s) = 3.50415 3.89822 3.70643
# Velocity P-wave (km/s) = 6.55873 7.10958 6.83970
#
# Compressibility (1/GPa) = 0.01789412
#
# Stress axis : x y z
#
# Youngs Moduli (GPa) = 79.11906 69.38321 63.92213
#
# Poissons Ratio (x) = 0.25941 0.32933
# Poissons Ratio (y) = 0.29582 0.22436
# Poissons Ratio (z) = 0.40763 0.24353
#
# Static dielectric constant tensor:
#      x y z
#    x 3.827210 0.002230 0.020220 
#    y 0.002230 4.240940 -0.029860 
#    z 0.020220 -0.029860 3.899490 
# 
# 
# High freq. dielectric constant tensor:
#      x y z
#    x 1.799080 -0.005850 -0.007820 
#    y -0.005850 1.839870 0.009670 
#    z -0.007820 0.009670 1.821680 
# 
# From -- ./inp_files/209221.got.cif
#   From: 2010.06.25/outbox.cif.g09.slc.cpg/sg2_105_cif.got.tgz:209221.got - 2010.06.27 13:26:56.
