data_PCOD8015183
_publ_section_title
;
Structure prediction by ZEFSAII (Michael W. Deem and Ramdas Pophale) SiO2 
 PCOD8015183
Probable space group: P -1
;
_chemical_formula_sum "Si O2"
_cell_formula_units_Z 14
_cell_length_a 9.129641
_cell_length_b 21.600941
_cell_length_c 5.564272
_cell_angle_alpha 126.519485
_cell_angle_beta 54.126236
_cell_angle_gamma 127.919590
_cell_volume 652.339447
_symmetry_space_group_name_H-M "P -1"
_symmetry_group_IT_number 2
_symmetry_cell_setting 'triclinic'
loop_
_space_group_symop_operation_xyz
x,y,z
-x,-y,-z
loop_
_atom_site_type_symbol
_atom_site_label
_atom_site_fract_x
_atom_site_fract_y
_atom_site_fract_z
Si Si1 0.302655 0.511223 0.183493
Si Si2 0.295621 0.602370 0.898527
Si Si3 0.729745 0.218158 0.199948
Si Si4 0.434932 0.216166 0.858924
Si Si5 0.984256 0.793149 0.725691
Si Si6 0.004036 0.653265 0.102040
Si Si7 0.616653 0.098381 0.646630
O O1 0.267933 0.551478 0.556003
O O2 0.500000 0.500000 0.000000
O O3 0.314089 0.558115 0.025889
O O4 0.132431 0.417613 0.110867
O O5 0.486367 0.690788 0.885513
O O6 0.090902 0.615760 0.150050
O O7 0.547497 0.228814 0.526646
O O8 0.929779 0.236585 0.197026
O O9 0.653409 0.122632 0.948179
O O10 0.792624 0.286069 0.084069
O O11 0.484905 0.146842 0.791777
O O12 0.196625 0.181323 0.976459
O O13 0.899725 0.712157 0.440468
O O14 0.169926 0.872460 0.620483
O O15 0.500000 0.000000 0.500000
#
# Coordination Sequence:
#
# PCOD8015183 Si02
#       7
#     2   2   2   2   2   2   2
#     4  12  28  41  65 102 139 184 241 294 341 404
#     4  12  24  43  66  97 138 189 232 289 348 404
#     4  10  21  42  66  94 133 173 222 274 350 401
#     4  11  23  41  67  98 133 175 229 277 345 410
#     4  10  23  40  67  98 132 176 223 278 343 412
#     4  11  23  43  64  95 136 182 231 280 344 407
#     4  10  23  45  68  96 135 171 219 280 347 420
#
# _framework density 21.461219
#
# number of rings (size 3 to 8) (size 9 to 14) (size 15 to 20)
#    0.000    1.143    4.286    3.000    4.000    5.143 
#    0.000    1.429    0.000    0.000    0.000    0.000 
#    0.000    0.000    0.000    0.000    0.000    0.000 
#
# Total GULP energy -173451.153247 kJ/mol
# GULP energy per Si atom -12389.368089 kJ/mol
# Density = 2.141237 g / cm^3
# Si number density = 21.461219 Si / 1000 Ang^3
#
#
#
# Elastic Constant Matrix: (Units=GPa)
#
#
# Indices 1 2 3 4 5 6 
#
# 1 109.3172 55.9255 73.3541 -9.0415 -9.2419 12.9734
# 2 55.9255 118.5178 65.0576 30.5435 5.7680 10.8755
# 3 73.3541 65.0576 114.9590 1.7090 -3.2635 7.4207
# 4 -9.0415 30.5435 1.7090 33.7387 12.9940 5.2058
# 5 -9.2419 5.7680 -3.2635 12.9940 48.1267 -9.8595
# 6 12.9734 10.8755 7.4207 5.2058 -9.8595 32.6484
#
#
#
# Elastic Compliance Matrix: (Units=1/GPa)
#
#
# Indices 1 2 3 4 5 6 
#
# 1 0.021204 -0.008673 -0.008467 0.015276 -0.000881 -0.006314
# 2 -0.008673 0.021610 -0.006429 -0.022525 0.001766 0.001834
# 3 -0.008467 -0.006429 0.017630 0.002546 -0.000132 0.001053
# 4 0.015276 -0.022525 0.002546 0.061130 -0.013347 -0.012924
# 5 -0.000881 0.001766 -0.000132 -0.013347 0.025994 0.009770
# 6 -0.006314 0.001834 0.001053 -0.012924 0.009770 0.037299
#
#
# Mechanical properties :
#
#
# Convention : Reuss Voigt Hill
#
# Bulk Modulus (GPa) = 75.14599 81.27427 78.21013
# Shear Modulus (GPa) = 21.14712 32.79988 26.97350
#
# Velocity S-wave (km/s) = 3.14246 3.91363 3.54905
# Velocity P-wave (km/s) = 6.94676 7.64032 7.30178
#
# Compressibility (1/GPa) = 0.01330743
#
# Stress axis : x y z
#
# Youngs Moduli (GPa) = 47.16042 46.27585 56.72234
#
# Poissons Ratio (x) = 0.40134 0.48024
# Poissons Ratio (y) = 0.40901 0.36465
# Poissons Ratio (z) = 0.39929 0.29749
#
# Static dielectric constant tensor:
#      x y z
#    x 4.011290 0.034390 0.175950 
#    y 0.034390 3.583280 -0.045000 
#    z 0.175950 -0.045000 4.091450 
# 
# 
# High freq. dielectric constant tensor:
#      x y z
#    x 1.850610 0.003920 0.008000 
#    y 0.003920 1.831540 0.002580 
#    z 0.008000 0.002580 1.844160 
# 
# From -- ./inp_files/39127.got.cif
#   From: 2010.06.25/outbox.cif.g09.slc.cpg/sg2_20_cif.got.tgz:39127.got - 2010.06.27 13:26:56.
