data_PCOD8015390
_publ_section_title
;
Structure prediction by ZEFSAII (Michael W. Deem and Ramdas Pophale) SiO2 
 PCOD8015390
Probable space group: P -1
;
_chemical_formula_sum "Si O2"
_cell_formula_units_Z 16
_cell_length_a 27.688688
_cell_length_b 9.154434
_cell_length_c 12.127960
_cell_angle_alpha 142.294582
_cell_angle_beta 152.154258
_cell_angle_gamma 29.556797
_cell_volume 705.067728
_symmetry_space_group_name_H-M "P -1"
_symmetry_group_IT_number 2
_symmetry_cell_setting 'triclinic'
loop_
_space_group_symop_operation_xyz
x,y,z
-x,-y,-z
loop_
_atom_site_type_symbol
_atom_site_label
_atom_site_fract_x
_atom_site_fract_y
_atom_site_fract_z
Si Si1 0.017178 0.238167 0.589941
Si Si2 0.857699 0.184356 0.065372
Si Si3 0.428742 0.139246 0.828081
Si Si4 0.822091 0.704801 0.650869
Si Si5 0.262726 0.778867 0.945112
Si Si6 0.530871 0.183475 0.853387
Si Si7 0.281802 0.292393 0.331883
Si Si8 0.801398 0.604382 0.001309
O O1 0.978896 0.131711 0.342923
O O2 0.898823 0.459093 0.564632
O O3 0.121148 0.964519 0.714160
O O4 0.073812 0.399626 0.745770
O O5 0.742346 0.334734 0.011422
O O6 0.813217 0.392387 0.993302
O O7 0.888722 0.869233 0.903492
O O8 0.325112 0.070110 0.556677
O O9 0.358547 0.493981 0.894482
O O10 0.531336 0.018940 0.865907
O O11 0.500000 0.000000 0.000000
O O12 0.809264 0.573868 0.662686
O O13 0.315582 0.971416 0.180609
O O14 0.416561 0.244032 0.581471
O O15 0.674122 0.947650 0.955575
O O16 0.500000 0.500000 0.000000
O O17 0.204590 0.510845 0.201474
#
# Coordination Sequence:
#
# PCOD8015390 Si02
#       8
#     2   2   2   2   2   2   2   2
#     4  11  23  45  67  95 135 171 224 265 321 397
#     4  11  23  41  66  99 134 170 210 277 330 382
#     4  11  23  42  68 100 130 163 221 278 323 380
#     4  10  24  43  69 100 124 174 228 263 325 384
#     4  10  21  42  68  96 125 175 218 272 323 379
#     4  11  23  41  63  95 131 176 219 265 323 398
#     4   9  22  42  65  93 128 175 224 265 317 397
#     4  11  24  42  62  96 136 174 212 270 337 383
#
# _framework density 22.692854000000001
#
# number of rings (size 3 to 8) (size 9 to 14) (size 15 to 20)
#    0.000    1.500    1.250    3.375    0.000    7.000 
#    9.000    3.750    0.000    0.000    0.000    0.000 
#    0.000    0.000    0.000    0.000    0.000    0.000 
#
# Total GULP energy -198304.365015 kJ/mol
# GULP energy per Si atom -12394.022813 kJ/mol
# Density = 2.264120 g / cm^3
# Si number density = 22.692854 Si / 1000 Ang^3
#
#
#
# Elastic Constant Matrix: (Units=GPa)
#
#
# Indices 1 2 3 4 5 6 
#
# 1 134.9698 30.3978 49.5739 -13.8363 -11.4817 19.0265
# 2 30.3978 53.4487 27.1821 -1.3477 -4.9622 5.6449
# 3 49.5739 27.1821 171.5312 3.3614 -15.5467 8.6009
# 4 -13.8363 -1.3477 3.3614 28.8968 2.7078 -3.5926
# 5 -11.4817 -4.9622 -15.5467 2.7078 40.8844 -11.9379
# 6 19.0265 5.6449 8.6009 -3.5926 -11.9379 35.0065
#
#
#
# Elastic Compliance Matrix: (Units=1/GPa)
#
#
# Indices 1 2 3 4 5 6 
#
# 1 0.010136 -0.004142 -0.002158 0.004426 0.000115 -0.003817
# 2 -0.004142 0.022306 -0.002238 -0.000820 0.000545 -0.000694
# 3 -0.002158 -0.002238 0.007018 -0.002108 0.002012 0.000279
# 4 0.004426 -0.000820 -0.002108 0.037276 -0.001691 0.001494
# 5 0.000115 0.000545 0.002012 -0.001691 0.027982 0.008724
# 6 -0.003817 -0.000694 0.000279 0.001494 0.008724 0.033813
#
#
# Mechanical properties :
#
#
# Convention : Reuss Voigt Hill
#
# Bulk Modulus (GPa) = 44.67142 63.80635 54.23888
# Shear Modulus (GPa) = 30.66214 37.81060 34.23637
#
# Velocity S-wave (km/s) = 3.67983 4.08633 3.88839
# Velocity P-wave (km/s) = 6.14677 7.10229 6.64174
#
# Compressibility (1/GPa) = 0.02238568
#
# Stress axis : x y z
#
# Youngs Moduli (GPa) = 98.65680 44.83045 142.49579
#
# Poissons Ratio (x) = 0.18568 0.30750
# Poissons Ratio (y) = 0.40861 0.31884
# Poissons Ratio (z) = 0.21290 0.10031
#
# Static dielectric constant tensor:
#      x y z
#    x 4.421180 -0.120190 -0.107710 
#    y -0.120190 3.700530 0.094210 
#    z -0.107710 0.094210 4.402180 
# 
# 
# High freq. dielectric constant tensor:
#      x y z
#    x 1.919940 -0.003350 -0.001020 
#    y -0.003350 1.856660 0.007410 
#    z -0.001020 0.007410 1.913550 
# 
# From -- ./inp_files/464522.got.cif
#   From: 2010.06.25/outbox.cif.g09.slc.cpg/sg2_233_cif.got.tgz:464522.got - 2010.06.27 13:26:56.
