data_PCOD8015678
_publ_section_title
;
Structure prediction by ZEFSAII (Michael W. Deem and Ramdas Pophale) SiO2 
 PCOD8015678
Probable space group: P -1
;
_chemical_formula_sum "Si O2"
_cell_formula_units_Z 16
_cell_length_a 23.906031
_cell_length_b 9.141753
_cell_length_c 21.751494
_cell_angle_alpha 151.609911
_cell_angle_beta 160.045472
_cell_angle_gamma 35.253461
_cell_volume 769.797405
_symmetry_space_group_name_H-M "P -1"
_symmetry_group_IT_number 2
_symmetry_cell_setting 'triclinic'
loop_
_space_group_symop_operation_xyz
x,y,z
-x,-y,-z
loop_
_atom_site_type_symbol
_atom_site_label
_atom_site_fract_x
_atom_site_fract_y
_atom_site_fract_z
Si Si1 0.230034 0.283791 0.437765
Si Si2 0.995426 0.801119 0.065725
Si Si3 0.844420 0.283317 0.168832
Si Si4 0.077436 0.782826 0.547634
Si Si5 0.178728 0.114605 0.889469
Si Si6 0.843838 0.473509 0.682641
Si Si7 0.523223 0.000222 0.680450
Si Si8 0.531685 0.358895 0.388243
O O1 0.182306 0.536573 0.531105
O O2 0.175055 0.384527 0.351249
O O3 0.160647 0.932737 0.251338
O O4 0.421572 0.238059 0.624292
O O5 0.963655 0.062239 0.177284
O O6 0.000000 0.500000 0.000000
O O7 0.863470 0.744417 0.853888
O O8 0.925112 0.628905 0.373344
O O9 0.827657 0.192000 0.188846
O O10 0.675518 0.234982 0.940292
O O11 0.193444 0.995427 0.791026
O O12 0.000000 0.000000 0.500000
O O13 0.010756 0.289992 0.790354
O O14 0.345395 0.321575 0.154759
O O15 0.672032 0.284279 0.454911
O O16 0.566072 0.709971 0.576187
O O17 0.442936 0.872372 0.614272
#
# Coordination Sequence:
#
# PCOD8015678 Si02
#       8
#     2   2   2   2   2   2   2   2
#     4  11  25  39  63  95 131 175 216 265 328 389
#     4  11  20  37  65  96 126 163 214 266 326 393
#     4  10  22  40  69  93 125 170 213 273 325 378
#     4  11  24  46  63  89 131 177 225 269 315 381
#     4  11  23  43  67  97 128 174 227 266 318 382
#     4  12  22  40  65  99 132 172 209 265 334 392
#     4  10  21  43  62 101 133 161 214 271 332 392
#     4  10  23  40  70  98 135 167 209 274 327 395
#
# _framework density 20.784689
#
# number of rings (size 3 to 8) (size 9 to 14) (size 15 to 20)
#    0.000    1.250    3.750    2.250    3.500    1.500 
#    2.250    2.500    0.000    0.000    0.000    0.000 
#    0.000    0.000    0.000    0.000    0.000    0.000 
#
# Total GULP energy -198238.266927 kJ/mol
# GULP energy per Si atom -12389.891683 kJ/mol
# Density = 2.073738 g / cm^3
# Si number density = 20.784689 Si / 1000 Ang^3
#
#
#
# Elastic Constant Matrix: (Units=GPa)
#
#
# Indices 1 2 3 4 5 6 
#
# 1 94.4520 20.2426 37.1752 -9.8156 -8.8440 8.1253
# 2 20.2426 83.1555 33.3369 -20.5449 2.4424 8.2236
# 3 37.1752 33.3369 83.0953 -20.5294 -5.2191 6.3237
# 4 -9.8156 -20.5449 -20.5294 33.3791 0.1508 -2.9591
# 5 -8.8440 2.4424 -5.2191 0.1508 41.1239 -7.0826
# 6 8.1253 8.2236 6.3237 -2.9591 -7.0826 27.6197
#
#
#
# Elastic Compliance Matrix: (Units=1/GPa)
#
#
# Indices 1 2 3 4 5 6 
#
# 1 0.013206 -0.001005 -0.005280 -0.000160 0.001902 -0.001906
# 2 -0.001005 0.016011 -0.004211 0.006680 -0.002309 -0.003384
# 3 -0.005280 -0.004211 0.017871 0.006821 0.001321 -0.000215
# 4 -0.000160 0.006680 0.006821 0.038279 0.000415 0.000704
# 5 0.001902 -0.002309 0.001321 0.000415 0.026162 0.006579
# 6 -0.001906 -0.003384 -0.000215 0.000704 0.006579 0.039586
#
#
# Mechanical properties :
#
#
# Convention : Reuss Voigt Hill
#
# Bulk Modulus (GPa) = 38.31999 49.13468 43.72734
# Shear Modulus (GPa) = 27.65378 31.75440 29.70409
#
# Velocity S-wave (km/s) = 3.65154 3.91292 3.78449
# Velocity P-wave (km/s) = 6.02121 6.64122 6.33880
#
# Compressibility (1/GPa) = 0.02609604
#
# Stress axis : x y z
#
# Youngs Moduli (GPa) = 75.72074 62.45553 55.95757
#
# Poissons Ratio (x) = 0.06276 0.29546
# Poissons Ratio (y) = 0.07609 0.23565
# Poissons Ratio (z) = 0.39982 0.26301
#
# Static dielectric constant tensor:
#      x y z
#    x 4.001830 0.025280 0.000050 
#    y 0.025280 3.468230 -0.185980 
#    z 0.000050 -0.185980 3.746880 
# 
# 
# High freq. dielectric constant tensor:
#      x y z
#    x 1.816040 0.009640 -0.002310 
#    y 0.009640 1.799750 -0.010240 
#    z -0.002310 -0.010240 1.821780 
# 
# From -- ./inp_files/177690.got.cif
#   From: 2010.06.25/outbox.cif.g09.slc.cpg/sg2_89_cif.got.tgz:177690.got - 2010.06.27 13:26:56.
