data_PCOD8015379
_publ_section_title
;
Structure prediction by ZEFSAII (Michael W. Deem and Ramdas Pophale) SiO2 
 PCOD8015379
Probable space group: P -1
;
_chemical_formula_sum "Si O2"
_cell_formula_units_Z 16
_cell_length_a 9.085303
_cell_length_b 22.067853
_cell_length_c 9.712829
_cell_angle_alpha 29.788704
_cell_angle_beta 52.375469
_cell_angle_gamma 51.143673
_cell_volume 742.327024
_symmetry_space_group_name_H-M "P -1"
_symmetry_group_IT_number 2
_symmetry_cell_setting 'triclinic'
loop_
_space_group_symop_operation_xyz
x,y,z
-x,-y,-z
loop_
_atom_site_type_symbol
_atom_site_label
_atom_site_fract_x
_atom_site_fract_y
_atom_site_fract_z
Si Si1 0.912579 0.645484 0.300028
Si Si2 0.024931 0.165941 0.889666
Si Si3 0.684262 0.104052 0.057809
Si Si4 0.749314 0.100381 0.704536
Si Si5 0.326357 0.441820 0.188588
Si Si6 0.654329 0.843356 0.671822
Si Si7 0.583953 0.804593 0.500504
Si Si8 0.978296 0.307933 0.142072
O O1 0.023283 0.719964 0.195757
O O2 0.709018 0.644268 0.490361
O O3 0.000000 0.500000 0.500000
O O4 0.909373 0.718885 0.015042
O O5 0.205084 0.174378 0.678034
O O6 0.840600 0.178133 0.872249
O O7 0.091693 0.023382 0.194787
O O8 0.469232 0.176930 0.083711
O O9 0.724560 0.972253 0.378325
O O10 0.691417 0.085626 0.925855
O O11 0.562508 0.117022 0.682049
O O12 0.825514 0.224754 0.401197
O O13 0.395660 0.345308 0.215905
O O14 0.500000 0.500000 0.000000
O O15 0.132433 0.546856 0.056358
O O16 0.517571 0.846152 0.611187
O O17 0.848973 0.731368 0.770194
#
# Coordination Sequence:
#
# PCOD8015379 Si02
#       8
#     2   2   2   2   2   2   2   2
#     4   9  23  41  65  96 134 169 220 276 326 385
#     4  11  22  40  68  95 131 177 218 268 333 392
#     4  11  25  42  62  96 144 174 215 271 342 391
#     4  12  23  40  69  99 132 179 219 271 332 405
#     4  10  21  42  68  94 127 176 220 275 326 398
#     4  11  25  41  61  96 138 175 217 282 323 397
#     4  11  24  41  66  98 132 170 231 270 333 392
#     4  11  23  41  67  93 136 173 220 270 341 384
#
# _framework density 21.553840999999998
#
# number of rings (size 3 to 8) (size 9 to 14) (size 15 to 20)
#    0.000    1.250    3.750    1.500    5.250    2.000 
#    0.000    1.250    0.000    8.250    0.000    0.000 
#    0.000    0.000    0.000    0.000    0.000    0.000 
#
# Total GULP energy -198216.951780 kJ/mol
# GULP energy per Si atom -12388.559486 kJ/mol
# Density = 2.150478 g / cm^3
# Si number density = 21.553841 Si / 1000 Ang^3
#
#
#
# Elastic Constant Matrix: (Units=GPa)
#
#
# Indices 1 2 3 4 5 6 
#
# 1 127.3881 40.4978 28.1027 2.3360 -1.6002 2.8112
# 2 40.4978 95.1815 26.5289 -13.0123 4.3783 13.9081
# 3 28.1027 26.5289 80.1859 6.5874 -10.6167 2.0134
# 4 2.3360 -13.0123 6.5874 39.9757 0.1437 -0.3046
# 5 -1.6002 4.3783 -10.6167 0.1437 30.8534 -4.1882
# 6 2.8112 13.9081 2.0134 -0.3046 -4.1882 36.5186
#
#
#
# Elastic Compliance Matrix: (Units=1/GPa)
#
#
# Indices 1 2 3 4 5 6 
#
# 1 0.009514 -0.003886 -0.001878 -0.001507 0.000528 0.000899
# 2 -0.003886 0.015354 -0.004700 0.005973 -0.004812 -0.005791
# 3 -0.001878 -0.004700 0.015801 -0.004033 0.006263 0.001748
# 4 -0.001507 0.005973 -0.004033 0.027706 -0.002716 -0.002017
# 5 0.000528 -0.004812 0.006263 -0.002716 0.036044 0.005558
# 6 0.000899 -0.005791 0.001748 -0.002017 0.005558 0.030044
#
#
# Mechanical properties :
#
#
# Convention : Reuss Voigt Hill
#
# Bulk Modulus (GPa) = 50.65642 54.77934 52.71788
# Shear Modulus (GPa) = 30.86982 35.31129 33.09056
#
# Velocity S-wave (km/s) = 3.78857 4.05196 3.92248
# Velocity P-wave (km/s) = 6.53384 6.88197 6.71016
#
# Compressibility (1/GPa) = 0.01974083
#
# Stress axis : x y z
#
# Youngs Moduli (GPa) = 105.10636 65.13009 63.28880
#
# Poissons Ratio (x) = 0.25313 0.11883
# Poissons Ratio (y) = 0.40849 0.29745
# Poissons Ratio (z) = 0.19734 0.30611
#
# Static dielectric constant tensor:
#      x y z
#    x 3.689050 0.108930 -0.157630 
#    y 0.108930 4.640950 -0.387980 
#    z -0.157630 -0.387980 4.413660 
# 
# 
# High freq. dielectric constant tensor:
#      x y z
#    x 1.832570 0.001120 -0.015120 
#    y 0.001120 1.850570 -0.002700 
#    z -0.015120 -0.002700 1.850020 
# 
# From -- ./inp_files/205475.got.cif
#   From: 2010.06.25/outbox.cif.g09.slc.cpg/sg2_103_cif.got.tgz:205475.got - 2010.06.27 13:26:56.
