data_PCOD8015792
_publ_section_title
;
Structure prediction by ZEFSAII (Michael W. Deem and Ramdas Pophale) SiO2 
 PCOD8015792
Probable space group: P -1
;
_chemical_formula_sum "Si O2"
_cell_formula_units_Z 16
_cell_length_a 19.903905
_cell_length_b 17.112460
_cell_length_c 8.537673
_cell_angle_alpha 61.297641
_cell_angle_beta 127.585953
_cell_angle_gamma 159.962267
_cell_volume 742.058768
_symmetry_space_group_name_H-M "P -1"
_symmetry_group_IT_number 2
_symmetry_cell_setting 'triclinic'
loop_
_space_group_symop_operation_xyz
x,y,z
-x,-y,-z
loop_
_atom_site_type_symbol
_atom_site_label
_atom_site_fract_x
_atom_site_fract_y
_atom_site_fract_z
Si Si1 0.680666 0.678914 0.946128
Si Si2 0.539409 0.888530 0.400868
Si Si3 0.997512 0.059650 0.589944
Si Si4 0.488573 0.628765 0.246854
Si Si5 0.525676 0.183780 0.981658
Si Si6 0.964448 0.378415 0.666096
Si Si7 0.399882 0.555440 0.538267
Si Si8 0.762631 0.242038 0.830108
O O1 0.930655 0.915965 0.162127
O O2 0.500000 0.500000 0.000000
O O3 0.637252 0.555807 0.881505
O O4 0.631171 0.724239 0.745328
O O5 0.441176 0.698333 0.499092
O O6 0.398145 0.828480 0.343393
O O7 0.809002 0.154954 0.569474
O O8 0.533890 0.898435 0.199897
O O9 0.180817 0.316297 0.564280
O O10 0.739809 0.841371 0.452293
O O11 0.000000 0.000000 0.500000
O O12 0.340711 0.485145 0.336442
O O13 0.521736 0.759703 0.096789
O O14 0.795903 0.433680 0.142205
O O15 0.369770 0.967821 0.072302
O O16 0.820210 0.263414 0.722349
O O17 0.000000 0.500000 0.500000
O O18 0.000000 0.500000 0.000000
#
# Coordination Sequence:
#
# PCOD8015792 Si02
#       8
#     2   2   2   2   2   2   2   2
#     4  10  21  43  65  95 131 169 218 270 325 401
#     4  11  24  46  67 102 136 174 227 278 333 401
#     4  11  23  43  67  93 131 179 216 273 335 392
#     4  11  24  43  67  99 131 174 221 274 337 393
#     4  11  26  45  67 101 138 174 228 278 329 407
#     4  12  25  46  68  96 137 178 229 278 330 399
#     4  10  24  44  65 100 136 165 226 277 327 407
#     4  12  24  43  71  98 134 184 216 277 344 386
#
# _framework density 21.561634999999999
#
# number of rings (size 3 to 8) (size 9 to 14) (size 15 to 20)
#    0.000    1.000    5.000    1.875    1.750    4.500 
#    4.500    0.000    0.000    0.000    0.000    0.000 
#    0.000    0.000    0.000    0.000    0.000    0.000 
#
# Total GULP energy -198373.915207 kJ/mol
# GULP energy per Si atom -12398.369700 kJ/mol
# Density = 2.151256 g / cm^3
# Si number density = 21.561635 Si / 1000 Ang^3
#
#
#
# Elastic Constant Matrix: (Units=GPa)
#
#
# Indices 1 2 3 4 5 6 
#
# 1 132.8245 32.8168 45.6683 -25.3187 -14.4084 -18.2534
# 2 32.8168 84.0341 41.6712 -10.4757 -12.9692 -4.4908
# 3 45.6683 41.6712 133.8997 13.3331 -6.9103 -13.1887
# 4 -25.3187 -10.4757 13.3331 52.8599 0.2963 8.3847
# 5 -14.4084 -12.9692 -6.9103 0.2963 41.1076 4.7354
# 6 -18.2534 -4.4908 -13.1887 8.3847 4.7354 31.8031
#
#
#
# Elastic Compliance Matrix: (Units=1/GPa)
#
#
# Indices 1 2 3 4 5 6 
#
# 1 0.010644 -0.001334 -0.003335 0.005216 0.002388 0.002807
# 2 -0.001334 0.015844 -0.004896 0.004065 0.003934 -0.002216
# 3 -0.003335 -0.004896 0.011021 -0.005930 -0.001246 0.003714
# 4 0.005216 0.004065 -0.005930 0.024618 0.002601 -0.005769
# 5 0.002388 0.003934 -0.001246 0.002601 0.026549 -0.003229
# 6 0.002807 -0.002216 0.003714 -0.005769 -0.003229 0.036283
#
#
# Mechanical properties :
#
#
# Convention : Reuss Voigt Hill
#
# Bulk Modulus (GPa) = 54.40750 65.67455 60.04102
# Shear Modulus (GPa) = 33.28528 40.52758 36.90643
#
# Velocity S-wave (km/s) = 3.93329 4.34016 4.14172
# Velocity P-wave (km/s) = 6.77613 7.45929 7.12590
#
# Compressibility (1/GPa) = 0.01837982
#
# Stress axis : x y z
#
# Youngs Moduli (GPa) = 93.94855 63.11418 90.73331
#
# Poissons Ratio (x) = 0.08420 0.30258
# Poissons Ratio (y) = 0.12534 0.44423
# Poissons Ratio (z) = 0.31330 0.30901
#
# Static dielectric constant tensor:
#      x y z
#    x 4.107630 0.220920 0.107010 
#    y 0.220920 4.351320 0.359100 
#    z 0.107010 0.359100 4.968360 
# 
# 
# High freq. dielectric constant tensor:
#      x y z
#    x 1.850580 0.000980 -0.005760 
#    y 0.000980 1.853260 0.000170 
#    z -0.005760 0.000170 1.864440 
# 
# From -- ./inp_files/348444.got.cif
#   From: 2010.06.25/outbox.cif.g09.slc.cpg/sg2_175_cif.got.tgz:348444.got - 2010.06.27 13:26:56.
