data_PCOD8015618
_publ_section_title
;
Structure prediction by ZEFSAII (Michael W. Deem and Ramdas Pophale) SiO2 
 PCOD8015618
Probable space group: P -1
;
_chemical_formula_sum "Si O2"
_cell_formula_units_Z 16
_cell_length_a 18.335527
_cell_length_b 12.283098
_cell_length_c 9.220705
_cell_angle_alpha 61.516424
_cell_angle_beta 150.378681
_cell_angle_gamma 129.341827
_cell_volume 778.716892
_symmetry_space_group_name_H-M "P -1"
_symmetry_group_IT_number 2
_symmetry_cell_setting 'triclinic'
loop_
_space_group_symop_operation_xyz
x,y,z
-x,-y,-z
loop_
_atom_site_type_symbol
_atom_site_label
_atom_site_fract_x
_atom_site_fract_y
_atom_site_fract_z
Si Si1 0.503960 0.127304 0.836810
Si Si2 0.360448 0.626022 0.556502
Si Si3 0.224265 0.318291 0.412151
Si Si4 0.588037 0.376231 0.026386
Si Si5 0.643592 0.127724 0.761979
Si Si6 0.820817 0.860939 0.807394
Si Si7 0.993479 0.140241 0.365327
Si Si8 0.721312 0.692302 0.032438
O O1 0.580967 0.140430 0.803669
O O2 0.313116 0.095584 0.509105
O O3 0.615677 0.274462 0.027746
O O4 0.500000 0.000000 0.000000
O O5 0.246456 0.473402 0.378163
O O6 0.322586 0.612400 0.671822
O O7 0.295231 0.726274 0.312755
O O8 0.561638 0.691659 0.833480
O O9 0.199100 0.277360 0.225089
O O10 0.054859 0.193201 0.275015
O O11 0.389328 0.314822 0.759280
O O12 0.664540 0.531765 0.982607
O O13 0.500000 0.000000 0.500000
O O14 0.800774 0.103005 0.074890
O O15 0.788669 0.812358 0.948629
O O16 0.000000 0.000000 0.000000
O O17 0.124395 0.266887 0.616281
O O18 0.000000 0.000000 0.500000
#
# Coordination Sequence:
#
# PCOD8015618 Si02
#       8
#     2   2   2   2   2   2   2   2
#     4  11  26  44  63  95 134 174 217 266 334 388
#     4  11  20  44  69  99 131 165 222 270 328 389
#     4  10  22  39  69  99 125 172 219 270 321 383
#     4  10  21  42  72  95 131 171 216 271 325 393
#     4  12  28  43  67  96 131 177 215 270 330 389
#     4  11  25  41  67  98 133 173 221 274 316 386
#     4  12  25  42  68  94 130 171 225 269 319 394
#     4  11  21  42  69  99 128 173 222 264 328 386
#
# _framework density 20.546619
#
# number of rings (size 3 to 8) (size 9 to 14) (size 15 to 20)
#    0.000    1.000    3.750    3.000    8.750    2.000 
#    0.000    0.625    0.000    0.000    0.000    0.000 
#    0.000    0.000    0.000    0.000    0.000    0.000 
#
# Total GULP energy -198425.671629 kJ/mol
# GULP energy per Si atom -12401.604477 kJ/mol
# Density = 2.049985 g / cm^3
# Si number density = 20.546619 Si / 1000 Ang^3
#
#
#
# Elastic Constant Matrix: (Units=GPa)
#
#
# Indices 1 2 3 4 5 6 
#
# 1 105.2486 49.2576 35.4576 3.0088 -6.3656 -4.5169
# 2 49.2576 133.9425 42.6450 -12.8194 7.7978 -4.2413
# 3 35.4576 42.6450 97.1611 -2.2383 8.8169 -7.3272
# 4 3.0088 -12.8194 -2.2383 33.7149 7.7764 -1.7814
# 5 -6.3656 7.7978 8.8169 7.7764 26.9270 -2.1197
# 6 -4.5169 -4.2413 -7.3272 -1.7814 -2.1197 40.8740
#
#
#
# Elastic Compliance Matrix: (Units=1/GPa)
#
#
# Indices 1 2 3 4 5 6 
#
# 1 0.013499 -0.004685 -0.003592 -0.004850 0.007166 0.000522
# 2 -0.004685 0.010789 -0.002432 0.005524 -0.005020 0.000146
# 3 -0.003592 -0.002432 0.013255 0.001461 -0.004786 0.001542
# 4 -0.004850 0.005524 0.001461 0.035435 -0.013368 0.001150
# 5 0.007166 -0.005020 -0.004786 -0.013368 0.045808 0.001206
# 6 0.000522 0.000146 0.001542 0.001150 0.001206 0.024927
#
#
# Mechanical properties :
#
#
# Convention : Reuss Voigt Hill
#
# Bulk Modulus (GPa) = 62.02127 65.67475 63.84801
# Shear Modulus (GPa) = 29.32457 34.23599 31.78028
#
# Velocity S-wave (km/s) = 3.78196 4.08641 3.93713
# Velocity P-wave (km/s) = 7.02297 7.36873 7.19793
#
# Compressibility (1/GPa) = 0.01612350
#
# Stress axis : x y z
#
# Youngs Moduli (GPa) = 74.08060 92.68961 75.44478
#
# Poissons Ratio (x) = 0.43428 0.27103
# Poissons Ratio (y) = 0.34709 0.18345
# Poissons Ratio (z) = 0.26613 0.22539
#
# Static dielectric constant tensor:
#      x y z
#    x 3.805840 -0.087210 -0.162520 
#    y -0.087210 3.940240 -0.014950 
#    z -0.162520 -0.014950 3.852840 
# 
# 
# High freq. dielectric constant tensor:
#      x y z
#    x 1.804920 -0.002190 -0.014480 
#    y -0.002190 1.817760 0.004650 
#    z -0.014480 0.004650 1.792590 
# 
# From -- ./inp_files/180477.got.cif
#   From: 2010.06.25/outbox.cif.g09.slc.cpg/sg2_91_cif.got.tgz:180477.got - 2010.06.27 13:26:56.
