data_PCOD8015827
_publ_section_title
;
Structure prediction by ZEFSAII (Michael W. Deem and Ramdas Pophale) SiO2 
 PCOD8015827
Probable space group: P -1
;
_chemical_formula_sum "Si O2"
_cell_formula_units_Z 14
_cell_length_a 14.296989
_cell_length_b 11.599501
_cell_length_c 11.036824
_cell_angle_alpha 52.698308
_cell_angle_beta 140.013135
_cell_angle_gamma 149.678508
_cell_volume 585.088154
_symmetry_space_group_name_H-M "P -1"
_symmetry_group_IT_number 2
_symmetry_cell_setting 'triclinic'
loop_
_space_group_symop_operation_xyz
x,y,z
-x,-y,-z
loop_
_atom_site_type_symbol
_atom_site_label
_atom_site_fract_x
_atom_site_fract_y
_atom_site_fract_z
Si Si1 0.634344 0.550543 0.716386
Si Si2 0.949558 0.597628 0.302961
Si Si3 0.796693 0.442096 0.789408
Si Si4 0.691163 0.133030 0.705622
Si Si5 0.022494 0.088063 0.753074
Si Si6 0.486819 0.299849 0.135028
Si Si7 0.247516 0.378907 0.581800
O O1 0.500000 0.500000 0.500000
O O2 0.699558 0.435705 0.821873
O O3 0.453027 0.423751 0.726681
O O4 0.861327 0.827052 0.792371
O O5 0.072678 0.842253 0.318255
O O6 0.672564 0.414469 0.137533
O O7 0.000000 0.500000 0.500000
O O8 0.052174 0.645414 0.240660
O O9 0.627851 0.202537 0.701610
O O10 0.856452 0.617023 0.640586
O O11 0.000000 0.500000 0.000000
O O12 0.500000 0.000000 0.500000
O O13 0.685341 0.970896 0.862107
O O14 0.032333 0.125504 0.593334
O O15 0.301892 0.287728 0.938009
O O16 0.638943 0.424413 0.330896
#
# Coordination Sequence:
#
# PCOD8015827 Si02
#       7
#     2   2   2   2   2   2   2
#     4  10  24  42  65  90 129 181 220 261 324 395
#     4  11  22  38  66 101 129 172 214 273 331 392
#     4  11  24  41  63  96 131 170 224 267 317 395
#     4  12  22  41  69  93 133 176 213 271 336 377
#     4  11  24  41  67 101 133 166 225 274 327 393
#     4  11  23  40  66 104 130 166 221 277 327 393
#     4  10  21  43  66  91 131 172 213 271 334 384
#
# _framework density 23.928018999999999
#
# number of rings (size 3 to 8) (size 9 to 14) (size 15 to 20)
#    0.000    1.143    2.857    4.286    2.000    8.000 
#    0.000    1.429    0.000    6.857    0.000    0.000 
#    0.000    0.000    0.000    0.000    0.000    0.000 
#
# Total GULP energy -173446.000195 kJ/mol
# GULP energy per Si atom -12389.000014 kJ/mol
# Density = 2.387356 g / cm^3
# Si number density = 23.928019 Si / 1000 Ang^3
#
#
#
# Elastic Constant Matrix: (Units=GPa)
#
#
# Indices 1 2 3 4 5 6 
#
# 1 131.6590 49.5035 9.5498 -10.4999 25.6384 -13.3553
# 2 49.5035 66.3756 2.4563 -1.4689 9.0138 -4.8353
# 3 9.5498 2.4563 95.7140 1.5129 21.1265 -7.3735
# 4 -10.4999 -1.4689 1.5129 32.5560 -3.7308 0.8998
# 5 25.6384 9.0138 21.1265 -3.7308 36.3622 -4.5083
# 6 -13.3553 -4.8353 -7.3735 0.8998 -4.5083 42.3216
#
#
#
# Elastic Compliance Matrix: (Units=1/GPa)
#
#
# Indices 1 2 3 4 5 6 
#
# 1 0.012305 -0.008097 0.000527 0.002781 -0.006403 0.002308
# 2 -0.008097 0.021031 0.000252 -0.001653 0.000173 -0.000055
# 3 0.000527 0.000252 0.012172 -0.001280 -0.007445 0.001550
# 4 0.002781 -0.001653 -0.001280 0.031880 0.002470 0.000051
# 5 -0.006403 0.000173 -0.007445 0.002470 0.036621 0.000550
# 6 0.002308 -0.000055 0.001550 0.000051 0.000550 0.024678
#
#
# Mechanical properties :
#
#
# Convention : Reuss Voigt Hill
#
# Bulk Modulus (GPa) = 32.39186 46.30751 39.34969
# Shear Modulus (GPa) = 30.56003 37.73054 34.14529
#
# Velocity S-wave (km/s) = 3.57762 3.97525 3.78166
# Velocity P-wave (km/s) = 5.53466 6.36121 5.96227
#
# Compressibility (1/GPa) = 0.03087195
#
# Stress axis : x y z
#
# Youngs Moduli (GPa) = 81.27103 47.54829 82.15774
#
# Poissons Ratio (x) = 0.38500 -0.04333
# Poissons Ratio (y) = 0.65805 -0.02069
# Poissons Ratio (z) = -0.04286 -0.01198
#
# Static dielectric constant tensor:
#      x y z
#    x 6.390160 -0.485690 -2.558440 
#    y -0.485690 4.901370 1.466520 
#    z -2.558440 1.466520 8.573340 
# 
# 
# High freq. dielectric constant tensor:
#      x y z
#    x 1.963410 -0.004220 0.017100 
#    y -0.004220 1.929380 -0.014170 
#    z 0.017100 -0.014170 1.946570 
# 
# From -- ./inp_files/451138.got.cif
#   From: 2010.06.25/outbox.cif.g09.slc.cpg/sg2_226_cif.got.tgz:451138.got - 2010.06.27 13:26:56.
