data_PCOD8015073
_publ_section_title
;
Structure prediction by ZEFSAII (Michael W. Deem and Ramdas Pophale) SiO2 
 PCOD8015073
Probable space group: P -1
;
_chemical_formula_sum "Si O2"
_cell_formula_units_Z 12
_cell_length_a 10.816753
_cell_length_b 11.856289
_cell_length_c 11.835997
_cell_angle_alpha 145.569411
_cell_angle_beta 146.565506
_cell_angle_gamma 54.015469
_cell_volume 447.466342
_symmetry_space_group_name_H-M "P -1"
_symmetry_group_IT_number 2
_symmetry_cell_setting 'triclinic'
loop_
_space_group_symop_operation_xyz
x,y,z
-x,-y,-z
loop_
_atom_site_type_symbol
_atom_site_label
_atom_site_fract_x
_atom_site_fract_y
_atom_site_fract_z
Si Si1 0.297587 0.367588 0.581344
Si Si2 0.342273 0.172877 0.079331
Si Si3 0.417984 0.804246 0.938742
Si Si4 0.145564 0.523261 0.242873
Si Si5 0.168598 0.509952 0.819635
Si Si6 0.333484 0.945999 0.221675
O O1 0.141969 0.346500 0.559944
O O2 0.228953 0.138328 0.278493
O O3 0.266701 0.552463 0.626846
O O4 0.574234 0.440265 0.886427
O O5 0.165945 0.290906 0.086133
O O6 0.603129 0.297046 0.431354
O O7 0.260970 0.933812 0.866237
O O8 0.356168 0.172713 0.951524
O O9 0.487564 0.906879 0.200569
O O10 0.019038 0.588183 0.306780
O O11 0.000000 0.500000 0.000000
O O12 0.131044 0.722561 0.910611
O O13 0.500000 0.000000 0.500000
#
# Coordination Sequence:
#
# PCOD8015073 Si02
#       6
#     2   2   2   2   2   2
#     4   9  18  37  67  95 132 171 213 282 326 386
#     4  10  25  44  65  98 142 173 219 283 324 396
#     4  10  21  42  65  94 136 178 216 273 343 382
#     4  11  24  43  71  99 131 182 226 269 334 400
#     4   9  19  38  60 100 129 164 230 267 329 392
#     4   9  19  34  67  97 129 174 220 277 328 387
#
# _framework density 26.81766
#
# number of rings (size 3 to 8) (size 9 to 14) (size 15 to 20)
#    0.000    2.333    0.000    2.000    9.333    0.000 
#    6.000   10.833    0.000    0.000    0.000    0.000 
#    0.000    0.000    0.000    0.000    0.000    0.000 
#
# Total GULP energy -148730.273253 kJ/mol
# GULP energy per Si atom -12394.189438 kJ/mol
# Density = 2.675662 g / cm^3
# Si number density = 26.817660 Si / 1000 Ang^3
#
#
#
# Elastic Constant Matrix: (Units=GPa)
#
#
# Indices 1 2 3 4 5 6 
#
# 1 138.4881 47.9817 38.8772 0.2187 -24.7788 7.2825
# 2 47.9817 143.0995 41.0340 30.5142 -3.2513 4.1920
# 3 38.8772 41.0340 82.1242 16.8930 -23.2301 1.9705
# 4 0.2187 30.5142 16.8930 44.4548 -1.3377 -10.7279
# 5 -24.7788 -3.2513 -23.2301 -1.3377 42.9326 1.1506
# 6 7.2825 4.1920 1.9705 -10.7279 1.1506 44.9605
#
#
#
# Elastic Compliance Matrix: (Units=1/GPa)
#
#
# Indices 1 2 3 4 5 6 
#
# 1 0.009762 -0.003084 -0.002512 0.003010 0.004151 -0.000572
# 2 -0.003084 0.010259 -0.003121 -0.006351 -0.002842 -0.001763
# 3 -0.002512 -0.003121 0.018252 -0.004895 0.008077 -0.001477
# 4 0.003010 -0.006351 -0.004895 0.030518 -0.000645 0.007618
# 5 0.004151 -0.002842 0.008077 -0.000645 0.029868 -0.001680
# 6 -0.000572 -0.001763 -0.001477 0.007618 -0.001680 0.024424
#
#
# Mechanical properties :
#
#
# Convention : Reuss Voigt Hill
#
# Bulk Modulus (GPa) = 47.98641 68.83307 58.40974
# Shear Modulus (GPa) = 33.90655 42.19084 38.04870
#
# Velocity S-wave (km/s) = 3.55961 3.97072 3.77077
# Velocity P-wave (km/s) = 5.90143 6.83703 6.38638
#
# Compressibility (1/GPa) = 0.02083923
#
# Stress axis : x y z
#
# Youngs Moduli (GPa) = 102.43287 97.47927 54.78780
#
# Poissons Ratio (x) = 0.30062 0.13763
# Poissons Ratio (y) = 0.31590 0.17100
# Poissons Ratio (z) = 0.25731 0.30424
#
# Static dielectric constant tensor:
#      x y z
#    x 4.971340 -0.198290 -0.507610 
#    y -0.198290 5.776860 0.394240 
#    z -0.507610 0.394240 4.903160 
# 
# 
# High freq. dielectric constant tensor:
#      x y z
#    x 2.079910 -0.000990 -0.025820 
#    y -0.000990 2.092140 0.010480 
#    z -0.025820 0.010480 2.073080 
# 
# From -- ./inp_files/427087.got.cif
#   From: 2010.06.25/outbox.cif.g09.slc.cpg/sg2_214_cif.got.tgz:427087.got - 2010.06.27 13:26:56.
