data_PCOD8015495
_publ_section_title
;
Structure prediction by ZEFSAII (Michael W. Deem and Ramdas Pophale) SiO2 
 PCOD8015495
Probable space group: P -1
;
_chemical_formula_sum "Si O2"
_cell_formula_units_Z 12
_cell_length_a 13.951831
_cell_length_b 9.464951
_cell_length_c 7.291875
_cell_angle_alpha 48.183404
_cell_angle_beta 120.751486
_cell_angle_gamma 139.148253
_cell_volume 469.366619
_symmetry_space_group_name_H-M "P -1"
_symmetry_group_IT_number 2
_symmetry_cell_setting 'triclinic'
loop_
_space_group_symop_operation_xyz
x,y,z
-x,-y,-z
loop_
_atom_site_type_symbol
_atom_site_label
_atom_site_fract_x
_atom_site_fract_y
_atom_site_fract_z
Si Si1 0.699774 0.915789 0.900712
Si Si2 0.061529 0.079840 0.696445
Si Si3 0.804548 0.243574 0.204263
Si Si4 0.867195 0.429758 0.692004
Si Si5 0.434120 0.764447 0.008201
Si Si6 0.743213 0.781403 0.693600
O O1 0.825199 0.961624 0.113911
O O2 0.550483 0.800203 0.956953
O O3 0.662117 0.749173 0.831373
O O4 0.774062 0.195783 0.664294
O O5 0.152830 0.374498 0.553016
O O6 0.000000 0.000000 0.500000
O O7 0.908958 0.903346 0.815029
O O8 0.963609 0.439844 0.275716
O O9 0.747469 0.962575 0.399692
O O10 0.803507 0.314481 0.931863
O O11 0.695761 0.261614 0.197950
O O12 0.350275 0.490914 0.257702
O O13 0.500000 0.000000 0.000000
#
# Coordination Sequence:
#
# PCOD8015495 Si02
#       6
#     2   2   2   2   2   2
#     4  12  25  43  69 106 139 177 225 286 346 401
#     4  11  24  43  75 102 135 179 231 284 332 412
#     4  10  22  44  69  97 136 177 230 277 334 408
#     4  10  21  42  69  99 130 178 228 279 336 399
#     4  12  26  44  68  99 140 187 229 276 334 417
#     4  11  26  45  70 101 140 179 225 287 343 398
#
# _framework density 25.566369999999999
#
# number of rings (size 3 to 8) (size 9 to 14) (size 15 to 20)
#    0.000    1.000    1.667    6.000    0.000    6.667 
#    0.000    0.000    0.000    0.000    0.000    0.000 
#    0.000    0.000    0.000    0.000    0.000    0.000 
#
# Total GULP energy -148678.413995 kJ/mol
# GULP energy per Si atom -12389.867833 kJ/mol
# Density = 2.550818 g / cm^3
# Si number density = 25.566370 Si / 1000 Ang^3
#
#
#
# Elastic Constant Matrix: (Units=GPa)
#
#
# Indices 1 2 3 4 5 6 
#
# 1 199.3539 31.4933 54.3418 -12.1590 4.8540 22.5960
# 2 31.4933 87.3922 54.4236 -48.9142 2.9857 -9.1352
# 3 54.3418 54.4236 108.8654 -49.7759 7.6425 10.1336
# 4 -12.1590 -48.9142 -49.7759 53.5333 -8.5231 -1.3972
# 5 4.8540 2.9857 7.6425 -8.5231 28.5608 -4.0274
# 6 22.5960 -9.1352 10.1336 -1.3972 -4.0274 33.5217
#
#
#
# Elastic Compliance Matrix: (Units=1/GPa)
#
#
# Indices 1 2 3 4 5 6 
#
# 1 0.006893 -0.004118 -0.003420 -0.005884 -0.002323 -0.005259
# 2 -0.004118 0.030463 -0.003482 0.025303 0.007993 0.014145
# 3 -0.003420 -0.003482 0.019391 0.013860 -0.000673 -0.004009
# 4 -0.005884 0.025303 0.013860 0.055653 0.012738 0.010522
# 5 -0.002323 0.007993 -0.000673 0.012738 0.039860 0.009267
# 6 -0.005259 0.014145 -0.004009 0.010522 0.009267 0.039995
#
#
# Mechanical properties :
#
#
# Convention : Reuss Voigt Hill
#
# Bulk Modulus (GPa) = 28.81211 75.12542 51.96876
# Shear Modulus (GPa) = 22.13738 40.14669 31.14203
#
# Velocity S-wave (km/s) = 2.94577 3.96699 3.49389
# Velocity P-wave (km/s) = 4.78164 7.10148 6.05372
#
# Compressibility (1/GPa) = 0.03470763
#
# Stress axis : x y z
#
# Youngs Moduli (GPa) = 145.08194 32.82671 51.57133
#
# Poissons Ratio (x) = 0.13518 0.17635
# Poissons Ratio (y) = 0.59743 0.17957
# Poissons Ratio (z) = 0.49611 0.11430
#
# Static dielectric constant tensor:
#      x y z
#    x 5.374530 0.182260 0.185980 
#    y 0.182260 4.439370 -0.507220 
#    z 0.185980 -0.507220 4.666770 
# 
# 
# High freq. dielectric constant tensor:
#      x y z
#    x 2.046140 0.003820 0.008300 
#    y 0.003820 2.005050 -0.036120 
#    z 0.008300 -0.036120 2.012460 
# 
# From -- ./inp_files/294243.got.cif
#   From: 2010.06.25/outbox.cif.g09.slc.cpg/sg2_148_cif.got.tgz:294243.got - 2010.06.27 13:26:56.
