data_PCOD8015752
_publ_section_title
;
Structure prediction by ZEFSAII (Michael W. Deem and Ramdas Pophale) SiO2 
 PCOD8015752
Probable space group: P -1
;
_chemical_formula_sum "Si O2"
_cell_formula_units_Z 16
_cell_length_a 15.611521
_cell_length_b 5.244223
_cell_length_c 18.306760
_cell_angle_alpha 103.037468
_cell_angle_beta 37.713480
_cell_angle_gamma 120.169927
_cell_volume 749.546257
_symmetry_space_group_name_H-M "P -1"
_symmetry_group_IT_number 2
_symmetry_cell_setting 'triclinic'
loop_
_space_group_symop_operation_xyz
x,y,z
-x,-y,-z
loop_
_atom_site_type_symbol
_atom_site_label
_atom_site_fract_x
_atom_site_fract_y
_atom_site_fract_z
Si Si1 0.846422 0.394187 0.543669
Si Si2 0.567472 0.535014 0.102581
Si Si3 0.315200 0.508872 0.562523
Si Si4 0.774596 0.711224 0.719083
Si Si5 0.521207 0.080717 0.221250
Si Si6 0.499404 0.836589 0.598877
Si Si7 0.001954 0.685834 0.315522
Si Si8 0.318214 0.687209 0.107049
O O1 0.799207 0.643234 0.614361
O O2 0.000000 0.500000 0.500000
O O3 0.893999 0.403170 0.427512
O O4 0.677920 0.060231 0.651700
O O5 0.384789 0.259987 0.176481
O O6 0.611196 0.393441 0.132304
O O7 0.572745 0.846655 0.140195
O O8 0.688869 0.584835 0.956038
O O9 0.350215 0.603404 0.629923
O O10 0.368647 0.267833 0.491390
O O11 0.116342 0.343815 0.673020
O O12 0.413641 0.810380 0.464334
O O13 0.723675 0.417624 0.787542
O O14 0.943098 0.007036 0.654651
O O15 0.585351 0.182214 0.267517
O O16 0.169603 0.716480 0.176100
O O17 0.500000 0.000000 0.000000
#
# Coordination Sequence:
#
# PCOD8015752 Si02
#       8
#     2   2   2   2   2   2   2   2
#     4  11  21  36  53  92 126 160 196 246 318 380
#     4  11  24  40  61  88 120 172 220 246 300 366
#     4  10  23  39  66  96 127 159 203 247 324 384
#     4  11  24  37  60  83 127 169 203 260 301 369
#     4  11  23  39  65  88 123 164 204 261 311 371
#     4  10  21  43  64  94 129 159 195 262 315 386
#     4  12  24  37  62  90 126 169 197 264 302 382
#     4  12  24  43  58  84 128 175 221 256 296 354
#
# _framework density 21.346245
#
# number of rings (size 3 to 8) (size 9 to 14) (size 15 to 20)
#    0.000    1.000    3.750    3.750    7.000    0.000 
#    0.000    0.000    0.000    1.500    0.000    0.000 
#    0.000    0.000    0.000    0.000    0.000    0.000 
#
# Total GULP energy -198253.314351 kJ/mol
# GULP energy per Si atom -12390.832147 kJ/mol
# Density = 2.129766 g / cm^3
# Si number density = 21.346245 Si / 1000 Ang^3
#
#
#
# Elastic Constant Matrix: (Units=GPa)
#
#
# Indices 1 2 3 4 5 6 
#
# 1 118.3028 26.2882 32.2922 17.4604 -8.5359 6.3726
# 2 26.2882 60.6671 12.7055 12.7774 0.2694 -4.8545
# 3 32.2922 12.7055 77.0836 22.0992 -7.8914 2.4269
# 4 17.4604 12.7774 22.0992 23.2519 -3.0572 6.0115
# 5 -8.5359 0.2694 -7.8914 -3.0572 30.5710 -0.7626
# 6 6.3726 -4.8545 2.4269 6.0115 -0.7626 40.3890
#
#
#
# Elastic Compliance Matrix: (Units=1/GPa)
#
#
# Indices 1 2 3 4 5 6 
#
# 1 0.010644 -0.003583 -0.002857 -0.002662 0.001962 -0.001505
# 2 -0.003583 0.020509 0.000894 -0.010860 -0.001923 0.004557
# 3 -0.002857 0.000894 0.018956 -0.016534 0.002482 0.001927
# 4 -0.002662 -0.010860 -0.016534 0.069563 0.001787 -0.010212
# 5 0.001962 -0.001923 0.002482 0.001787 0.034087 -0.000312
# 6 -0.001505 0.004557 0.001927 -0.010212 -0.000312 0.026943
#
#
# Mechanical properties :
#
#
# Convention : Reuss Voigt Hill
#
# Bulk Modulus (GPa) = 25.62997 44.29171 34.96084
# Shear Modulus (GPa) = 24.41398 31.16021 27.78710
#
# Velocity S-wave (km/s) = 3.38555 3.82481 3.61187
# Velocity P-wave (km/s) = 5.22642 6.34821 5.81443
#
# Compressibility (1/GPa) = 0.03901683
#
# Stress axis : x y z
#
# Youngs Moduli (GPa) = 93.94593 48.75876 52.75341
#
# Poissons Ratio (x) = 0.17468 0.15074
# Poissons Ratio (y) = 0.33657 -0.04714
# Poissons Ratio (z) = 0.26844 -0.04357
#
# Static dielectric constant tensor:
#      x y z
#    x 3.987020 0.050030 0.039030 
#    y 0.050030 3.914270 0.418660 
#    z 0.039030 0.418660 4.252070 
# 
# 
# High freq. dielectric constant tensor:
#      x y z
#    x 1.830040 -0.011080 0.007750 
#    y -0.011080 1.835440 0.021330 
#    z 0.007750 0.021330 1.821750 
# 
# From -- ./inp_files/82844.got.cif
#   From: 2010.06.25/outbox.cif.g09.slc.cpg/sg2_42_cif.got.tgz:82844.got - 2010.06.27 13:26:56.
