data_PCOD8015675
_publ_section_title
;
Structure prediction by ZEFSAII (Michael W. Deem and Ramdas Pophale) SiO2 
 PCOD8015675
Probable space group: P -1
;
_chemical_formula_sum "Si O2"
_cell_formula_units_Z 16
_cell_length_a 14.028540
_cell_length_b 12.408859
_cell_length_c 9.052587
_cell_angle_alpha 93.929113
_cell_angle_beta 29.571059
_cell_angle_gamma 85.411345
_cell_volume 744.021216
_symmetry_space_group_name_H-M "P -1"
_symmetry_group_IT_number 2
_symmetry_cell_setting 'triclinic'
loop_
_space_group_symop_operation_xyz
x,y,z
-x,-y,-z
loop_
_atom_site_type_symbol
_atom_site_label
_atom_site_fract_x
_atom_site_fract_y
_atom_site_fract_z
Si Si1 0.138563 0.651966 0.814261
Si Si2 0.297366 0.330812 0.309508
Si Si3 0.905302 0.521558 0.945638
Si Si4 0.260752 0.712094 0.347604
Si Si5 0.065408 0.969321 0.576541
Si Si6 0.841000 0.695002 0.829179
Si Si7 0.833804 0.844818 0.365376
Si Si8 0.717581 0.918361 0.202351
O O1 0.271779 0.680708 0.505684
O O2 0.942806 0.620880 0.007000
O O3 0.233906 0.545640 0.787453
O O4 0.060787 0.761566 0.033132
O O5 0.244421 0.290549 0.217203
O O6 0.312522 0.226418 0.387709
O O7 0.127762 0.441870 0.597288
O O8 0.517506 0.352516 0.018208
O O9 0.792784 0.585157 0.957874
O O10 0.085393 0.671533 0.499037
O O11 0.216115 0.845111 0.388638
O O12 0.175248 0.058711 0.494225
O O13 0.000000 0.000000 0.500000
O O14 0.865915 0.984008 0.942609
O O15 0.734110 0.806048 0.076113
O O16 0.764977 0.895711 0.305770
O O17 0.500000 0.000000 0.500000
#
# Coordination Sequence:
#
# PCOD8015675 Si02
#       8
#     2   2   2   2   2   2   2   2
#     4   9  18  36  62  87 116 162 199 253 306 365
#     4  11  24  36  66  92 119 165 208 249 308 366
#     4   9  18  38  63  86 123 158 205 250 313 356
#     4  10  22  40  60  88 129 157 203 256 306 360
#     4  11  24  41  61  88 127 166 200 255 310 362
#     4  10  21  43  61  91 127 158 204 257 306 363
#     4  11  21  40  61  89 118 165 203 244 308 365
#     4  11  24  39  62  92 124 159 204 254 301 369
#
# _framework density 21.504763000000001
#
# number of rings (size 3 to 8) (size 9 to 14) (size 15 to 20)
#    0.000    1.750    3.750    2.250    3.500    2.500 
#    0.000    0.625    0.000    0.000    0.000    0.000 
#    0.000    0.000    0.000    0.000    0.000    0.000 
#
# Total GULP energy -198267.567315 kJ/mol
# GULP energy per Si atom -12391.722957 kJ/mol
# Density = 2.145582 g / cm^3
# Si number density = 21.504763 Si / 1000 Ang^3
#
#
#
# Elastic Constant Matrix: (Units=GPa)
#
#
# Indices 1 2 3 4 5 6 
#
# 1 88.6957 26.1973 30.9425 -4.9431 22.2075 -8.9711
# 2 26.1973 112.2488 26.5308 -10.8806 10.8984 -22.8919
# 3 30.9425 26.5308 85.4846 -10.2442 -0.7282 -21.7861
# 4 -4.9431 -10.8806 -10.2442 30.1123 -5.6400 15.9822
# 5 22.2075 10.8984 -0.7282 -5.6400 29.7523 -4.1680
# 6 -8.9711 -22.8919 -21.7861 15.9822 -4.1680 28.6360
#
#
#
# Elastic Compliance Matrix: (Units=1/GPa)
#
#
# Indices 1 2 3 4 5 6 
#
# 1 0.016903 -0.001760 -0.006364 -0.001299 -0.012664 -0.002071
# 2 -0.001760 0.011273 -0.000951 -0.001219 -0.001930 0.008136
# 3 -0.006364 -0.000951 0.017275 -0.000349 0.007082 0.011615
# 4 -0.001299 -0.001219 -0.000349 0.048379 0.006702 -0.027673
# 5 -0.012664 -0.001930 0.007082 0.006702 0.045603 0.002774
# 6 -0.002071 0.008136 0.011615 -0.027673 0.002774 0.065461
#
#
# Mechanical properties :
#
#
# Convention : Reuss Voigt Hill
#
# Bulk Modulus (GPa) = 36.62536 50.41892 43.52214
# Shear Modulus (GPa) = 21.53840 31.21736 26.37788
#
# Velocity S-wave (km/s) = 3.16818 3.81418 3.50609
# Velocity P-wave (km/s) = 5.51828 6.54933 6.05579
#
# Compressibility (1/GPa) = 0.02730348
#
# Stress axis : x y z
#
# Youngs Moduli (GPa) = 59.16021 88.70983 57.88704
#
# Poissons Ratio (x) = 0.15609 0.36837
# Poissons Ratio (y) = 0.10409 0.05503
# Poissons Ratio (z) = 0.37647 0.08433
#
# Static dielectric constant tensor:
#      x y z
#    x 3.757740 -0.259350 0.351820 
#    y -0.259350 4.176480 -0.204270 
#    z 0.351820 -0.204270 3.826870 
# 
# 
# High freq. dielectric constant tensor:
#      x y z
#    x 1.823160 -0.019620 0.030590 
#    y -0.019620 1.867380 -0.005110 
#    z 0.030590 -0.005110 1.828090 
# 
# From -- ./inp_files/221404.got.cif
#   From: 2010.06.25/outbox.cif.g09.slc.cpg/sg2_111_cif.got.tgz:221404.got - 2010.06.27 13:26:56.
