data_PCOD8015228
_publ_section_title
;
Structure prediction by ZEFSAII (Michael W. Deem and Ramdas Pophale) SiO2 
 PCOD8015228
Probable space group: P -1
;
_chemical_formula_sum "Si O2"
_cell_formula_units_Z 16
_cell_length_a 12.804195
_cell_length_b 10.735064
_cell_length_c 7.183364
_cell_angle_alpha 103.002686
_cell_angle_beta 131.238782
_cell_angle_gamma 83.013103
_cell_volume 722.962678
_symmetry_space_group_name_H-M "P -1"
_symmetry_group_IT_number 2
_symmetry_cell_setting 'triclinic'
loop_
_space_group_symop_operation_xyz
x,y,z
-x,-y,-z
loop_
_atom_site_type_symbol
_atom_site_label
_atom_site_fract_x
_atom_site_fract_y
_atom_site_fract_z
Si Si1 0.819224 0.150382 0.250336
Si Si2 0.791183 0.691386 0.892356
Si Si3 0.062789 0.365512 0.587530
Si Si4 0.585721 0.330268 0.045221
Si Si5 0.558985 0.818809 0.882186
Si Si6 0.138065 0.048615 0.085002
Si Si7 0.687085 0.008785 0.379045
Si Si8 0.300992 0.406347 0.615790
O O1 0.680730 0.219330 0.041209
O O2 0.795985 0.100779 0.419349
O O3 0.951248 0.247693 0.421427
O O4 0.833608 0.028611 0.095755
O O5 0.652273 0.761530 0.812813
O O6 0.753434 0.584181 0.656433
O O7 0.884475 0.804189 0.945111
O O8 0.871495 0.619548 0.124596
O O9 0.185738 0.328206 0.578135
O O10 0.000000 0.500000 0.500000
O O11 0.530740 0.299574 0.177429
O O12 0.683261 0.456980 0.219374
O O13 0.451636 0.343369 0.760522
O O14 0.455737 0.922625 0.716627
O O15 0.655107 0.882231 0.177952
O O16 0.258680 0.033602 0.372186
O O17 0.000000 0.000000 0.000000
#
# Coordination Sequence:
#
# PCOD8015228 Si02
#       8
#     2   2   2   2   2   2   2   2
#     4  11  24  44  71 101 139 182 224 280 342 409
#     4  12  26  42  72 101 134 182 229 282 343 410
#     4  12  26  49  69  97 138 185 228 284 342 404
#     4  10  22  45  69  99 138 182 228 284 339 394
#     4  10  21  42  66  98 138 177 218 279 341 396
#     4  12  26  41  68 105 137 180 225 276 345 416
#     4  10  23  43  65 100 143 174 220 277 336 409
#     4  11  24  45  70  98 137 182 235 282 335 405
#
# _framework density 22.131157000000002
#
# number of rings (size 3 to 8) (size 9 to 14) (size 15 to 20)
#    0.000    1.000    3.750    2.250    3.500    2.500 
#    4.500    0.000    0.000    0.000    0.000    0.000 
#    0.000    0.000    0.000    0.000    0.000    0.000 
#
# Total GULP energy -198387.179672 kJ/mol
# GULP energy per Si atom -12399.198730 kJ/mol
# Density = 2.208079 g / cm^3
# Si number density = 22.131157 Si / 1000 Ang^3
#
#
#
# Elastic Constant Matrix: (Units=GPa)
#
#
# Indices 1 2 3 4 5 6 
#
# 1 94.7759 19.3628 29.1412 2.1302 6.1219 13.1337
# 2 19.3628 72.1311 31.6327 -13.3333 3.4339 3.1427
# 3 29.1412 31.6327 143.2806 -16.2659 -4.7328 -1.4531
# 4 2.1302 -13.3333 -16.2659 29.8724 4.5947 0.8242
# 5 6.1219 3.4339 -4.7328 4.5947 26.7846 1.2996
# 6 13.1337 3.1427 -1.4531 0.8242 1.2996 30.7414
#
#
#
# Elastic Compliance Matrix: (Units=1/GPa)
#
#
# Indices 1 2 3 4 5 6 
#
# 1 0.012761 -0.002537 -0.002493 -0.002907 -0.002284 -0.005136
# 2 -0.002537 0.017159 -0.002599 0.006944 -0.003230 -0.000843
# 3 -0.002493 -0.002599 0.008513 0.003339 0.001758 0.001569
# 4 -0.002907 0.006944 0.003339 0.039592 -0.006423 -0.000100
# 5 -0.002284 -0.003230 0.001758 -0.006423 0.039689 -0.000117
# 6 -0.005136 -0.000843 0.001569 -0.000100 -0.000117 0.034891
#
#
# Mechanical properties :
#
#
# Convention : Reuss Voigt Hill
#
# Bulk Modulus (GPa) = 43.15050 52.27344 47.71197
# Shear Modulus (GPa) = 28.47593 32.81641 30.64617
#
# Velocity S-wave (km/s) = 3.59094 3.85491 3.72526
# Velocity P-wave (km/s) = 6.06078 6.59431 6.33317
#
# Compressibility (1/GPa) = 0.02317470
#
# Stress axis : x y z
#
# Youngs Moduli (GPa) = 78.36680 58.27981 117.46465
#
# Poissons Ratio (x) = 0.14786 0.29280
# Poissons Ratio (y) = 0.19882 0.30530
# Poissons Ratio (z) = 0.19534 0.15147
#
# Static dielectric constant tensor:
#      x y z
#    x 4.337340 0.167290 0.071320 
#    y 0.167290 4.023010 -0.125060 
#    z 0.071320 -0.125060 4.002040 
# 
# 
# High freq. dielectric constant tensor:
#      x y z
#    x 1.885040 0.009060 0.010420 
#    y 0.009060 1.873910 -0.006440 
#    z 0.010420 -0.006440 1.859250 
# 
# From -- ./inp_files/71479.got.cif
#   From: 2010.06.25/outbox.cif.g09.slc.cpg/sg2_36_cif.got.tgz:71479.got - 2010.06.27 13:26:56.
