data_PCOD8015154
_publ_section_title
;
Structure prediction by ZEFSAII (Michael W. Deem and Ramdas Pophale) SiO2 
 PCOD8015154
Probable space group: P -1
;
_chemical_formula_sum "Si O2"
_cell_formula_units_Z 16
_cell_length_a 22.416641
_cell_length_b 6.834249
_cell_length_c 9.125526
_cell_angle_alpha 53.774875
_cell_angle_beta 45.889511
_cell_angle_gamma 50.738652
_cell_volume 748.194686
_symmetry_space_group_name_H-M "P -1"
_symmetry_group_IT_number 2
_symmetry_cell_setting 'triclinic'
loop_
_space_group_symop_operation_xyz
x,y,z
-x,-y,-z
loop_
_atom_site_type_symbol
_atom_site_label
_atom_site_fract_x
_atom_site_fract_y
_atom_site_fract_z
Si Si1 0.968978 0.915876 0.939805
Si Si2 0.694914 0.489911 0.593729
Si Si3 0.733276 0.888231 0.818224
Si Si4 0.598872 0.860790 0.826386
Si Si5 0.884809 0.501613 0.318359
Si Si6 0.373113 0.129636 0.723014
Si Si7 0.460921 0.795343 0.476303
Si Si8 0.084407 0.563494 0.370973
O O1 0.058148 0.722851 0.792157
O O2 0.915931 0.174066 0.821227
O O3 0.900721 0.770278 0.148212
O O4 0.000000 0.000000 0.000000
O O5 0.623191 0.592436 0.806846
O O6 0.779951 0.566917 0.446212
O O7 0.651068 0.622724 0.455767
O O8 0.724618 0.179904 0.666087
O O9 0.670153 0.803300 0.858186
O O10 0.833621 0.690832 0.710633
O O11 0.710028 0.856989 0.040680
O O12 0.607092 0.061607 0.601555
O O13 0.500000 0.000000 0.000000
O O14 0.914197 0.391194 0.478916
O O15 0.456379 0.108711 0.693900
O O16 0.403672 0.859860 0.695814
O O17 0.500000 0.500000 0.500000
O O18 0.000000 0.500000 0.500000
#
# Coordination Sequence:
#
# PCOD8015154 Si02
#       8
#     2   2   2   2   2   2   2   2
#     4  11  25  45  74 101 135 180 228 285 340 407
#     4  11  26  44  66 100 144 177 226 282 336 404
#     4  12  26  43  70 102 137 180 228 282 339 400
#     4  11  23  44  66  99 135 177 231 278 340 403
#     4  11  25  46  70 103 139 183 226 277 350 404
#     4  10  24  41  63 100 131 173 231 274 337 402
#     4  10  21  42  66  91 131 178 222 282 339 393
#     4  12  25  46  73 101 139 181 228 280 345 408
#
# _framework density 21.384808
#
# number of rings (size 3 to 8) (size 9 to 14) (size 15 to 20)
#    0.000    1.000    3.750    1.875    3.500    1.500 
#    4.500    0.000    0.000    0.000    0.000    0.000 
#    0.000    0.000    0.000    0.000    0.000    0.000 
#
# Total GULP energy -198379.308048 kJ/mol
# GULP energy per Si atom -12398.706753 kJ/mol
# Density = 2.133614 g / cm^3
# Si number density = 21.384808 Si / 1000 Ang^3
#
#
#
# Elastic Constant Matrix: (Units=GPa)
#
#
# Indices 1 2 3 4 5 6 
#
# 1 92.4368 32.9113 41.3928 11.0505 14.2328 -7.5164
# 2 32.9113 160.6365 55.1930 7.9187 14.0766 -2.7760
# 3 41.3928 55.1930 110.9682 13.7683 18.0360 1.6060
# 4 11.0505 7.9187 13.7683 45.2703 -7.4375 3.8576
# 5 14.2328 14.0766 18.0360 -7.4375 32.9578 6.7388
# 6 -7.5164 -2.7760 1.6060 3.8576 6.7388 33.9048
#
#
#
# Elastic Compliance Matrix: (Units=1/GPa)
#
#
# Indices 1 2 3 4 5 6 
#
# 1 0.014481 -0.000964 -0.003624 -0.003606 -0.005661 0.004839
# 2 -0.000964 0.007679 -0.003190 -0.000444 -0.001401 0.000895
# 3 -0.003624 -0.003190 0.013180 -0.003357 -0.004978 -0.000318
# 4 -0.003606 -0.000444 -0.003357 0.026322 0.010710 -0.005800
# 5 -0.005661 -0.001401 -0.004978 0.010710 0.040659 -0.010434
# 6 0.004839 0.000895 -0.000318 -0.005800 -0.010434 0.033389
#
#
# Mechanical properties :
#
#
# Convention : Reuss Voigt Hill
#
# Bulk Modulus (GPa) = 50.54793 69.22620 59.88707
# Shear Modulus (GPa) = 31.67332 38.06287 34.86810
#
# Velocity S-wave (km/s) = 3.85270 4.22347 4.04234
# Velocity P-wave (km/s) = 6.59391 7.49837 7.06064
#
# Compressibility (1/GPa) = 0.01978320
#
# Stress axis : x y z
#
# Youngs Moduli (GPa) = 69.05743 130.22745 75.87118
#
# Poissons Ratio (x) = 0.12554 0.27499
# Poissons Ratio (y) = 0.06657 0.24202
# Poissons Ratio (z) = 0.25030 0.41540
#
# Static dielectric constant tensor:
#      x y z
#    x 4.224070 0.212940 0.071200 
#    y 0.212940 4.290900 0.069920 
#    z 0.071200 0.069920 4.105690 
# 
# 
# High freq. dielectric constant tensor:
#      x y z
#    x 1.846670 -0.001540 0.016850 
#    y -0.001540 1.855190 0.016850 
#    z 0.016850 0.016850 1.838130 
# 
# From -- ./inp_files/107669.got.cif
#   From: 2010.06.25/outbox.cif.g09.slc.cpg/sg2_54_cif.got.tgz:107669.got - 2010.06.27 13:26:56.
