data_PCOD8015043
_publ_section_title
;
Structure prediction by ZEFSAII (Michael W. Deem and Ramdas Pophale) SiO2 
 PCOD8015043
Probable space group: P -1
;
_chemical_formula_sum "Si O2"
_cell_formula_units_Z 14
_cell_length_a 14.291024
_cell_length_b 10.749271
_cell_length_c 13.394560
_cell_angle_alpha 100.958631
_cell_angle_beta 138.806817
_cell_angle_gamma 46.470704
_cell_volume 713.728371
_symmetry_space_group_name_H-M "P -1"
_symmetry_group_IT_number 2
_symmetry_cell_setting 'triclinic'
loop_
_space_group_symop_operation_xyz
x,y,z
-x,-y,-z
loop_
_atom_site_type_symbol
_atom_site_label
_atom_site_fract_x
_atom_site_fract_y
_atom_site_fract_z
Si Si1 0.731018 0.549683 0.801919
Si Si2 0.316528 0.719570 0.957431
Si Si3 0.854525 0.225010 0.969077
Si Si4 0.823978 0.944945 0.627515
Si Si5 0.868734 0.664694 0.069857
Si Si6 0.557735 0.805724 0.167391
Si Si7 0.074994 0.414450 0.396672
O O1 0.712474 0.417896 0.801627
O O2 0.979868 0.375384 0.902112
O O3 0.471148 0.781227 0.567970
O O4 0.756554 0.617038 0.930867
O O5 0.013909 0.904839 0.717003
O O6 0.500000 0.500000 0.000000
O O7 0.361153 0.656685 0.102362
O O8 0.369354 0.827498 0.998083
O O9 0.083144 0.135804 0.194769
O O10 0.000000 0.000000 0.000000
O O11 0.841446 0.795089 0.568159
O O12 0.069686 0.483557 0.294381
O O13 0.621667 0.935122 0.946521
O O14 0.779119 0.649853 0.236721
O O15 0.705710 0.680330 0.373927
#
# Coordination Sequence:
#
# PCOD8015043 Si02
#       7
#     2   2   2   2   2   2   2
#     4  11  23  40  63  92 125 166 209 253 316 372
#     4  10  21  42  65  89 128 165 206 256 320 367
#     4  10  22  41  64  86 128 169 206 259 308 373
#     4  10  22  42  65  87 129 165 203 260 315 369
#     4  11  23  38  63  94 125 162 210 259 307 375
#     4  11  22  41  65  94 124 161 214 258 308 374
#     4  11  22  41  67  91 125 164 207 261 314 366
#
# _framework density 19.615304999999999
#
# number of rings (size 3 to 8) (size 9 to 14) (size 15 to 20)
#    0.857    0.571    4.286    1.286    0.000    3.429 
#    2.571    0.714    0.000    0.000    0.000    0.000 
#    0.000    0.000    0.000    0.000    0.000    0.000 
#
# Total GULP energy -173553.735335 kJ/mol
# GULP energy per Si atom -12396.695381 kJ/mol
# Density = 1.957066 g / cm^3
# Si number density = 19.615305 Si / 1000 Ang^3
#
#
#
# Elastic Constant Matrix: (Units=GPa)
#
#
# Indices 1 2 3 4 5 6 
#
# 1 71.0582 41.8942 12.4649 0.2334 -3.2241 5.2867
# 2 41.8942 128.2854 14.8365 -8.3989 -0.4111 5.8109
# 3 12.4649 14.8365 49.0007 -9.2073 -7.2713 4.5934
# 4 0.2334 -8.3989 -9.2073 33.9805 0.6735 -3.7576
# 5 -3.2241 -0.4111 -7.2713 0.6735 30.0993 0.4732
# 6 5.2867 5.8109 4.5934 -3.7576 0.4732 26.0586
#
#
#
# Elastic Compliance Matrix: (Units=1/GPa)
#
#
# Indices 1 2 3 4 5 6 
#
# 1 0.018165 -0.005648 -0.003003 -0.002613 0.001238 -0.002296
# 2 -0.005648 0.009944 -0.001247 0.002116 -0.000809 -0.000532
# 3 -0.003003 -0.001247 0.023650 0.005734 0.005287 -0.002551
# 4 -0.002613 0.002116 0.005734 0.031919 0.000363 0.003644
# 5 0.001238 -0.000809 0.005287 0.000363 0.034639 -0.001579
# 6 -0.002296 -0.000532 -0.002551 0.003644 -0.001579 0.039963
#
#
# Mechanical properties :
#
#
# Convention : Reuss Voigt Hill
#
# Bulk Modulus (GPa) = 31.28506 42.97058 37.12782
# Shear Modulus (GPa) = 26.49288 29.97094 28.23191
#
# Velocity S-wave (km/s) = 3.67907 3.91312 3.79790
# Velocity P-wave (km/s) = 5.83364 6.50930 6.18071
#
# Compressibility (1/GPa) = 0.03196414
#
# Stress axis : x y z
#
# Youngs Moduli (GPa) = 55.05024 100.56496 42.28291
#
# Poissons Ratio (x) = 0.56800 0.12697
# Poissons Ratio (y) = 0.31093 0.05271
# Poissons Ratio (z) = 0.16531 0.12537
#
# Static dielectric constant tensor:
#      x y z
#    x 3.574370 0.200070 0.041040 
#    y 0.200070 4.000850 0.134580 
#    z 0.041040 0.134580 3.473080 
# 
# 
# High freq. dielectric constant tensor:
#      x y z
#    x 1.753550 -0.004170 0.001370 
#    y -0.004170 1.780570 0.005380 
#    z 0.001370 0.005380 1.751580 
# 
# From -- ./inp_files/451562.got.cif
#   From: 2010.06.25/outbox.cif.g09.slc.cpg/sg2_226_cif.got.tgz:451562.got - 2010.06.27 13:26:56.
