data_PCOD8015359
_publ_section_title
;
Structure prediction by ZEFSAII (Michael W. Deem and Ramdas Pophale) SiO2 
 PCOD8015359
Probable space group: P -1
;
_chemical_formula_sum "Si O2"
_cell_formula_units_Z 14
_cell_length_a 13.791035
_cell_length_b 11.227640
_cell_length_c 11.097376
_cell_angle_alpha 106.499487
_cell_angle_beta 33.591902
_cell_angle_gamma 82.894255
_cell_volume 669.089924
_symmetry_space_group_name_H-M "P -1"
_symmetry_group_IT_number 2
_symmetry_cell_setting 'triclinic'
loop_
_space_group_symop_operation_xyz
x,y,z
-x,-y,-z
loop_
_atom_site_type_symbol
_atom_site_label
_atom_site_fract_x
_atom_site_fract_y
_atom_site_fract_z
Si Si1 0.464751 0.315513 0.991124
Si Si2 0.200155 0.872746 0.610924
Si Si3 0.233353 0.368745 0.638736
Si Si4 0.687027 0.171077 0.257949
Si Si5 0.621305 0.434334 0.534141
Si Si6 0.272123 0.195492 0.313098
Si Si7 0.233048 0.638395 0.173057
O O1 0.614968 0.167858 0.692126
O O2 0.664738 0.282296 0.858769
O O3 0.298622 0.304039 0.234706
O O4 0.290398 0.498587 0.163876
O O5 0.269088 0.908326 0.676346
O O6 0.226942 0.710189 0.558446
O O7 0.931192 0.032152 0.890938
O O8 0.459666 0.219562 0.443487
O O9 0.276842 0.477867 0.558511
O O10 0.217123 0.267573 0.527449
O O11 0.000000 0.500000 0.000000
O O12 0.637251 0.344542 0.369038
O O13 0.347984 0.564615 0.900286
O O14 0.050659 0.218506 0.506347
O O15 0.500000 0.000000 0.000000
#
# Coordination Sequence:
#
# PCOD8015359 Si02
#       7
#     2   2   2   2   2   2   2
#     4  10  21  42  70  91 120 171 213 266 317 370
#     4   8  19  37  68  92 117 158 220 263 313 370
#     4  12  25  40  61  91 133 170 210 255 318 388
#     4   9  19  39  62  92 121 159 210 259 316 373
#     4   9  18  40  64  90 117 166 212 256 312 374
#     4  12  28  43  59 102 136 167 211 265 323 385
#     4  10  21  42  68  90 121 167 218 261 310 378
#
# _framework density 20.923945
#
# number of rings (size 3 to 8) (size 9 to 14) (size 15 to 20)
#    0.857    1.143    1.429    1.714    2.000    2.857 
#    0.000    0.714    0.000    0.000    0.000    0.000 
#    0.000    0.000    0.000    0.000    0.000    0.000 
#
# Total GULP energy -173494.962519 kJ/mol
# GULP energy per Si atom -12392.497323 kJ/mol
# Density = 2.087632 g / cm^3
# Si number density = 20.923945 Si / 1000 Ang^3
#
#
#
# Elastic Constant Matrix: (Units=GPa)
#
#
# Indices 1 2 3 4 5 6 
#
# 1 76.2107 7.0005 42.3137 2.2222 -2.4010 -2.6545
# 2 7.0005 50.9058 32.5554 -8.0363 -3.3054 1.7551
# 3 42.3137 32.5554 146.1432 10.7904 -4.7649 -10.0688
# 4 2.2222 -8.0363 10.7904 28.7495 -0.7706 -1.6565
# 5 -2.4010 -3.3054 -4.7649 -0.7706 41.2659 2.5227
# 6 -2.6545 1.7551 -10.0688 -1.6565 2.5227 21.2891
#
#
#
# Elastic Compliance Matrix: (Units=1/GPa)
#
#
# Indices 1 2 3 4 5 6 
#
# 1 0.015702 0.001160 -0.004888 0.000933 0.000486 -0.000435
# 2 0.001160 0.025783 -0.007055 0.009538 0.001789 -0.004788
# 3 -0.004888 -0.007055 0.010532 -0.005286 -0.000010 0.004543
# 4 0.000933 0.009538 -0.005286 0.039374 0.000957 -0.000220
# 5 0.000486 0.001789 -0.000010 0.000957 0.024601 -0.002932
# 6 -0.000435 -0.004788 0.004543 -0.000220 -0.002932 0.049792
#
#
# Mechanical properties :
#
#
# Convention : Reuss Voigt Hill
#
# Bulk Modulus (GPa) = 32.83828 48.55544 40.69686
# Shear Modulus (GPa) = 25.31641 31.02023 28.16832
#
# Velocity S-wave (km/s) = 3.48217 3.85453 3.67307
# Velocity P-wave (km/s) = 5.64761 6.56246 6.12215
#
# Compressibility (1/GPa) = 0.03045227
#
# Stress axis : x y z
#
# Youngs Moduli (GPa) = 63.68772 38.78455 94.94503
#
# Poissons Ratio (x) = -0.04500 0.46406
# Poissons Ratio (y) = -0.07390 0.66987
# Poissons Ratio (z) = 0.31128 0.27364
#
# Static dielectric constant tensor:
#      x y z
#    x 3.736570 -0.107690 0.216220 
#    y -0.107690 3.534650 0.007410 
#    z 0.216220 0.007410 3.813880 
# 
# 
# High freq. dielectric constant tensor:
#      x y z
#    x 1.809760 -0.011410 0.016790 
#    y -0.011410 1.796350 0.007550 
#    z 0.016790 0.007550 1.828280 
# 
# From -- ./inp_files/450184.got.cif
#   From: 2010.06.25/outbox.cif.g09.slc.cpg/sg2_226_cif.got.tgz:450184.got - 2010.06.27 13:26:56.
