data_PCOD8015887
_publ_section_title
;
Structure prediction by ZEFSAII (Michael W. Deem and Ramdas Pophale) SiO2 
 PCOD8015887
Probable space group: P -1
;
_chemical_formula_sum "Si O2"
_cell_formula_units_Z 10
_cell_length_a 11.144216
_cell_length_b 7.870400
_cell_length_c 10.960020
_cell_angle_alpha 97.866080
_cell_angle_beta 137.708657
_cell_angle_gamma 53.315276
_cell_volume 427.887334
_symmetry_space_group_name_H-M "P -1"
_symmetry_group_IT_number 2
_symmetry_cell_setting 'triclinic'
loop_
_space_group_symop_operation_xyz
x,y,z
-x,-y,-z
loop_
_atom_site_type_symbol
_atom_site_label
_atom_site_fract_x
_atom_site_fract_y
_atom_site_fract_z
Si Si1 0.747670 0.300828 0.335856
Si Si2 0.452303 0.696765 0.360337
Si Si3 0.058963 0.070373 0.896005
Si Si4 0.207323 0.597584 0.865903
Si Si5 0.928804 0.518878 0.807852
O O1 0.676427 0.434236 0.425265
O O2 0.796395 0.420725 0.285664
O O3 0.502820 0.354754 0.115202
O O4 0.000000 0.000000 0.500000
O O5 0.610189 0.718107 0.567404
O O6 0.261555 0.702317 0.291841
O O7 0.242570 0.951586 0.143288
O O8 0.090756 0.228155 0.863926
O O9 0.132750 0.851444 0.852863
O O10 0.007191 0.616386 0.786490
O O11 0.000000 0.500000 0.000000
#
# Coordination Sequence:
#
# PCOD8015887 Si02
#       5
#     2   2   2   2   2
#     4  10  21  43  67  88 128 171 206 262 320 372
#     4  10  22  41  65  94 126 168 215 259 316 376
#     4  10  22  43  65  92 130 163 209 269 312 370
#     4  10  24  42  64  97 125 163 216 257 316 383
#     4  12  24  38  64  98 130 168 211 259 317 375
#
# _framework density 23.370636999999999
#
# number of rings (size 3 to 8) (size 9 to 14) (size 15 to 20)
#    0.000    1.600    0.000    5.400    0.000    7.200 
#    0.000   14.000    0.000    0.000    0.000    0.000 
#    0.000    0.000    0.000    0.000    0.000    0.000 
#
# Total GULP energy -123939.482354 kJ/mol
# GULP energy per Si atom -12393.948235 kJ/mol
# Density = 2.331744 g / cm^3
# Si number density = 23.370637 Si / 1000 Ang^3
#
#
#
# Elastic Constant Matrix: (Units=GPa)
#
#
# Indices 1 2 3 4 5 6 
#
# 1 111.1762 32.2946 25.3669 15.9537 8.6357 -1.9065
# 2 32.2946 93.5675 44.5606 -12.4148 6.8009 1.6096
# 3 25.3669 44.5606 160.9514 5.9351 21.8364 -8.8661
# 4 15.9537 -12.4148 5.9351 35.5189 -10.4772 0.6369
# 5 8.6357 6.8009 21.8364 -10.4772 21.0254 2.8415
# 6 -1.9065 1.6096 -8.8661 0.6369 2.8415 43.8464
#
#
#
# Elastic Compliance Matrix: (Units=1/GPa)
#
#
# Indices 1 2 3 4 5 6 
#
# 1 0.012896 -0.005993 0.001661 -0.011465 -0.011067 0.002000
# 2 -0.005993 0.016312 -0.005412 0.012055 0.009181 -0.002724
# 3 0.001661 -0.005412 0.009801 -0.008384 -0.013730 0.003264
# 4 -0.011465 0.012055 -0.008384 0.049296 0.034840 -0.005610
# 5 -0.011067 0.009181 -0.013730 0.034840 0.082031 -0.009417
# 6 0.002000 -0.002724 0.003264 -0.005610 -0.009417 0.024346
#
#
# Mechanical properties :
#
#
# Convention : Reuss Voigt Hill
#
# Bulk Modulus (GPa) = 51.22484 63.34880 57.28682
# Shear Modulus (GPa) = 22.65754 37.64301 30.15028
#
# Velocity S-wave (km/s) = 3.11704 4.01770 3.59568
# Velocity P-wave (km/s) = 5.90937 6.97765 6.46561
#
# Compressibility (1/GPa) = 0.01952178
#
# Stress axis : x y z
#
# Youngs Moduli (GPa) = 77.54467 61.30300 102.02716
#
# Poissons Ratio (x) = 0.36741 -0.16950
# Poissons Ratio (y) = 0.46475 0.55215
# Poissons Ratio (z) = -0.12882 0.33176
#
# Static dielectric constant tensor:
#      x y z
#    x 4.270520 -0.091270 -0.144170 
#    y -0.091270 4.045870 0.051080 
#    z -0.144170 0.051080 4.629460 
# 
# 
# High freq. dielectric constant tensor:
#      x y z
#    x 1.918910 -0.002520 -0.018540 
#    y -0.002520 1.904640 -0.011670 
#    z -0.018540 -0.011670 1.951410 
# 
# From -- ./inp_files/230243.got.cif
#   From: 2010.06.25/outbox.cif.g09.slc.cpg/sg2_116_cif.got.tgz:230243.got - 2010.06.27 13:26:56.
