data_PCOD8015966
_publ_section_title
;
Structure prediction by ZEFSAII (Michael W. Deem and Ramdas Pophale) SiO2 
 PCOD8015966
Probable space group: P -1
;
_chemical_formula_sum "Si O2"
_cell_formula_units_Z 16
_cell_length_a 9.696748
_cell_length_b 21.768144
_cell_length_c 12.370100
_cell_angle_alpha 27.794770
_cell_angle_beta 47.863797
_cell_angle_gamma 38.995716
_cell_volume 764.935639
_symmetry_space_group_name_H-M "P -1"
_symmetry_group_IT_number 2
_symmetry_cell_setting 'triclinic'
loop_
_space_group_symop_operation_xyz
x,y,z
-x,-y,-z
loop_
_atom_site_type_symbol
_atom_site_label
_atom_site_fract_x
_atom_site_fract_y
_atom_site_fract_z
Si Si1 0.213306 0.325101 0.767460
Si Si2 0.993801 0.680106 0.327303
Si Si3 0.021645 0.662243 0.920759
Si Si4 0.249167 0.114293 0.482707
Si Si5 0.379092 0.912258 0.179665
Si Si6 0.771368 0.154238 0.416177
Si Si7 0.296144 0.296452 0.363928
Si Si8 0.047687 0.931580 0.963199
O O1 0.155766 0.498050 0.524168
O O2 0.470157 0.236147 0.743831
O O3 0.091670 0.275800 0.820499
O O4 0.169381 0.285873 0.971042
O O5 0.784656 0.720495 0.449705
O O6 0.147160 0.745516 0.188966
O O7 0.191216 0.704737 0.811914
O O8 0.897148 0.760176 0.727123
O O9 0.168724 0.476863 0.112363
O O10 0.227077 0.209215 0.453186
O O11 0.500000 0.000000 0.500000
O O12 0.165485 0.997420 0.728122
O O13 0.298246 0.871806 0.391309
O O14 0.180278 0.026462 0.032381
O O15 0.500000 0.000000 0.000000
O O16 0.562972 0.212119 0.354889
O O17 0.000000 0.000000 0.500000
O O18 0.000000 0.000000 0.000000
#
# Coordination Sequence:
#
# PCOD8015966 Si02
#       8
#     2   2   2   2   2   2   2   2
#     4  10  22  41  71  98 137 168 224 278 343 401
#     4  10  21  43  68 103 127 176 224 282 334 401
#     4  11  25  44  68 100 136 180 227 283 347 411
#     4  12  27  46  65  99 139 184 229 281 344 412
#     4  12  23  42  68 100 136 175 224 284 337 403
#     4  12  24  41  65 103 135 172 234 281 339 405
#     4  11  23  45  70  95 139 182 224 284 348 407
#     4  12  25  44  69  95 136 178 234 278 336 409
#
# _framework density 20.916792999999998
#
# number of rings (size 3 to 8) (size 9 to 14) (size 15 to 20)
#    0.000    0.750    5.000    2.250    1.750    0.000 
#    2.250    0.625    0.000    0.000    0.000    0.000 
#    0.000    0.000    0.000    0.000    0.000    0.000 
#
# Total GULP energy -198284.997234 kJ/mol
# GULP energy per Si atom -12392.812327 kJ/mol
# Density = 2.086919 g / cm^3
# Si number density = 20.916793 Si / 1000 Ang^3
#
#
#
# Elastic Constant Matrix: (Units=GPa)
#
#
# Indices 1 2 3 4 5 6 
#
# 1 107.0177 25.9424 36.1811 -12.5636 -14.9322 1.9545
# 2 25.9424 121.0279 36.2321 -7.9060 -9.4009 -6.4033
# 3 36.1811 36.2321 99.5919 -8.7518 -15.8857 -3.7119
# 4 -12.5636 -7.9060 -8.7518 27.0182 9.8628 -4.5518
# 5 -14.9322 -9.4009 -15.8857 9.8628 40.5694 -4.8252
# 6 1.9545 -6.4033 -3.7119 -4.5518 -4.8252 37.4431
#
#
#
# Elastic Compliance Matrix: (Units=1/GPa)
#
#
# Indices 1 2 3 4 5 6 
#
# 1 0.011323 -0.001164 -0.003136 0.003154 0.001846 -0.000480
# 2 -0.001164 0.009570 -0.002783 0.001438 0.000548 0.001667
# 3 -0.003136 -0.002783 0.012840 0.000981 0.003167 0.001488
# 4 0.003154 0.001438 0.000981 0.042882 -0.008029 0.004357
# 5 0.001846 0.000548 0.003167 -0.008029 0.029013 0.003074
# 6 -0.000480 0.001667 0.001488 0.004357 0.003074 0.028091
#
#
# Mechanical properties :
#
#
# Convention : Reuss Voigt Hill
#
# Bulk Modulus (GPa) = 51.10832 58.26096 54.68464
# Shear Modulus (GPa) = 32.38180 36.29159 34.33670
#
# Velocity S-wave (km/s) = 3.93889 4.16991 4.05604
# Velocity P-wave (km/s) = 6.72113 7.14831 6.93801
#
# Compressibility (1/GPa) = 0.01956629
#
# Stress axis : x y z
#
# Youngs Moduli (GPa) = 88.31216 104.49454 77.88415
#
# Poissons Ratio (x) = 0.12165 0.24428
# Poissons Ratio (y) = 0.10281 0.21673
# Poissons Ratio (z) = 0.27699 0.29078
#
# Static dielectric constant tensor:
#      x y z
#    x 2.561470 0.646510 0.335140 
#    y 0.646510 3.825400 -0.429630 
#    z 0.335140 -0.429630 3.912990 
# 
# 
# High freq. dielectric constant tensor:
#      x y z
#    x 1.816070 0.009730 -0.005630 
#    y 0.009730 1.829160 -0.006400 
#    z -0.005630 -0.006400 1.837110 
# 
# From -- ./inp_files/184365.got.cif
#   From: 2010.06.25/outbox.cif.g09.slc.cpg/sg2_93_cif.got.tgz:184365.got - 2010.06.27 13:26:56.
