data_PCOD8015518
_publ_section_title
;
Structure prediction by ZEFSAII (Michael W. Deem and Ramdas Pophale) SiO2 
 PCOD8015518
Probable space group: P -1
;
_chemical_formula_sum "Si O2"
_cell_formula_units_Z 16
_cell_length_a 15.495169
_cell_length_b 18.485445
_cell_length_c 24.252990
_cell_angle_alpha 19.493202
_cell_angle_beta 19.950741
_cell_angle_gamma 30.769666
_cell_volume 768.628612
_symmetry_space_group_name_H-M "P -1"
_symmetry_group_IT_number 2
_symmetry_cell_setting 'triclinic'
loop_
_space_group_symop_operation_xyz
x,y,z
-x,-y,-z
loop_
_atom_site_type_symbol
_atom_site_label
_atom_site_fract_x
_atom_site_fract_y
_atom_site_fract_z
Si Si1 0.057219 0.637977 0.921771
Si Si2 0.273689 0.041605 0.067401
Si Si3 0.160948 0.371786 0.346727
Si Si4 0.991544 0.330910 0.867018
Si Si5 0.485463 0.051198 0.336250
Si Si6 0.434316 0.124721 0.785390
Si Si7 0.028182 0.370454 0.237736
Si Si8 0.485885 0.789024 0.912095
O O1 0.824901 0.754110 0.993543
O O2 0.326394 0.823235 0.621556
O O3 0.093887 0.461689 0.071653
O O4 0.000000 0.500000 0.000000
O O5 0.373966 0.102921 0.901776
O O6 0.042891 0.820440 0.361031
O O7 0.500000 0.000000 0.000000
O O8 0.367526 0.265573 0.266182
O O9 0.004459 0.490057 0.312545
O O10 0.308240 0.546193 0.178428
O O11 0.275595 0.283954 0.736237
O O12 0.911223 0.418977 0.909661
O O13 0.777845 0.101067 0.148745
O O14 0.499619 0.035893 0.272611
O O15 0.735795 0.232207 0.519101
O O16 0.364026 0.884691 0.969721
O O17 0.217636 0.211670 0.252064
#
# Coordination Sequence:
#
# PCOD8015518 Si02
#       8
#     2   2   2   2   2   2   2   2
#     4  11  26  43  64  95 124 166 215 258 312 372
#     4  11  26  43  63  92 131 168 203 262 321 370
#     4  10  21  42  70  90 126 170 209 252 313 381
#     4  11  21  42  67  94 125 164 211 258 314 372
#     4  10  21  43  68  94 124 166 212 256 312 374
#     4  12  27  40  62 100 129 164 210 262 319 364
#     4  12  23  42  67  90 127 172 211 257 305 384
#     4  11  23  43  67  94 125 169 214 254 310 377
#
# _framework density 20.816296000000001
#
# number of rings (size 3 to 8) (size 9 to 14) (size 15 to 20)
#    0.000    1.000    3.750    3.000    5.250    4.000 
#    2.250    0.000    0.000    0.000    0.000    0.000 
#    0.000    0.000    0.000    0.000    0.000    0.000 
#
# Total GULP energy -198466.264962 kJ/mol
# GULP energy per Si atom -12404.141560 kJ/mol
# Density = 2.076892 g / cm^3
# Si number density = 20.816296 Si / 1000 Ang^3
#
#
#
# Elastic Constant Matrix: (Units=GPa)
#
#
# Indices 1 2 3 4 5 6 
#
# 1 137.8477 54.3894 53.4251 -0.9659 -5.2984 8.8851
# 2 54.3894 89.6379 16.7319 3.7372 -4.0798 13.4281
# 3 53.4251 16.7319 97.4905 -3.4903 11.8507 6.8038
# 4 -0.9659 3.7372 -3.4903 20.4721 -0.7113 -10.5684
# 5 -5.2984 -4.0798 11.8507 -0.7113 19.1485 5.1994
# 6 8.8851 13.4281 6.8038 -10.5684 5.1994 40.1753
#
#
#
# Elastic Compliance Matrix: (Units=1/GPa)
#
#
# Indices 1 2 3 4 5 6 
#
# 1 0.012404 -0.006018 -0.006483 0.000656 0.006261 -0.000272
# 2 -0.006018 0.016041 0.000392 -0.006196 0.002938 -0.006107
# 3 -0.006483 0.000392 0.015130 0.002211 -0.011202 0.000772
# 4 0.000656 -0.006196 0.002211 0.059421 -0.005146 0.017849
# 5 0.006261 0.002938 -0.011202 -0.005146 0.064069 -0.010115
# 6 -0.000272 -0.006107 0.000772 0.017849 -0.010115 0.032866
#
#
# Mechanical properties :
#
#
# Convention : Reuss Voigt Hill
#
# Bulk Modulus (GPa) = 51.66120 63.78543 57.72331
# Shear Modulus (GPa) = 21.68230 29.32119 25.50174
#
# Velocity S-wave (km/s) = 3.23089 3.75716 3.50392
# Velocity P-wave (km/s) = 6.22814 7.03777 6.64530
#
# Compressibility (1/GPa) = 0.01935689
#
# Stress axis : x y z
#
# Youngs Moduli (GPa) = 80.61690 62.33903 66.09403
#
# Poissons Ratio (x) = 0.37516 0.42851
# Poissons Ratio (y) = 0.48516 -0.02591
# Poissons Ratio (z) = 0.52267 -0.02444
#
# Static dielectric constant tensor:
#      x y z
#    x 3.958330 0.003370 -0.130700 
#    y 0.003370 3.921540 0.010870 
#    z -0.130700 0.010870 3.784950 
# 
# 
# High freq. dielectric constant tensor:
#      x y z
#    x 1.826340 0.001230 -0.010130 
#    y 0.001230 1.813870 0.000230 
#    z -0.010130 0.000230 1.817690 
# 
# From -- ./inp_files/189912.got.cif
#   From: 2010.06.25/outbox.cif.g09.slc.cpg/sg2_95_cif.got.tgz:189912.got - 2010.06.27 13:26:56.
