data_PCOD8015449
_publ_section_title
;
Structure prediction by ZEFSAII (Michael W. Deem and Ramdas Pophale) SiO2 
 PCOD8015449
Probable space group: P -1
;
_chemical_formula_sum "Si O2"
_cell_formula_units_Z 16
_cell_length_a 15.684242
_cell_length_b 5.263821
_cell_length_c 9.508532
_cell_angle_alpha 121.149411
_cell_angle_beta 89.382764
_cell_angle_gamma 74.419374
_cell_volume 636.384487
_symmetry_space_group_name_H-M "P -1"
_symmetry_group_IT_number 2
_symmetry_cell_setting 'triclinic'
loop_
_space_group_symop_operation_xyz
x,y,z
-x,-y,-z
loop_
_atom_site_type_symbol
_atom_site_label
_atom_site_fract_x
_atom_site_fract_y
_atom_site_fract_z
Si Si1 0.696895 0.323638 0.768958
Si Si2 0.586516 0.012888 0.319347
Si Si3 0.756354 0.091501 0.224831
Si Si4 0.823262 0.185363 0.969229
Si Si5 0.753961 0.586345 0.573040
Si Si6 0.932962 0.613948 0.159726
Si Si7 0.938134 0.546961 0.647040
Si Si8 0.485115 0.572392 0.290786
O O1 0.755028 0.406865 0.918126
O O2 0.698353 0.523294 0.686808
O O3 0.589168 0.426065 0.827679
O O4 0.736078 0.948384 0.642180
O O5 0.690995 0.911668 0.239592
O O6 0.531411 0.228840 0.255023
O O7 0.569556 0.197487 0.519325
O O8 0.559145 0.700021 0.251301
O O9 0.725224 0.442820 0.391165
O O10 0.858841 0.945748 0.231898
O O11 0.759155 0.081911 0.051745
O O12 0.896457 0.899711 0.808150
O O13 0.877985 0.368236 0.109340
O O14 0.857183 0.418171 0.570874
O O15 0.993931 0.660119 0.298947
O O16 0.000000 0.500000 0.000000
O O17 0.000000 0.500000 0.500000
#
# Coordination Sequence:
#
# PCOD8015449 Si02
#       8
#     2   2   2   2   2   2   2   2
#     4  11  24  47  72 103 142 185 234 293 352 414
#     4  10  23  39  69 104 142 178 233 289 351 416
#     4  12  27  44  69 104 142 190 232 292 363 421
#     4  11  27  45  67 100 144 185 234 297 356 425
#     4  11  26  43  71 106 139 183 240 294 349 416
#     4  12  26  46  70  97 139 191 238 292 357 424
#     4  11  25  45  69 103 137 183 243 298 349 416
#     4  10  21  42  69 106 138 180 233 292 343 421
#
# _framework density 25.142033000000001
#
# number of rings (size 3 to 8) (size 9 to 14) (size 15 to 20)
#    0.000    1.000    2.500    2.625   14.000    0.500 
#    0.000    1.250    0.000    0.000    0.000    0.000 
#    0.000    0.000    0.000    0.000    0.000    0.000 
#
# Total GULP energy -198322.245481 kJ/mol
# GULP energy per Si atom -12395.140343 kJ/mol
# Density = 2.508481 g / cm^3
# Si number density = 25.142033 Si / 1000 Ang^3
#
#
#
# Elastic Constant Matrix: (Units=GPa)
#
#
# Indices 1 2 3 4 5 6 
#
# 1 133.4580 4.7025 18.6169 -17.4298 -3.4694 -5.7366
# 2 4.7025 68.0627 9.9299 -18.3978 -4.1766 2.5884
# 3 18.6169 9.9299 93.5642 -19.1060 -14.2998 4.5449
# 4 -17.4298 -18.3978 -19.1060 29.5835 -0.1248 3.1537
# 5 -3.4694 -4.1766 -14.2998 -0.1248 30.3264 -13.7571
# 6 -5.7366 2.5884 4.5449 3.1537 -13.7571 48.0803
#
#
#
# Elastic Compliance Matrix: (Units=1/GPa)
#
#
# Indices 1 2 3 4 5 6 
#
# 1 0.008266 0.000889 -0.000585 0.004941 0.001283 0.001037
# 2 0.000889 0.018066 0.000897 0.012458 0.002599 -0.001025
# 3 -0.000585 0.000897 0.013532 0.008997 0.006404 -0.000155
# 4 0.004941 0.012458 0.008997 0.050579 0.005520 -0.002670
# 5 0.001283 0.002599 0.006404 0.005520 0.041472 0.010912
# 6 0.001037 -0.001025 -0.000155 -0.002670 0.010912 0.024289
#
#
# Mechanical properties :
#
#
# Convention : Reuss Voigt Hill
#
# Bulk Modulus (GPa) = 23.65899 40.17595 31.91747
# Shear Modulus (GPa) = 29.78098 39.05372 34.41735
#
# Velocity S-wave (km/s) = 3.44540 3.94550 3.70390
# Velocity P-wave (km/s) = 5.02576 6.06385 5.56905
#
# Compressibility (1/GPa) = 0.04226723
#
# Stress axis : x y z
#
# Youngs Moduli (GPa) = 120.97208 55.35223 73.89674
#
# Poissons Ratio (x) = -0.04920 0.04319
# Poissons Ratio (y) = -0.10753 -0.06627
# Poissons Ratio (z) = 0.07071 -0.04964
#
# Static dielectric constant tensor:
#      x y z
#    x 2.946100 0.872710 4.525090 
#    y 0.872710 4.234790 -1.186460 
#    z 4.525090 -1.186460 -2.834230 
# 
# 
# High freq. dielectric constant tensor:
#      x y z
#    x 2.022920 -0.005170 -0.002180 
#    y -0.005170 1.993360 -0.009420 
#    z -0.002180 -0.009420 1.991610 
# 
# From -- ./inp_files/289151.got.cif
#   From: 2010.06.25/outbox.cif.g09.slc.cpg/sg2_145_cif.got.tgz:289151.got - 2010.06.27 13:26:56.
