data_PCOD8015255
_publ_section_title
;
Structure prediction by ZEFSAII (Michael W. Deem and Ramdas Pophale) SiO2 
 PCOD8015255
Probable space group: P -1
;
_chemical_formula_sum "Si O2"
_cell_formula_units_Z 16
_cell_length_a 11.560045
_cell_length_b 9.516594
_cell_length_c 17.968058
_cell_angle_alpha 61.829157
_cell_angle_beta 150.222691
_cell_angle_gamma 125.144798
_cell_volume 800.882214
_symmetry_space_group_name_H-M "P -1"
_symmetry_group_IT_number 2
_symmetry_cell_setting 'triclinic'
loop_
_space_group_symop_operation_xyz
x,y,z
-x,-y,-z
loop_
_atom_site_type_symbol
_atom_site_label
_atom_site_fract_x
_atom_site_fract_y
_atom_site_fract_z
Si Si1 0.945346 0.167279 0.915272
Si Si2 0.032182 0.532376 0.638813
Si Si3 0.532372 0.961989 0.409980
Si Si4 0.604822 0.613242 0.211306
Si Si5 0.001006 0.134477 0.530972
Si Si6 0.515785 0.742628 0.592650
Si Si7 0.278451 0.498546 0.928187
Si Si8 0.844449 0.618504 0.890295
O O1 0.662586 0.122919 0.742875
O O2 0.137113 0.307846 0.931449
O O3 0.958235 0.231109 0.990086
O O4 0.000000 0.000000 0.000000
O O5 0.191217 0.446907 0.700476
O O6 0.081505 0.721074 0.588393
O O7 0.094464 0.549408 0.758124
O O8 0.741196 0.416921 0.495007
O O9 0.521082 0.808121 0.496113
O O10 0.807011 0.037506 0.510426
O O11 0.454688 0.104130 0.371878
O O12 0.425882 0.460950 0.200733
O O13 0.737399 0.779166 0.297337
O O14 0.412534 0.637217 0.034828
O O15 0.000000 0.000000 0.500000
O O16 0.761100 0.689248 0.750773
O O17 0.500000 0.500000 0.000000
O O18 0.000000 0.500000 0.000000
#
# Coordination Sequence:
#
# PCOD8015255 Si02
#       8
#     2   2   2   2   2   2   2   2
#     4  11  22  38  61  94 131 158 207 259 320 378
#     4  11  20  42  71  93 122 171 225 267 316 388
#     4  11  24  40  65 103 128 162 217 284 320 374
#     4  10  21  42  67  90 122 169 221 259 314 394
#     4  12  26  41  62  95 132 168 210 267 331 385
#     4  11  21  41  70  98 128 165 223 271 324 380
#     4   9  21  37  64  96 119 161 214 263 312 378
#     4  11  24  41  62  93 128 176 209 256 324 397
#
# _framework density 19.977969999999999
#
# number of rings (size 3 to 8) (size 9 to 14) (size 15 to 20)
#    0.000    1.250    5.000    1.125    5.250    0.000 
#    4.500    1.875    0.000    0.000    0.000    0.000 
#    0.000    0.000    0.000    0.000    0.000    0.000 
#
# Total GULP energy -198218.809217 kJ/mol
# GULP energy per Si atom -12388.675576 kJ/mol
# Density = 1.993250 g / cm^3
# Si number density = 19.977970 Si / 1000 Ang^3
#
#
#
# Elastic Constant Matrix: (Units=GPa)
#
#
# Indices 1 2 3 4 5 6 
#
# 1 41.3500 30.0460 26.6430 -7.0818 -9.9322 -4.5974
# 2 30.0460 73.2755 38.5693 4.5917 -2.1904 -16.5878
# 3 26.6430 38.5693 156.7791 4.7056 -22.6556 -17.8471
# 4 -7.0818 4.5917 4.7056 38.5907 -6.7049 -0.7641
# 5 -9.9322 -2.1904 -22.6556 -6.7049 28.9621 7.9827
# 6 -4.5974 -16.5878 -17.8471 -0.7641 7.9827 29.6646
#
#
#
# Elastic Compliance Matrix: (Units=1/GPa)
#
#
# Indices 1 2 3 4 5 6 
#
# 1 0.046158 -0.020724 -0.001565 0.014251 0.019137 -0.010159
# 2 -0.020724 0.027020 -0.003274 -0.008665 -0.013291 0.013281
# 3 -0.001565 -0.003274 0.008400 0.000042 0.005373 0.001535
# 4 0.014251 -0.008665 0.000042 0.031720 0.013072 -0.005312
# 5 0.019137 -0.013291 0.005373 0.013072 0.051373 -0.014721
# 6 -0.010159 0.013281 0.001535 -0.005312 -0.014721 0.044311
#
#
# Mechanical properties :
#
#
# Convention : Reuss Voigt Hill
#
# Bulk Modulus (GPa) = 32.83740 51.32457 42.08098
# Shear Modulus (GPa) = 18.50081 31.18657 24.84369
#
# Velocity S-wave (km/s) = 3.04643 3.95530 3.53023
# Velocity P-wave (km/s) = 5.37092 6.82682 6.14216
#
# Compressibility (1/GPa) = 0.03045308
#
# Stress axis : x y z
#
# Youngs Moduli (GPa) = 21.66450 37.00907 119.05143
#
# Poissons Ratio (x) = 0.76698 0.18626
# Poissons Ratio (y) = 0.44898 0.38980
# Poissons Ratio (z) = 0.03389 0.12118
#
# Static dielectric constant tensor:
#      x y z
#    x 3.704870 0.162150 -0.422920 
#    y 0.162150 3.601790 0.122000 
#    z -0.422920 0.122000 4.308090 
# 
# 
# High freq. dielectric constant tensor:
#      x y z
#    x 1.765660 0.018940 -0.019110 
#    y 0.018940 1.766430 0.013890 
#    z -0.019110 0.013890 1.807400 
# 
# From -- ./inp_files/216439.got.cif
#   From: 2010.06.25/outbox.cif.g09.slc.cpg/sg2_109_cif.got.tgz:216439.got - 2010.06.27 13:26:56.
