data_PCOD8015758
_publ_section_title
;
Structure prediction by ZEFSAII (Michael W. Deem and Ramdas Pophale) SiO2 
 PCOD8015758
Probable space group: P -1
;
_chemical_formula_sum "Si O2"
_cell_formula_units_Z 16
_cell_length_a 7.997574
_cell_length_b 12.088261
_cell_length_c 14.369957
_cell_angle_alpha 122.530069
_cell_angle_beta 140.008783
_cell_angle_gamma 77.356625
_cell_volume 703.321284
_symmetry_space_group_name_H-M "P -1"
_symmetry_group_IT_number 2
_symmetry_cell_setting 'triclinic'
loop_
_space_group_symop_operation_xyz
x,y,z
-x,-y,-z
loop_
_atom_site_type_symbol
_atom_site_label
_atom_site_fract_x
_atom_site_fract_y
_atom_site_fract_z
Si Si1 0.344741 0.346479 0.328993
Si Si2 0.962973 0.028705 0.217177
Si Si3 0.750337 0.224073 0.111113
Si Si4 0.175372 0.042604 0.504361
Si Si5 0.505653 0.707172 0.137266
Si Si6 0.321997 0.287463 0.078060
Si Si7 0.120910 0.408260 0.877389
Si Si8 0.433028 0.804924 0.509956
O O1 0.500000 0.500000 0.500000
O O2 0.339030 0.347322 0.215712
O O3 0.500009 0.238600 0.377419
O O4 0.053892 0.311854 0.242888
O O5 0.941648 0.026625 0.318673
O O6 0.273915 0.140441 0.392056
O O7 0.744458 0.080474 0.092225
O O8 0.902730 0.871162 0.085193
O O9 0.624363 0.299129 0.170478
O O10 0.553087 0.194406 0.922927
O O11 0.394260 0.201581 0.684706
O O12 0.332244 0.934105 0.511699
O O13 0.000000 0.000000 0.500000
O O14 0.747379 0.655937 0.178258
O O15 0.224233 0.575895 0.981671
O O16 0.208900 0.381518 0.006002
O O17 0.786908 0.336034 0.693705
#
# Coordination Sequence:
#
# PCOD8015758 Si02
#       8
#     2   2   2   2   2   2   2   2
#     4  11  27  45  67 101 136 181 229 275 342 408
#     4  11  25  42  65  99 137 171 225 278 343 401
#     4  10  24  44  67  98 133 177 224 278 339 401
#     4  12  23  40  67 102 132 174 228 276 338 397
#     4  10  22  39  68  97 135 175 229 276 336 403
#     4  11  24  44  70  96 136 178 226 282 339 401
#     4  10  21  43  64  98 134 181 221 277 340 403
#     4  11  24  43  66  95 139 171 223 282 332 400
#
# _framework density 22.749203999999999
#
# number of rings (size 3 to 8) (size 9 to 14) (size 15 to 20)
#    0.000    1.250    2.500    2.250    5.250    3.500 
#    0.000    1.875    0.000    0.000    0.000    0.000 
#    0.000    0.000    0.000    0.000    0.000    0.000 
#
# Total GULP energy -198241.718138 kJ/mol
# GULP energy per Si atom -12390.107384 kJ/mol
# Density = 2.269743 g / cm^3
# Si number density = 22.749204 Si / 1000 Ang^3
#
#
#
# Elastic Constant Matrix: (Units=GPa)
#
#
# Indices 1 2 3 4 5 6 
#
# 1 93.0348 24.3986 41.8174 -3.4884 -5.0236 22.5548
# 2 24.3986 120.4026 50.0131 -13.7746 -11.2139 15.3239
# 3 41.8174 50.0131 126.9899 13.9391 -20.5373 10.2040
# 4 -3.4884 -13.7746 13.9391 41.9778 3.5878 0.3919
# 5 -5.0236 -11.2139 -20.5373 3.5878 38.8243 -3.6077
# 6 22.5548 15.3239 10.2040 0.3919 -3.6077 24.6837
#
#
#
# Elastic Compliance Matrix: (Units=1/GPa)
#
#
# Indices 1 2 3 4 5 6 
#
# 1 0.016228 0.000888 -0.005351 0.003721 -0.002075 -0.013531
# 2 0.000888 0.011611 -0.005043 0.005639 -0.000284 -0.006066
# 3 -0.005351 -0.005043 0.013021 -0.006945 0.005714 0.003582
# 4 0.003721 0.005639 -0.006945 0.028738 -0.004700 -0.005173
# 5 -0.002075 -0.000284 0.005714 -0.004700 0.029241 0.004059
# 6 -0.013531 -0.006066 0.003582 -0.005173 0.004059 0.055837
#
#
# Mechanical properties :
#
#
# Convention : Reuss Voigt Hill
#
# Bulk Modulus (GPa) = 45.76528 63.65397 54.70963
# Shear Modulus (GPa) = 27.62896 36.04369 31.83633
#
# Velocity S-wave (km/s) = 3.48875 3.98476 3.74498
# Velocity P-wave (km/s) = 6.03237 7.01517 6.54225
#
# Compressibility (1/GPa) = 0.02185062
#
# Stress axis : x y z
#
# Youngs Moduli (GPa) = 61.62003 86.12577 76.79818
#
# Poissons Ratio (x) = -0.07652 0.41092
# Poissons Ratio (y) = -0.05475 0.38728
# Poissons Ratio (z) = 0.32971 0.43432
#
# Static dielectric constant tensor:
#      x y z
#    x 4.092980 0.038620 1.175030 
#    y 0.038620 4.917870 -1.754180 
#    z 1.175030 -1.754180 9.859290 
# 
# 
# High freq. dielectric constant tensor:
#      x y z
#    x 1.889950 0.018640 0.015550 
#    y 0.018640 1.913960 -0.008120 
#    z 0.015550 -0.008120 1.899310 
# 
# From -- ./inp_files/500752.got.cif
#   From: 2010.06.25/outbox.cif.g09.slc.cpg/sg2_251_cif.got.tgz:500752.got - 2010.06.27 13:26:56.
