data_PCOD8015332
_publ_section_title
;
Structure prediction by ZEFSAII (Michael W. Deem and Ramdas Pophale) SiO2 
 PCOD8015332
Probable space group: P -1
;
_chemical_formula_sum "Si O2"
_cell_formula_units_Z 16
_cell_length_a 25.620508
_cell_length_b 5.532300
_cell_length_c 11.450568
_cell_angle_alpha 118.783766
_cell_angle_beta 30.284802
_cell_angle_gamma 106.698441
_cell_volume 686.385244
_symmetry_space_group_name_H-M "P -1"
_symmetry_group_IT_number 2
_symmetry_cell_setting 'triclinic'
loop_
_space_group_symop_operation_xyz
x,y,z
-x,-y,-z
loop_
_atom_site_type_symbol
_atom_site_label
_atom_site_fract_x
_atom_site_fract_y
_atom_site_fract_z
Si Si1 0.317117 0.979792 0.714864
Si Si2 0.215330 0.781922 0.057502
Si Si3 0.084112 0.396035 0.211542
Si Si4 0.571630 0.176399 0.775007
Si Si5 0.058942 0.815692 0.736856
Si Si6 0.393104 0.865350 0.047862
Si Si7 0.590638 0.577099 0.267852
Si Si8 0.823577 0.824919 0.574686
O O1 0.410289 0.093618 0.626670
O O2 0.349685 0.857113 0.495115
O O3 0.194125 0.180920 0.997631
O O4 0.305234 0.739212 0.771799
O O5 0.117231 0.677157 0.170221
O O6 0.166403 0.088376 0.288387
O O7 0.284595 0.580352 0.977203
O O8 0.000000 0.500000 0.500000
O O9 0.035445 0.257555 0.169894
O O10 0.642236 0.112215 0.742739
O O11 0.500000 0.500000 0.000000
O O12 0.503260 0.951469 0.840877
O O13 0.135375 0.522294 0.579870
O O14 0.116490 0.005547 0.589702
O O15 0.000000 0.000000 0.000000
O O16 0.301209 0.090864 0.203838
O O17 0.418341 0.533126 0.873600
O O18 0.500000 0.500000 0.500000
#
# Coordination Sequence:
#
# PCOD8015332 Si02
#       8
#     2   2   2   2   2   2   2   2
#     4  11  25  42  70 106 137 187 245 302 364 440
#     4  10  24  41  72 105 134 190 240 306 366 431
#     4  11  24  46  72  99 143 184 245 303 368 435
#     4  11  26  44  68 103 145 196 239 293 375 443
#     4  12  28  48  73 110 145 196 249 304 376 440
#     4  10  25  45  69 100 143 191 238 302 366 441
#     4  10  21  42  67  98 136 179 239 298 353 434
#     4  11  26  48  76 107 148 189 250 307 373 439
#
# _framework density 23.310524000000001
#
# number of rings (size 3 to 8) (size 9 to 14) (size 15 to 20)
#    0.000    1.250    2.500    1.125   10.500    3.500 
#    0.000    0.000    0.000    0.000    0.000    0.000 
#    0.000    0.000    0.000    0.000    0.000    0.000 
#
# Total GULP energy -198215.643493 kJ/mol
# GULP energy per Si atom -12388.477718 kJ/mol
# Density = 2.325747 g / cm^3
# Si number density = 23.310524 Si / 1000 Ang^3
#
#
#
# Elastic Constant Matrix: (Units=GPa)
#
#
# Indices 1 2 3 4 5 6 
#
# 1 115.2261 35.4395 38.3221 -8.6459 28.4613 24.4537
# 2 35.4395 107.3051 42.0257 -13.3159 25.1974 8.3958
# 3 38.3221 42.0257 123.3111 -18.3797 39.3378 12.6812
# 4 -8.6459 -13.3159 -18.3797 36.3668 -5.7107 3.6847
# 5 28.4613 25.1974 39.3378 -5.7107 50.2014 0.5975
# 6 24.4537 8.3958 12.6812 3.6847 0.5975 40.0365
#
#
#
# Elastic Compliance Matrix: (Units=1/GPa)
#
#
# Indices 1 2 3 4 5 6 
#
# 1 0.012401 -0.001839 -0.000477 0.001903 -0.005432 -0.007132
# 2 -0.001839 0.011804 -0.002035 0.002476 -0.002995 -0.000891
# 3 -0.000477 -0.002035 0.012545 0.004590 -0.007974 -0.003559
# 4 0.001903 0.002476 0.004590 0.031427 -0.002273 -0.005994
# 5 -0.005432 -0.002995 -0.007974 -0.002273 0.030419 0.006227
# 6 -0.007132 -0.000891 -0.003559 -0.005994 0.006227 0.031106
#
#
# Mechanical properties :
#
#
# Convention : Reuss Voigt Hill
#
# Bulk Modulus (GPa) = 35.65344 64.15742 49.90543
# Shear Modulus (GPa) = 33.83995 40.65792 37.24893
#
# Velocity S-wave (km/s) = 3.81425 4.18088 4.00177
# Velocity P-wave (km/s) = 5.89290 7.13365 6.54275
#
# Compressibility (1/GPa) = 0.02804779
#
# Stress axis : x y z
#
# Youngs Moduli (GPa) = 80.63849 84.71744 79.70986
#
# Poissons Ratio (x) = 0.15579 0.03803
# Poissons Ratio (y) = 0.14829 0.16223
# Poissons Ratio (z) = 0.03847 0.17242
#
# Static dielectric constant tensor:
#      x y z
#    x 4.225290 0.043080 0.234090 
#    y 0.043080 3.994650 0.328070 
#    z 0.234090 0.328070 4.038740 
# 
# 
# High freq. dielectric constant tensor:
#      x y z
#    x 1.929920 0.012400 0.002070 
#    y 0.012400 1.925130 -0.003350 
#    z 0.002070 -0.003350 1.927200 
# 
# From -- ./inp_files/126825.got.cif
#   From: 2010.06.25/outbox.cif.g09.slc.cpg/sg2_64_cif.got.tgz:126825.got - 2010.06.27 13:26:56.
