data_PCOD8015997
_publ_section_title
;
Structure prediction by ZEFSAII (Michael W. Deem and Ramdas Pophale) SiO2 
 PCOD8015997
Probable space group: P -1
;
_chemical_formula_sum "Si O2"
_cell_formula_units_Z 14
_cell_length_a 10.803938
_cell_length_b 8.941756
_cell_length_c 14.016597
_cell_angle_alpha 55.836004
_cell_angle_beta 148.510849
_cell_angle_gamma 114.040844
_cell_volume 577.177389
_symmetry_space_group_name_H-M "P -1"
_symmetry_group_IT_number 2
_symmetry_cell_setting 'triclinic'
loop_
_space_group_symop_operation_xyz
x,y,z
-x,-y,-z
loop_
_atom_site_type_symbol
_atom_site_label
_atom_site_fract_x
_atom_site_fract_y
_atom_site_fract_z
Si Si1 0.494896 0.210254 0.340062
Si Si2 0.330128 0.522180 0.790576
Si Si3 0.972818 0.128922 0.046922
Si Si4 0.122651 0.349969 0.434572
Si Si5 0.076471 0.074809 0.336358
Si Si6 0.296921 0.166485 0.784116
Si Si7 0.221349 0.744262 0.310358
O O1 0.560686 0.374485 0.260693
O O2 0.217436 0.197214 0.147968
O O3 0.547095 0.246956 0.473894
O O4 0.652521 0.014459 0.484260
O O5 0.293405 0.322222 0.804851
O O6 0.078938 0.631898 0.621864
O O7 0.500000 0.500000 0.000000
O O8 0.928800 0.177118 0.111939
O O9 0.005034 0.906272 0.141399
O O10 0.751895 0.221938 0.799414
O O11 0.066155 0.231206 0.351396
O O12 0.344144 0.242199 0.681123
O O13 0.151677 0.546010 0.344897
O O14 0.954386 0.909158 0.353377
O O15 0.500000 0.000000 0.000000
#
# Coordination Sequence:
#
# PCOD8015997 Si02
#       7
#     2   2   2   2   2   2   2
#     4  11  22  44  69 100 140 182 236 280 346 414
#     4  12  24  41  73 102 136 183 229 285 352 422
#     4  10  23  44  71 101 134 186 238 278 351 408
#     4  12  24  45  68 102 140 181 226 287 355 408
#     4  11  24  43  68  98 143 179 225 293 336 415
#     4  12  26  45  67 105 141 177 233 288 352 412
#     4  10  21  43  68  95 134 179 233 284 335 408
#
# _framework density 24.255977000000001
#
# number of rings (size 3 to 8) (size 9 to 14) (size 15 to 20)
#    0.000    0.857    2.857    6.000    2.000    1.714 
#    2.571    2.857    0.000    0.000    0.000    0.000 
#    0.000    0.000    0.000    0.000    0.000    0.000 
#
# Total GULP energy -173523.779108 kJ/mol
# GULP energy per Si atom -12394.555651 kJ/mol
# Density = 2.420077 g / cm^3
# Si number density = 24.255977 Si / 1000 Ang^3
#
#
#
# Elastic Constant Matrix: (Units=GPa)
#
#
# Indices 1 2 3 4 5 6 
#
# 1 77.5345 62.7151 34.5187 -8.0819 -37.2961 -27.9477
# 2 62.7151 199.0718 49.5640 -3.8120 -22.8733 -22.0656
# 3 34.5187 49.5640 115.5138 -10.3115 -55.6505 -14.0181
# 4 -8.0819 -3.8120 -10.3115 32.2354 0.5354 -15.4818
# 5 -37.2961 -22.8733 -55.6505 0.5354 45.6001 6.1770
# 6 -27.9477 -22.0656 -14.0181 -15.4818 6.1770 40.7290
#
#
#
# Elastic Compliance Matrix: (Units=1/GPa)
#
#
# Indices 1 2 3 4 5 6 
#
# 1 0.225885 -0.044745 0.138737 0.188967 0.301689 0.204584
# 2 -0.044745 0.014761 -0.029427 -0.035872 -0.059614 -0.037429
# 3 0.138737 -0.029427 0.110320 0.126942 0.213833 0.133050
# 4 0.188967 -0.035872 0.126942 0.202022 0.263266 0.190788
# 5 0.301689 -0.059614 0.213833 0.263266 0.458883 0.278793
# 6 0.204584 -0.037429 0.133050 0.190788 0.278793 0.220691
#
#
# Mechanical properties :
#
#
# Convention : Reuss Voigt Hill
#
# Bulk Modulus (GPa) = 2.08292 76.19064 39.13678
# Shear Modulus (GPa) = 3.95738 40.06772 22.01255
#
# Velocity S-wave (km/s) = 1.27869 4.06873 3.01576
# Velocity P-wave (km/s) = 1.74375 7.31792 5.31943
#
# Compressibility (1/GPa) = 0.48009610
#
# Stress axis : x y z
#
# Youngs Moduli (GPa) = 4.42703 67.74587 9.06456
#
# Poissons Ratio (x) = 3.03132 -1.25759
# Poissons Ratio (y) = 0.19809 0.26674
# Poissons Ratio (z) = -0.61419 1.99353
#
# Static dielectric constant tensor:
#      x y z
#    x 4.717180 0.130050 -0.536750 
#    y 0.130050 4.467550 0.009490 
#    z -0.536750 0.009490 4.574240 
# 
# 
# High freq. dielectric constant tensor:
#      x y z
#    x 1.951150 0.003860 -0.038410 
#    y 0.003860 1.977080 -0.000800 
#    z -0.038410 -0.000800 1.970880 
# 
# From -- ./inp_files/184720.got.cif
#   From: 2010.06.25/outbox.cif.g09.slc.cpg/sg2_93_cif.got.tgz:184720.got - 2010.06.27 13:26:56.
