data_PCOD8015772
_publ_section_title
;
Structure prediction by ZEFSAII (Michael W. Deem and Ramdas Pophale) SiO2 
 PCOD8015772
Probable space group: P -1
;
_chemical_formula_sum "Si O2"
_cell_formula_units_Z 12
_cell_length_a 9.008110
_cell_length_b 9.522769
_cell_length_c 8.783253
_cell_angle_alpha 73.565027
_cell_angle_beta 59.127704
_cell_angle_gamma 75.387227
_cell_volume 614.997813
_symmetry_space_group_name_H-M "P -1"
_symmetry_group_IT_number 2
_symmetry_cell_setting 'triclinic'
loop_
_space_group_symop_operation_xyz
x,y,z
-x,-y,-z
loop_
_atom_site_type_symbol
_atom_site_label
_atom_site_fract_x
_atom_site_fract_y
_atom_site_fract_z
Si Si1 0.635209 0.867804 0.531835
Si Si2 0.857392 0.901929 0.149232
Si Si3 0.018340 0.423229 0.852073
Si Si4 0.548039 0.086318 0.093956
Si Si5 0.349708 0.459849 0.482252
Si Si6 0.662595 0.399171 0.875380
O O1 0.826361 0.888420 0.354214
O O2 0.623720 0.867843 0.722615
O O3 0.591909 0.708893 0.546501
O O4 0.500000 0.000000 0.500000
O O5 0.915692 0.745240 0.091750
O O6 0.674736 0.967740 0.156080
O O7 0.000000 0.000000 0.000000
O O8 0.163288 0.489179 0.655012
O O9 0.836082 0.439472 0.853225
O O10 0.000000 0.500000 0.000000
O O11 0.643096 0.227296 0.959848
O O12 0.500000 0.000000 0.000000
O O13 0.500000 0.500000 0.500000
O O14 0.329583 0.570016 0.316726
O O15 0.500000 0.500000 0.000000
#
# Coordination Sequence:
#
# PCOD8015772 Si02
#       6
#     2   2   2   2   2   2
#     4   9  21  39  63  88 127 161 211 257 316 382
#     4  10  21  43  65  88 128 169 210 261 327 377
#     4  11  25  42  66  96 131 170 220 270 322 390
#     4  11  24  41  65  96 129 167 216 266 324 389
#     4  11  24  41  68  95 129 173 217 265 335 384
#     4  12  24  42  66  93 136 171 218 275 322 384
#
# _framework density 19.512264999999999
#
# number of rings (size 3 to 8) (size 9 to 14) (size 15 to 20)
#    0.000    1.333    3.333    1.500    9.333    0.000 
#    0.000    0.833    0.000    0.000    0.000    0.000 
#    0.000    0.000    0.000    0.000    0.000    0.000 
#
# Total GULP energy -148730.680439 kJ/mol
# GULP energy per Si atom -12394.223370 kJ/mol
# Density = 1.946785 g / cm^3
# Si number density = 19.512265 Si / 1000 Ang^3
#
#
#
# Elastic Constant Matrix: (Units=GPa)
#
#
# Indices 1 2 3 4 5 6 
#
# 1 133.1609 41.4628 79.8878 11.2699 -1.0703 12.6737
# 2 41.4628 112.8153 72.6176 14.0384 2.1019 0.6199
# 3 79.8878 72.6176 197.4272 14.6644 -1.1956 21.0625
# 4 11.2699 14.0384 14.6644 37.5740 1.3011 6.4195
# 5 -1.0703 2.1019 -1.1956 1.3011 35.7184 0.5022
# 6 12.6737 0.6199 21.0625 6.4195 0.5022 32.0211
#
#
#
# Elastic Compliance Matrix: (Units=1/GPa)
#
#
# Indices 1 2 3 4 5 6 
#
# 1 0.010214 -0.001484 -0.003341 -0.000938 0.000339 -0.001633
# 2 -0.001484 0.012478 -0.004155 -0.003204 -0.000854 0.003734
# 3 -0.003341 -0.004155 0.008390 -0.000033 0.000484 -0.004117
# 4 -0.000938 -0.003204 -0.000033 0.029049 -0.000824 -0.005356
# 5 0.000339 -0.000854 0.000484 -0.000824 0.028113 -0.000712
# 6 -0.001633 0.003734 -0.004117 -0.005356 -0.000712 0.035596
#
#
# Mechanical properties :
#
#
# Convention : Reuss Voigt Hill
#
# Bulk Modulus (GPa) = 76.20784 92.37109 84.28947
# Shear Modulus (GPa) = 34.20588 37.69172 35.94880
#
# Velocity S-wave (km/s) = 4.19148 4.39987 4.29694
# Velocity P-wave (km/s) = 7.90986 8.55889 8.24077
#
# Compressibility (1/GPa) = 0.01312201
#
# Stress axis : x y z
#
# Youngs Moduli (GPa) = 97.90686 80.14236 119.18995
#
# Poissons Ratio (x) = 0.11891 0.39824
# Poissons Ratio (y) = 0.14527 0.49521
# Poissons Ratio (z) = 0.32713 0.33297
#
# Static dielectric constant tensor:
#      x y z
#    x 3.476210 -0.184630 -0.177740 
#    y -0.184630 3.838340 0.059370 
#    z -0.177740 0.059370 4.289470 
# 
# 
# High freq. dielectric constant tensor:
#      x y z
#    x 1.734160 -0.006350 -0.007010 
#    y -0.006350 1.777700 -0.000890 
#    z -0.007010 -0.000890 1.791150 
# 
# From -- ./inp_files/144593.got.cif
#   From: 2010.06.25/outbox.cif.g09.slc.cpg/sg2_73_cif.got.tgz:144593.got - 2010.06.27 13:26:56.
