data_PCOD8015859
_publ_section_title
;
Structure prediction by ZEFSAII (Michael W. Deem and Ramdas Pophale) SiO2 
 PCOD8015859
Probable space group: P -1
;
_chemical_formula_sum "Si O2"
_cell_formula_units_Z 16
_cell_length_a 10.873026
_cell_length_b 8.530572
_cell_length_c 14.033612
_cell_angle_alpha 144.160914
_cell_angle_beta 86.275787
_cell_angle_gamma 107.417083
_cell_volume 689.427022
_symmetry_space_group_name_H-M "P -1"
_symmetry_group_IT_number 2
_symmetry_cell_setting 'triclinic'
loop_
_space_group_symop_operation_xyz
x,y,z
-x,-y,-z
loop_
_atom_site_type_symbol
_atom_site_label
_atom_site_fract_x
_atom_site_fract_y
_atom_site_fract_z
Si Si1 0.828185 0.907402 0.814423
Si Si2 0.914214 0.568688 0.959002
Si Si3 0.849504 0.364257 0.481854
Si Si4 0.355954 0.501305 0.732861
Si Si5 0.784059 0.172403 0.601926
Si Si6 0.324124 0.709591 0.045383
Si Si7 0.362605 0.434983 0.191572
Si Si8 0.629059 0.000013 0.168671
O O1 0.797935 0.621484 0.610598
O O2 0.773493 0.808253 0.874318
O O3 0.748458 0.071259 0.848264
O O4 0.991326 0.095037 0.910334
O O5 0.896946 0.358255 0.765256
O O6 0.768557 0.534149 0.992117
O O7 0.000000 0.500000 0.000000
O O8 0.849441 0.243612 0.528762
O O9 0.740871 0.101312 0.295345
O O10 0.000000 0.500000 0.500000
O O11 0.508185 0.524390 0.730684
O O12 0.340789 0.743104 0.784644
O O13 0.257752 0.171168 0.543220
O O14 0.321684 0.558218 0.869949
O O15 0.655373 0.259124 0.663423
O O16 0.477106 0.895253 0.167917
O O17 0.371211 0.297853 0.022016
#
# Coordination Sequence:
#
# PCOD8015859 Si02
#       8
#     2   2   2   2   2   2   2   2
#     4  10  21  43  66  95 136 178 227 277 338 401
#     4  10  25  42  68  99 134 183 229 280 341 408
#     4  11  29  44  67 102 143 181 229 282 351 409
#     4  11  22  42  73 105 139 172 235 290 334 400
#     4  11  27  44  65 100 142 182 220 294 345 405
#     4  10  21  43  70 103 132 178 234 281 335 400
#     4  10  21  43  70 100 137 183 223 280 351 403
#     4  11  23  43  76 101 135 186 230 284 332 417
#
# _framework density 23.207678000000001
#
# number of rings (size 3 to 8) (size 9 to 14) (size 15 to 20)
#    0.000    1.500    2.500    1.125    8.750    4.500 
#    0.000    5.625    0.000    0.000    0.000    0.000 
#    0.000    0.000    0.000    0.000    0.000    0.000 
#
# Total GULP energy -198338.052473 kJ/mol
# GULP energy per Si atom -12396.128280 kJ/mol
# Density = 2.315486 g / cm^3
# Si number density = 23.207678 Si / 1000 Ang^3
#
#
#
# Elastic Constant Matrix: (Units=GPa)
#
#
# Indices 1 2 3 4 5 6 
#
# 1 99.4578 42.1902 22.6958 -10.0667 11.7562 21.3472
# 2 42.1902 71.6875 30.8741 -7.8049 14.5462 21.1966
# 3 22.6958 30.8741 83.7671 -6.6295 13.7240 8.2358
# 4 -10.0667 -7.8049 -6.6295 38.1669 -9.7303 5.6980
# 5 11.7562 14.5462 13.7240 -9.7303 47.7880 3.2127
# 6 21.3472 21.1966 8.2358 5.6980 3.2127 49.0837
#
#
#
# Elastic Compliance Matrix: (Units=1/GPa)
#
#
# Indices 1 2 3 4 5 6 
#
# 1 0.014068 -0.006547 -0.000774 0.002628 -0.000480 -0.003435
# 2 -0.006547 0.022755 -0.005359 0.002167 -0.002923 -0.006140
# 3 -0.000774 -0.005359 0.014509 0.000605 -0.002242 0.000293
# 4 0.002628 0.002167 0.000605 0.029589 0.004944 -0.005939
# 5 -0.000480 -0.002923 -0.002242 0.004944 0.023602 -0.000272
# 6 -0.003435 -0.006140 0.000293 -0.005939 -0.000272 0.025177
#
#
# Mechanical properties :
#
#
# Convention : Reuss Voigt Hill
#
# Bulk Modulus (GPa) = 38.50306 49.60361 44.05333
# Shear Modulus (GPa) = 30.54009 37.61787 34.07898
#
# Velocity S-wave (km/s) = 3.63153 4.03044 3.83617
# Velocity P-wave (km/s) = 5.84899 6.56349 6.21652
#
# Compressibility (1/GPa) = 0.02597196
#
# Stress axis : x y z
#
# Youngs Moduli (GPa) = 71.08098 43.94603 68.92212
#
# Poissons Ratio (x) = 0.28772 0.05337
# Poissons Ratio (y) = 0.46538 0.36935
# Poissons Ratio (z) = 0.05504 0.23550
#
# Static dielectric constant tensor:
#      x y z
#    x 4.534850 0.478480 0.060590 
#    y 0.478480 4.521810 0.302400 
#    z 0.060590 0.302400 4.367760 
# 
# 
# High freq. dielectric constant tensor:
#      x y z
#    x 1.917930 0.009710 -0.003260 
#    y 0.009710 1.921930 0.005330 
#    z -0.003260 0.005330 1.919470 
# 
# From -- ./inp_files/516462.got.cif
#   From: 2010.06.25/outbox.cif.g09.slc.cpg/sg2_259_cif.got.tgz:516462.got - 2010.06.27 13:26:56.
