data_PCOD8015897
_publ_section_title
;
Structure prediction by ZEFSAII (Michael W. Deem and Ramdas Pophale) SiO2 
 PCOD8015897
Probable space group: P -1
;
_chemical_formula_sum "Si O2"
_cell_formula_units_Z 14
_cell_length_a 9.225536
_cell_length_b 8.575990
_cell_length_c 12.409094
_cell_angle_alpha 82.452809
_cell_angle_beta 99.246063
_cell_angle_gamma 135.510503
_cell_volume 678.875594
_symmetry_space_group_name_H-M "P -1"
_symmetry_group_IT_number 2
_symmetry_cell_setting 'triclinic'
loop_
_space_group_symop_operation_xyz
x,y,z
-x,-y,-z
loop_
_atom_site_type_symbol
_atom_site_label
_atom_site_fract_x
_atom_site_fract_y
_atom_site_fract_z
Si Si1 0.863057 0.842275 0.398863
Si Si2 0.463063 0.860604 0.717676
Si Si3 0.457984 0.729734 0.316402
Si Si4 0.786048 0.429167 0.481904
Si Si5 0.267519 0.465488 0.882226
Si Si6 0.358344 0.463754 0.124716
Si Si7 0.885561 0.009966 0.791275
O O1 0.649252 0.774875 0.380164
O O2 0.811885 0.620354 0.417590
O O3 0.991302 0.972908 0.294703
O O4 0.000000 0.000000 0.500000
O O5 0.375673 0.785567 0.593020
O O6 0.316684 0.660016 0.803731
O O7 0.464801 0.043149 0.737272
O O8 0.693715 0.966532 0.730074
O O9 0.291984 0.623664 0.400809
O O10 0.338873 0.554071 0.220474
O O11 0.000000 0.500000 0.500000
O O12 0.408143 0.427172 0.861002
O O13 0.029228 0.233888 0.858925
O O14 0.311236 0.532907 0.007316
O O15 0.195241 0.196359 0.128235
#
# Coordination Sequence:
#
# PCOD8015897 Si02
#       7
#     2   2   2   2   2   2   2
#     4  12  22  38  64  96 128 164 215 268 313 374
#     4  11  24  41  64  93 131 170 215 256 319 391
#     4  12  24  41  62 100 130 164 216 267 312 378
#     4  12  24  43  66  91 132 173 209 261 325 383
#     4  10  21  43  67  91 130 173 212 258 324 377
#     4  10  22  40  67  98 125 167 218 267 309 378
#     4  11  20  42  65  93 126 171 213 256 325 379
#
# _framework density 20.622335
#
# number of rings (size 3 to 8) (size 9 to 14) (size 15 to 20)
#    0.000    0.857    2.857    5.571    0.000    0.571 
#    0.000    0.714    0.000    0.000    0.000    0.000 
#    0.000    0.000    0.000    0.000    0.000    0.000 
#
# Total GULP energy -173699.951884 kJ/mol
# GULP energy per Si atom -12407.139420 kJ/mol
# Density = 2.057540 g / cm^3
# Si number density = 20.622335 Si / 1000 Ang^3
#
#
#
# Elastic Constant Matrix: (Units=GPa)
#
#
# Indices 1 2 3 4 5 6 
#
# 1 118.8770 51.0876 48.5244 0.7544 3.7354 5.4038
# 2 51.0876 117.0568 43.0707 3.9722 2.1441 7.2716
# 3 48.5244 43.0707 129.4212 3.2234 -5.9350 5.8640
# 4 0.7544 3.9722 3.2234 32.1053 -0.3227 4.8204
# 5 3.7354 2.1441 -5.9350 -0.3227 20.1183 -0.4809
# 6 5.4038 7.2716 5.8640 4.8204 -0.4809 33.5506
#
#
#
# Elastic Compliance Matrix: (Units=1/GPa)
#
#
# Indices 1 2 3 4 5 6 
#
# 1 0.011416 -0.003762 -0.003137 0.000575 -0.002649 -0.000596
# 2 -0.003762 0.011155 -0.002276 -0.000879 -0.001207 -0.001305
# 3 -0.003137 -0.002276 0.009871 -0.000508 0.003714 -0.000600
# 4 0.000575 -0.000879 -0.000508 0.031957 0.000245 -0.004401
# 5 -0.002649 -0.001207 0.003714 0.000245 0.051444 0.000741
# 6 -0.000596 -0.001305 -0.000600 -0.004401 0.000741 0.030932
#
#
# Mechanical properties :
#
#
# Convention : Reuss Voigt Hill
#
# Bulk Modulus (GPa) = 70.96627 72.30229 71.63428
# Shear Modulus (GPa) = 29.44238 31.99964 30.72101
#
# Velocity S-wave (km/s) = 3.78258 3.94343 3.86385
# Velocity P-wave (km/s) = 7.31876 7.47466 7.39712
#
# Compressibility (1/GPa) = 0.01409120
#
# Stress axis : x y z
#
# Youngs Moduli (GPa) = 87.59643 89.64351 101.31075
#
# Poissons Ratio (x) = 0.33724 0.31782
# Poissons Ratio (y) = 0.32954 0.23061
# Poissons Ratio (z) = 0.27480 0.20405
#
# Static dielectric constant tensor:
#      x y z
#    x 3.652090 0.017070 0.069020 
#    y 0.017070 3.872410 -0.027420 
#    z 0.069020 -0.027420 3.789850 
# 
# 
# High freq. dielectric constant tensor:
#      x y z
#    x 1.797650 0.005140 0.005320 
#    y 0.005140 1.820260 0.000170 
#    z 0.005320 0.000170 1.816610 
# 
# From -- ./inp_files/27792.got.cif
#   From: 2010.06.25/outbox.cif.g09.slc.cpg/sg2_14_cif.got.tgz:27792.got - 2010.06.27 13:26:56.
