data_PCOD8015489
_publ_section_title
;
Structure prediction by ZEFSAII (Michael W. Deem and Ramdas Pophale) SiO2 
 PCOD8015489
Probable space group: P -1
;
_chemical_formula_sum "Si O2"
_cell_formula_units_Z 16
_cell_length_a 20.771039
_cell_length_b 5.367774
_cell_length_c 11.600579
_cell_angle_alpha 58.733594
_cell_angle_beta 35.856899
_cell_angle_gamma 62.964054
_cell_volume 646.103927
_symmetry_space_group_name_H-M "P -1"
_symmetry_group_IT_number 2
_symmetry_cell_setting 'triclinic'
loop_
_space_group_symop_operation_xyz
x,y,z
-x,-y,-z
loop_
_atom_site_type_symbol
_atom_site_label
_atom_site_fract_x
_atom_site_fract_y
_atom_site_fract_z
Si Si1 0.898856 0.312328 0.823085
Si Si2 0.916605 0.279025 0.551848
Si Si3 0.440968 0.335645 0.224748
Si Si4 0.201656 0.641842 0.527823
Si Si5 0.418584 0.820448 0.733844
Si Si6 0.901172 0.870001 0.106628
Si Si7 0.299803 0.406397 0.831494
Si Si8 0.301184 0.855398 0.540102
O O1 0.851961 0.303258 0.762420
O O2 0.021531 0.423492 0.621606
O O3 0.826125 0.536977 0.956323
O O4 0.910020 0.976619 0.935401
O O5 0.834755 0.240954 0.572744
O O6 0.000000 0.000000 0.500000
O O7 0.316053 0.456217 0.391421
O O8 0.515315 0.371895 0.219721
O O9 0.420510 0.991673 0.316408
O O10 0.500000 0.500000 0.000000
O O11 0.103523 0.475831 0.776337
O O12 0.232475 0.893506 0.510705
O O13 0.367010 0.587456 0.782410
O O14 0.500000 0.000000 0.500000
O O15 0.331355 0.058372 0.864980
O O16 0.777851 0.988553 0.288525
O O17 0.000000 0.000000 0.000000
O O18 0.320837 0.525715 0.641675
#
# Coordination Sequence:
#
# PCOD8015489 Si02
#       8
#     2   2   2   2   2   2   2   2
#     4  10  25  45  67 105 143 186 249 296 371 442
#     4  11  26  44  70 101 146 195 238 300 371 449
#     4  11  27  46  68 100 143 192 243 300 374 436
#     4  11  25  45  70 102 143 186 245 305 364 437
#     4  12  25  48  77 108 146 193 249 306 374 434
#     4  10  21  42  69  98 135 183 236 298 359 436
#     4  11  26  45  80 111 146 191 250 315 364 444
#     4  10  24  43  69 105 140 185 242 308 362 436
#
# _framework density 24.763817
#
# number of rings (size 3 to 8) (size 9 to 14) (size 15 to 20)
#    0.000    1.250    2.500    1.125   10.500    3.000 
#    0.000    0.000    0.000    0.000    0.000    0.000 
#    0.000    0.000    0.000    0.000    0.000    0.000 
#
# Total GULP energy -198249.241010 kJ/mol
# GULP energy per Si atom -12390.577563 kJ/mol
# Density = 2.470745 g / cm^3
# Si number density = 24.763817 Si / 1000 Ang^3
#
#
#
# Elastic Constant Matrix: (Units=GPa)
#
#
# Indices 1 2 3 4 5 6 
#
# 1 180.0882 16.3184 40.0156 -9.0209 30.0150 -6.1974
# 2 16.3184 58.1506 8.3752 -0.4951 12.2080 -4.5327
# 3 40.0156 8.3752 138.3829 -13.0667 21.4872 -3.4542
# 4 -9.0209 -0.4951 -13.0667 21.6819 -0.0744 -0.0690
# 5 30.0150 12.2080 21.4872 -0.0744 47.5826 -3.3425
# 6 -6.1974 -4.5327 -3.4542 -0.0690 -3.3425 40.7765
#
#
#
# Elastic Compliance Matrix: (Units=1/GPa)
#
#
# Indices 1 2 3 4 5 6 
#
# 1 0.006564 -0.000917 -0.001116 0.002028 -0.003361 0.000529
# 2 -0.000917 0.018434 -0.000207 -0.000094 -0.003947 0.001568
# 3 -0.001116 -0.000207 0.008479 0.004631 -0.003044 0.000284
# 4 0.002028 -0.000094 0.004631 0.049744 -0.003233 0.000509
# 5 -0.003361 -0.003947 -0.003044 -0.003233 0.025581 0.000884
# 6 0.000529 0.001568 0.000284 0.000509 0.000884 0.024876
#
#
# Mechanical properties :
#
#
# Convention : Reuss Voigt Hill
#
# Bulk Modulus (GPa) = 34.48787 56.22669 45.35728
# Shear Modulus (GPa) = 33.82405 42.80237 38.31321
#
# Velocity S-wave (km/s) = 3.69977 4.16194 3.93764
# Velocity P-wave (km/s) = 5.67521 6.77127 6.24733
#
# Compressibility (1/GPa) = 0.02899570
#
# Stress axis : x y z
#
# Youngs Moduli (GPa) = 152.34986 54.24729 117.94290
#
# Poissons Ratio (x) = 0.04975 0.13163
# Poissons Ratio (y) = 0.13973 0.02445
# Poissons Ratio (z) = 0.17003 0.01124
#
# Static dielectric constant tensor:
#      x y z
#    x 4.980140 0.177730 0.037360 
#    y 0.177730 4.560630 -0.245170 
#    z 0.037360 -0.245170 4.841090 
# 
# 
# High freq. dielectric constant tensor:
#      x y z
#    x 1.995220 -0.001520 0.000420 
#    y -0.001520 1.967870 -0.004280 
#    z 0.000420 -0.004280 1.992650 
# 
# From -- ./inp_files/468248.got.cif
#   From: 2010.06.25/outbox.cif.g09.slc.cpg/sg2_235_cif.got.tgz:468248.got - 2010.06.27 13:26:56.
