data_PCOD8015935
_publ_section_title
;
Structure prediction by ZEFSAII (Michael W. Deem and Ramdas Pophale) SiO2 
 PCOD8015935
Probable space group: P -1
;
_chemical_formula_sum "Si O2"
_cell_formula_units_Z 16
_cell_length_a 23.420593
_cell_length_b 8.722129
_cell_length_c 20.345437
_cell_angle_alpha 137.081150
_cell_angle_beta 20.950273
_cell_angle_gamma 148.501177
_cell_volume 729.503836
_symmetry_space_group_name_H-M "P -1"
_symmetry_group_IT_number 2
_symmetry_cell_setting 'triclinic'
loop_
_space_group_symop_operation_xyz
x,y,z
-x,-y,-z
loop_
_atom_site_type_symbol
_atom_site_label
_atom_site_fract_x
_atom_site_fract_y
_atom_site_fract_z
Si Si1 0.336818 0.039174 0.668566
Si Si2 0.963244 0.726746 0.622173
Si Si3 0.461195 0.327554 0.283027
Si Si4 0.443737 0.685057 0.969114
Si Si5 0.922605 0.596079 0.058918
Si Si6 0.510446 0.956916 0.725295
Si Si7 0.277909 0.147303 0.625209
Si Si8 0.656954 0.579648 0.798999
O O1 0.441553 0.371371 0.686219
O O2 0.278497 0.991653 0.639825
O O3 0.500000 0.000000 0.500000
O O4 0.097467 0.753896 0.863388
O O5 0.889082 0.758504 0.641371
O O6 0.000000 0.500000 0.500000
O O7 0.784821 0.584614 0.829098
O O8 0.194145 0.079281 0.496884
O O9 0.565856 0.429729 0.129749
O O10 0.539259 0.174924 0.188350
O O11 0.652524 0.773197 0.810047
O O12 0.500000 0.000000 0.000000
O O13 0.690502 0.281402 0.182626
O O14 0.913909 0.849445 0.172344
O O15 0.000000 0.500000 0.000000
O O16 0.722983 0.020044 0.489483
O O17 0.565214 0.270882 0.763840
O O18 0.500000 0.500000 0.500000
O O19 0.500000 0.500000 0.000000
#
# Coordination Sequence:
#
# PCOD8015935 Si02
#       8
#     2   2   2   2   2   2   2   2
#     4  12  26  44  66 103 144 179 241 292 343 435
#     4  11  22  47  71 102 141 185 226 292 356 411
#     4  12  25  43  72 101 144 182 234 285 358 412
#     4  11  24  44  72 102 141 183 234 290 347 424
#     4  11  25  44  71  99 140 186 235 289 359 416
#     4  11  23  45  71  99 138 186 232 290 358 414
#     4  10  21  43  67  96 136 180 228 287 346 415
#     4  10  23  44  71 100 141 179 234 288 348 426
#
# _framework density 21.932715000000002
#
# number of rings (size 3 to 8) (size 9 to 14) (size 15 to 20)
#    0.000    1.000    5.000    2.625    3.500    3.500 
#    0.000    0.000    0.000    0.000    0.000    0.000 
#    0.000    0.000    0.000    0.000    0.000    0.000 
#
# Total GULP energy -198288.199887 kJ/mol
# GULP energy per Si atom -12393.012493 kJ/mol
# Density = 2.188280 g / cm^3
# Si number density = 21.932715 Si / 1000 Ang^3
#
#
#
# Elastic Constant Matrix: (Units=GPa)
#
#
# Indices 1 2 3 4 5 6 
#
# 1 157.5881 25.5920 42.0689 12.8465 -9.0491 -22.9326
# 2 25.5920 79.5158 19.4206 11.3735 -1.9311 -4.3757
# 3 42.0689 19.4206 102.8962 11.6439 6.6246 -6.4820
# 4 12.8465 11.3735 11.6439 40.2970 -6.4192 -5.4443
# 5 -9.0491 -1.9311 6.6246 -6.4192 49.7631 6.9933
# 6 -22.9326 -4.3757 -6.4820 -5.4443 6.9933 40.6213
#
#
#
# Elastic Compliance Matrix: (Units=1/GPa)
#
#
# Indices 1 2 3 4 5 6 
#
# 1 0.007978 -0.001581 -0.002739 -0.000632 0.001165 0.003611
# 2 -0.001581 0.013908 -0.001658 -0.002935 0.000104 -0.000070
# 3 -0.002739 -0.001658 0.011591 -0.002366 -0.002443 0.000228
# 4 -0.000632 -0.002935 -0.002366 0.027335 0.003325 0.002040
# 5 0.001165 0.000104 -0.002443 0.003325 0.021483 -0.002974
# 6 0.003611 -0.000070 0.000228 0.002040 -0.002974 0.027470
#
#
# Mechanical properties :
#
#
# Convention : Reuss Voigt Hill
#
# Bulk Modulus (GPa) = 46.46662 57.12923 51.79793
# Shear Modulus (GPa) = 38.79139 42.99752 40.89446
#
# Velocity S-wave (km/s) = 4.21010 4.43248 4.32272
# Velocity P-wave (km/s) = 6.69815 7.23186 6.97012
#
# Compressibility (1/GPa) = 0.02152082
#
# Stress axis : x y z
#
# Youngs Moduli (GPa) = 125.35130 71.89917 86.27601
#
# Poissons Ratio (x) = 0.11368 0.23633
# Poissons Ratio (y) = 0.19820 0.14301
# Poissons Ratio (z) = 0.34336 0.11918
#
# Static dielectric constant tensor:
#      x y z
#    x 4.664440 -0.171320 -0.283760 
#    y -0.171320 6.167900 5.060650 
#    z -0.283760 5.060650 15.058740 
# 
# 
# High freq. dielectric constant tensor:
#      x y z
#    x 1.884220 -0.007710 -0.001350 
#    y -0.007710 1.849400 0.013610 
#    z -0.001350 0.013610 1.868090 
# 
# From -- ./inp_files/601946.got.cif
#   From: 2010.06.25/outbox.cif.g09.slc.cpg/sg2_301_cif.got.tgz:601946.got - 2010.06.27 13:26:56.
