data_PCOD8015435
_publ_section_title
;
Structure prediction by ZEFSAII (Michael W. Deem and Ramdas Pophale) SiO2 
 PCOD8015435
Probable space group: P -1
;
_chemical_formula_sum "Si O2"
_cell_formula_units_Z 14
_cell_length_a 20.877614
_cell_length_b 13.026180
_cell_length_c 8.893445
_cell_angle_alpha 35.216062
_cell_angle_beta 42.010147
_cell_angle_gamma 26.243831
_cell_volume 616.237563
_symmetry_space_group_name_H-M "P -1"
_symmetry_group_IT_number 2
_symmetry_cell_setting 'triclinic'
loop_
_space_group_symop_operation_xyz
x,y,z
-x,-y,-z
loop_
_atom_site_type_symbol
_atom_site_label
_atom_site_fract_x
_atom_site_fract_y
_atom_site_fract_z
Si Si1 0.598809 0.689307 0.162590
Si Si2 0.155207 0.491243 0.557365
Si Si3 0.421085 0.926210 0.682516
Si Si4 0.332516 0.525967 0.025687
Si Si5 0.894653 0.308694 0.270184
Si Si6 0.359223 0.879349 0.519887
Si Si7 0.062344 0.429394 0.310220
O O1 0.638379 0.626380 0.993583
O O2 0.746281 0.452807 0.280331
O O3 0.491928 0.677489 0.412271
O O4 0.500000 0.000000 0.000000
O O5 0.151134 0.523134 0.702665
O O6 0.996399 0.658101 0.576378
O O7 0.255628 0.177880 0.723466
O O8 0.212623 0.588099 0.257275
O O9 0.424365 0.869069 0.571589
O O10 0.500000 0.000000 0.500000
O O11 0.515156 0.652039 0.939031
O O12 0.277395 0.803686 0.764896
O O13 0.979388 0.325370 0.990430
O O14 0.000000 0.000000 0.500000
O O15 0.237132 0.184724 0.304452
O O16 0.000000 0.500000 0.500000
#
# Coordination Sequence:
#
# PCOD8015435 Si02
#       7
#     2   2   2   2   2   2   2
#     4  12  23  48  72 103 147 193 248 298 367 431
#     4  11  24  46  70 100 146 190 237 295 368 437
#     4  10  21  42  69 101 135 185 234 291 367 427
#     4  11  25  42  74 108 139 189 248 305 358 433
#     4  12  29  47  74 107 144 191 247 306 361 437
#     4  12  25  43  73 106 143 190 244 306 360 438
#     4  12  26  48  73 103 145 195 242 294 375 439
#
# _framework density 22.718509999999998
#
# number of rings (size 3 to 8) (size 9 to 14) (size 15 to 20)
#    0.000    0.571    2.857    6.429    4.000    1.714 
#    0.000    0.000    0.000    0.000    0.000    0.000 
#    0.000    0.000    0.000    0.000    0.000    0.000 
#
# Total GULP energy -173564.827554 kJ/mol
# GULP energy per Si atom -12397.487682 kJ/mol
# Density = 2.266680 g / cm^3
# Si number density = 22.718510 Si / 1000 Ang^3
#
#
#
# Elastic Constant Matrix: (Units=GPa)
#
#
# Indices 1 2 3 4 5 6 
#
# 1 122.4721 31.9447 37.1199 9.1529 17.6520 -12.0878
# 2 31.9447 88.5000 43.3110 10.0649 11.4819 -12.0860
# 3 37.1199 43.3110 145.1106 7.6472 3.3147 -4.7994
# 4 9.1529 10.0649 7.6472 45.8468 1.0649 7.0166
# 5 17.6520 11.4819 3.3147 1.0649 38.8739 0.6767
# 6 -12.0878 -12.0860 -4.7994 7.0166 0.6767 43.6907
#
#
#
# Elastic Compliance Matrix: (Units=1/GPa)
#
#
# Indices 1 2 3 4 5 6 
#
# 1 0.010090 -0.001733 -0.001809 -0.001614 -0.003914 0.002433
# 2 -0.001733 0.014994 -0.003682 -0.002831 -0.003316 0.003770
# 3 -0.001809 -0.003682 0.008415 -0.000173 0.001206 -0.000586
# 4 -0.001614 -0.002831 -0.000173 0.023532 0.001027 -0.005044
# 5 -0.003914 -0.003316 0.001206 0.001027 0.028393 -0.002472
# 6 0.002433 0.003770 -0.000586 -0.005044 -0.002472 0.025388
#
#
# Mechanical properties :
#
#
# Convention : Reuss Voigt Hill
#
# Bulk Modulus (GPa) = 52.49134 64.53708 58.51421
# Shear Modulus (GPa) = 37.99040 41.92943 39.95991
#
# Velocity S-wave (km/s) = 4.09372 4.30071 4.19849
# Velocity P-wave (km/s) = 6.74537 7.28906 7.02248
#
# Compressibility (1/GPa) = 0.01905076
#
# Stress axis : x y z
#
# Youngs Moduli (GPa) = 99.10468 66.69267 118.83227
#
# Poissons Ratio (x) = 0.11560 0.21495
# Poissons Ratio (y) = 0.17178 0.43757
# Poissons Ratio (z) = 0.17927 0.24558
#
# Static dielectric constant tensor:
#      x y z
#    x 4.230430 -0.307310 0.273770 
#    y -0.307310 4.329170 -0.123970 
#    z 0.273770 -0.123970 4.423830 
# 
# 
# High freq. dielectric constant tensor:
#      x y z
#    x 1.909710 -0.009260 0.009300 
#    y -0.009260 1.893830 0.004900 
#    z 0.009300 0.004900 1.901380 
# 
# From -- ./inp_files/332705.got.cif
#   From: 2010.06.25/outbox.cif.g09.slc.cpg/sg2_167_cif.got.tgz:332705.got - 2010.06.27 13:26:56.
