data_PCOD8015068
_publ_section_title
;
Structure prediction by ZEFSAII (Michael W. Deem and Ramdas Pophale) SiO2 
 PCOD8015068
Probable space group: P -1
;
_chemical_formula_sum "Si O2"
_cell_formula_units_Z 16
_cell_length_a 9.463867
_cell_length_b 15.019216
_cell_length_c 11.789578
_cell_angle_alpha 150.515828
_cell_angle_beta 81.354827
_cell_angle_gamma 109.526016
_cell_volume 740.766725
_symmetry_space_group_name_H-M "P -1"
_symmetry_group_IT_number 2
_symmetry_cell_setting 'triclinic'
loop_
_space_group_symop_operation_xyz
x,y,z
-x,-y,-z
loop_
_atom_site_type_symbol
_atom_site_label
_atom_site_fract_x
_atom_site_fract_y
_atom_site_fract_z
Si Si1 0.339624 0.093572 0.411733
Si Si2 0.713352 0.496874 0.416572
Si Si3 0.886217 0.240988 0.071725
Si Si4 0.405808 0.120877 0.682405
Si Si5 0.761801 0.484554 0.652587
Si Si6 0.532874 0.479356 0.210908
Si Si7 0.181724 0.055420 0.057153
Si Si8 0.330086 0.926627 0.698150
O O1 0.322592 0.139287 0.597036
O O2 0.346499 0.291728 0.568608
O O3 0.487838 0.046624 0.300855
O O4 0.179389 0.900801 0.187040
O O5 0.849252 0.435121 0.285828
O O6 0.682486 0.423207 0.468912
O O7 0.565411 0.397845 0.238298
O O8 0.754972 0.727881 0.656111
O O9 0.073286 0.322787 0.155893
O O10 0.798983 0.103050 0.035922
O O11 0.500000 0.000000 0.500000
O O12 0.286475 0.994968 0.657914
O O13 0.535568 0.333027 0.947976
O O14 0.645286 0.544958 0.805940
O O15 0.781257 0.301306 0.508604
O O16 0.289574 0.063083 0.944332
O O17 0.000000 0.000000 0.000000
#
# Coordination Sequence:
#
# PCOD8015068 Si02
#       8
#     2   2   2   2   2   2   2   2
#     4  10  23  43  68  92 128 170 224 274 316 375
#     4  12  22  38  63  96 132 176 208 261 321 391
#     4  12  24  43  62  98 139 171 210 268 325 386
#     4  10  21  42  65  94 127 166 220 280 316 367
#     4  11  23  40  63  96 138 169 210 262 327 393
#     4  11  23  40  67  97 121 172 224 263 323 387
#     4  12  23  39  66  95 138 176 209 260 332 392
#     4  10  22  41  65  96 129 175 216 267 323 379
#
# _framework density 21.599243999999999
#
# number of rings (size 3 to 8) (size 9 to 14) (size 15 to 20)
#    0.000    1.000    3.750    4.125    0.000    1.500 
#    0.000    1.250    0.000    0.000    0.000    0.000 
#    0.000    0.000    0.000    0.000    0.000    0.000 
#
# Total GULP energy -198233.989760 kJ/mol
# GULP energy per Si atom -12389.624360 kJ/mol
# Density = 2.155008 g / cm^3
# Si number density = 21.599244 Si / 1000 Ang^3
#
#
#
# Elastic Constant Matrix: (Units=GPa)
#
#
# Indices 1 2 3 4 5 6 
#
# 1 65.7959 30.0780 44.1162 -9.5684 -3.6678 -8.8925
# 2 30.0780 127.1245 51.1780 -3.7058 8.8646 -18.3515
# 3 44.1162 51.1780 141.0580 -13.1145 -8.9070 -6.7106
# 4 -9.5684 -3.7058 -13.1145 36.0261 -11.7014 -0.3401
# 5 -3.6678 8.8646 -8.9070 -11.7014 27.1313 -1.0618
# 6 -8.8925 -18.3515 -6.7106 -0.3401 -1.0618 18.7941
#
#
#
# Elastic Compliance Matrix: (Units=1/GPa)
#
#
# Indices 1 2 3 4 5 6 
#
# 1 0.021354 -0.002393 -0.004720 0.005277 0.004647 0.006440
# 2 -0.002393 0.011452 -0.003643 -0.002683 -0.006091 0.008357
# 3 -0.004720 -0.003643 0.010545 0.004045 0.005695 -0.001630
# 4 0.005277 -0.002683 0.004045 0.036481 0.018771 0.003042
# 5 0.004647 -0.006091 0.005695 0.018771 0.049497 0.001420
# 6 0.006440 0.008357 -0.001630 0.003042 0.001420 0.063968
#
#
# Mechanical properties :
#
#
# Convention : Reuss Voigt Hill
#
# Bulk Modulus (GPa) = 45.78843 64.96921 55.37882
# Shear Modulus (GPa) = 22.51342 30.29738 26.40540
#
# Velocity S-wave (km/s) = 3.23201 3.74933 3.50024
# Velocity P-wave (km/s) = 5.93068 6.99200 6.48309
#
# Compressibility (1/GPa) = 0.02183958
#
# Stress axis : x y z
#
# Youngs Moduli (GPa) = 46.82977 87.32070 94.82864
#
# Poissons Ratio (x) = 0.20894 0.44758
# Poissons Ratio (y) = 0.11205 0.34548
# Poissons Ratio (z) = 0.22103 0.31813
#
# Static dielectric constant tensor:
#      x y z
#    x 3.759900 -0.572720 0.032390 
#    y -0.572720 5.801260 -0.938500 
#    z 0.032390 -0.938500 4.791400 
# 
# 
# High freq. dielectric constant tensor:
#      x y z
#    x 1.822800 -0.021170 -0.017690 
#    y -0.021170 1.845670 0.008410 
#    z -0.017690 0.008410 1.863350 
# 
# From -- ./inp_files/400018.got.cif
#   From: 2010.06.25/outbox.cif.g09.slc.cpg/sg2_201_cif.got.tgz:400018.got - 2010.06.27 13:26:56.
