data_PCOD8015267
_publ_section_title
;
Structure prediction by ZEFSAII (Michael W. Deem and Ramdas Pophale) SiO2 
 PCOD8015267
Probable space group: P -1
;
_chemical_formula_sum "Si O2"
_cell_formula_units_Z 16
_cell_length_a 12.074505
_cell_length_b 11.920560
_cell_length_c 11.744772
_cell_angle_alpha 138.462974
_cell_angle_beta 72.246684
_cell_angle_gamma 74.326383
_cell_volume 655.646586
_symmetry_space_group_name_H-M "P -1"
_symmetry_group_IT_number 2
_symmetry_cell_setting 'triclinic'
loop_
_space_group_symop_operation_xyz
x,y,z
-x,-y,-z
loop_
_atom_site_type_symbol
_atom_site_label
_atom_site_fract_x
_atom_site_fract_y
_atom_site_fract_z
Si Si1 0.643814 0.526595 0.022645
Si Si2 0.837500 0.004891 0.684895
Si Si3 0.777564 0.322726 0.590187
Si Si4 0.138370 0.568517 0.567374
Si Si5 0.751768 0.931334 0.875480
Si Si6 0.357114 0.882458 0.570660
Si Si7 0.917391 0.512172 0.924175
Si Si8 0.437308 0.386632 0.472022
O O1 0.620717 0.546455 0.907251
O O2 0.707138 0.265798 0.841965
O O3 0.447035 0.800248 0.353952
O O4 0.795366 0.491853 0.985773
O O5 0.714040 0.097020 0.904855
O O6 0.018048 0.910458 0.591198
O O7 0.911292 0.747409 0.406770
O O8 0.763429 0.481461 0.618410
O O9 0.752870 0.167866 0.424270
O O10 0.181328 0.323418 0.387764
O O11 0.219447 0.588317 0.662449
O O12 0.910847 0.843376 0.837288
O O13 0.565939 0.114845 0.148197
O O14 0.526181 0.688991 0.463818
O O15 0.212558 0.201554 0.883920
O O16 0.000000 0.500000 0.000000
O O17 0.500000 0.500000 0.500000
#
# Coordination Sequence:
#
# PCOD8015267 Si02
#       8
#     2   2   2   2   2   2   2   2
#     4  11  23  43  68  97 132 177 227 276 344 416
#     4  10  22  43  70  94 129 183 232 274 338 419
#     4  10  21  42  67  91 133 177 226 270 341 419
#     4  10  23  45  69 100 131 186 226 287 334 415
#     4  10  24  44  71  97 133 182 242 267 343 417
#     4  12  25  41  66 103 138 172 223 291 350 399
#     4  11  24  43  66 100 138 173 224 287 347 401
#     4  12  25  44  64 103 144 174 227 290 350 402
#
# _framework density 24.403392
#
# number of rings (size 3 to 8) (size 9 to 14) (size 15 to 20)
#    0.000    1.250    1.250    4.875    7.000    1.500 
#    2.250    0.000    0.000    0.000    0.000    0.000 
#    0.000    0.000    0.000    0.000    0.000    0.000 
#
# Total GULP energy -198429.801799 kJ/mol
# GULP energy per Si atom -12401.862612 kJ/mol
# Density = 2.434785 g / cm^3
# Si number density = 24.403392 Si / 1000 Ang^3
#
#
#
# Elastic Constant Matrix: (Units=GPa)
#
#
# Indices 1 2 3 4 5 6 
#
# 1 114.4679 19.7691 -3.2905 3.2055 16.2112 -7.6750
# 2 19.7691 102.5633 6.1087 5.0813 6.6436 -3.1572
# 3 -3.2905 6.1087 66.9198 1.5413 12.4487 5.9899
# 4 3.2055 5.0813 1.5413 32.0661 9.2624 1.0371
# 5 16.2112 6.6436 12.4487 9.2624 25.9173 -1.8351
# 6 -7.6750 -3.1572 5.9899 1.0371 -1.8351 39.0392
#
#
#
# Elastic Compliance Matrix: (Units=1/GPa)
#
#
# Indices 1 2 3 4 5 6 
#
# 1 0.010128 -0.001620 0.001838 0.001179 -0.007138 0.001211
# 2 -0.001620 0.010243 -0.000918 -0.001241 -0.000682 0.000652
# 3 0.001838 -0.000918 0.017217 0.002163 -0.010162 -0.002890
# 4 0.001179 -0.001241 0.002163 0.035324 -0.014210 -0.001807
# 5 -0.007138 -0.000682 -0.010162 -0.014210 0.053395 0.002988
# 6 0.001211 0.000652 -0.002890 -0.001807 0.002988 0.026538
#
#
# Mechanical properties :
#
#
# Convention : Reuss Voigt Hill
#
# Bulk Modulus (GPa) = 27.63381 36.56953 32.10167
# Shear Modulus (GPa) = 30.06518 36.82876 33.44697
#
# Velocity S-wave (km/s) = 3.51381 3.88901 3.70616
# Velocity P-wave (km/s) = 5.27359 5.93160 5.61225
#
# Compressibility (1/GPa) = 0.03618755
#
# Stress axis : x y z
#
# Youngs Moduli (GPa) = 98.73747 97.62993 58.08364
#
# Poissons Ratio (x) = 0.15820 -0.10677
# Poissons Ratio (y) = 0.15999 0.05330
# Poissons Ratio (z) = -0.18150 0.08959
#
# Static dielectric constant tensor:
#      x y z
#    x 4.563940 0.016070 -0.052730 
#    y 0.016070 4.382700 -0.069970 
#    z -0.052730 -0.069970 4.485700 
# 
# 
# High freq. dielectric constant tensor:
#      x y z
#    x 1.981530 0.000900 0.003240 
#    y 0.000900 1.969400 -0.001640 
#    z 0.003240 -0.001640 1.954630 
# 
# From -- ./inp_files/429052.got.cif
#   From: 2010.06.25/outbox.cif.g09.slc.cpg/sg2_215_cif.got.tgz:429052.got - 2010.06.27 13:26:56.
