data_PCOD8015243
_publ_section_title
;
Structure prediction by ZEFSAII (Michael W. Deem and Ramdas Pophale) SiO2 
 PCOD8015243
Probable space group: P -1
;
_chemical_formula_sum "Si O2"
_cell_formula_units_Z 16
_cell_length_a 20.492621
_cell_length_b 9.155576
_cell_length_c 23.651741
_cell_angle_alpha 149.442114
_cell_angle_beta 18.991089
_cell_angle_gamma 148.298852
_cell_volume 716.038340
_symmetry_space_group_name_H-M "P -1"
_symmetry_group_IT_number 2
_symmetry_cell_setting 'triclinic'
loop_
_space_group_symop_operation_xyz
x,y,z
-x,-y,-z
loop_
_atom_site_type_symbol
_atom_site_label
_atom_site_fract_x
_atom_site_fract_y
_atom_site_fract_z
Si Si1 0.161630 0.128723 0.457793
Si Si2 0.564818 0.224042 0.830137
Si Si3 0.347825 0.690920 0.431714
Si Si4 0.914863 0.695951 0.300205
Si Si5 0.813999 0.289995 0.549488
Si Si6 0.188240 0.726092 0.990231
Si Si7 0.936855 0.905454 0.159813
Si Si8 0.801948 0.047247 0.144462
O O1 0.339927 0.387122 0.370711
O O2 0.061607 0.269652 0.639897
O O3 0.238256 0.842585 0.320981
O O4 0.000000 0.000000 0.500000
O O5 0.608582 0.313187 0.758999
O O6 0.500000 0.500000 0.000000
O O7 0.407339 0.918377 0.861928
O O8 0.211207 0.610596 0.460325
O O9 0.225882 0.884833 0.634919
O O10 0.585625 0.838635 0.271783
O O11 0.139320 0.730925 0.098968
O O12 0.777071 0.380102 0.287872
O O13 0.815852 0.946563 0.437429
O O14 0.000000 0.500000 0.500000
O O15 0.017582 0.859428 0.140945
O O16 0.196025 0.400382 0.856520
O O17 0.138509 0.010611 0.988878
O O18 0.000000 0.000000 0.000000
#
# Coordination Sequence:
#
# PCOD8015243 Si02
#       8
#     2   2   2   2   2   2   2   2
#     4  11  27  46  68 101 137 185 241 287 356 432
#     4  11  25  43  71  95 133 181 232 289 353 410
#     4  12  25  44  74 102 142 189 228 293 366 417
#     4  10  22  43  71  91 140 178 224 293 341 416
#     4  11  23  44  70  99 132 182 239 286 349 422
#     4  10  21  42  67 105 131 175 231 289 342 413
#     4  10  23  41  71 102 144 173 229 287 347 421
#     4  11  26  43  66 106 145 184 232 287 355 429
#
# _framework density 22.345172000000002
#
# number of rings (size 3 to 8) (size 9 to 14) (size 15 to 20)
#    0.000    1.250    1.250    3.750    8.750    1.500 
#    2.250    1.250    0.000    0.000    0.000    0.000 
#    0.000    0.000    0.000    0.000    0.000    0.000 
#
# Total GULP energy -198277.063894 kJ/mol
# GULP energy per Si atom -12392.316493 kJ/mol
# Density = 2.229431 g / cm^3
# Si number density = 22.345172 Si / 1000 Ang^3
#
#
#
# Elastic Constant Matrix: (Units=GPa)
#
#
# Indices 1 2 3 4 5 6 
#
# 1 106.4588 33.6168 46.7060 -5.6655 28.6531 -2.3044
# 2 33.6168 102.5123 43.1676 -14.2031 8.9145 -9.3627
# 3 46.7060 43.1676 111.7933 -4.0391 17.1150 2.6012
# 4 -5.6655 -14.2031 -4.0391 46.5049 -11.8851 -4.4345
# 5 28.6531 8.9145 17.1150 -11.8851 32.6169 -5.8857
# 6 -2.3044 -9.3627 2.6012 -4.4345 -5.8857 30.8735
#
#
#
# Elastic Compliance Matrix: (Units=1/GPa)
#
#
# Indices 1 2 3 4 5 6 
#
# 1 0.014749 -0.003007 -0.003242 -0.002619 -0.011778 -0.002159
# 2 -0.003007 0.013514 -0.004559 0.004989 0.004201 0.005776
# 3 -0.003242 -0.004559 0.012684 -0.002063 -0.003990 -0.003750
# 4 -0.002619 0.004989 -0.002063 0.026631 0.013135 0.007821
# 5 -0.011778 0.004201 -0.003990 0.013135 0.048891 0.011938
# 6 -0.002159 0.005776 -0.003750 0.007821 0.011938 0.037696
#
#
# Mechanical properties :
#
#
# Convention : Reuss Voigt Hill
#
# Bulk Modulus (GPa) = 51.73349 63.08279 57.40814
# Shear Modulus (GPa) = 27.43847 35.15068 31.29458
#
# Velocity S-wave (km/s) = 3.50800 3.97051 3.74640
# Velocity P-wave (km/s) = 6.29367 7.02227 6.66793
#
# Compressibility (1/GPa) = 0.01932984
#
# Stress axis : x y z
#
# Youngs Moduli (GPa) = 67.80087 73.99464 78.84189
#
# Poissons Ratio (x) = 0.22253 0.25561
# Poissons Ratio (y) = 0.20390 0.35946
# Poissons Ratio (z) = 0.21981 0.33736
#
# Static dielectric constant tensor:
#      x y z
#    x 4.437870 -0.162550 0.431590 
#    y -0.162550 4.366480 0.115780 
#    z 0.431590 0.115780 4.041070 
# 
# 
# High freq. dielectric constant tensor:
#      x y z
#    x 1.879720 -0.015500 0.022910 
#    y -0.015500 1.891770 0.000880 
#    z 0.022910 0.000880 1.880070 
# 
# From -- ./inp_files/613630.got.cif
#   From: 2010.06.25/outbox.cif.g09.slc.cpg/sg2_307_cif.got.tgz:613630.got - 2010.06.27 13:26:56.
