data_PCOD8015280
_publ_section_title
;
Structure prediction by ZEFSAII (Michael W. Deem and Ramdas Pophale) SiO2 
 PCOD8015280
Probable space group: P -1
;
_chemical_formula_sum "Si O2"
_cell_formula_units_Z 16
_cell_length_a 13.098635
_cell_length_b 8.455875
_cell_length_c 15.891110
_cell_angle_alpha 110.508098
_cell_angle_beta 153.047079
_cell_angle_gamma 80.452683
_cell_volume 701.369692
_symmetry_space_group_name_H-M "P -1"
_symmetry_group_IT_number 2
_symmetry_cell_setting 'triclinic'
loop_
_space_group_symop_operation_xyz
x,y,z
-x,-y,-z
loop_
_atom_site_type_symbol
_atom_site_label
_atom_site_fract_x
_atom_site_fract_y
_atom_site_fract_z
Si Si1 0.273504 0.935604 0.880469
Si Si2 0.507508 0.467754 0.401099
Si Si3 0.723565 0.381613 0.869006
Si Si4 0.933265 0.367474 0.633181
Si Si5 0.593095 0.313863 0.938321
Si Si6 0.961898 0.834738 0.002376
Si Si7 0.045585 0.194062 0.531089
Si Si8 0.945133 0.795393 0.160985
O O1 0.046386 0.816685 0.634671
O O2 0.241128 0.112843 0.927431
O O3 0.318586 0.822902 0.969490
O O4 0.500000 0.000000 0.000000
O O5 0.500000 0.500000 0.500000
O O6 0.445548 0.627960 0.337823
O O7 0.764352 0.480478 0.553960
O O8 0.321800 0.266968 0.209914
O O9 0.583308 0.262161 0.822243
O O10 0.939043 0.312847 0.991020
O O11 0.820520 0.588696 0.005175
O O12 0.895856 0.288658 0.496326
O O13 0.879201 0.203687 0.631453
O O14 0.213948 0.488575 0.869068
O O15 0.328087 0.309293 0.767006
O O16 0.077828 0.898814 0.192609
O O17 0.000000 0.000000 0.000000
O O18 0.000000 0.000000 0.500000
#
# Coordination Sequence:
#
# PCOD8015280 Si02
#       8
#     2   2   2   2   2   2   2   2
#     4  12  25  42  71  99 141 185 231 290 345 407
#     4  11  23  43  71 101 135 180 231 277 348 417
#     4  10  23  43  70  97 140 179 225 282 344 416
#     4  11  24  44  69  99 137 185 232 288 342 409
#     4  11  25  46  67  99 143 179 234 291 343 406
#     4  11  23  43  69 102 136 176 224 284 349 415
#     4  12  25  44  67 102 140 183 236 282 350 407
#     4  10  21  42  67  93 136 181 222 274 350 398
#
# _framework density 22.812505000000002
#
# number of rings (size 3 to 8) (size 9 to 14) (size 15 to 20)
#    0.000    1.000    2.500    4.875    5.250    2.500 
#    0.000    1.250    0.000    0.000    0.000    0.000 
#    0.000    0.000    0.000    0.000    0.000    0.000 
#
# Total GULP energy -198308.789006 kJ/mol
# GULP energy per Si atom -12394.299313 kJ/mol
# Density = 2.276058 g / cm^3
# Si number density = 22.812505 Si / 1000 Ang^3
#
#
#
# Elastic Constant Matrix: (Units=GPa)
#
#
# Indices 1 2 3 4 5 6 
#
# 1 166.0062 72.5433 50.6068 -16.2500 -14.5952 -5.2852
# 2 72.5433 121.5821 39.7465 -27.8715 -14.4614 2.7630
# 3 50.6068 39.7465 89.4961 -17.1960 -0.3401 4.2910
# 4 -16.2500 -27.8715 -17.1960 33.6276 8.3210 -6.7047
# 5 -14.5952 -14.4614 -0.3401 8.3210 38.8516 -9.5963
# 6 -5.2852 2.7630 4.2910 -6.7047 -9.5963 58.4335
#
#
#
# Elastic Compliance Matrix: (Units=1/GPa)
#
#
# Indices 1 2 3 4 5 6 
#
# 1 0.009138 -0.004329 -0.003557 -0.001288 0.002449 0.001547
# 2 -0.004329 0.013432 -0.002065 0.007598 0.001800 0.000292
# 3 -0.003557 -0.002065 0.015084 0.004845 -0.003338 -0.001324
# 4 -0.001288 0.007598 0.004845 0.039802 -0.005436 0.002843
# 5 0.002449 0.001800 -0.003338 -0.005436 0.029605 0.004620
# 6 0.001547 0.000292 -0.001324 0.002843 0.004620 0.018422
#
#
# Mechanical properties :
#
#
# Convention : Reuss Voigt Hill
#
# Bulk Modulus (GPa) = 56.33083 78.09750 67.21417
# Shear Modulus (GPa) = 33.04649 40.46171 36.75410
#
# Velocity S-wave (km/s) = 3.81019 4.21606 4.01825
# Velocity P-wave (km/s) = 6.64103 7.61637 7.14536
#
# Compressibility (1/GPa) = 0.01775227
#
# Stress axis : x y z
#
# Youngs Moduli (GPa) = 109.42846 74.44885 66.29564
#
# Poissons Ratio (x) = 0.32228 0.23584
# Poissons Ratio (y) = 0.47370 0.13689
# Poissons Ratio (z) = 0.38927 0.15372
#
# Static dielectric constant tensor:
#      x y z
#    x 5.522130 1.165560 -0.667320 
#    y 1.165560 5.032310 -0.561140 
#    z -0.667320 -0.561140 4.368220 
# 
# 
# High freq. dielectric constant tensor:
#      x y z
#    x 1.928700 0.006300 -0.016860 
#    y 0.006300 1.894340 -0.022660 
#    z -0.016860 -0.022660 1.880610 
# 
# From -- ./inp_files/516032.got.cif
#   From: 2010.06.25/outbox.cif.g09.slc.cpg/sg2_259_cif.got.tgz:516032.got - 2010.06.27 13:26:56.
