data_PCOD8015481
_publ_section_title
;
Structure prediction by ZEFSAII (Michael W. Deem and Ramdas Pophale) SiO2 
 PCOD8015481
Probable space group: P -1
;
_chemical_formula_sum "Si O2"
_cell_formula_units_Z 16
_cell_length_a 13.380301
_cell_length_b 6.347277
_cell_length_c 16.610544
_cell_angle_alpha 104.910842
_cell_angle_beta 146.836172
_cell_angle_gamma 89.353713
_cell_volume 687.881676
_symmetry_space_group_name_H-M "P -1"
_symmetry_group_IT_number 2
_symmetry_cell_setting 'triclinic'
loop_
_space_group_symop_operation_xyz
x,y,z
-x,-y,-z
loop_
_atom_site_type_symbol
_atom_site_label
_atom_site_fract_x
_atom_site_fract_y
_atom_site_fract_z
Si Si1 0.579019 0.784825 0.870128
Si Si2 0.744555 0.705191 0.442154
Si Si3 0.745909 0.286016 0.749775
Si Si4 0.117654 0.216898 0.045257
Si Si5 0.261893 0.996867 0.684797
Si Si6 0.931667 0.396131 0.591390
Si Si7 0.700639 0.685645 0.117011
Si Si8 0.366763 0.927073 0.518594
O O1 0.438244 0.542045 0.711147
O O2 0.763432 0.886077 0.944549
O O3 0.474730 0.972583 0.825788
O O4 0.662268 0.745112 0.007677
O O5 0.753775 0.817025 0.371916
O O6 0.937406 0.652246 0.594340
O O7 0.729267 0.875951 0.519967
O O8 0.742807 0.545425 0.789843
O O9 0.671762 0.219883 0.602976
O O10 0.604518 0.085451 0.697591
O O11 0.966702 0.296471 0.901233
O O12 0.000000 0.000000 0.000000
O O13 0.223276 0.075644 0.754959
O O14 0.085768 0.748123 0.518387
O O15 0.725293 0.254684 0.487821
O O16 0.127618 0.421080 0.775770
O O17 0.500000 0.500000 0.000000
#
# Coordination Sequence:
#
# PCOD8015481 Si02
#       8
#     2   2   2   2   2   2   2   2
#     4  11  23  44  69  99 140 182 229 285 352 409
#     4  10  21  42  69  96 134 183 228 277 347 407
#     4  10  23  41  66  98 139 174 237 286 343 412
#     4  11  25  41  67 103 140 181 227 284 356 409
#     4  10  23  44  69  96 136 183 227 284 344 417
#     4  10  24  42  70  96 139 181 234 280 353 411
#     4  12  24  46  68 104 136 179 230 292 350 417
#     4  10  21  43  68  96 132 186 232 288 336 412
#
# _framework density 23.259813999999999
#
# number of rings (size 3 to 8) (size 9 to 14) (size 15 to 20)
#    0.000    1.500    2.500    1.500    5.250    1.500 
#   13.500    2.500    0.000    0.000    0.000    0.000 
#    0.000    0.000    0.000    0.000    0.000    0.000 
#
# Total GULP energy -198292.144004 kJ/mol
# GULP energy per Si atom -12393.259000 kJ/mol
# Density = 2.320687 g / cm^3
# Si number density = 23.259814 Si / 1000 Ang^3
#
#
#
# Elastic Constant Matrix: (Units=GPa)
#
#
# Indices 1 2 3 4 5 6 
#
# 1 107.5781 48.4883 38.8381 -11.5797 -7.6389 -4.7983
# 2 48.4883 125.2422 49.8457 -25.7618 -2.4841 -3.9720
# 3 38.8381 49.8457 102.8992 -19.7560 -4.7929 -3.4469
# 4 -11.5797 -25.7618 -19.7560 47.0020 -5.9428 5.6477
# 5 -7.6389 -2.4841 -4.7929 -5.9428 29.5583 -2.1766
# 6 -4.7983 -3.9720 -3.4469 5.6477 -2.1766 27.3857
#
#
#
# Elastic Compliance Matrix: (Units=1/GPa)
#
#
# Indices 1 2 3 4 5 6 
#
# 1 0.012096 -0.003502 -0.002689 0.000074 0.002518 0.001458
# 2 -0.003502 0.011568 -0.003492 0.004071 0.000305 -0.000191
# 3 -0.002689 -0.003492 0.013117 0.003142 0.001782 0.000167
# 4 0.000074 0.004071 0.003142 0.026052 0.005820 -0.003911
# 5 0.002518 0.000305 0.001782 0.005820 0.036142 0.002382
# 6 0.001458 -0.000191 0.000167 -0.003911 0.002382 0.037760
#
#
# Mechanical properties :
#
#
# Convention : Reuss Voigt Hill
#
# Bulk Modulus (GPa) = 57.42308 67.78487 62.60397
# Shear Modulus (GPa) = 30.88205 34.02568 32.45387
#
# Velocity S-wave (km/s) = 3.64771 3.82888 3.73939
# Velocity P-wave (km/s) = 6.51785 6.98232 6.75408
#
# Compressibility (1/GPa) = 0.01741460
#
# Stress axis : x y z
#
# Youngs Moduli (GPa) = 82.66883 86.44868 76.23791
#
# Poissons Ratio (x) = 0.30271 0.20502
# Poissons Ratio (y) = 0.28947 0.26625
# Poissons Ratio (z) = 0.22231 0.30191
#
# Static dielectric constant tensor:
#      x y z
#    x 4.468780 -0.326500 0.092470 
#    y -0.326500 4.369870 -0.014520 
#    z 0.092470 -0.014520 4.371090 
# 
# 
# High freq. dielectric constant tensor:
#      x y z
#    x 1.922750 -0.008790 0.004230 
#    y -0.008790 1.920380 -0.001250 
#    z 0.004230 -0.001250 1.918650 
# 
# From -- ./inp_files/571742.got.cif
#   From: 2010.06.25/outbox.cif.g09.slc.cpg/sg2_286_cif.got.tgz:571742.got - 2010.06.27 13:26:56.
