data_PCOD8015638
_publ_section_title
;
Structure prediction by ZEFSAII (Michael W. Deem and Ramdas Pophale) SiO2 
 PCOD8015638
Probable space group: P -1
;
_chemical_formula_sum "Si O2"
_cell_formula_units_Z 14
_cell_length_a 18.879575
_cell_length_b 12.798490
_cell_length_c 9.101901
_cell_angle_alpha 143.978477
_cell_angle_beta 45.782869
_cell_angle_gamma 150.613665
_cell_volume 634.450544
_symmetry_space_group_name_H-M "P -1"
_symmetry_group_IT_number 2
_symmetry_cell_setting 'triclinic'
loop_
_space_group_symop_operation_xyz
x,y,z
-x,-y,-z
loop_
_atom_site_type_symbol
_atom_site_label
_atom_site_fract_x
_atom_site_fract_y
_atom_site_fract_z
Si Si1 0.440628 0.923832 0.336745
Si Si2 0.644417 0.188284 0.095869
Si Si3 0.716040 0.777019 0.924439
Si Si4 0.168468 0.236033 0.536110
Si Si5 0.438050 0.533687 0.917506
Si Si6 0.736973 0.935762 0.565392
Si Si7 0.152113 0.784299 0.565293
O O1 0.297471 0.853535 0.436853
O O2 0.500000 0.000000 0.500000
O O3 0.584515 0.172028 0.322547
O O4 0.397340 0.668076 0.055641
O O5 0.767722 0.485834 0.197397
O O6 0.500000 0.000000 0.000000
O O7 0.704343 0.065792 0.858799
O O8 0.784885 0.730317 0.660420
O O9 0.607310 0.752221 0.955437
O O10 0.639103 0.572762 0.934652
O O11 0.837309 0.059252 0.142279
O O12 0.214596 0.152640 0.494584
O O13 0.000000 0.000000 0.500000
O O14 0.399851 0.320641 0.621026
O O15 0.856595 0.140129 0.499481
O O16 0.000000 0.500000 0.500000
#
# Coordination Sequence:
#
# PCOD8015638 Si02
#       7
#     2   2   2   2   2   2   2
#     4  12  23  41  70 108 134 185 245 291 343 427
#     4  12  25  45  74 106 140 180 244 296 346 424
#     4  10  22  43  67 102 137 181 233 294 349 417
#     4  12  29  47  70 103 149 190 233 291 370 433
#     4  10  21  42  73 102 138 177 241 299 349 408
#     4  11  26  46  71 104 141 188 233 301 356 416
#     4  11  26  45  69 101 146 185 233 293 360 428
#
# _framework density 22.066337999999998
#
# number of rings (size 3 to 8) (size 9 to 14) (size 15 to 20)
#    0.000    0.857    2.857    3.429    4.000    4.571 
#    0.000    2.857    0.000    0.000    0.000    0.000 
#    0.000    0.000    0.000    0.000    0.000    0.000 
#
# Total GULP energy -173457.127347 kJ/mol
# GULP energy per Si atom -12389.794810 kJ/mol
# Density = 2.201611 g / cm^3
# Si number density = 22.066338 Si / 1000 Ang^3
#
#
#
# Elastic Constant Matrix: (Units=GPa)
#
#
# Indices 1 2 3 4 5 6 
#
# 1 99.9937 49.8201 38.1457 0.4035 -1.2930 -11.8358
# 2 49.8201 129.3919 49.9012 15.1715 8.8122 -1.8804
# 3 38.1457 49.9012 103.5978 2.9258 -1.5622 -5.6586
# 4 0.4035 15.1715 2.9258 36.7558 -11.1250 2.9888
# 5 -1.2930 8.8122 -1.5622 -11.1250 37.3716 3.7074
# 6 -11.8358 -1.8804 -5.6586 2.9888 3.7074 26.4762
#
#
#
# Elastic Compliance Matrix: (Units=1/GPa)
#
#
# Indices 1 2 3 4 5 6 
#
# 1 0.013898 -0.004597 -0.002671 0.002039 0.001578 0.004864
# 2 -0.004597 0.012107 -0.004080 -0.006054 -0.004917 -0.000695
# 3 -0.002671 -0.004080 0.012641 0.001137 0.001651 0.000858
# 4 0.002039 -0.006054 0.001137 0.033619 0.012025 -0.004754
# 5 0.001578 -0.004917 0.001651 0.012025 0.032132 -0.005148
# 6 0.004864 -0.000695 0.000858 -0.004754 -0.005148 0.041336
#
#
# Mechanical properties :
#
#
# Convention : Reuss Voigt Hill
#
# Bulk Modulus (GPa) = 62.69830 67.63527 65.16679
# Shear Modulus (GPa) = 28.77785 33.12848 30.95317
#
# Velocity S-wave (km/s) = 3.61522 3.87888 3.74937
# Velocity P-wave (km/s) = 6.77508 7.12590 6.95270
#
# Compressibility (1/GPa) = 0.01594940
#
# Stress axis : x y z
#
# Youngs Moduli (GPa) = 71.95339 82.60007 79.10617
#
# Poissons Ratio (x) = 0.37970 0.21131
# Poissons Ratio (y) = 0.33076 0.32276
# Poissons Ratio (z) = 0.19220 0.33701
#
# Static dielectric constant tensor:
#      x y z
#    x -2.344600 -0.809440 0.227300 
#    y -0.809440 3.635570 0.206970 
#    z 0.227300 0.206970 4.310670 
# 
# 
# High freq. dielectric constant tensor:
#      x y z
#    x 1.863400 -0.023610 0.008750 
#    y -0.023610 1.868100 0.002020 
#    z 0.008750 0.002020 1.887300 
# 
# From -- ./inp_files/280232.got.cif
#   From: 2010.06.25/outbox.cif.g09.slc.cpg/sg2_141_cif.got.tgz:280232.got - 2010.06.27 13:26:56.
