data_PCOD8015795
_publ_section_title
;
Structure prediction by ZEFSAII (Michael W. Deem and Ramdas Pophale) SiO2 
 PCOD8015795
Probable space group: P -1
;
_chemical_formula_sum "Si O2"
_cell_formula_units_Z 16
_cell_length_a 11.946785
_cell_length_b 20.274179
_cell_length_c 17.851835
_cell_angle_alpha 158.110058
_cell_angle_beta 148.607628
_cell_angle_gamma 30.679015
_cell_volume 786.616986
_symmetry_space_group_name_H-M "P -1"
_symmetry_group_IT_number 2
_symmetry_cell_setting 'triclinic'
loop_
_space_group_symop_operation_xyz
x,y,z
-x,-y,-z
loop_
_atom_site_type_symbol
_atom_site_label
_atom_site_fract_x
_atom_site_fract_y
_atom_site_fract_z
Si Si1 0.882842 0.028996 0.383830
Si Si2 0.783747 0.376050 0.599100
Si Si3 0.564089 0.485701 0.191994
Si Si4 0.705654 0.352103 0.362059
Si Si5 0.413146 0.183941 0.346773
Si Si6 0.991841 0.415524 0.260569
Si Si7 0.740471 0.108187 0.987672
Si Si8 0.074243 0.632951 0.997164
O O1 0.930085 0.200283 0.548616
O O2 0.611544 0.078317 0.289984
O O3 0.000000 0.000000 0.500000
O O4 0.987230 0.842079 0.198999
O O5 0.747475 0.292466 0.409873
O O6 0.538883 0.479143 0.607483
O O7 0.915794 0.522331 0.821463
O O8 0.532550 0.641248 0.402092
O O9 0.627216 0.280777 0.049032
O O10 0.333530 0.521947 0.052322
O O11 0.759168 0.497883 0.260763
O O12 0.907446 0.417966 0.515747
O O13 0.716020 0.175152 0.130936
O O14 0.172720 0.245654 0.230491
O O15 0.397397 0.038217 0.249080
O O16 0.939177 0.344527 0.075842
O O17 0.000000 0.000000 0.000000
#
# Coordination Sequence:
#
# PCOD8015795 Si02
#       8
#     2   2   2   2   2   2   2   2
#     4  12  25  42  65  96 130 168 215 265 326 386
#     4  10  23  43  66  92 130 167 210 269 323 377
#     4  12  24  45  64  94 140 169 212 269 318 385
#     4  10  21  43  65  96 127 162 217 273 316 370
#     4  12  24  42  68  96 127 168 222 269 315 380
#     4  11  22  44  68  94 127 175 217 264 317 379
#     4  12  24  38  66  98 122 169 217 262 317 376
#     4  11  27  42  66  97 133 174 210 262 333 385
#
# _framework density 20.340267000000001
#
# number of rings (size 3 to 8) (size 9 to 14) (size 15 to 20)
#    0.000    0.750    5.000    2.250    3.500    1.000 
#    0.000    0.000    0.000    5.250    0.000    0.000 
#    0.000    0.000    0.000    0.000    0.000    0.000 
#
# Total GULP energy -198471.498143 kJ/mol
# GULP energy per Si atom -12404.468634 kJ/mol
# Density = 2.029397 g / cm^3
# Si number density = 20.340267 Si / 1000 Ang^3
#
#
#
# Elastic Constant Matrix: (Units=GPa)
#
#
# Indices 1 2 3 4 5 6 
#
# 1 88.7395 37.4316 17.8827 3.1241 -2.6317 4.0384
# 2 37.4316 113.9811 43.4064 -3.0015 -3.0893 7.9359
# 3 17.8827 43.4064 62.3057 1.6884 -5.0140 16.8812
# 4 3.1241 -3.0015 1.6884 36.3044 5.4566 4.6767
# 5 -2.6317 -3.0893 -5.0140 5.4566 33.8653 0.8706
# 6 4.0384 7.9359 16.8812 4.6767 0.8706 39.1547
#
#
#
# Elastic Compliance Matrix: (Units=1/GPa)
#
#
# Indices 1 2 3 4 5 6 
#
# 1 0.013223 -0.004024 -0.000888 -0.001546 0.000778 0.000002
# 2 -0.004024 0.013289 -0.008532 0.001790 -0.000683 0.001202
# 3 -0.000888 -0.008532 0.024945 -0.001136 0.003257 -0.008871
# 4 -0.001546 0.001790 -0.001136 0.028983 -0.004716 -0.003070
# 5 0.000778 -0.000683 0.003257 -0.004716 0.030807 -0.001468
# 6 0.000002 0.001202 -0.008871 -0.003070 -0.001468 0.029520
#
#
# Mechanical properties :
#
#
# Convention : Reuss Voigt Hill
#
# Bulk Modulus (GPa) = 40.70155 51.38531 46.04343
# Shear Modulus (GPa) = 28.43429 32.95191 30.69310
#
# Velocity S-wave (km/s) = 3.74295 4.02933 3.88878
# Velocity P-wave (km/s) = 6.22361 6.85310 6.54593
#
# Compressibility (1/GPa) = 0.02456909
#
# Stress axis : x y z
#
# Youngs Moduli (GPa) = 75.62779 75.24985 40.08806
#
# Poissons Ratio (x) = 0.30281 0.03558
# Poissons Ratio (y) = 0.30433 0.34204
# Poissons Ratio (z) = 0.06713 0.64204
#
# Static dielectric constant tensor:
#      x y z
#    x 3.487570 0.047690 0.672810 
#    y 0.047690 3.822460 -0.045710 
#    z 0.672810 -0.045710 2.451170 
# 
# 
# High freq. dielectric constant tensor:
#      x y z
#    x 1.812040 -0.001690 0.003790 
#    y -0.001690 1.798600 0.004870 
#    z 0.003790 0.004870 1.792220 
# 
# From -- ./inp_files/272977.got.cif
#   From: 2010.06.25/outbox.cif.g09.slc.cpg/sg2_137_cif.got.tgz:272977.got - 2010.06.27 13:26:56.
