data_PCOD8015876
_publ_section_title
;
Structure prediction by ZEFSAII (Michael W. Deem and Ramdas Pophale) SiO2 
 PCOD8015876
Probable space group: P -1
;
_chemical_formula_sum "Si O2"
_cell_formula_units_Z 14
_cell_length_a 9.436407
_cell_length_b 8.834771
_cell_length_c 9.555849
_cell_angle_alpha 95.441684
_cell_angle_beta 51.707159
_cell_angle_gamma 99.366422
_cell_volume 616.904308
_symmetry_space_group_name_H-M "P -1"
_symmetry_group_IT_number 2
_symmetry_cell_setting 'triclinic'
loop_
_space_group_symop_operation_xyz
x,y,z
-x,-y,-z
loop_
_atom_site_type_symbol
_atom_site_label
_atom_site_fract_x
_atom_site_fract_y
_atom_site_fract_z
Si Si1 0.083803 0.927595 0.313171
Si Si2 0.049040 0.146339 0.889658
Si Si3 0.640086 0.791643 0.843253
Si Si4 0.921311 0.626634 0.474573
Si Si5 0.622335 0.652065 0.149555
Si Si6 0.700884 0.312176 0.130932
Si Si7 0.650971 0.412545 0.462590
O O1 0.931887 0.923280 0.282900
O O2 0.093374 0.749432 0.331778
O O3 0.275566 0.029766 0.165622
O O4 0.000000 0.000000 0.500000
O O5 0.232940 0.236240 0.841922
O O6 0.891283 0.254845 0.974796
O O7 0.000000 0.000000 0.000000
O O8 0.778007 0.703138 0.663107
O O9 0.458165 0.795688 0.863307
O O10 0.602533 0.705641 0.007072
O O11 0.825758 0.539769 0.390598
O O12 0.000000 0.500000 0.500000
O O13 0.688551 0.484581 0.099422
O O14 0.427330 0.659355 0.347444
O O15 0.688930 0.293490 0.306961
O O16 0.500000 0.500000 0.500000
#
# Coordination Sequence:
#
# PCOD8015876 Si02
#       7
#     2   2   2   2   2   2   2
#     4  10  24  44  68  92 141 179 220 279 336 402
#     4  12  26  46  66 101 138 179 228 281 340 402
#     4  11  23  44  65 100 138 178 223 278 344 403
#     4  11  24  40  72 102 134 175 233 276 339 399
#     4  11  23  43  72  99 137 173 232 281 335 406
#     4  11  25  42  71  99 138 179 228 279 338 400
#     4  10  21  43  67 100 133 174 224 282 334 396
#
# _framework density 22.693957999999999
#
# number of rings (size 3 to 8) (size 9 to 14) (size 15 to 20)
#    0.000    1.143    4.286    2.571    6.000    0.571 
#    2.571    0.714    0.000    0.000    0.000    0.000 
#    0.000    0.000    0.000    0.000    0.000    0.000 
#
# Total GULP energy -173454.457771 kJ/mol
# GULP energy per Si atom -12389.604126 kJ/mol
# Density = 2.264231 g / cm^3
# Si number density = 22.693958 Si / 1000 Ang^3
#
#
#
# Elastic Constant Matrix: (Units=GPa)
#
#
# Indices 1 2 3 4 5 6 
#
# 1 92.2581 56.7973 31.8869 8.8972 23.0853 28.8614
# 2 56.7973 134.9528 35.7356 -25.7640 13.0880 21.4984
# 3 31.8869 35.7356 111.0757 -5.6393 30.4296 2.7737
# 4 8.8972 -25.7640 -5.6393 33.5864 2.1374 5.2364
# 5 23.0853 13.0880 30.4296 2.1374 39.3437 1.6781
# 6 28.8614 21.4984 2.7737 5.2364 1.6781 45.0773
#
#
#
# Elastic Compliance Matrix: (Units=1/GPa)
#
#
# Indices 1 2 3 4 5 6 
#
# 1 0.022968 -0.009289 -0.001793 -0.011674 -0.008003 -0.008511
# 2 -0.009289 0.014676 -0.001614 0.013778 0.001178 -0.002597
# 3 -0.001793 -0.001614 0.012296 0.001616 -0.008063 0.001273
# 4 -0.011674 0.013778 0.001616 0.044457 -0.001215 -0.004315
# 5 -0.008003 0.001178 -0.008063 -0.001215 0.035858 0.003864
# 6 -0.008511 -0.002597 0.001273 -0.004315 0.003864 0.029152
#
#
# Mechanical properties :
#
#
# Convention : Reuss Voigt Hill
#
# Bulk Modulus (GPa) = 40.73276 65.23624 52.98450
# Shear Modulus (GPa) = 25.90924 37.85927 31.88426
#
# Velocity S-wave (km/s) = 3.38254 4.08886 3.75235
# Velocity P-wave (km/s) = 5.76569 7.14844 6.49397
#
# Compressibility (1/GPa) = 0.02455026
#
# Stress axis : x y z
#
# Youngs Moduli (GPa) = 43.53833 68.13649 81.32739
#
# Poissons Ratio (x) = 0.63289 0.14582
# Poissons Ratio (y) = 0.40441 0.13123
# Poissons Ratio (z) = 0.07806 0.10995
#
# Static dielectric constant tensor:
#      x y z
#    x 4.310710 0.672850 0.707670 
#    y 0.672850 4.674810 0.148570 
#    z 0.707670 0.148570 6.859950 
# 
# 
# High freq. dielectric constant tensor:
#      x y z
#    x 1.895940 0.024330 0.024700 
#    y 0.024330 1.898720 -0.005380 
#    z 0.024700 -0.005380 1.906400 
# 
# From -- ./inp_files/156688.got.cif
#   From: 2010.06.25/outbox.cif.g09.slc.cpg/sg2_79_cif.got.tgz:156688.got - 2010.06.27 13:26:56.
