data_PCOD8015936
_publ_section_title
;
Structure prediction by ZEFSAII (Michael W. Deem and Ramdas Pophale) SiO2 
 PCOD8015936
Probable space group: P -1
;
_chemical_formula_sum "Si O2"
_cell_formula_units_Z 16
_cell_length_a 15.655103
_cell_length_b 8.594706
_cell_length_c 8.204916
_cell_angle_alpha 61.408426
_cell_angle_beta 79.693558
_cell_angle_gamma 116.624487
_cell_volume 749.891394
_symmetry_space_group_name_H-M "P -1"
_symmetry_group_IT_number 2
_symmetry_cell_setting 'triclinic'
loop_
_space_group_symop_operation_xyz
x,y,z
-x,-y,-z
loop_
_atom_site_type_symbol
_atom_site_label
_atom_site_fract_x
_atom_site_fract_y
_atom_site_fract_z
Si Si1 0.777851 0.470101 0.939269
Si Si2 0.165544 0.086089 0.744956
Si Si3 0.758796 0.776066 0.009499
Si Si4 0.328104 0.991930 0.627022
Si Si5 0.775975 0.130032 0.606257
Si Si6 0.282468 0.576736 0.366873
Si Si7 0.447473 0.611628 0.525930
Si Si8 0.017349 0.680982 0.781720
O O1 0.794542 0.682707 0.907182
O O2 0.697776 0.369829 0.859625
O O3 0.901443 0.574466 0.788070
O O4 0.728310 0.267622 0.185100
O O5 0.195087 0.309416 0.543531
O O6 0.266018 0.071693 0.702899
O O7 0.057368 0.889148 0.783560
O O8 0.150207 0.094520 0.940958
O O9 0.747553 0.954487 0.844387
O O10 0.643557 0.557011 0.227005
O O11 0.317599 0.009764 0.428937
O O12 0.457404 0.149478 0.544828
O O13 0.771488 0.318603 0.588450
O O14 0.896004 0.250397 0.425177
O O15 0.396732 0.665537 0.370038
O O16 0.500000 0.500000 0.500000
O O17 0.000000 0.500000 0.000000
#
# Coordination Sequence:
#
# PCOD8015936 Si02
#       8
#     2   2   2   2   2   2   2   2
#     4  12  25  44  69 102 139 176 226 279 333 400
#     4  10  21  43  67  96 137 175 219 279 326 400
#     4  11  25  43  68 102 137 175 226 280 332 400
#     4  11  21  44  69  95 138 174 221 283 329 396
#     4  11  25  44  68 102 141 173 227 278 332 402
#     4  11  25  43  68 102 136 175 228 278 331 403
#     4  11  24  45  73  95 135 182 224 275 349 392
#     4  11  24  44  72  97 137 184 220 270 346 395
#
# _framework density 21.336423
#
# number of rings (size 3 to 8) (size 9 to 14) (size 15 to 20)
#    0.000    1.000    5.000    3.750    0.000    6.000 
#    0.000    0.000    0.000    0.000    0.000    0.000 
#    0.000    0.000    0.000    0.000    0.000    0.000 
#
# Total GULP energy -198404.539463 kJ/mol
# GULP energy per Si atom -12400.283716 kJ/mol
# Density = 2.128786 g / cm^3
# Si number density = 21.336423 Si / 1000 Ang^3
#
#
#
# Elastic Constant Matrix: (Units=GPa)
#
#
# Indices 1 2 3 4 5 6 
#
# 1 87.9073 24.4061 37.2507 -7.1973 7.8422 2.2540
# 2 24.4061 92.6147 22.6211 -4.6030 -0.7243 -10.7879
# 3 37.2507 22.6211 69.4790 1.4309 11.8026 9.8349
# 4 -7.1973 -4.6030 1.4309 43.5057 1.5670 1.5441
# 5 7.8422 -0.7243 11.8026 1.5670 27.3262 -4.9966
# 6 2.2540 -10.7879 9.8349 1.5441 -4.9966 43.0608
#
#
#
# Elastic Compliance Matrix: (Units=1/GPa)
#
#
# Indices 1 2 3 4 5 6 
#
# 1 0.015448 -0.002130 -0.007415 0.002622 -0.001421 0.000092
# 2 -0.002130 0.013075 -0.004442 0.000873 0.003704 0.004800
# 3 -0.007415 -0.004442 0.022297 -0.001875 -0.008750 -0.006765
# 4 0.002622 0.000873 -0.001875 0.023640 -0.001366 -0.000497
# 5 -0.001421 0.003704 -0.008750 -0.001366 0.042416 0.007971
# 6 0.000092 0.004800 -0.006765 -0.000497 0.007971 0.026909
#
#
# Mechanical properties :
#
#
# Convention : Reuss Voigt Hill
#
# Bulk Modulus (GPa) = 43.76852 46.50629 45.13740
# Shear Modulus (GPa) = 27.87490 33.82673 30.85082
#
# Velocity S-wave (km/s) = 3.61840 3.98603 3.80665
# Velocity P-wave (km/s) = 6.16564 6.55961 6.36568
#
# Compressibility (1/GPa) = 0.02284747
#
# Stress axis : x y z
#
# Youngs Moduli (GPa) = 64.73357 76.48133 44.84942
#
# Poissons Ratio (x) = 0.16290 0.33254
# Poissons Ratio (y) = 0.13788 0.19921
# Poissons Ratio (z) = 0.47997 0.33971
#
# Static dielectric constant tensor:
#      x y z
#    x 4.239910 0.099490 -0.064540 
#    y 0.099490 4.166040 -0.070830 
#    z -0.064540 -0.070830 3.890370 
# 
# 
# High freq. dielectric constant tensor:
#      x y z
#    x 1.833560 -0.000380 0.016090 
#    y -0.000380 1.856500 -0.004230 
#    z 0.016090 -0.004230 1.831920 
# 
# From -- ./inp_files/297437.got.cif
#   From: 2010.06.25/outbox.cif.g09.slc.cpg/sg2_149_cif.got.tgz:297437.got - 2010.06.27 13:26:56.
