data_PCOD8015617
_publ_section_title
;
Structure prediction by ZEFSAII (Michael W. Deem and Ramdas Pophale) SiO2 
 PCOD8015617
Probable space group: P -1
;
_chemical_formula_sum "Si O2"
_cell_formula_units_Z 14
_cell_length_a 12.940271
_cell_length_b 8.835771
_cell_length_c 9.751454
_cell_angle_alpha 102.979333
_cell_angle_beta 125.377456
_cell_angle_gamma 46.574814
_cell_volume 631.309147
_symmetry_space_group_name_H-M "P -1"
_symmetry_group_IT_number 2
_symmetry_cell_setting 'triclinic'
loop_
_space_group_symop_operation_xyz
x,y,z
-x,-y,-z
loop_
_atom_site_type_symbol
_atom_site_label
_atom_site_fract_x
_atom_site_fract_y
_atom_site_fract_z
Si Si1 0.694776 0.562114 0.941544
Si Si2 0.236760 0.160332 0.847834
Si Si3 0.902616 0.270626 0.298208
Si Si4 0.836468 0.520562 0.550796
Si Si5 0.273450 0.063624 0.542948
Si Si6 0.590650 0.588985 0.590483
Si Si7 0.373956 0.726922 0.870338
O O1 0.742037 0.476284 0.803889
O O2 0.489659 0.673883 0.815418
O O3 0.690525 0.749586 0.003488
O O4 0.826641 0.361266 0.105467
O O5 0.299718 0.100609 0.725782
O O6 0.023956 0.336656 0.733573
O O7 0.322472 0.935729 0.946152
O O8 0.851073 0.463314 0.389902
O O9 0.814349 0.195329 0.287245
O O10 0.115479 0.069528 0.417341
O O11 0.784730 0.745034 0.561479
O O12 0.686945 0.541929 0.511450
O O13 0.447665 0.845386 0.563440
O O14 0.500000 0.500000 0.500000
O O15 0.500000 0.500000 0.000000
#
# Coordination Sequence:
#
# PCOD8015617 Si02
#       7
#     2   2   2   2   2   2   2
#     4  11  21  44  67  96 131 168 222 269 323 385
#     4  11  21  40  73  99 124 170 228 276 315 384
#     4  10  21  42  72  95 129 165 231 271 318 381
#     4  11  23  42  67 101 130 173 220 268 330 393
#     4  11  22  44  70  95 130 176 221 270 322 394
#     4  12  28  42  64  95 143 174 211 268 341 389
#     4  10  22  34  63 103 128 161 215 277 318 370
#
# _framework density 22.176138999999999
#
# number of rings (size 3 to 8) (size 9 to 14) (size 15 to 20)
#    0.000    1.143    4.286    2.571    2.000    1.714 
#    0.000    3.571    0.000    0.000    0.000    0.000 
#    0.000    0.000    0.000    0.000    0.000    0.000 
#
# Total GULP energy -173499.333078 kJ/mol
# GULP energy per Si atom -12392.809506 kJ/mol
# Density = 2.212567 g / cm^3
# Si number density = 22.176139 Si / 1000 Ang^3
#
#
#
# Elastic Constant Matrix: (Units=GPa)
#
#
# Indices 1 2 3 4 5 6 
#
# 1 101.1695 23.1087 16.4653 -10.0753 15.4280 2.3880
# 2 23.1087 86.3369 19.7054 -6.5421 -8.3385 11.7012
# 3 16.4653 19.7054 92.3081 2.7136 2.0443 -0.5523
# 4 -10.0753 -6.5421 2.7136 22.0965 3.5756 1.9380
# 5 15.4280 -8.3385 2.0443 3.5756 29.8824 4.7335
# 6 2.3880 11.7012 -0.5523 1.9380 4.7335 41.3044
#
#
#
# Elastic Compliance Matrix: (Units=1/GPa)
#
#
# Indices 1 2 3 4 5 6 
#
# 1 0.012826 -0.003545 -0.001524 0.006265 -0.008401 0.000911
# 2 -0.003545 0.014631 -0.002736 0.002411 0.006579 -0.004843
# 3 -0.001524 -0.002736 0.011797 -0.002961 -0.000625 0.001232
# 4 0.006265 0.002411 -0.002961 0.050712 -0.008024 -0.002545
# 5 -0.008401 0.006579 -0.000625 -0.008024 0.041555 -0.005772
# 6 0.000911 -0.004843 0.001232 -0.002545 -0.005772 0.026327
#
#
# Mechanical properties :
#
#
# Convention : Reuss Voigt Hill
#
# Bulk Modulus (GPa) = 42.29571 44.26371 43.27971
# Shear Modulus (GPa) = 27.57263 33.35899 30.46581
#
# Velocity S-wave (km/s) = 3.52994 3.88271 3.71052
# Velocity P-wave (km/s) = 5.97729 6.33277 6.15759
#
# Compressibility (1/GPa) = 0.02364306
#
# Stress axis : x y z
#
# Youngs Moduli (GPa) = 77.96856 68.35009 84.76402
#
# Poissons Ratio (x) = 0.24232 0.12915
# Poissons Ratio (y) = 0.27642 0.23195
# Poissons Ratio (z) = 0.11879 0.18704
#
# Static dielectric constant tensor:
#      x y z
#    x 4.363990 0.159670 0.224170 
#    y 0.159670 4.017740 -0.106830 
#    z 0.224170 -0.106830 3.865620 
# 
# 
# High freq. dielectric constant tensor:
#      x y z
#    x 1.880410 0.013940 0.018610 
#    y 0.013940 1.868200 -0.015650 
#    z 0.018610 -0.015650 1.856140 
# 
# From -- ./inp_files/158368.got.cif
#   From: 2010.06.25/outbox.cif.g09.slc.cpg/sg2_80_cif.got.tgz:158368.got - 2010.06.27 13:26:56.
