data_PCOD8015091
_publ_section_title
;
Structure prediction by ZEFSAII (Michael W. Deem and Ramdas Pophale) SiO2 
 PCOD8015091
Probable space group: P -1
;
_chemical_formula_sum "Si O2"
_cell_formula_units_Z 16
_cell_length_a 18.464631
_cell_length_b 10.350962
_cell_length_c 6.806696
_cell_angle_alpha 107.444301
_cell_angle_beta 42.443425
_cell_angle_gamma 121.944707
_cell_volume 735.600317
_symmetry_space_group_name_H-M "P -1"
_symmetry_group_IT_number 2
_symmetry_cell_setting 'triclinic'
loop_
_space_group_symop_operation_xyz
x,y,z
-x,-y,-z
loop_
_atom_site_type_symbol
_atom_site_label
_atom_site_fract_x
_atom_site_fract_y
_atom_site_fract_z
Si Si1 0.399577 0.660650 0.326680
Si Si2 0.757771 0.472469 0.793334
Si Si3 0.210668 0.097639 0.637714
Si Si4 0.279254 0.775634 0.933099
Si Si5 0.377838 0.435409 0.591578
Si Si6 0.013683 0.655583 0.442216
Si Si7 0.993226 0.045285 0.313031
Si Si8 0.407271 0.035120 0.074933
O O1 0.317816 0.561535 0.266666
O O2 0.335242 0.740026 0.615063
O O3 0.420999 0.547907 0.371395
O O4 0.526467 0.786642 0.039438
O O5 0.897774 0.584214 0.495062
O O6 0.736203 0.317718 0.876215
O O7 0.725649 0.564064 0.063296
O O8 0.321048 0.265572 0.541300
O O9 0.283867 0.998238 0.427392
O O10 0.107710 0.035708 0.982900
O O11 0.136024 0.083678 0.579172
O O12 0.145427 0.745329 0.115521
O O13 0.369721 0.948007 0.900833
O O14 0.500000 0.500000 0.500000
O O15 0.000000 0.500000 0.500000
O O16 0.999354 0.786171 0.658776
O O17 0.000000 0.000000 0.500000
O O18 0.500000 0.000000 0.000000
#
# Coordination Sequence:
#
# PCOD8015091 Si02
#       8
#     2   2   2   2   2   2   2   2
#     4  11  25  41  69  98 132 184 231 281 347 416
#     4  10  21  42  65  96 134 171 230 288 339 416
#     4  11  26  46  72  98 144 186 225 293 357 413
#     4  10  22  43  64  99 136 175 228 286 349 410
#     4  11  25  43  67  96 136 182 233 282 344 414
#     4  10  21  43  73  96 137 178 226 295 344 412
#     4  11  25  47  72 107 140 183 234 289 357 429
#     4  12  24  44  70  99 142 182 231 289 348 420
#
# _framework density 21.750941999999998
#
# number of rings (size 3 to 8) (size 9 to 14) (size 15 to 20)
#    0.000    1.250    3.750    1.125    3.500    4.500 
#    0.000    0.000    0.000    0.000    0.000    0.000 
#    0.000    0.000    0.000    0.000    0.000    0.000 
#
# Total GULP energy -198215.129080 kJ/mol
# GULP energy per Si atom -12388.445568 kJ/mol
# Density = 2.170144 g / cm^3
# Si number density = 21.750942 Si / 1000 Ang^3
#
#
#
# Elastic Constant Matrix: (Units=GPa)
#
#
# Indices 1 2 3 4 5 6 
#
# 1 111.3367 39.2762 45.9554 -15.3669 5.8947 14.3836
# 2 39.2762 94.0473 10.1330 -0.3728 5.8278 23.3595
# 3 45.9554 10.1330 87.0962 -0.6687 -2.5306 -1.3940
# 4 -15.3669 -0.3728 -0.6687 27.4056 9.3679 -11.8795
# 5 5.8947 5.8278 -2.5306 9.3679 37.2333 3.2919
# 6 14.3836 23.3595 -1.3940 -11.8795 3.2919 37.7990
#
#
#
# Elastic Compliance Matrix: (Units=1/GPa)
#
#
# Indices 1 2 3 4 5 6 
#
# 1 0.015761 -0.005653 -0.007703 0.010684 -0.004910 0.000997
# 2 -0.005653 0.015176 0.001043 -0.007608 0.001362 -0.009698
# 3 -0.007703 0.001043 0.015500 -0.004490 0.003136 0.001174
# 4 0.010684 -0.007608 -0.004490 0.056539 -0.016773 0.019700
# 5 -0.004910 0.001362 0.003136 -0.016773 0.032470 -0.006957
# 6 0.000997 -0.009698 0.001174 0.019700 -0.006957 0.038910
#
#
# Mechanical properties :
#
#
# Convention : Reuss Voigt Hill
#
# Bulk Modulus (GPa) = 45.84923 53.68995 49.76959
# Shear Modulus (GPa) = 24.24193 33.62863 28.93528
#
# Velocity S-wave (km/s) = 3.34207 3.93628 3.65128
# Velocity P-wave (km/s) = 6.00146 6.73770 6.38021
#
# Compressibility (1/GPa) = 0.02181062
#
# Stress axis : x y z
#
# Youngs Moduli (GPa) = 63.44584 65.89417 64.51539
#
# Poissons Ratio (x) = 0.37253 0.49698
# Poissons Ratio (y) = 0.35869 -0.06731
# Poissons Ratio (z) = 0.48874 -0.06875
#
# Static dielectric constant tensor:
#      x y z
#    x 3.902980 0.212050 -0.320550 
#    y 0.212050 4.114180 0.041270 
#    z -0.320550 0.041270 3.970850 
# 
# 
# High freq. dielectric constant tensor:
#      x y z
#    x 1.851090 0.020280 -0.025660 
#    y 0.020280 1.869330 0.007410 
#    z -0.025660 0.007410 1.853240 
# 
# From -- ./inp_files/109815.got.cif
#   From: 2010.06.25/outbox.cif.g09.slc.cpg/sg2_55_cif.got.tgz:109815.got - 2010.06.27 13:26:56.
