data_PCOD8015488
_publ_section_title
;
Structure prediction by ZEFSAII (Michael W. Deem and Ramdas Pophale) SiO2 
 PCOD8015488
Probable space group: P -1
;
_chemical_formula_sum "Si O2"
_cell_formula_units_Z 14
_cell_length_a 16.857894
_cell_length_b 9.589895
_cell_length_c 12.989372
_cell_angle_alpha 43.570911
_cell_angle_beta 153.892121
_cell_angle_gamma 129.235936
_cell_volume 635.806092
_symmetry_space_group_name_H-M "P -1"
_symmetry_group_IT_number 2
_symmetry_cell_setting 'triclinic'
loop_
_space_group_symop_operation_xyz
x,y,z
-x,-y,-z
loop_
_atom_site_type_symbol
_atom_site_label
_atom_site_fract_x
_atom_site_fract_y
_atom_site_fract_z
Si Si1 0.921009 0.616898 0.748918
Si Si2 0.801246 0.048845 0.461755
Si Si3 0.294676 0.533475 0.593669
Si Si4 0.604256 0.830536 0.779626
Si Si5 0.994791 0.833732 0.171918
Si Si6 0.596557 0.903250 0.960020
Si Si7 0.839933 0.167795 0.227478
O O1 0.773929 0.481944 0.595488
O O2 0.087360 0.638765 0.850453
O O3 0.820947 0.827209 0.553466
O O4 0.000000 0.500000 0.000000
O O5 0.963571 0.073068 0.717579
O O6 0.796929 0.211303 0.274856
O O7 0.618210 0.083876 0.292361
O O8 0.483532 0.639136 0.757903
O O9 0.141662 0.651433 0.420319
O O10 0.318602 0.310303 0.787151
O O11 0.500000 0.000000 0.500000
O O12 0.649869 0.929018 0.889699
O O13 0.791890 0.757550 0.981727
O O14 0.000000 0.000000 0.000000
O O15 0.667279 0.087731 0.010123
O O16 0.000000 0.000000 0.500000
#
# Coordination Sequence:
#
# PCOD8015488 Si02
#       7
#     2   2   2   2   2   2   2
#     4  11  25  45  71 101 141 181 239 288 343 423
#     4  11  23  45  73  97 141 188 228 291 356 414
#     4  12  26  45  70 110 138 179 242 287 341 423
#     4  12  26  45  73 101 142 188 229 290 359 413
#     4  12  25  47  74 100 144 187 232 288 362 411
#     4  12  24  46  69 104 142 180 242 289 344 425
#     4  10  21  42  69  98 133 188 225 281 355 403
#
# _framework density 22.019290999999999
#
# number of rings (size 3 to 8) (size 9 to 14) (size 15 to 20)
#    0.000    0.571    5.714    3.429    2.000    1.714 
#    0.000    0.714    0.000    0.000    0.000    0.000 
#    0.000    0.000    0.000    0.000    0.000    0.000 
#
# Total GULP energy -173628.706883 kJ/mol
# GULP energy per Si atom -12402.050492 kJ/mol
# Density = 2.196917 g / cm^3
# Si number density = 22.019291 Si / 1000 Ang^3
#
#
#
# Elastic Constant Matrix: (Units=GPa)
#
#
# Indices 1 2 3 4 5 6 
#
# 1 138.0085 37.0436 51.1130 11.9495 -10.4138 5.9519
# 2 37.0436 72.4333 25.3514 23.4114 0.7209 -5.7141
# 3 51.1130 25.3514 96.0751 21.9738 2.0351 5.4510
# 4 11.9495 23.4114 21.9738 35.2412 -3.1374 -2.9932
# 5 -10.4138 0.7209 2.0351 -3.1374 62.6799 9.5358
# 6 5.9519 -5.7141 5.4510 -2.9932 9.5358 38.3390
#
#
#
# Elastic Compliance Matrix: (Units=1/GPa)
#
#
# Indices 1 2 3 4 5 6 
#
# 1 0.010296 -0.004608 -0.004793 0.002600 0.002351 -0.001986
# 2 -0.004608 0.020344 -0.000416 -0.011588 -0.002087 0.003421
# 3 -0.004793 -0.000416 0.014953 -0.007691 -0.001404 -0.001695
# 4 0.002600 -0.011588 -0.007691 0.040345 0.002612 0.001463
# 5 0.002351 -0.002087 -0.001404 0.002612 0.017239 -0.004560
# 6 -0.001986 0.003421 -0.001695 0.001463 -0.004560 0.028391
#
#
# Mechanical properties :
#
#
# Convention : Reuss Voigt Hill
#
# Bulk Modulus (GPa) = 38.52321 59.28144 48.90233
# Shear Modulus (GPa) = 31.27801 40.11928 35.69865
#
# Velocity S-wave (km/s) = 3.77302 4.27313 4.03084
# Velocity P-wave (km/s) = 6.04269 7.16429 6.62726
#
# Compressibility (1/GPa) = 0.02595837
#
# Stress axis : x y z
#
# Youngs Moduli (GPa) = 97.12408 49.15387 66.87414
#
# Poissons Ratio (x) = 0.22651 0.32055
# Poissons Ratio (y) = 0.44757 0.02783
# Poissons Ratio (z) = 0.46555 0.02045
#
# Static dielectric constant tensor:
#      x y z
#    x 4.733880 0.013280 -0.135070 
#    y 0.013280 2.922490 0.232930 
#    z -0.135070 0.232930 4.047440 
# 
# 
# High freq. dielectric constant tensor:
#      x y z
#    x 1.881490 -0.002220 -0.006480 
#    y -0.002220 1.857230 0.019990 
#    z -0.006480 0.019990 1.871540 
# 
# From -- ./inp_files/155260.got.cif
#   From: 2010.06.25/outbox.cif.g09.slc.cpg/sg2_78_cif.got.tgz:155260.got - 2010.06.27 13:26:56.
