data_PCOD8015454
_publ_section_title
;
Structure prediction by ZEFSAII (Michael W. Deem and Ramdas Pophale) SiO2 
 PCOD8015454
Probable space group: P -1
;
_chemical_formula_sum "Si O2"
_cell_formula_units_Z 12
_cell_length_a 7.618092
_cell_length_b 14.422385
_cell_length_c 9.151409
_cell_angle_alpha 64.958652
_cell_angle_beta 79.527523
_cell_angle_gamma 35.471427
_cell_volume 502.596963
_symmetry_space_group_name_H-M "P -1"
_symmetry_group_IT_number 2
_symmetry_cell_setting 'triclinic'
loop_
_space_group_symop_operation_xyz
x,y,z
-x,-y,-z
loop_
_atom_site_type_symbol
_atom_site_label
_atom_site_fract_x
_atom_site_fract_y
_atom_site_fract_z
Si Si1 0.148623 0.827265 0.381868
Si Si2 0.106497 0.311509 0.862662
Si Si3 0.612600 0.610824 0.205200
Si Si4 0.665034 0.963821 0.161309
Si Si5 0.633926 0.383942 0.232111
Si Si6 0.924526 0.136821 0.090523
O O1 0.452206 0.651984 0.354391
O O2 0.214825 0.769677 0.577295
O O3 0.830768 0.918644 0.316143
O O4 0.091150 0.975335 0.276671
O O5 0.119357 0.429685 0.783233
O O6 0.281239 0.184240 0.773378
O O7 0.745322 0.446000 0.824547
O O8 0.296141 0.175077 0.068122
O O9 0.747968 0.443583 0.222352
O O10 0.346327 0.788008 0.020209
O O11 0.826961 0.931539 0.010911
O O12 0.760953 0.301351 0.105886
#
# Coordination Sequence:
#
# PCOD8015454 Si02
#       6
#     2   2   2   2   2   2
#     4  11  21  44  66  92 128 176 205 256 322 385
#     4  11  22  40  67  99 119 169 221 260 301 386
#     4  11  22  42  68  92 125 170 216 255 308 385
#     4  10  21  42  69  91 124 174 220 248 309 396
#     4  12  26  39  66 100 133 155 212 276 321 352
#     4  11  21  44  66  92 128 176 205 256 322 385
#
# _framework density 23.875986999999999
#
# number of rings (size 3 to 8) (size 9 to 14) (size 15 to 20)
#    0.000    1.000    6.667    2.500    0.000    1.333 
#    0.000    0.000    0.000    6.000    0.000    0.000 
#    0.000    0.000    0.000    0.000    0.000    0.000 
#
# Total GULP energy -148738.034184 kJ/mol
# GULP energy per Si atom -12394.836182 kJ/mol
# Density = 2.382164 g / cm^3
# Si number density = 23.875987 Si / 1000 Ang^3
#
#
#
# Elastic Constant Matrix: (Units=GPa)
#
#
# Indices 1 2 3 4 5 6 
#
# 1 117.7850 24.1446 19.8680 -5.1322 5.8313 22.5161
# 2 24.1446 64.4235 -0.8450 -5.0942 4.8527 7.2649
# 3 19.8680 -0.8450 89.0430 -8.4781 3.2680 -18.7044
# 4 -5.1322 -5.0942 -8.4781 28.8056 5.9487 5.2113
# 5 5.8313 4.8527 3.2680 5.9487 28.0424 -9.8351
# 6 22.5161 7.2649 -18.7044 5.2113 -9.8351 25.5410
#
#
#
# Elastic Compliance Matrix: (Units=1/GPa)
#
#
# Indices 1 2 3 4 5 6 
#
# 1 0.016093 -0.001628 -0.007870 0.007629 -0.012887 -0.026006
# 2 -0.001628 0.017899 -0.000278 0.005495 -0.006520 -0.007492
# 3 -0.007870 -0.000278 0.017381 -0.002304 0.008368 0.023437
# 4 0.007629 0.005495 -0.002304 0.045862 -0.021711 -0.027694
# 5 -0.012887 -0.006520 0.008368 -0.021711 0.059468 0.046672
# 6 -0.026006 -0.007492 0.023437 -0.027694 0.046672 0.104997
#
#
# Mechanical properties :
#
#
# Convention : Reuss Voigt Hill
#
# Bulk Modulus (GPa) = 31.42539 39.73184 35.57861
# Shear Modulus (GPa) = 17.13161 31.68339 24.40750
#
# Velocity S-wave (km/s) = 2.68157 3.64675 3.20075
# Velocity P-wave (km/s) = 4.77266 5.86590 5.34729
#
# Compressibility (1/GPa) = 0.03182141
#
# Stress axis : x y z
#
# Youngs Moduli (GPa) = 62.13833 55.86846 57.53530
#
# Poissons Ratio (x) = 0.09095 0.45279
# Poissons Ratio (y) = 0.10115 0.01600
# Poissons Ratio (z) = 0.48902 0.01554
#
# Static dielectric constant tensor:
#      x y z
#    x 4.415800 0.261850 0.217840 
#    y 0.261850 4.269130 -0.199340 
#    z 0.217840 -0.199340 4.096680 
# 
# 
# High freq. dielectric constant tensor:
#      x y z
#    x 1.954900 0.023640 0.012790 
#    y 0.023640 1.938390 -0.016630 
#    z 0.012790 -0.016630 1.921570 
# 
# From -- ./inp_files/152793.got.cif
#   From: 2010.06.25/outbox.cif.g09.slc.cpg/sg2_77_cif.got.tgz:152793.got - 2010.06.27 13:26:56.
