data_PCOD8015324
_publ_section_title
;
Structure prediction by ZEFSAII (Michael W. Deem and Ramdas Pophale) SiO2 
 PCOD8015324
Probable space group: P -1
;
_chemical_formula_sum "Si O2"
_cell_formula_units_Z 16
_cell_length_a 17.077517
_cell_length_b 9.036010
_cell_length_c 11.442156
_cell_angle_alpha 116.792671
_cell_angle_beta 30.231947
_cell_angle_gamma 123.988061
_cell_volume 734.932952
_symmetry_space_group_name_H-M "P -1"
_symmetry_group_IT_number 2
_symmetry_cell_setting 'triclinic'
loop_
_space_group_symop_operation_xyz
x,y,z
-x,-y,-z
loop_
_atom_site_type_symbol
_atom_site_label
_atom_site_fract_x
_atom_site_fract_y
_atom_site_fract_z
Si Si1 0.155533 0.537369 0.401492
Si Si2 0.509375 0.653428 0.450110
Si Si3 0.027089 0.744952 0.802478
Si Si4 0.259919 0.644551 0.933656
Si Si5 0.462536 0.593279 0.856622
Si Si6 0.799849 0.769100 0.621750
Si Si7 0.846883 0.044212 0.842865
Si Si8 0.178769 0.024581 0.891113
O O1 0.161813 0.710201 0.530561
O O2 0.138306 0.382220 0.461356
O O3 0.000000 0.500000 0.500000
O O4 0.325389 0.563664 0.123550
O O5 0.500000 0.500000 0.500000
O O6 0.337426 0.681570 0.714498
O O7 0.524060 0.590256 0.276086
O O8 0.665565 0.839618 0.335031
O O9 0.113219 0.830635 0.844036
O O10 0.869833 0.559079 0.958435
O O11 0.963793 0.891655 0.880524
O O12 0.411452 0.688895 0.848058
O O13 0.174257 0.782491 0.122515
O O14 0.644356 0.704684 0.712026
O O15 0.953049 0.910526 0.400852
O O16 0.750218 0.869747 0.828147
O O17 0.767669 0.005602 0.059408
#
# Coordination Sequence:
#
# PCOD8015324 Si02
#       8
#     2   2   2   2   2   2   2   2
#     4  12  21  43  70  96 137 179 229 274 336 406
#     4  10  21  42  67  97 137 175 222 282 340 393
#     4  11  23  41  71 102 129 182 230 268 340 405
#     4  11  23  44  70  98 138 180 226 277 339 407
#     4  11  23  40  70  98 132 184 224 276 339 401
#     4  11  25  41  65 101 138 181 224 282 338 401
#     4  11  25  44  65  99 142 175 230 281 339 397
#     4  11  24  41  68 102 135 177 225 285 336 403
#
# _framework density 21.770693000000001
#
# number of rings (size 3 to 8) (size 9 to 14) (size 15 to 20)
#    0.000    1.000    5.000    1.875    1.750    5.500 
#    0.000    0.000    0.000    0.000    0.000    0.000 
#    0.000    0.000    0.000    0.000    0.000    0.000 
#
# Total GULP energy -198277.773059 kJ/mol
# GULP energy per Si atom -12392.360816 kJ/mol
# Density = 2.172114 g / cm^3
# Si number density = 21.770693 Si / 1000 Ang^3
#
#
#
# Elastic Constant Matrix: (Units=GPa)
#
#
# Indices 1 2 3 4 5 6 
#
# 1 105.9327 61.1425 33.6511 -2.8166 -1.6037 22.1418
# 2 61.1425 119.4050 30.8606 20.3770 -0.6394 20.1871
# 3 33.6511 30.8606 113.9079 14.1942 9.8810 12.4583
# 4 -2.8166 20.3770 14.1942 41.7037 7.5561 5.2950
# 5 -1.6037 -0.6394 9.8810 7.5561 31.6386 -2.6947
# 6 22.1418 20.1871 12.4583 5.2950 -2.6947 31.7436
#
#
#
# Elastic Compliance Matrix: (Units=1/GPa)
#
#
# Indices 1 2 3 4 5 6 
#
# 1 0.016299 -0.007665 -0.002807 0.006749 -0.000624 -0.006572
# 2 -0.007665 0.014024 -0.000556 -0.007219 0.001621 -0.002012
# 3 -0.002807 -0.000556 0.010533 -0.002770 -0.002919 -0.001608
# 4 0.006749 -0.007219 -0.002770 0.030713 -0.006676 -0.004719
# 5 -0.000624 0.001621 -0.002919 -0.006676 0.034505 0.004592
# 6 -0.006572 -0.002012 -0.001608 -0.004719 0.004592 0.039174
#
#
# Mechanical properties :
#
#
# Convention : Reuss Voigt Hill
#
# Bulk Modulus (GPa) = 53.18770 65.61712 59.40241
# Shear Modulus (GPa) = 28.80666 35.25660 32.03163
#
# Velocity S-wave (km/s) = 3.64151 4.02861 3.83994
# Velocity P-wave (km/s) = 6.49343 7.20036 6.85601
#
# Compressibility (1/GPa) = 0.01880134
#
# Stress axis : x y z
#
# Youngs Moduli (GPa) = 61.35324 71.30515 94.93908
#
# Poissons Ratio (x) = 0.54653 0.26646
# Poissons Ratio (y) = 0.47025 0.05280
# Poissons Ratio (z) = 0.17220 0.03966
#
# Static dielectric constant tensor:
#      x y z
#    x 3.760750 0.131900 0.174460 
#    y 0.131900 3.956560 0.391990 
#    z 0.174460 0.391990 4.565010 
# 
# 
# High freq. dielectric constant tensor:
#      x y z
#    x 1.837940 0.004300 0.008620 
#    y 0.004300 1.853660 0.016280 
#    z 0.008620 0.016280 1.870880 
# 
# From -- ./inp_files/462330.got.cif
#   From: 2010.06.25/outbox.cif.g09.slc.cpg/sg2_232_cif.got.tgz:462330.got - 2010.06.27 13:26:56.
