data_PCOD8015275
_publ_section_title
;
Structure prediction by ZEFSAII (Michael W. Deem and Ramdas Pophale) SiO2 
 PCOD8015275
Probable space group: P -1
;
_chemical_formula_sum "Si O2"
_cell_formula_units_Z 16
_cell_length_a 9.377937
_cell_length_b 9.333034
_cell_length_c 17.878281
_cell_angle_alpha 59.570179
_cell_angle_beta 44.074908
_cell_angle_gamma 45.662475
_cell_volume 778.478092
_symmetry_space_group_name_H-M "P -1"
_symmetry_group_IT_number 2
_symmetry_cell_setting 'triclinic'
loop_
_space_group_symop_operation_xyz
x,y,z
-x,-y,-z
loop_
_atom_site_type_symbol
_atom_site_label
_atom_site_fract_x
_atom_site_fract_y
_atom_site_fract_z
Si Si1 0.441891 0.197646 0.009654
Si Si2 0.779840 0.804216 0.246901
Si Si3 0.640545 0.284090 0.713057
Si Si4 0.095920 0.514251 0.829770
Si Si5 0.743384 0.374976 0.795845
Si Si6 0.031671 0.159196 0.320526
Si Si7 0.448567 0.199661 0.183380
Si Si8 0.618644 0.288037 0.548820
O O1 0.499258 0.163887 0.085338
O O2 0.150526 0.366093 0.059274
O O3 0.609903 0.263973 0.894775
O O4 0.500000 0.000000 0.000000
O O5 0.934164 0.633724 0.171969
O O6 0.559120 0.791022 0.366122
O O7 0.971129 0.763244 0.250814
O O8 0.674989 0.019977 0.192424
O O9 0.349430 0.384300 0.815320
O O10 0.739293 0.385458 0.703612
O O11 0.683617 0.308805 0.603728
O O12 0.790002 0.047231 0.736738
O O13 0.125688 0.665755 0.726802
O O14 0.588663 0.594538 0.831671
O O15 0.862500 0.135097 0.449316
O O16 0.199696 0.209570 0.292649
O O17 0.500000 0.500000 0.500000
#
# Coordination Sequence:
#
# PCOD8015275 Si02
#       8
#     2   2   2   2   2   2   2   2
#     4  11  25  44  71  98 129 171 224 270 322 390
#     4  11  23  41  66  94 137 171 218 260 330 386
#     4  11  24  39  68  98 128 171 218 273 324 376
#     4  10  21  42  67  93 130 165 225 271 310 390
#     4  12  25  45  62  97 141 168 212 276 330 384
#     4  11  19  41  72  94 126 171 227 266 314 391
#     4  11  23  42  66  96 132 178 210 268 332 383
#     4  11  20  41  72  96 125 179 224 265 320 389
#
# _framework density 20.552923
#
# number of rings (size 3 to 8) (size 9 to 14) (size 15 to 20)
#    0.000    1.000    7.500    2.250    0.000    3.000 
#    0.000    3.125    0.000    0.000    0.000    0.000 
#    0.000    0.000    0.000    0.000    0.000    0.000 
#
# Total GULP energy -198361.258736 kJ/mol
# GULP energy per Si atom -12397.578671 kJ/mol
# Density = 2.050614 g / cm^3
# Si number density = 20.552923 Si / 1000 Ang^3
#
#
#
# Elastic Constant Matrix: (Units=GPa)
#
#
# Indices 1 2 3 4 5 6 
#
# 1 144.9324 65.4996 41.0934 10.7456 9.6946 6.5173
# 2 65.4996 143.2859 40.8469 -1.0558 -0.6224 3.7884
# 3 41.0934 40.8469 94.9053 11.0508 -7.7618 6.9041
# 4 10.7456 -1.0558 11.0508 32.3666 -4.4009 -1.9887
# 5 9.6946 -0.6224 -7.7618 -4.4009 22.5398 -1.3204
# 6 6.5173 3.7884 6.9041 -1.9887 -1.3204 38.2830
#
#
#
# Elastic Compliance Matrix: (Units=1/GPa)
#
#
# Indices 1 2 3 4 5 6 
#
# 1 0.010157 -0.003883 -0.002736 -0.003480 -0.006170 -0.001245
# 2 -0.003883 0.009522 -0.002635 0.002738 0.001583 0.000391
# 3 -0.002736 -0.002635 0.013784 -0.003298 0.005104 -0.001755
# 4 -0.003480 0.002738 -0.003298 0.034446 0.007336 0.002959
# 5 -0.006170 0.001583 0.005104 0.007336 0.050376 0.002092
# 6 -0.001245 0.000391 -0.001755 0.002959 0.002092 0.026837
#
#
# Mechanical properties :
#
#
# Convention : Reuss Voigt Hill
#
# Bulk Modulus (GPa) = 66.85850 75.33370 71.09610
# Shear Modulus (GPa) = 29.65361 34.35012 32.00186
#
# Velocity S-wave (km/s) = 3.80253 4.09259 3.95022
# Velocity P-wave (km/s) = 7.20275 7.68541 7.44799
#
# Compressibility (1/GPa) = 0.01495696
#
# Stress axis : x y z
#
# Youngs Moduli (GPa) = 98.45587 105.02292 72.54573
#
# Poissons Ratio (x) = 0.40776 0.19846
# Poissons Ratio (y) = 0.38227 0.19114
# Poissons Ratio (z) = 0.26934 0.27671
#
# Static dielectric constant tensor:
#      x y z
#    x 3.731960 -0.143060 0.046720 
#    y -0.143060 3.982440 0.129750 
#    z 0.046720 0.129750 3.975360 
# 
# 
# High freq. dielectric constant tensor:
#      x y z
#    x 1.793550 -0.015940 0.003920 
#    y -0.015940 1.820470 0.003280 
#    z 0.003920 0.003280 1.795220 
# 
# From -- ./inp_files/556957.got.cif
#   From: 2010.06.25/outbox.cif.g09.slc.cpg/sg2_279_cif.got.tgz:556957.got - 2010.06.27 13:26:56.
