data_PCOD8015369
_publ_section_title
;
Structure prediction by ZEFSAII (Michael W. Deem and Ramdas Pophale) SiO2 
 PCOD8015369
Probable space group: P -1
;
_chemical_formula_sum "Si O2"
_cell_formula_units_Z 16
_cell_length_a 21.095508
_cell_length_b 14.011656
_cell_length_c 9.355765
_cell_angle_alpha 61.076317
_cell_angle_beta 128.104049
_cell_angle_gamma 158.966701
_cell_volume 738.098623
_symmetry_space_group_name_H-M "P -1"
_symmetry_group_IT_number 2
_symmetry_cell_setting 'triclinic'
loop_
_space_group_symop_operation_xyz
x,y,z
-x,-y,-z
loop_
_atom_site_type_symbol
_atom_site_label
_atom_site_fract_x
_atom_site_fract_y
_atom_site_fract_z
Si Si1 0.635786 0.308166 0.109990
Si Si2 0.517690 0.805951 0.320841
Si Si3 0.974593 0.346920 0.521169
Si Si4 0.873175 0.754268 0.295093
Si Si5 0.698870 0.742620 0.196694
Si Si6 0.586124 0.128709 0.682886
Si Si7 0.668577 0.643992 0.543492
Si Si8 0.026139 0.312302 0.320938
O O1 0.692471 0.498763 0.114722
O O2 0.852580 0.510983 0.262371
O O3 0.460368 0.032221 0.163779
O O4 0.539753 0.200218 0.898526
O O5 0.529255 0.909516 0.386939
O O6 0.343124 0.498356 0.331832
O O7 0.738028 0.017331 0.467088
O O8 0.000000 0.500000 0.500000
O O9 0.995054 0.362811 0.366139
O O10 0.856560 0.854358 0.261795
O O11 0.856909 0.646895 0.479179
O O12 0.098734 0.023883 0.337960
O O13 0.622893 0.603259 0.343032
O O14 0.500000 0.500000 0.000000
O O15 0.809413 0.999074 0.178268
O O16 0.833892 0.459686 0.774876
O O17 0.500000 0.000000 0.500000
O O18 0.500000 0.500000 0.500000
#
# Coordination Sequence:
#
# PCOD8015369 Si02
#       8
#     2   2   2   2   2   2   2   2
#     4  11  25  42  71  98 135 181 227 272 345 405
#     4  12  25  43  70  95 138 176 224 279 338 403
#     4  11  22  43  68  96 136 177 222 282 341 399
#     4  10  21  42  68  92 134 177 222 274 342 397
#     4  11  24  43  68  99 136 177 226 281 342 407
#     4  12  21  42  70  99 129 176 226 276 338 405
#     4  11  24  44  68  99 133 175 225 281 340 404
#     4  10  21  42  68  96 131 175 223 278 339 401
#
# _framework density 21.677320999999999
#
# number of rings (size 3 to 8) (size 9 to 14) (size 15 to 20)
#    0.000    1.000    3.750    5.625    3.500    0.500 
#    6.750    0.625    0.000    0.000    0.000    0.000 
#    0.000    0.000    0.000    0.000    0.000    0.000 
#
# Total GULP energy -198388.985507 kJ/mol
# GULP energy per Si atom -12399.311594 kJ/mol
# Density = 2.162798 g / cm^3
# Si number density = 21.677321 Si / 1000 Ang^3
#
#
#
# Elastic Constant Matrix: (Units=GPa)
#
#
# Indices 1 2 3 4 5 6 
#
# 1 136.0612 53.1452 39.8647 2.4543 -17.9310 3.7043
# 2 53.1452 163.0948 59.9554 -4.7863 -6.6455 3.9367
# 3 39.8647 59.9554 96.4211 5.9277 -14.8165 -0.2222
# 4 2.4543 -4.7863 5.9277 31.7699 -1.1010 -0.0567
# 5 -17.9310 -6.6455 -14.8165 -1.1010 22.6448 5.3056
# 6 3.7043 3.9367 -0.2222 -0.0567 5.3056 41.4673
#
#
#
# Elastic Compliance Matrix: (Units=1/GPa)
#
#
# Indices 1 2 3 4 5 6 
#
# 1 0.009559 -0.002273 -0.001554 -0.000579 0.006194 -0.001440
# 2 -0.002273 0.008675 -0.004952 0.002326 -0.002299 -0.000350
# 3 -0.001554 -0.004952 0.015414 -0.003249 0.007301 -0.000247
# 4 -0.000579 0.002326 -0.003249 0.032467 -0.000299 -0.000104
# 5 0.006194 -0.002299 0.007301 -0.000299 0.054867 -0.007317
# 6 -0.001440 -0.000350 -0.000247 -0.000104 -0.007317 0.025212
#
#
# Mechanical properties :
#
#
# Convention : Reuss Voigt Hill
#
# Bulk Modulus (GPa) = 62.15206 77.94530 70.04868
# Shear Modulus (GPa) = 29.56534 35.35051 32.45793
#
# Velocity S-wave (km/s) = 3.69709 4.04265 3.87372
# Velocity P-wave (km/s) = 6.85261 7.60433 7.23824
#
# Compressibility (1/GPa) = 0.01608957
#
# Stress axis : x y z
#
# Youngs Moduli (GPa) = 104.61416 115.26729 64.87595
#
# Poissons Ratio (x) = 0.26203 0.10085
# Poissons Ratio (y) = 0.23781 0.32125
# Poissons Ratio (z) = 0.16262 0.57077
#
# Static dielectric constant tensor:
#      x y z
#    x 4.274990 -0.158640 -0.149010 
#    y -0.158640 4.480040 0.067500 
#    z -0.149010 0.067500 3.527230 
# 
# 
# High freq. dielectric constant tensor:
#      x y z
#    x 1.867710 -0.007050 -0.014670 
#    y -0.007050 1.866220 0.014560 
#    z -0.014670 0.014560 1.820300 
# 
# From -- ./inp_files/285173.got.cif
#   From: 2010.06.25/outbox.cif.g09.slc.cpg/sg2_143_cif.got.tgz:285173.got - 2010.06.27 13:26:56.
