data_PCOD8015665
_publ_section_title
;
Structure prediction by ZEFSAII (Michael W. Deem and Ramdas Pophale) SiO2 
 PCOD8015665
Probable space group: P -1
;
_chemical_formula_sum "Si O2"
_cell_formula_units_Z 12
_cell_length_a 8.437612
_cell_length_b 8.780388
_cell_length_c 11.183197
_cell_angle_alpha 87.090187
_cell_angle_beta 136.965267
_cell_angle_gamma 72.997178
_cell_volume 494.296694
_symmetry_space_group_name_H-M "P -1"
_symmetry_group_IT_number 2
_symmetry_cell_setting 'triclinic'
loop_
_space_group_symop_operation_xyz
x,y,z
-x,-y,-z
loop_
_atom_site_type_symbol
_atom_site_label
_atom_site_fract_x
_atom_site_fract_y
_atom_site_fract_z
Si Si1 0.278906 0.481374 0.620510
Si Si2 0.516220 0.222048 0.962611
Si Si3 0.317785 0.135077 0.227041
Si Si4 0.256289 0.821643 0.668474
Si Si5 0.463699 0.771165 0.438018
Si Si6 0.899190 0.830285 0.127719
O O1 0.485174 0.361448 0.840122
O O2 0.262434 0.668763 0.598185
O O3 0.373766 0.398403 0.545610
O O4 0.000000 0.500000 0.500000
O O5 0.224687 0.261764 0.850853
O O6 0.698133 0.238876 0.165936
O O7 0.686283 0.034152 0.004789
O O8 0.530365 0.120075 0.248222
O O9 0.331218 0.247973 0.341472
O O10 0.378758 0.946342 0.310808
O O11 0.061340 0.223293 0.992395
O O12 0.000000 0.000000 0.500000
O O13 0.191589 0.783195 0.339173
#
# Coordination Sequence:
#
# PCOD8015665 Si02
#       6
#     2   2   2   2   2   2
#     4  12  27  44  67 106 139 178 234 289 340 408
#     4  10  23  44  71 104 138 178 233 281 343 409
#     4  10  22  40  66 103 130 182 224 276 340 415
#     4  11  24  45  71  97 137 184 232 284 352 407
#     4  11  23  43  70  99 142 180 230 281 344 408
#     4  10  21  42  76  99 137 181 230 279 346 412
#
# _framework density 24.276917999999998
#
# number of rings (size 3 to 8) (size 9 to 14) (size 15 to 20)
#    0.000    1.333    1.667    3.000    7.000    2.000 
#    3.000    1.667    0.000    0.000    0.000    0.000 
#    0.000    0.000    0.000    0.000    0.000    0.000 
#
# Total GULP energy -148716.851830 kJ/mol
# GULP energy per Si atom -12393.070986 kJ/mol
# Density = 2.422166 g / cm^3
# Si number density = 24.276918 Si / 1000 Ang^3
#
#
#
# Elastic Constant Matrix: (Units=GPa)
#
#
# Indices 1 2 3 4 5 6 
#
# 1 78.0381 37.2029 24.9812 3.2959 -3.8035 -12.4851
# 2 37.2029 142.3456 43.7359 13.7576 -0.2234 -16.8844
# 3 24.9812 43.7359 60.0308 15.2857 -10.9805 -9.2216
# 4 3.2959 13.7576 15.2857 35.9655 -3.0927 -3.9813
# 5 -3.8035 -0.2234 -10.9805 -3.0927 42.4698 8.8518
# 6 -12.4851 -16.8844 -9.2216 -3.9813 8.8518 33.1986
#
#
#
# Elastic Compliance Matrix: (Units=1/GPa)
#
#
# Indices 1 2 3 4 5 6 
#
# 1 0.016042 -0.002420 -0.004909 0.001920 -0.000498 0.003802
# 2 -0.002420 0.009936 -0.005976 -0.000912 -0.002404 0.003015
# 3 -0.004909 -0.005976 0.026090 -0.007872 0.005724 -0.000109
# 4 0.001920 -0.000912 -0.007872 0.031531 0.000044 0.001841
# 5 -0.000498 -0.002404 0.005724 0.000044 0.026401 -0.006854
# 6 0.003802 0.003015 -0.000109 0.001841 -0.006854 0.035103
#
#
# Mechanical properties :
#
#
# Convention : Reuss Voigt Hill
#
# Bulk Modulus (GPa) = 39.28030 54.69492 46.98761
# Shear Modulus (GPa) = 27.74738 33.95976 30.85357
#
# Velocity S-wave (km/s) = 3.38443 3.74418 3.56884
# Velocity P-wave (km/s) = 5.61139 6.42420 6.03150
#
# Compressibility (1/GPa) = 0.02545806
#
# Stress axis : x y z
#
# Youngs Moduli (GPa) = 62.33605 100.64619 38.32940
#
# Poissons Ratio (x) = 0.24355 0.18814
# Poissons Ratio (y) = 0.15085 0.22907
# Poissons Ratio (z) = 0.30598 0.60149
#
# Static dielectric constant tensor:
#      x y z
#    x 4.287590 -0.191620 -0.343590 
#    y -0.191620 3.913410 0.098550 
#    z -0.343590 0.098550 4.302180 
# 
# 
# High freq. dielectric constant tensor:
#      x y z
#    x 1.967970 0.004530 -0.021900 
#    y 0.004530 1.951000 0.021510 
#    z -0.021900 0.021510 1.976730 
# 
# From -- ./inp_files/149013.got.cif
#   From: 2010.06.25/outbox.cif.g09.slc.cpg/sg2_75_cif.got.tgz:149013.got - 2010.06.27 13:26:56.
