data_PCOD8015222
_publ_section_title
;
Structure prediction by ZEFSAII (Michael W. Deem and Ramdas Pophale) SiO2 
 PCOD8015222
Probable space group: P -1
;
_chemical_formula_sum "Si O2"
_cell_formula_units_Z 16
_cell_length_a 20.325152
_cell_length_b 17.295875
_cell_length_c 11.901335
_cell_angle_alpha 26.601211
_cell_angle_beta 140.965660
_cell_angle_gamma 157.368945
_cell_volume 691.700555
_symmetry_space_group_name_H-M "P -1"
_symmetry_group_IT_number 2
_symmetry_cell_setting 'triclinic'
loop_
_space_group_symop_operation_xyz
x,y,z
-x,-y,-z
loop_
_atom_site_type_symbol
_atom_site_label
_atom_site_fract_x
_atom_site_fract_y
_atom_site_fract_z
Si Si1 0.053001 0.707983 0.892144
Si Si2 0.222380 0.712692 0.283700
Si Si3 0.531421 0.748974 0.926742
Si Si4 0.692083 0.367418 0.901860
Si Si5 0.214831 0.166795 0.951352
Si Si6 0.367846 0.375345 0.391078
Si Si7 0.584933 0.265664 0.647144
Si Si8 0.826501 0.652335 0.142130
O O1 0.897429 0.634906 0.797724
O O2 0.209612 0.029513 0.629672
O O3 0.088924 0.679449 0.102549
O O4 0.000000 0.500000 0.000000
O O5 0.295298 0.736030 0.232076
O O6 0.131562 0.443168 0.588447
O O7 0.376914 0.999587 0.191616
O O8 0.682391 0.879404 0.869431
O O9 0.454967 0.483876 0.241295
O O10 0.363295 0.627535 0.807739
O O11 0.681150 0.489288 0.829973
O O12 0.591103 0.305131 0.737480
O O13 0.613743 0.070444 0.213551
O O14 0.345583 0.475547 0.662605
O O15 0.196641 0.195150 0.021646
O O16 0.005260 0.888982 0.991455
O O17 0.500000 0.500000 0.500000
#
# Coordination Sequence:
#
# PCOD8015222 Si02
#       8
#     2   2   2   2   2   2   2   2
#     4  12  26  42  68 105 140 183 233 287 351 420
#     4  11  23  47  64  99 141 177 229 292 337 415
#     4  12  24  43  73 100 137 184 232 290 353 407
#     4  11  23  41  69  99 138 186 228 281 357 418
#     4  10  24  44  70 102 135 179 236 292 341 418
#     4  12  25  44  67 102 142 177 229 288 352 417
#     4  10  21  42  66  97 140 178 225 284 348 416
#     4  10  25  47  70  97 138 185 236 283 351 414
#
# _framework density 23.131395999999999
#
# number of rings (size 3 to 8) (size 9 to 14) (size 15 to 20)
#    0.000    1.000    3.750    1.875    5.250    2.500 
#    4.500    0.000    0.000    0.000    0.000    0.000 
#    0.000    0.000    0.000    0.000    0.000    0.000 
#
# Total GULP energy -198230.534501 kJ/mol
# GULP energy per Si atom -12389.408406 kJ/mol
# Density = 2.307875 g / cm^3
# Si number density = 23.131396 Si / 1000 Ang^3
#
#
#
# Elastic Constant Matrix: (Units=GPa)
#
#
# Indices 1 2 3 4 5 6 
#
# 1 94.4953 30.0249 20.8653 -13.0332 1.2580 7.5736
# 2 30.0249 114.1756 26.7903 -17.7258 3.7500 -1.5199
# 3 20.8653 26.7903 91.0901 -18.2193 -9.5423 -3.6626
# 4 -13.0332 -17.7258 -18.2193 37.2952 -3.2187 -2.9343
# 5 1.2580 3.7500 -9.5423 -3.2187 28.3392 -5.8217
# 6 7.5736 -1.5199 -3.6626 -2.9343 -5.8217 34.6510
#
#
#
# Elastic Compliance Matrix: (Units=1/GPa)
#
#
# Indices 1 2 3 4 5 6 
#
# 1 0.012327 -0.002493 -0.001994 0.001792 -0.001319 -0.003084
# 2 -0.002493 0.010413 -0.002001 0.003041 -0.001430 0.000808
# 3 -0.001994 -0.002001 0.014049 0.006044 0.006475 0.003433
# 4 0.001792 0.003041 0.006044 0.032695 0.006125 0.004178
# 5 -0.001319 -0.001430 0.006475 0.006125 0.040088 0.008164
# 6 -0.003084 0.000808 0.003433 0.004178 0.008164 0.031657
#
#
# Mechanical properties :
#
#
# Convention : Reuss Voigt Hill
#
# Bulk Modulus (GPa) = 41.99383 50.56910 46.28147
# Shear Modulus (GPa) = 30.83723 34.86246 32.84984
#
# Velocity S-wave (km/s) = 3.65517 3.88641 3.77256
# Velocity P-wave (km/s) = 6.00063 6.48445 6.24723
#
# Compressibility (1/GPa) = 0.02381302
#
# Stress axis : x y z
#
# Youngs Moduli (GPa) = 81.12284 96.03088 71.18156
#
# Poissons Ratio (x) = 0.23943 0.14194
# Poissons Ratio (y) = 0.20226 0.14241
# Poissons Ratio (z) = 0.16176 0.19212
#
# Static dielectric constant tensor:
#      x y z
#    x 5.991920 0.212200 -0.509460 
#    y 0.212200 4.163200 -0.275300 
#    z -0.509460 -0.275300 4.282520 
# 
# 
# High freq. dielectric constant tensor:
#      x y z
#    x 1.920150 0.004810 0.001860 
#    y 0.004810 1.907210 -0.023630 
#    z 0.001860 -0.023630 1.908150 
# 
# From -- ./inp_files/472345.got.cif
#   From: 2010.06.25/outbox.cif.g09.slc.cpg/sg2_237_cif.got.tgz:472345.got - 2010.06.27 13:26:56.
