data_PCOD8015764
_publ_section_title
;
Structure prediction by ZEFSAII (Michael W. Deem and Ramdas Pophale) SiO2 
 PCOD8015764
Probable space group: P -1
;
_chemical_formula_sum "Si O2"
_cell_formula_units_Z 16
_cell_length_a 8.607374
_cell_length_b 12.336911
_cell_length_c 18.370593
_cell_angle_alpha 131.119898
_cell_angle_beta 149.442650
_cell_angle_gamma 48.365555
_cell_volume 722.218025
_symmetry_space_group_name_H-M "P -1"
_symmetry_group_IT_number 2
_symmetry_cell_setting 'triclinic'
loop_
_space_group_symop_operation_xyz
x,y,z
-x,-y,-z
loop_
_atom_site_type_symbol
_atom_site_label
_atom_site_fract_x
_atom_site_fract_y
_atom_site_fract_z
Si Si1 0.472219 0.008754 0.905422
Si Si2 0.765669 0.687779 0.888711
Si Si3 0.918553 0.780303 0.389855
Si Si4 0.651803 0.277982 0.128863
Si Si5 0.746727 0.416411 0.445127
Si Si6 0.135027 0.933559 0.410321
Si Si7 0.512652 0.434698 0.897091
Si Si8 0.211306 0.274121 0.445174
O O1 0.122169 0.021344 0.737959
O O2 0.696541 0.853574 0.898642
O O3 0.598973 0.151624 0.994844
O O4 0.500000 0.000000 0.000000
O O5 0.648652 0.686809 0.923547
O O6 0.587806 0.593538 0.725577
O O7 0.131024 0.611259 0.005955
O O8 0.625634 0.708371 0.227750
O O9 0.205103 0.655456 0.486782
O O10 0.030958 0.823304 0.376207
O O11 0.816648 0.923012 0.464323
O O12 0.682131 0.429958 0.171405
O O13 0.969197 0.206809 0.270933
O O14 0.725418 0.589846 0.515214
O O15 0.052729 0.328367 0.482726
O O16 0.464435 0.851914 0.468482
O O17 0.500000 0.500000 0.000000
#
# Coordination Sequence:
#
# PCOD8015764 Si02
#       8
#     2   2   2   2   2   2   2   2
#     4  10  22  43  67  98 131 173 220 266 328 392
#     4  10  23  42  68  91 134 173 214 275 327 385
#     4  11  25  45  65  95 138 172 225 268 329 401
#     4  10  22  43  64  99 131 167 218 271 333 388
#     4  10  21  43  65 101 130 169 222 271 330 388
#     4  11  25  45  67  98 133 179 219 272 331 393
#     4  12  26  43  64  98 129 177 223 267 328 401
#     4  10  23  40  71  99 132 168 222 278 323 390
#
# _framework density 22.153974000000002
#
# number of rings (size 3 to 8) (size 9 to 14) (size 15 to 20)
#    0.000    1.500    2.500    1.125    5.250    4.000 
#    0.000    1.250    0.000    0.000    0.000    0.000 
#    0.000    0.000    0.000    0.000    0.000    0.000 
#
# Total GULP energy -198378.712475 kJ/mol
# GULP energy per Si atom -12398.669530 kJ/mol
# Density = 2.210355 g / cm^3
# Si number density = 22.153974 Si / 1000 Ang^3
#
#
#
# Elastic Constant Matrix: (Units=GPa)
#
#
# Indices 1 2 3 4 5 6 
#
# 1 45.1144 21.9378 34.5216 -0.7623 -0.8925 12.9314
# 2 21.9378 90.8447 37.1614 1.5821 2.4590 12.2316
# 3 34.5216 37.1614 113.6109 12.2129 -2.3702 0.4995
# 4 -0.7623 1.5821 12.2129 45.9017 7.9121 1.7432
# 5 -0.8925 2.4590 -2.3702 7.9121 26.4665 -1.1660
# 6 12.9314 12.2316 0.4995 1.7432 -1.1660 32.2018
#
#
#
# Elastic Compliance Matrix: (Units=1/GPa)
#
#
# Indices 1 2 3 4 5 6 
#
# 1 0.035071 -0.002535 -0.010240 0.004123 -0.001315 -0.013233
# 2 -0.002535 0.013837 -0.003898 0.001066 -0.002229 -0.004316
# 3 -0.010240 -0.003898 0.013693 -0.004379 0.002804 0.005719
# 4 0.004123 0.001066 -0.004379 0.024468 -0.007826 -0.003601
# 5 -0.001315 -0.002229 0.002804 -0.007826 0.040679 0.003228
# 6 -0.013233 -0.004316 0.005719 -0.003601 0.003228 0.038230
#
#
# Mechanical properties :
#
#
# Convention : Reuss Voigt Hill
#
# Bulk Modulus (GPa) = 34.18206 48.53462 41.35834
# Shear Modulus (GPa) = 23.91475 31.31063 27.61269
#
# Velocity S-wave (km/s) = 3.28911 3.76349 3.53427
# Velocity P-wave (km/s) = 5.46691 6.39066 5.94675
#
# Compressibility (1/GPa) = 0.02925511
#
# Stress axis : x y z
#
# Youngs Moduli (GPa) = 28.51380 72.26800 73.03207
#
# Poissons Ratio (x) = 0.18319 0.74784
# Poissons Ratio (y) = 0.07228 0.28468
# Poissons Ratio (z) = 0.29198 0.28170
#
# Static dielectric constant tensor:
#      x y z
#    x 4.667640 -1.050980 -0.080280 
#    y -1.050980 6.229710 0.400240 
#    z -0.080280 0.400240 4.116390 
# 
# 
# High freq. dielectric constant tensor:
#      x y z
#    x 1.842180 0.015290 -0.000160 
#    y 0.015290 1.887770 0.009570 
#    z -0.000160 0.009570 1.886720 
# 
# From -- ./inp_files/208268.got.cif
#   From: 2010.06.25/outbox.cif.g09.slc.cpg/sg2_105_cif.got.tgz:208268.got - 2010.06.27 13:26:56.
