data_PCOD8015046
_publ_section_title
;
Structure prediction by ZEFSAII (Michael W. Deem and Ramdas Pophale) SiO2 
 PCOD8015046
Probable space group: P -1
;
_chemical_formula_sum "Si O2"
_cell_formula_units_Z 14
_cell_length_a 16.926443
_cell_length_b 8.282554
_cell_length_c 19.372526
_cell_angle_alpha 130.586836
_cell_angle_beta 20.353873
_cell_angle_gamma 132.562409
_cell_volume 694.333946
_symmetry_space_group_name_H-M "P -1"
_symmetry_group_IT_number 2
_symmetry_cell_setting 'triclinic'
loop_
_space_group_symop_operation_xyz
x,y,z
-x,-y,-z
loop_
_atom_site_type_symbol
_atom_site_label
_atom_site_fract_x
_atom_site_fract_y
_atom_site_fract_z
Si Si1 0.532628 0.636778 0.941204
Si Si2 0.672302 0.388974 0.629593
Si Si3 0.502090 0.759371 0.410830
Si Si4 0.717482 0.650747 0.446622
Si Si5 0.919596 0.224082 0.618650
Si Si6 0.781007 0.566287 0.222592
Si Si7 0.940373 0.128537 0.426572
O O1 0.537159 0.482995 0.827620
O O2 0.778269 0.820116 0.797884
O O3 0.500000 0.500000 0.000000
O O4 0.317827 0.757139 0.141718
O O5 0.489428 0.271271 0.687611
O O6 0.810731 0.212124 0.492762
O O7 0.859267 0.578618 0.488232
O O8 0.283834 0.571143 0.570584
O O9 0.741141 0.738456 0.245629
O O10 0.500000 0.000000 0.500000
O O11 0.849455 0.667389 0.270220
O O12 0.445905 0.644288 0.648174
O O13 0.844227 0.867407 0.445316
O O14 0.874024 0.252355 0.582291
O O15 0.000000 0.000000 0.500000
O O16 0.000000 0.500000 0.000000
#
# Coordination Sequence:
#
# PCOD8015046 Si02
#       7
#     2   2   2   2   2   2   2
#     4  11  21  43  62  93 127 170 213 250 311 383
#     4  11  22  38  64  93 127 167 212 257 316 369
#     4  10  21  42  65  90 128 161 206 262 314 368
#     4   9  21  40  63  90 125 161 202 261 316 360
#     4  11  23  41  62  92 128 164 207 264 310 371
#     4   9  20  42  63  86 123 160 213 250 308 375
#     4  11  21  38  66  91 126 167 210 255 314 374
#
# _framework density 20.163208000000001
#
# number of rings (size 3 to 8) (size 9 to 14) (size 15 to 20)
#    0.857    0.857    2.857    2.571    0.000    3.429 
#    5.143    0.714    0.000    0.000    0.000    0.000 
#    0.000    0.000    0.000    0.000    0.000    0.000 
#
# Total GULP energy -173444.150767 kJ/mol
# GULP energy per Si atom -12388.867912 kJ/mol
# Density = 2.011732 g / cm^3
# Si number density = 20.163208 Si / 1000 Ang^3
#
#
#
# Elastic Constant Matrix: (Units=GPa)
#
#
# Indices 1 2 3 4 5 6 
#
# 1 113.9524 28.1113 37.8596 17.7615 12.6395 3.8699
# 2 28.1113 121.9981 38.4262 12.6873 2.4243 -1.5246
# 3 37.8596 38.4262 148.8924 19.3249 7.7627 -0.8129
# 4 17.7615 12.6873 19.3249 22.7303 -6.6999 -2.3729
# 5 12.6395 2.4243 7.7627 -6.6999 20.7013 10.7377
# 6 3.8699 -1.5246 -0.8129 -2.3729 10.7377 33.7615
#
#
#
# Elastic Compliance Matrix: (Units=1/GPa)
#
#
# Indices 1 2 3 4 5 6 
#
# 1 0.012368 -0.001160 -0.000711 -0.011705 -0.011664 0.001400
# 2 -0.001160 0.009342 -0.001640 -0.003182 -0.001140 0.000654
# 3 -0.000711 -0.001640 0.008586 -0.007371 -0.005774 0.001533
# 4 -0.011705 -0.003182 -0.007371 0.071280 0.036196 -0.005482
# 5 -0.011664 -0.001140 -0.005774 0.036196 0.080868 -0.022029
# 6 0.001400 0.000654 0.001533 -0.005482 -0.022029 0.036147
#
#
# Mechanical properties :
#
#
# Convention : Reuss Voigt Hill
#
# Bulk Modulus (GPa) = 42.96251 65.95969 54.46110
# Shear Modulus (GPa) = 21.42506 34.13501 27.78004
#
# Velocity S-wave (km/s) = 3.26326 4.11899 3.71584
# Velocity P-wave (km/s) = 5.96256 7.44348 6.74379
#
# Compressibility (1/GPa) = 0.02327611
#
# Stress axis : x y z
#
# Youngs Moduli (GPa) = 80.85087 107.03886 116.46277
#
# Poissons Ratio (x) = 0.12412 0.08278
# Poissons Ratio (y) = 0.09375 0.19103
# Poissons Ratio (z) = 0.05747 0.17557
#
# Static dielectric constant tensor:
#      x y z
#    x 3.718990 0.048720 0.067520 
#    y 0.048720 3.563910 -0.044450 
#    z 0.067520 -0.044450 3.528410 
# 
# 
# High freq. dielectric constant tensor:
#      x y z
#    x 1.802560 -0.000760 0.004270 
#    y -0.000760 1.778910 0.003580 
#    z 0.004270 0.003580 1.765640 
# 
# From -- ./inp_files/599615.got.cif
#   From: 2010.06.25/outbox.cif.g09.slc.cpg/sg2_300_cif.got.tgz:599615.got - 2010.06.27 13:26:56.
