data_PCOD8015443
_publ_section_title
;
Structure prediction by ZEFSAII (Michael W. Deem and Ramdas Pophale) SiO2 
 PCOD8015443
Probable space group: P -1
;
_chemical_formula_sum "Si O2"
_cell_formula_units_Z 14
_cell_length_a 19.699015
_cell_length_b 12.661568
_cell_length_c 9.241408
_cell_angle_alpha 135.840845
_cell_angle_beta 37.504022
_cell_angle_gamma 152.337506
_cell_volume 650.618490
_symmetry_space_group_name_H-M "P -1"
_symmetry_group_IT_number 2
_symmetry_cell_setting 'triclinic'
loop_
_space_group_symop_operation_xyz
x,y,z
-x,-y,-z
loop_
_atom_site_type_symbol
_atom_site_label
_atom_site_fract_x
_atom_site_fract_y
_atom_site_fract_z
Si Si1 0.976479 0.394436 0.211290
Si Si2 0.669134 0.572675 0.805080
Si Si3 0.205427 0.406190 0.695690
Si Si4 0.013071 0.032988 0.181698
Si Si5 0.529787 0.909350 0.740918
Si Si6 0.125518 0.819435 0.531513
Si Si7 0.637222 0.201491 0.572142
O O1 0.927579 0.219827 0.246105
O O2 0.821681 0.329787 0.340726
O O3 0.102088 0.628655 0.318311
O O4 0.068434 0.403475 0.930896
O O5 0.760914 0.624719 0.550496
O O6 0.801935 0.806432 0.904544
O O7 0.625857 0.372629 0.764212
O O8 0.500000 0.500000 0.000000
O O9 0.376349 0.646683 0.704660
O O10 0.135158 0.202753 0.716095
O O11 0.974229 0.172428 0.400118
O O12 0.000000 0.000000 0.000000
O O13 0.676707 0.943102 0.572894
O O14 0.597443 0.088698 0.680021
O O15 0.500000 0.000000 0.000000
O O16 0.500000 0.000000 0.500000
#
# Coordination Sequence:
#
# PCOD8015443 Si02
#       7
#     2   2   2   2   2   2   2
#     4  10  21  42  73 101 139 176 237 293 345 410
#     4  12  30  51  68 102 152 190 232 294 361 425
#     4  12  26  46  70 105 146 188 233 292 355 425
#     4  12  27  47  73 102 140 195 239 282 357 426
#     4  11  24  41  70 109 138 169 236 300 345 405
#     4  10  21  42  69 103 139 180 227 301 344 408
#     4  11  24  46  73  98 135 188 230 286 359 413
#
# _framework density 21.517987000000002
#
# number of rings (size 3 to 8) (size 9 to 14) (size 15 to 20)
#    0.000    0.857    5.714    0.429    6.000    2.286 
#    2.571    0.000    0.000    0.000    0.000    0.000 
#    0.000    0.000    0.000    0.000    0.000    0.000 
#
# Total GULP energy -173499.429518 kJ/mol
# GULP energy per Si atom -12392.816394 kJ/mol
# Density = 2.146901 g / cm^3
# Si number density = 21.517987 Si / 1000 Ang^3
#
#
#
# Elastic Constant Matrix: (Units=GPa)
#
#
# Indices 1 2 3 4 5 6 
#
# 1 104.4770 48.4885 51.2571 -10.6788 -17.7358 18.1176
# 2 48.4885 135.2428 38.6633 -14.3150 -5.8989 17.0279
# 3 51.2571 38.6633 134.0771 -13.5389 -0.6244 17.8367
# 4 -10.6788 -14.3150 -13.5389 26.6642 10.7340 -3.7249
# 5 -17.7358 -5.8989 -0.6244 10.7340 45.1748 2.7885
# 6 18.1176 17.0279 17.8367 -3.7249 2.7885 45.2381
#
#
#
# Elastic Compliance Matrix: (Units=1/GPa)
#
#
# Indices 1 2 3 4 5 6 
#
# 1 0.014726 -0.003493 -0.004242 -0.000885 0.005683 -0.003334
# 2 -0.003493 0.009390 -0.000841 0.003357 -0.000863 -0.001474
# 3 -0.004242 -0.000841 0.009868 0.003632 -0.002414 -0.001427
# 4 -0.000885 0.003357 0.003632 0.045423 -0.010779 0.002063
# 5 0.005683 -0.000863 -0.002414 -0.010779 0.027002 -0.003551
# 6 -0.003334 -0.001474 -0.001427 0.002063 -0.003551 0.024947
#
#
# Mechanical properties :
#
#
# Convention : Reuss Voigt Hill
#
# Bulk Modulus (GPa) = 59.41144 72.29052 65.85098
# Shear Modulus (GPa) = 32.44242 39.10795 35.77518
#
# Velocity S-wave (km/s) = 3.88711 4.26779 4.08189
# Velocity P-wave (km/s) = 6.91493 7.61273 7.27220
#
# Compressibility (1/GPa) = 0.01683178
#
# Stress axis : x y z
#
# Youngs Moduli (GPa) = 67.90680 106.49296 101.33664
#
# Poissons Ratio (x) = 0.37200 0.42985
# Poissons Ratio (y) = 0.23721 0.08526
# Poissons Ratio (z) = 0.28805 0.08960
#
# Static dielectric constant tensor:
#      x y z
#    x 4.161810 0.141660 -0.237140 
#    y 0.141660 4.200420 -0.094570 
#    z -0.237140 -0.094570 4.029250 
# 
# 
# High freq. dielectric constant tensor:
#      x y z
#    x 1.844620 0.006920 -0.007750 
#    y 0.006920 1.860090 0.000210 
#    z -0.007750 0.000210 1.848110 
# 
# From -- ./inp_files/333685.got.cif
#   From: 2010.06.25/outbox.cif.g09.slc.cpg/sg2_167_cif.got.tgz:333685.got - 2010.06.27 13:26:56.
