data_PCOD8015199
_publ_section_title
;
Structure prediction by ZEFSAII (Michael W. Deem and Ramdas Pophale) SiO2 
 PCOD8015199
Probable space group: P -1
;
_chemical_formula_sum "Si O2"
_cell_formula_units_Z 16
_cell_length_a 16.672721
_cell_length_b 10.910096
_cell_length_c 14.370751
_cell_angle_alpha 30.228364
_cell_angle_beta 146.624781
_cell_angle_gamma 129.853478
_cell_volume 692.556169
_symmetry_space_group_name_H-M "P -1"
_symmetry_group_IT_number 2
_symmetry_cell_setting 'triclinic'
loop_
_space_group_symop_operation_xyz
x,y,z
-x,-y,-z
loop_
_atom_site_type_symbol
_atom_site_label
_atom_site_fract_x
_atom_site_fract_y
_atom_site_fract_z
Si Si1 0.649872 0.737343 0.485599
Si Si2 0.160627 0.945705 0.464288
Si Si3 0.326998 0.131842 0.218612
Si Si4 0.721819 0.379079 0.514973
Si Si5 0.167907 0.639085 0.842829
Si Si6 0.933395 0.441172 0.837139
Si Si7 0.450811 0.605812 0.239276
Si Si8 0.664550 0.527222 0.161878
O O1 0.809448 0.558852 0.717817
O O2 0.522738 0.800765 0.237972
O O3 0.583654 0.601772 0.590546
O O4 0.685515 0.983337 0.401950
O O5 0.092981 0.834347 0.560635
O O6 0.208897 0.730120 0.575358
O O7 0.029314 0.171965 0.145994
O O8 0.500000 0.000000 0.500000
O O9 0.239131 0.918095 0.280427
O O10 0.250826 0.356199 0.069876
O O11 0.314733 0.236327 0.032235
O O12 0.863009 0.414233 0.686351
O O13 0.568860 0.451113 0.379592
O O14 0.692364 0.561769 0.275672
O O15 0.040926 0.623434 0.805138
O O16 0.292823 0.753538 0.939123
O O17 0.500000 0.500000 0.000000
#
# Coordination Sequence:
#
# PCOD8015199 Si02
#       8
#     2   2   2   2   2   2   2   2
#     4  10  23  43  68  92 127 171 217 266 320 374
#     4  11  24  41  66  94 131 171 210 260 326 379
#     4  11  21  38  65  96 129 166 205 261 322 377
#     4  11  23  41  66  97 131 167 211 265 322 373
#     4  11  23  40  67  95 128 167 217 261 320 385
#     4  11  25  44  65  93 133 172 213 263 317 384
#     4  10  21  42  66  96 125 162 220 270 311 379
#     4  11  23  38  65 101 128 163 215 261 318 384
#
# _framework density 23.102819
#
# number of rings (size 3 to 8) (size 9 to 14) (size 15 to 20)
#    0.000    1.250    3.750    1.875    1.750    4.000 
#    0.000    2.500    0.000    0.000    0.000    0.000 
#    0.000    0.000    0.000    0.000    0.000    0.000 
#
# Total GULP energy -198410.272383 kJ/mol
# GULP energy per Si atom -12400.642024 kJ/mol
# Density = 2.305024 g / cm^3
# Si number density = 23.102819 Si / 1000 Ang^3
#
#
#
# Elastic Constant Matrix: (Units=GPa)
#
#
# Indices 1 2 3 4 5 6 
#
# 1 127.6571 15.9778 56.5299 7.7476 -19.3198 -1.3062
# 2 15.9778 62.9335 28.8012 21.6596 -1.6407 -2.0900
# 3 56.5299 28.8012 104.3684 26.2872 -20.4996 3.9239
# 4 7.7476 21.6596 26.2872 29.0579 1.7147 -5.8998
# 5 -19.3198 -1.6407 -20.4996 1.7147 31.5839 7.6165
# 6 -1.3062 -2.0900 3.9239 -5.8998 7.6165 27.9422
#
#
#
# Elastic Compliance Matrix: (Units=1/GPa)
#
#
# Indices 1 2 3 4 5 6 
#
# 1 0.010778 -0.001095 -0.006126 0.003674 0.001995 0.001514
# 2 -0.001095 0.022023 -0.001456 -0.015176 0.000740 -0.001606
# 3 -0.006126 -0.001456 0.021460 -0.019831 0.013930 -0.011393
# 4 0.003674 -0.015176 -0.019831 0.068315 -0.020378 0.021800
# 5 0.001995 0.000740 0.013930 -0.020378 0.047676 -0.019106
# 6 0.001514 -0.001606 -0.011393 0.021800 -0.019106 0.047150
#
#
# Mechanical properties :
#
#
# Convention : Reuss Voigt Hill
#
# Bulk Modulus (GPa) = 27.09478 55.28633 41.19055
# Shear Modulus (GPa) = 20.23813 30.62681 25.43247
#
# Velocity S-wave (km/s) = 2.96295 3.64493 3.32149
# Velocity P-wave (km/s) = 4.84342 6.45729 5.70768
#
# Compressibility (1/GPa) = 0.03690748
#
# Stress axis : x y z
#
# Youngs Moduli (GPa) = 92.78428 45.40622 46.59744
#
# Poissons Ratio (x) = 0.04972 0.28545
# Poissons Ratio (y) = 0.10160 0.06786
# Poissons Ratio (z) = 0.56838 0.06612
#
# Static dielectric constant tensor:
#      x y z
#    x 4.377540 -0.115850 -0.218820 
#    y -0.115850 4.441770 0.214990 
#    z -0.218820 0.214990 4.104980 
# 
# 
# High freq. dielectric constant tensor:
#      x y z
#    x 1.929670 -0.003240 -0.014100 
#    y -0.003240 1.902960 0.009360 
#    z -0.014100 0.009360 1.907710 
# 
# From -- ./inp_files/538398.got.cif
#   From: 2010.06.25/outbox.cif.g09.slc.cpg/sg2_270_cif.got.tgz:538398.got - 2010.06.27 13:26:56.
