data_PCOD8015193
_publ_section_title
;
Structure prediction by ZEFSAII (Michael W. Deem and Ramdas Pophale) SiO2 
 PCOD8015193
Probable space group: P -1
;
_chemical_formula_sum "Si O2"
_cell_formula_units_Z 14
_cell_length_a 16.053995
_cell_length_b 16.811067
_cell_length_c 10.802724
_cell_angle_alpha 36.410766
_cell_angle_beta 23.885068
_cell_angle_gamma 32.457658
_cell_volume 626.078515
_symmetry_space_group_name_H-M "P -1"
_symmetry_group_IT_number 2
_symmetry_cell_setting 'triclinic'
loop_
_space_group_symop_operation_xyz
x,y,z
-x,-y,-z
loop_
_atom_site_type_symbol
_atom_site_label
_atom_site_fract_x
_atom_site_fract_y
_atom_site_fract_z
Si Si1 0.809227 0.802851 0.124222
Si Si2 0.822933 0.537692 0.583887
Si Si3 0.420186 0.666633 0.119711
Si Si4 0.874931 0.007020 0.977882
Si Si5 0.688411 0.999019 0.503575
Si Si6 0.840768 0.449738 0.202071
Si Si7 0.759898 0.683738 0.828590
O O1 0.763769 0.701961 0.411237
O O2 0.576213 0.885055 0.257898
O O3 0.017769 0.704160 0.873088
O O4 0.867333 0.921464 0.971014
O O5 0.000000 0.500000 0.500000
O O6 0.960637 0.410299 0.454445
O O7 0.577919 0.547259 0.949008
O O8 0.224509 0.816508 0.137889
O O9 0.326134 0.576889 0.444927
O O10 0.598809 0.709060 0.897125
O O11 0.737936 0.977556 0.314738
O O12 0.142104 0.943591 0.734402
O O13 0.723922 0.846366 0.715324
O O14 0.690812 0.590787 0.139769
O O15 0.000000 0.500000 0.000000
#
# Coordination Sequence:
#
# PCOD8015193 Si02
#       7
#     2   2   2   2   2   2   2
#     4  11  22  45  67  93 136 173 212 273 329 385
#     4   9  19  36  69  96 121 172 215 264 328 381
#     4  11  20  41  68  93 132 175 217 269 327 387
#     4  11  22  38  70 102 131 168 217 270 333 385
#     4  11  22  41  68 105 131 165 219 274 322 392
#     4  11  26  46  62  93 133 176 226 267 321 393
#     4  10  21  42  66  95 131 170 218 271 328 385
#
# _framework density 22.361414
#
# number of rings (size 3 to 8) (size 9 to 14) (size 15 to 20)
#    0.000    1.429    2.857    3.429    0.000    0.571 
#   15.429    3.571    0.000    0.000    0.000    0.000 
#    0.000    0.000    0.000    0.000    0.000    0.000 
#
# Total GULP energy -173563.580067 kJ/mol
# GULP energy per Si atom -12397.398576 kJ/mol
# Density = 2.231052 g / cm^3
# Si number density = 22.361414 Si / 1000 Ang^3
#
#
#
# Elastic Constant Matrix: (Units=GPa)
#
#
# Indices 1 2 3 4 5 6 
#
# 1 65.3620 28.5095 18.8747 5.0637 -3.2242 -9.9728
# 2 28.5095 115.7920 50.6635 -9.9527 7.5622 -25.5783
# 3 18.8747 50.6635 131.6924 1.5672 21.5607 -4.8572
# 4 5.0637 -9.9527 1.5672 24.3401 -9.0390 3.4653
# 5 -3.2242 7.5622 21.5607 -9.0390 36.1676 -3.7633
# 6 -9.9728 -25.5783 -4.8572 3.4653 -3.7633 34.0126
#
#
#
# Elastic Compliance Matrix: (Units=1/GPa)
#
#
# Indices 1 2 3 4 5 6 
#
# 1 0.018313 -0.003796 -0.001380 -0.004834 0.002360 0.003071
# 2 -0.003796 0.013984 -0.004962 0.006455 0.002170 0.008277
# 3 -0.001380 -0.004962 0.010790 -0.004613 -0.006972 -0.002897
# 4 -0.004834 0.006455 -0.004613 0.050127 0.013409 -0.000845
# 5 0.002360 0.002170 -0.006972 0.013409 0.035316 0.003870
# 6 0.003071 0.008277 -0.002897 -0.000845 0.003870 0.036626
#
#
# Mechanical properties :
#
#
# Convention : Reuss Voigt Hill
#
# Bulk Modulus (GPa) = 43.84175 56.54909 50.19542
# Shear Modulus (GPa) = 25.90193 33.22399 29.56296
#
# Velocity S-wave (km/s) = 3.40712 3.85875 3.63995
# Velocity P-wave (km/s) = 5.92676 6.72286 6.33733
#
# Compressibility (1/GPa) = 0.02280931
#
# Stress axis : x y z
#
# Youngs Moduli (GPa) = 54.60493 71.51279 92.68014
#
# Poissons Ratio (x) = 0.27150 0.12788
# Poissons Ratio (y) = 0.20731 0.45991
# Poissons Ratio (z) = 0.07535 0.35487
#
# Static dielectric constant tensor:
#      x y z
#    x 4.068710 -0.185310 0.168200 
#    y -0.185310 4.199620 0.250980 
#    z 0.168200 0.250980 4.162690 
# 
# 
# High freq. dielectric constant tensor:
#      x y z
#    x 1.877230 -0.021370 -0.000180 
#    y -0.021370 1.881990 0.000430 
#    z -0.000180 0.000430 1.875660 
# 
# From -- ./inp_files/390718.got.cif
#   From: 2010.06.25/outbox.cif.g09.slc.cpg/sg2_196_cif.got.tgz:390718.got - 2010.06.27 13:26:56.
