data_PCOD8015842
_publ_section_title
;
Structure prediction by ZEFSAII (Michael W. Deem and Ramdas Pophale) SiO2 
 PCOD8015842
Probable space group: P -1
;
_chemical_formula_sum "Si O2"
_cell_formula_units_Z 16
_cell_length_a 12.555585
_cell_length_b 19.350831
_cell_length_c 22.339697
_cell_angle_alpha 18.094726
_cell_angle_beta 145.940082
_cell_angle_gamma 153.806517
_cell_volume 732.149773
_symmetry_space_group_name_H-M "P -1"
_symmetry_group_IT_number 2
_symmetry_cell_setting 'triclinic'
loop_
_space_group_symop_operation_xyz
x,y,z
-x,-y,-z
loop_
_atom_site_type_symbol
_atom_site_label
_atom_site_fract_x
_atom_site_fract_y
_atom_site_fract_z
Si Si1 0.242026 0.317610 0.904452
Si Si2 0.417465 0.154663 0.299398
Si Si3 0.523035 0.382014 0.352686
Si Si4 0.764219 0.962615 0.040398
Si Si5 0.476762 0.845201 0.783873
Si Si6 0.270836 0.842316 0.906190
Si Si7 0.961123 0.785923 0.708070
Si Si8 0.980291 0.801104 0.908943
O O1 0.367338 0.507697 0.866706
O O2 0.313685 0.509058 0.721102
O O3 0.353694 0.149652 0.091047
O O4 0.949445 0.110409 0.947810
O O5 0.386255 0.080077 0.277013
O O6 0.163157 0.071962 0.273699
O O7 0.500000 0.000000 0.500000
O O8 0.261076 0.298526 0.282534
O O9 0.647567 0.628715 0.258596
O O10 0.473474 0.102716 0.587449
O O11 0.905526 0.111002 0.044732
O O12 0.559072 0.002159 0.905857
O O13 0.203079 0.544018 0.900339
O O14 0.202229 0.928640 0.743194
O O15 0.204095 0.944664 0.848202
O O16 0.109326 0.499902 0.119452
O O17 0.000000 0.000000 0.500000
#
# Coordination Sequence:
#
# PCOD8015842 Si02
#       8
#     2   2   2   2   2   2   2   2
#     4  11  21  41  62  92 128 166 208 257 313 372
#     4  11  20  37  65  93 123 160 211 266 309 362
#     4  11  24  38  66  95 124 161 212 259 315 371
#     4  11  23  41  61  92 135 169 204 256 318 377
#     4  11  21  38  66  91 119 164 210 256 315 363
#     4  10  23  40  66  91 123 170 209 255 309 373
#     4  10  21  43  66  94 123 158 215 265 305 369
#     4  11  21  42  67  91 129 168 210 257 315 372
#
# _framework density 21.853452999999998
#
# number of rings (size 3 to 8) (size 9 to 14) (size 15 to 20)
#    0.000    1.250    3.750    3.750    0.000    2.500 
#    0.000    5.000    0.000    5.250    0.000    0.000 
#    0.000    0.000    0.000    0.000    0.000    0.000 
#
# Total GULP energy -198369.214987 kJ/mol
# GULP energy per Si atom -12398.075937 kJ/mol
# Density = 2.180371 g / cm^3
# Si number density = 21.853453 Si / 1000 Ang^3
#
#
#
# Elastic Constant Matrix: (Units=GPa)
#
#
# Indices 1 2 3 4 5 6 
#
# 1 101.2367 46.0218 32.3454 6.4883 8.6813 23.3963
# 2 46.0218 126.3961 49.4090 10.4856 1.2402 27.9803
# 3 32.3454 49.4090 106.2160 23.2558 5.0774 10.4452
# 4 6.4883 10.4856 23.2558 27.9499 -0.7178 3.0160
# 5 8.6813 1.2402 5.0774 -0.7178 28.1416 9.1385
# 6 23.3963 27.9803 10.4452 3.0160 9.1385 31.3639
#
#
#
# Elastic Compliance Matrix: (Units=1/GPa)
#
#
# Indices 1 2 3 4 5 6 
#
# 1 0.013376 -0.002555 -0.002258 0.000402 -0.001467 -0.006558
# 2 -0.002555 0.012485 -0.004496 0.000720 0.003978 -0.008963
# 3 -0.002258 -0.004496 0.014253 -0.010016 -0.002820 0.002733
# 4 0.000402 0.000720 -0.010016 0.044162 0.003733 -0.002941
# 5 -0.001467 0.003978 -0.002820 0.003733 0.040894 -0.013790
# 6 -0.006558 -0.008963 0.002733 -0.002941 -0.013790 0.048163
#
#
# Mechanical properties :
#
#
# Convention : Reuss Voigt Hill
#
# Bulk Modulus (GPa) = 46.51959 65.48903 56.00431
# Shear Modulus (GPa) = 25.11116 31.22924 28.17020
#
# Velocity S-wave (km/s) = 3.39347 3.78435 3.59423
# Velocity P-wave (km/s) = 6.05702 7.00910 6.55038
#
# Compressibility (1/GPa) = 0.02149632
#
# Stress axis : x y z
#
# Youngs Moduli (GPa) = 74.75862 80.09746 70.16252
#
# Poissons Ratio (x) = 0.20464 0.15842
# Poissons Ratio (y) = 0.19100 0.31544
# Poissons Ratio (z) = 0.16880 0.36011
#
# Static dielectric constant tensor:
#      x y z
#    x 4.071350 0.181610 0.279730 
#    y 0.181610 4.020840 0.121680 
#    z 0.279730 0.121680 4.000290 
# 
# 
# High freq. dielectric constant tensor:
#      x y z
#    x 1.869710 0.007250 0.012820 
#    y 0.007250 1.854060 0.009570 
#    z 0.012820 0.009570 1.842670 
# 
# From -- ./inp_files/454362.got.cif
#   From: 2010.06.25/outbox.cif.g09.slc.cpg/sg2_228_cif.got.tgz:454362.got - 2010.06.27 13:26:56.
