data_PCOD8015487
_publ_section_title
;
Structure prediction by ZEFSAII (Michael W. Deem and Ramdas Pophale) SiO2 
 PCOD8015487
Probable space group: P -1
;
_chemical_formula_sum "Si O2"
_cell_formula_units_Z 16
_cell_length_a 14.343890
_cell_length_b 8.705585
_cell_length_c 11.847361
_cell_angle_alpha 109.604822
_cell_angle_beta 103.205921
_cell_angle_gamma 32.599873
_cell_volume 746.553919
_symmetry_space_group_name_H-M "P -1"
_symmetry_group_IT_number 2
_symmetry_cell_setting 'triclinic'
loop_
_space_group_symop_operation_xyz
x,y,z
-x,-y,-z
loop_
_atom_site_type_symbol
_atom_site_label
_atom_site_fract_x
_atom_site_fract_y
_atom_site_fract_z
Si Si1 0.590106 0.041688 0.007797
Si Si2 0.252224 0.706396 0.034828
Si Si3 0.042361 0.020078 0.839736
Si Si4 0.991986 0.136246 0.430353
Si Si5 0.188143 0.172013 0.185307
Si Si6 0.317072 0.850616 0.530804
Si Si7 0.188808 0.288666 0.459745
Si Si8 0.157311 0.175434 0.797568
O O1 0.452631 0.379045 0.025890
O O2 0.693022 0.945944 0.123929
O O3 0.500000 0.000000 0.000000
O O4 0.715010 0.854445 0.887448
O O5 0.221481 0.934565 0.120310
O O6 0.202108 0.751505 0.901180
O O7 0.139839 0.741165 0.087360
O O8 0.048891 0.890398 0.704822
O O9 0.057346 0.186606 0.849596
O O10 0.828204 0.491064 0.492838
O O11 0.000000 0.000000 0.500000
O O12 0.182341 0.950302 0.433937
O O13 0.249115 0.141325 0.317675
O O14 0.980993 0.493811 0.199154
O O15 0.500000 0.500000 0.500000
O O16 0.330606 0.014784 0.521443
O O17 0.240054 0.964077 0.662685
O O18 0.000000 0.500000 0.500000
#
# Coordination Sequence:
#
# PCOD8015487 Si02
#       8
#     2   2   2   2   2   2   2   2
#     4  12  29  45  67 104 143 178 234 294 349 407
#     4  11  26  43  70 105 135 182 231 288 347 405
#     4  11  24  42  73  98 139 182 236 274 347 418
#     4  11  21  43  71  99 133 178 233 282 342 420
#     4  12  23  46  74  97 140 184 232 283 349 419
#     4  11  25  43  68 103 137 181 230 292 349 405
#     4  10  21  42  69  98 132 179 231 279 340 416
#     4  12  25  46  71  97 142 186 231 284 355 418
#
# _framework density 21.431806999999999
#
# number of rings (size 3 to 8) (size 9 to 14) (size 15 to 20)
#    0.000    0.750    5.000    3.000    7.000    0.000 
#    0.000    0.625    0.000    0.000    0.000    0.000 
#    0.000    0.000    0.000    0.000    0.000    0.000 
#
# Total GULP energy -198422.399591 kJ/mol
# GULP energy per Si atom -12401.399974 kJ/mol
# Density = 2.138303 g / cm^3
# Si number density = 21.431807 Si / 1000 Ang^3
#
#
#
# Elastic Constant Matrix: (Units=GPa)
#
#
# Indices 1 2 3 4 5 6 
#
# 1 91.7396 30.6100 30.6675 -0.8478 8.6119 13.8255
# 2 30.6100 154.9545 41.1666 13.7431 -1.4594 17.6554
# 3 30.6675 41.1666 126.5690 -7.5378 6.2011 4.7892
# 4 -0.8478 13.7431 -7.5378 32.6314 2.3537 -1.9055
# 5 8.6119 -1.4594 6.2011 2.3537 32.7180 -2.7991
# 6 13.8255 17.6554 4.7892 -1.9055 -2.7991 34.6880
#
#
#
# Elastic Compliance Matrix: (Units=1/GPa)
#
#
# Indices 1 2 3 4 5 6 
#
# 1 0.013195 -0.001562 -0.002323 0.000460 -0.003512 -0.004402
# 2 -0.001562 0.008202 -0.002484 -0.004356 0.001275 -0.003345
# 3 -0.002323 -0.002484 0.009507 0.003343 -0.001461 0.000944
# 4 0.000460 -0.004356 0.003343 0.033673 -0.003100 0.003172
# 5 -0.003512 0.001275 -0.001461 -0.003100 0.032336 0.003392
# 6 -0.004402 -0.003345 0.000944 0.003172 0.003392 0.032603
#
#
# Mechanical properties :
#
#
# Convention : Reuss Voigt Hill
#
# Bulk Modulus (GPa) = 55.05139 64.23901 59.64520
# Shear Modulus (GPa) = 33.71333 38.06208 35.88770
#
# Velocity S-wave (km/s) = 3.97047 4.21879 4.09651
# Velocity P-wave (km/s) = 6.83828 7.33278 7.08984
#
# Compressibility (1/GPa) = 0.01816484
#
# Stress axis : x y z
#
# Youngs Moduli (GPa) = 75.78349 121.92771 105.18856
#
# Poissons Ratio (x) = 0.19043 0.24438
# Poissons Ratio (y) = 0.11836 0.26133
# Poissons Ratio (z) = 0.17606 0.30292
#
# Static dielectric constant tensor:
#      x y z
#    x 4.177750 0.271130 -0.139640 
#    y 0.271130 4.131230 -0.139160 
#    z -0.139640 -0.139160 3.792330 
# 
# 
# High freq. dielectric constant tensor:
#      x y z
#    x 1.836630 0.021330 -0.004970 
#    y 0.021330 1.847570 -0.007940 
#    z -0.004970 -0.007940 1.851060 
# 
# From -- ./inp_files/272192.got.cif
#   From: 2010.06.25/outbox.cif.g09.slc.cpg/sg2_137_cif.got.tgz:272192.got - 2010.06.27 13:26:56.
