data_PCOD8015218
_publ_section_title
;
Structure prediction by ZEFSAII (Michael W. Deem and Ramdas Pophale) SiO2 
 PCOD8015218
Probable space group: P -1
;
_chemical_formula_sum "Si O2"
_cell_formula_units_Z 16
_cell_length_a 8.465934
_cell_length_b 21.382197
_cell_length_c 12.121703
_cell_angle_alpha 145.823401
_cell_angle_beta 116.735161
_cell_angle_gamma 39.691756
_cell_volume 672.173738
_symmetry_space_group_name_H-M "P -1"
_symmetry_group_IT_number 2
_symmetry_cell_setting 'triclinic'
loop_
_space_group_symop_operation_xyz
x,y,z
-x,-y,-z
loop_
_atom_site_type_symbol
_atom_site_label
_atom_site_fract_x
_atom_site_fract_y
_atom_site_fract_z
Si Si1 0.706342 0.708256 0.433687
Si Si2 0.381838 0.516510 0.602321
Si Si3 0.276673 0.987447 0.302168
Si Si4 0.196231 0.297100 0.297436
Si Si5 0.850990 0.369663 0.676903
Si Si6 0.309422 0.012160 0.587355
Si Si7 0.792347 0.419876 0.978873
Si Si8 0.659613 0.154645 0.100074
O O1 0.669996 0.765264 0.629806
O O2 0.979841 0.634139 0.358357
O O3 0.405137 0.883105 0.528740
O O4 0.768818 0.545528 0.221632
O O5 0.500000 0.500000 0.500000
O O6 0.520957 0.520530 0.750444
O O7 0.491970 0.335516 0.372380
O O8 0.031309 0.694348 0.765859
O O9 0.443904 0.020331 0.397272
O O10 0.279287 0.949044 0.375168
O O11 0.390914 0.833258 0.031221
O O12 0.964369 0.184369 0.446528
O O13 0.482075 0.138176 0.075767
O O14 0.000000 0.500000 0.500000
O O15 0.880631 0.407200 0.862903
O O16 0.015885 0.226790 0.829876
O O17 0.500000 0.500000 0.000000
O O18 0.000000 0.000000 0.000000
#
# Coordination Sequence:
#
# PCOD8015218 Si02
#       8
#     2   2   2   2   2   2   2   2
#     4  11  23  46  70  97 136 180 231 287 347 410
#     4  11  22  40  63  97 133 174 224 285 338 405
#     4   9  19  40  66  96 130 171 226 281 341 405
#     4  10  25  41  68  98 135 186 226 285 344 411
#     4  10  21  42  66  97 135 172 230 284 339 416
#     4   9  22  41  68  98 131 173 226 289 336 407
#     4  11  26  40  70 101 134 182 223 283 355 412
#     4  11  23  40  68  94 132 185 224 275 347 410
#
# _framework density 23.803370000000001
#
# number of rings (size 3 to 8) (size 9 to 14) (size 15 to 20)
#    0.000    1.750    2.500    1.125    7.000    1.500 
#    0.000    6.875    0.000    0.000    0.000    0.000 
#    0.000    0.000    0.000    0.000    0.000    0.000 
#
# Total GULP energy -198209.034537 kJ/mol
# GULP energy per Si atom -12388.064659 kJ/mol
# Density = 2.374919 g / cm^3
# Si number density = 23.803370 Si / 1000 Ang^3
#
#
#
# Elastic Constant Matrix: (Units=GPa)
#
#
# Indices 1 2 3 4 5 6 
#
# 1 88.7389 48.8840 17.2914 18.3294 -24.6773 -15.5739
# 2 48.8840 151.8884 47.4620 2.8502 -14.0464 -12.5914
# 3 17.2914 47.4620 61.8237 12.9669 -3.8270 -10.6579
# 4 18.3294 2.8502 12.9669 23.7108 -11.6051 -0.7035
# 5 -24.6773 -14.0464 -3.8270 -11.6051 31.1080 1.5398
# 6 -15.5739 -12.5914 -10.6579 -0.7035 1.5398 30.7605
#
#
#
# Elastic Compliance Matrix: (Units=1/GPa)
#
#
# Indices 1 2 3 4 5 6 
#
# 1 0.020289 -0.005834 0.003351 -0.012210 0.008906 0.008320
# 2 -0.005834 0.011280 -0.009089 0.009539 0.002976 -0.001416
# 3 0.003351 -0.009089 0.027051 -0.018756 -0.005471 0.007194
# 4 -0.012210 0.009539 -0.018756 0.069632 0.018693 -0.008118
# 5 0.008906 0.002976 -0.005471 0.018693 0.046760 0.001918
# 6 0.008320 -0.001416 0.007194 -0.008118 0.001918 0.038353
#
#
# Mechanical properties :
#
#
# Convention : Reuss Voigt Hill
#
# Bulk Modulus (GPa) = 28.18884 58.85841 43.52363
# Shear Modulus (GPa) = 20.13412 29.70341 24.91877
#
# Velocity S-wave (km/s) = 2.91151 3.53635 3.23903
# Velocity P-wave (km/s) = 4.81358 6.43855 5.68443
#
# Compressibility (1/GPa) = 0.03547503
#
# Stress axis : x y z
#
# Youngs Moduli (GPa) = 49.28832 88.64915 36.96779
#
# Poissons Ratio (x) = 0.51722 -0.12388
# Poissons Ratio (y) = 0.28757 0.33600
# Poissons Ratio (z) = -0.16516 0.80572
#
# Static dielectric constant tensor:
#      x y z
#    x 4.717210 -0.243070 -0.598430 
#    y -0.243070 5.170980 0.164730 
#    z -0.598430 0.164730 4.857170 
# 
# 
# High freq. dielectric constant tensor:
#      x y z
#    x 1.933750 -0.012380 -0.014700 
#    y -0.012380 1.959810 -0.007000 
#    z -0.014700 -0.007000 1.917080 
# 
# From -- ./inp_files/405605.got.cif
#   From: 2010.06.25/outbox.cif.g09.slc.cpg/sg2_203_cif.got.tgz:405605.got - 2010.06.27 13:26:56.
