data_PCOD8015343
_publ_section_title
;
Structure prediction by ZEFSAII (Michael W. Deem and Ramdas Pophale) SiO2 
 PCOD8015343
Probable space group: P -1
;
_chemical_formula_sum "Si O2"
_cell_formula_units_Z 16
_cell_length_a 22.494258
_cell_length_b 8.832635
_cell_length_c 15.321417
_cell_angle_alpha 51.960664
_cell_angle_beta 28.487257
_cell_angle_gamma 34.260755
_cell_volume 745.349578
_symmetry_space_group_name_H-M "P -1"
_symmetry_group_IT_number 2
_symmetry_cell_setting 'triclinic'
loop_
_space_group_symop_operation_xyz
x,y,z
-x,-y,-z
loop_
_atom_site_type_symbol
_atom_site_label
_atom_site_fract_x
_atom_site_fract_y
_atom_site_fract_z
Si Si1 0.201987 0.870246 0.793670
Si Si2 0.899175 0.152804 0.791099
Si Si3 0.728932 0.222378 0.643117
Si Si4 0.293538 0.816112 0.128062
Si Si5 0.467510 0.881605 0.752337
Si Si6 0.541298 0.766859 0.086240
Si Si7 0.158961 0.151835 0.919224
Si Si8 0.455946 0.813415 0.372866
O O1 0.271717 0.896241 0.605433
O O2 0.352180 0.533021 0.745373
O O3 0.201194 0.038042 0.806976
O O4 0.000000 0.000000 0.000000
O O5 0.815288 0.207524 0.784038
O O6 0.769447 0.458467 0.902777
O O7 0.108694 0.996516 0.561464
O O8 0.925483 0.929729 0.891220
O O9 0.813517 0.043418 0.690208
O O10 0.657973 0.526586 0.631707
O O11 0.542892 0.322210 0.819944
O O12 0.500000 0.500000 0.000000
O O13 0.320716 0.987029 0.981668
O O14 0.355189 0.999507 0.763476
O O15 0.533747 0.020941 0.632676
O O16 0.445166 0.905902 0.255409
O O17 0.500000 0.000000 0.000000
O O18 0.000000 0.500000 0.000000
#
# Coordination Sequence:
#
# PCOD8015343 Si02
#       8
#     2   2   2   2   2   2   2   2
#     4  11  25  46  67  95 137 177 222 281 330 401
#     4  11  23  41  66  99 131 171 227 276 330 400
#     4  11  22  40  69  96 133 178 217 281 330 400
#     4   9  17  38  65  93 130 168 210 277 330 381
#     4  10  21  42  68 100 132 172 226 281 334 394
#     4  12  25  45  68  97 141 179 219 275 340 408
#     4  11  23  44  68  98 134 173 224 287 331 389
#     4  11  25  43  67  98 133 180 222 270 343 402
#
# _framework density 21.466436000000002
#
# number of rings (size 3 to 8) (size 9 to 14) (size 15 to 20)
#    0.000    1.250    5.000    1.875    5.250    1.000 
#    0.000    0.000    0.000    0.000    0.000    0.000 
#    0.000    0.000    0.000    0.000    0.000    0.000 
#
# Total GULP energy -198376.290453 kJ/mol
# GULP energy per Si atom -12398.518153 kJ/mol
# Density = 2.141758 g / cm^3
# Si number density = 21.466436 Si / 1000 Ang^3
#
#
#
# Elastic Constant Matrix: (Units=GPa)
#
#
# Indices 1 2 3 4 5 6 
#
# 1 85.1438 27.9705 36.2231 -3.4758 15.8170 -0.6686
# 2 27.9705 126.4336 51.6735 1.6380 3.5693 6.0591
# 3 36.2231 51.6735 150.6611 -1.1532 8.4637 -3.5361
# 4 -3.4758 1.6380 -1.1532 26.5154 -1.6687 4.5063
# 5 15.8170 3.5693 8.4637 -1.6687 30.3498 -4.3605
# 6 -0.6686 6.0591 -3.5361 4.5063 -4.3605 34.8184
#
#
#
# Elastic Compliance Matrix: (Units=1/GPa)
#
#
# Indices 1 2 3 4 5 6 
#
# 1 0.014796 -0.002060 -0.002473 0.001646 -0.006785 -0.000671
# 2 -0.002060 0.009628 -0.002880 -0.000645 0.000441 -0.001869
# 3 -0.002473 -0.002880 0.008277 -0.000028 -0.000505 0.001235
# 4 0.001646 -0.000645 -0.000028 0.038826 0.000671 -0.004800
# 5 -0.006785 0.000441 -0.000505 0.000671 0.037231 0.004318
# 6 -0.000671 -0.001869 0.001235 -0.004800 0.004318 0.030320
#
#
# Mechanical properties :
#
#
# Convention : Reuss Voigt Hill
#
# Bulk Modulus (GPa) = 55.94701 65.99696 60.97199
# Shear Modulus (GPa) = 31.27674 34.76149 33.01911
#
# Velocity S-wave (km/s) = 3.82122 4.02847 3.92621
# Velocity P-wave (km/s) = 6.75189 7.24217 7.00133
#
# Compressibility (1/GPa) = 0.01787406
#
# Stress axis : x y z
#
# Youngs Moduli (GPa) = 67.58571 103.86651 120.81759
#
# Poissons Ratio (x) = 0.21399 0.29875
# Poissons Ratio (y) = 0.13925 0.34799
# Poissons Ratio (z) = 0.16712 0.29917
#
# Static dielectric constant tensor:
#      x y z
#    x 4.123550 -0.131610 0.354070 
#    y -0.131610 3.741870 -0.216100 
#    z 0.354070 -0.216100 4.105430 
# 
# 
# High freq. dielectric constant tensor:
#      x y z
#    x 1.840270 -0.005400 0.011470 
#    y -0.005400 1.833770 -0.007820 
#    z 0.011470 -0.007820 1.847520 
# 
# From -- ./inp_files/353857.got.cif
#   From: 2010.06.25/outbox.cif.g09.slc.cpg/sg2_177_cif.got.tgz:353857.got - 2010.06.27 13:26:56.
