data_PCOD8015055
_publ_section_title
;
Structure prediction by ZEFSAII (Michael W. Deem and Ramdas Pophale) SiO2 
 PCOD8015055
Probable space group: P -1
;
_chemical_formula_sum "Si O2"
_cell_formula_units_Z 14
_cell_length_a 17.962693
_cell_length_b 9.578681
_cell_length_c 8.369365
_cell_angle_alpha 100.784167
_cell_angle_beta 59.539095
_cell_angle_gamma 142.867041
_cell_volume 681.009745
_symmetry_space_group_name_H-M "P -1"
_symmetry_group_IT_number 2
_symmetry_cell_setting 'triclinic'
loop_
_space_group_symop_operation_xyz
x,y,z
-x,-y,-z
loop_
_atom_site_type_symbol
_atom_site_label
_atom_site_fract_x
_atom_site_fract_y
_atom_site_fract_z
Si Si1 0.236804 0.911403 0.002146
Si Si2 0.630630 0.628113 0.104929
Si Si3 0.005692 0.730943 0.629941
Si Si4 0.091198 0.552108 0.634322
Si Si5 0.680032 0.235316 0.316219
Si Si6 0.152588 0.296009 0.947997
Si Si7 0.693749 0.807122 0.741124
O O1 0.051709 0.673326 0.138648
O O2 0.308835 0.132631 0.857597
O O3 0.280507 0.002452 0.160849
O O4 0.298669 0.841518 0.873336
O O5 0.661355 0.647554 0.883767
O O6 0.713505 0.625503 0.121249
O O7 0.445108 0.370467 0.273875
O O8 0.084254 0.707439 0.630865
O O9 0.909015 0.547596 0.542815
O O10 0.150211 0.027756 0.483824
O O11 0.890381 0.659270 0.851309
O O12 0.246863 0.733068 0.598674
O O13 0.767216 0.503201 0.238226
O O14 0.500000 0.000000 0.500000
O O15 0.000000 0.000000 0.000000
#
# Coordination Sequence:
#
# PCOD8015055 Si02
#       7
#     2   2   2   2   2   2   2
#     4   9  18  41  67  86 124 172 208 254 316 383
#     4   9  20  40  64  91 132 163 211 255 328 372
#     4  10  22  39  70  92 119 168 221 260 305 384
#     4  10  21  42  65  92 121 169 215 255 317 378
#     4  12  27  42  62  97 134 167 212 268 326 369
#     4  12  27  43  62 100 132 168 213 267 318 380
#     4   8  19  39  67  93 121 170 209 260 322 374
#
# _framework density 20.557707000000001
#
# number of rings (size 3 to 8) (size 9 to 14) (size 15 to 20)
#    0.857    1.143    1.429    1.286    4.000    2.857 
#    0.000    2.857    0.000    0.000    0.000    0.000 
#    0.000    0.000    0.000    0.000    0.000    0.000 
#
# Total GULP energy -173500.801102 kJ/mol
# GULP energy per Si atom -12392.914364 kJ/mol
# Density = 2.051092 g / cm^3
# Si number density = 20.557707 Si / 1000 Ang^3
#
#
#
# Elastic Constant Matrix: (Units=GPa)
#
#
# Indices 1 2 3 4 5 6 
#
# 1 94.2085 29.5498 8.1683 -2.6590 -0.6282 10.2878
# 2 29.5498 77.4011 33.6947 -11.2692 -5.4341 1.8563
# 3 8.1683 33.6947 60.9110 -5.8145 -7.6358 1.0248
# 4 -2.6590 -11.2692 -5.8145 29.4382 -0.1048 -2.8295
# 5 -0.6282 -5.4341 -7.6358 -0.1048 22.4169 -4.0877
# 6 10.2878 1.8563 1.0248 -2.8295 -4.0877 32.2107
#
#
#
# Elastic Compliance Matrix: (Units=1/GPa)
#
#
# Indices 1 2 3 4 5 6 
#
# 1 0.012633 -0.005474 0.001128 -0.001123 -0.001327 -0.004022
# 2 -0.005474 0.020097 -0.009672 0.005448 0.001741 0.001597
# 3 0.001128 -0.009672 0.022365 0.000859 0.005353 0.000240
# 4 -0.001123 0.005448 0.000859 0.036471 0.002395 0.003525
# 5 -0.001327 0.001741 0.005353 0.002395 0.048006 0.006456
# 6 -0.004022 0.001597 0.000240 0.003525 0.006456 0.033360
#
#
# Mechanical properties :
#
#
# Convention : Reuss Voigt Hill
#
# Bulk Modulus (GPa) = 36.95541 41.70513 39.33027
# Shear Modulus (GPa) = 23.81100 27.55365 25.68233
#
# Velocity S-wave (km/s) = 3.40700 3.66499 3.53835
# Velocity P-wave (km/s) = 5.78726 6.18389 5.98886
#
# Compressibility (1/GPa) = 0.02705964
#
# Stress axis : x y z
#
# Youngs Moduli (GPa) = 79.15963 49.75829 44.71189
#
# Poissons Ratio (x) = 0.27239 -0.05044
# Poissons Ratio (y) = 0.43334 0.43244
# Poissons Ratio (z) = -0.08931 0.48125
#
# Static dielectric constant tensor:
#      x y z
#    x 3.416860 -0.021870 0.045120 
#    y -0.021870 3.843890 -0.175530 
#    z 0.045120 -0.175530 3.632560 
# 
# 
# High freq. dielectric constant tensor:
#      x y z
#    x 1.783460 0.005810 0.002550 
#    y 0.005810 1.809220 -0.016080 
#    z 0.002550 -0.016080 1.794780 
# 
# From -- ./inp_files/329145.got.cif
#   From: 2010.06.25/outbox.cif.g09.slc.cpg/sg2_165_cif.got.tgz:329145.got - 2010.06.27 13:26:56.
