data_PCOD8015484
_publ_section_title
;
Structure prediction by ZEFSAII (Michael W. Deem and Ramdas Pophale) SiO2 
 PCOD8015484
Probable space group: P -1
;
_chemical_formula_sum "Si O2"
_cell_formula_units_Z 14
_cell_length_a 15.409258
_cell_length_b 18.688501
_cell_length_c 9.331569
_cell_angle_alpha 137.065802
_cell_angle_beta 138.488918
_cell_angle_gamma 20.462630
_cell_volume 617.200983
_symmetry_space_group_name_H-M "P -1"
_symmetry_group_IT_number 2
_symmetry_cell_setting 'triclinic'
loop_
_space_group_symop_operation_xyz
x,y,z
-x,-y,-z
loop_
_atom_site_type_symbol
_atom_site_label
_atom_site_fract_x
_atom_site_fract_y
_atom_site_fract_z
Si Si1 0.012805 0.509042 0.197135
Si Si2 0.557993 0.088086 0.835012
Si Si3 0.124346 0.029230 0.702466
Si Si4 0.580023 0.456488 0.697072
Si Si5 0.479072 0.716651 0.458777
Si Si6 0.487504 0.702630 0.126110
Si Si7 0.042973 0.358610 0.272487
O O1 0.734346 0.742583 0.245520
O O2 0.228928 0.444222 0.412149
O O3 0.074517 0.358276 0.139339
O O4 0.000000 0.500000 0.000000
O O5 0.577057 0.137427 0.780446
O O6 0.711350 0.872737 0.701251
O O7 0.666980 0.094569 0.096820
O O8 0.887733 0.272541 0.796179
O O9 0.282579 0.935313 0.611673
O O10 0.000000 0.000000 0.500000
O O11 0.500000 0.500000 0.500000
O O12 0.531347 0.384425 0.617968
O O13 0.399278 0.669704 0.862083
O O14 0.377312 0.769681 0.248439
O O15 0.791229 0.466705 0.158740
O O16 0.000000 0.500000 0.500000
#
# Coordination Sequence:
#
# PCOD8015484 Si02
#       7
#     2   2   2   2   2   2   2
#     4  11  24  42  68 105 140 177 233 284 345 412
#     4  11  24  44  74  97 143 189 227 283 356 416
#     4  10  21  42  69  97 134 183 232 280 344 413
#     4  11  24  45  72  98 142 185 231 291 349 412
#     4  11  23  45  66 105 143 176 238 291 336 417
#     4  11  23  44  71 104 138 181 231 289 352 405
#     4  11  24  46  66  99 142 181 230 284 343 414
#
# _framework density 22.683049
#
# number of rings (size 3 to 8) (size 9 to 14) (size 15 to 20)
#    0.000    1.143    4.286    2.143    2.000    2.857 
#    5.143    3.571    0.000    0.000    0.000    0.000 
#    0.000    0.000    0.000    0.000    0.000    0.000 
#
# Total GULP energy -173491.174298 kJ/mol
# GULP energy per Si atom -12392.226736 kJ/mol
# Density = 2.263142 g / cm^3
# Si number density = 22.683049 Si / 1000 Ang^3
#
#
#
# Elastic Constant Matrix: (Units=GPa)
#
#
# Indices 1 2 3 4 5 6 
#
# 1 143.6540 53.6717 44.3897 6.5784 -31.1283 9.0678
# 2 53.6717 130.5362 25.8928 6.7336 -3.2819 10.0178
# 3 44.3897 25.8928 113.6259 11.9224 -25.8714 2.3339
# 4 6.5784 6.7336 11.9224 35.5322 0.2495 8.6696
# 5 -31.1283 -3.2819 -25.8714 0.2495 47.9507 -10.6112
# 6 9.0678 10.0178 2.3339 8.6696 -10.6112 35.7469
#
#
#
# Elastic Compliance Matrix: (Units=1/GPa)
#
#
# Indices 1 2 3 4 5 6 
#
# 1 0.010052 -0.003630 -0.001809 -0.000689 0.005382 0.000350
# 2 -0.003630 0.009551 -0.001390 -0.000027 -0.003018 -0.002554
# 3 -0.001809 -0.001390 0.011439 -0.003936 0.005519 0.002694
# 4 -0.000689 -0.000027 -0.003936 0.031737 -0.004650 -0.008638
# 5 0.005382 -0.003018 0.005519 -0.004650 0.029111 0.008889
# 6 0.000350 -0.002554 0.002694 -0.008638 0.008889 0.033159
#
#
# Mechanical properties :
#
#
# Convention : Reuss Voigt Hill
#
# Bulk Modulus (GPa) = 57.52962 70.63607 64.08284
# Shear Modulus (GPa) = 34.60166 41.43676 38.01921
#
# Velocity S-wave (km/s) = 3.90993 4.27871 4.09847
# Velocity P-wave (km/s) = 6.76763 7.45774 7.12105
#
# Compressibility (1/GPa) = 0.01738235
#
# Stress axis : x y z
#
# Youngs Moduli (GPa) = 99.48011 104.70550 87.42373
#
# Poissons Ratio (x) = 0.38011 0.15817
# Poissons Ratio (y) = 0.36114 0.12152
# Poissons Ratio (z) = 0.17998 0.14554
#
# Static dielectric constant tensor:
#      x y z
#    x 4.516320 -0.091830 0.013110 
#    y -0.091830 4.491450 0.048700 
#    z 0.013110 0.048700 4.718460 
# 
# 
# High freq. dielectric constant tensor:
#      x y z
#    x 1.890550 -0.006300 -0.009020 
#    y -0.006300 1.888060 -0.006120 
#    z -0.009020 -0.006120 1.913820 
# 
# From -- ./inp_files/318104.got.cif
#   From: 2010.06.25/outbox.cif.g09.slc.cpg/sg2_160_cif.got.tgz:318104.got - 2010.06.27 13:26:56.
