data_PCOD8015342
_publ_section_title
;
Structure prediction by ZEFSAII (Michael W. Deem and Ramdas Pophale) SiO2 
 PCOD8015342
Probable space group: P -1
;
_chemical_formula_sum "Si O2"
_cell_formula_units_Z 14
_cell_length_a 11.861266
_cell_length_b 11.105015
_cell_length_c 5.096905
_cell_angle_alpha 72.009941
_cell_angle_beta 67.196821
_cell_angle_gamma 70.788042
_cell_volume 571.603860
_symmetry_space_group_name_H-M "P -1"
_symmetry_group_IT_number 2
_symmetry_cell_setting 'triclinic'
loop_
_space_group_symop_operation_xyz
x,y,z
-x,-y,-z
loop_
_atom_site_type_symbol
_atom_site_label
_atom_site_fract_x
_atom_site_fract_y
_atom_site_fract_z
Si Si1 0.870391 0.822893 0.874801
Si Si2 0.536319 0.387283 0.746541
Si Si3 0.259275 0.249347 0.463138
Si Si4 0.514901 0.127909 0.046578
Si Si5 0.791177 0.115022 0.842959
Si Si6 0.706018 0.484701 0.856317
Si Si7 0.850874 0.255525 0.193524
O O1 0.828740 0.799324 0.634608
O O2 0.010116 0.734814 0.854476
O O3 0.876368 0.972207 0.799491
O O4 0.771142 0.786948 0.191107
O O5 0.500000 0.500000 0.500000
O O6 0.678657 0.379013 0.737672
O O7 0.519410 0.246358 0.756366
O O8 0.432472 0.423546 0.041841
O O9 0.404319 0.173655 0.328199
O O10 0.221329 0.408588 0.381538
O O11 0.652652 0.102665 0.075411
O O12 0.500000 0.000000 0.000000
O O13 0.782030 0.196284 0.525269
O O14 0.860326 0.172907 0.973120
O O15 0.771871 0.404193 0.103287
#
# Coordination Sequence:
#
# PCOD8015342 Si02
#       7
#     2   2   2   2   2   2   2
#     4  12  26  48  68 100 146 186 233 288 345 415
#     4  10  21  42  67  99 143 181 229 287 351 422
#     4  11  27  44  70 104 140 186 227 294 357 412
#     4  11  23  43  72 107 141 178 231 297 357 415
#     4  12  25  44  72 104 135 186 237 289 351 411
#     4  10  24  40  67 102 134 183 234 282 349 420
#     4  12  26  46  72 101 138 189 239 282 340 427
#
# _framework density 24.492486
#
# number of rings (size 3 to 8) (size 9 to 14) (size 15 to 20)
#    0.000    0.857    2.857    3.429    4.000    2.857 
#    0.000    0.000    0.000    0.000    0.000    0.000 
#    0.000    0.000    0.000    0.000    0.000    0.000 
#
# Total GULP energy -173493.733535 kJ/mol
# GULP energy per Si atom -12392.409538 kJ/mol
# Density = 2.443674 g / cm^3
# Si number density = 24.492486 Si / 1000 Ang^3
#
#
#
# Elastic Constant Matrix: (Units=GPa)
#
#
# Indices 1 2 3 4 5 6 
#
# 1 97.3693 9.5415 -2.0410 6.0996 -11.2853 -17.6097
# 2 9.5415 113.2218 22.4434 -26.5427 -6.2099 9.6254
# 3 -2.0410 22.4434 88.2926 -12.6415 -0.3037 0.0165
# 4 6.0996 -26.5427 -12.6415 31.8365 -0.3049 2.4434
# 5 -11.2853 -6.2099 -0.3037 -0.3049 35.3048 -1.3630
# 6 -17.6097 9.6254 0.0165 2.4434 -1.3630 40.1214
#
#
#
# Elastic Compliance Matrix: (Units=1/GPa)
#
#
# Indices 1 2 3 4 5 6 
#
# 1 0.012449 -0.002602 0.000257 -0.004917 0.003733 0.006514
# 2 -0.002602 0.012303 -0.001685 0.010458 0.001227 -0.004688
# 3 0.000257 -0.001685 0.012244 0.003384 -0.000068 0.000304
# 4 -0.004917 0.010458 0.003384 0.042977 0.000387 -0.007272
# 5 0.003733 0.001227 -0.000068 0.000387 0.029827 0.002334
# 6 0.006514 -0.004688 0.000304 -0.007272 0.002334 0.029430
#
#
# Mechanical properties :
#
#
# Convention : Reuss Voigt Hill
#
# Bulk Modulus (GPa) = 34.55777 39.86348 37.21063
# Shear Modulus (GPa) = 31.85998 39.38187 35.62093
#
# Velocity S-wave (km/s) = 3.61058 4.01423 3.81775
# Velocity P-wave (km/s) = 5.61444 6.14789 5.88721
#
# Compressibility (1/GPa) = 0.02893705
#
# Stress axis : x y z
#
# Youngs Moduli (GPa) = 80.32561 81.28038 81.66961
#
# Poissons Ratio (x) = 0.21147 -0.02097
# Poissons Ratio (y) = 0.20898 0.13762
# Poissons Ratio (z) = -0.02063 0.13696
#
# Static dielectric constant tensor:
#      x y z
#    x 3.505630 -0.086070 0.702140 
#    y -0.086070 4.965330 -0.286200 
#    z 0.702140 -0.286200 3.424820 
# 
# 
# High freq. dielectric constant tensor:
#      x y z
#    x 1.972710 -0.005150 -0.004480 
#    y -0.005150 1.991280 -0.016590 
#    z -0.004480 -0.016590 1.963410 
# 
# From -- ./inp_files/65413.got.cif
#   From: 2010.06.25/outbox.cif.g09.slc.cpg/sg2_33_cif.got.tgz:65413.got - 2010.06.27 13:26:56.
