data_PCOD8015383
_publ_section_title
;
Structure prediction by ZEFSAII (Michael W. Deem and Ramdas Pophale) SiO2 
 PCOD8015383
Probable space group: P -1
;
_chemical_formula_sum "Si O2"
_cell_formula_units_Z 14
_cell_length_a 6.736636
_cell_length_b 12.235685
_cell_length_c 17.148462
_cell_angle_alpha 44.562652
_cell_angle_beta 141.778830
_cell_angle_gamma 123.406677
_cell_volume 613.512476
_symmetry_space_group_name_H-M "P -1"
_symmetry_group_IT_number 2
_symmetry_cell_setting 'triclinic'
loop_
_space_group_symop_operation_xyz
x,y,z
-x,-y,-z
loop_
_atom_site_type_symbol
_atom_site_label
_atom_site_fract_x
_atom_site_fract_y
_atom_site_fract_z
Si Si1 0.718329 0.250013 0.499991
Si Si2 0.701638 0.921404 0.304335
Si Si3 0.587927 0.890346 0.011707
Si Si4 0.218755 0.696177 0.333944
Si Si5 0.141568 0.578573 0.695718
Si Si6 0.260412 0.609654 0.988294
Si Si7 0.990571 0.803856 0.666004
O O1 0.779348 0.336890 0.556333
O O2 0.708562 0.378437 0.363511
O O3 0.380265 0.163126 0.443694
O O4 0.997585 0.121587 0.636443
O O5 0.557063 0.764729 0.375396
O O6 0.819317 0.034523 0.352736
O O7 0.433104 0.010828 0.124739
O O8 0.334304 0.749963 0.000062
O O9 0.946204 0.824420 0.164537
O O10 0.500000 0.000000 0.000000
O O11 0.160509 0.534583 0.352635
O O12 0.412595 0.489209 0.875309
O O13 0.026020 0.735256 0.624603
O O14 0.000000 0.500000 0.000000
O O15 0.139192 0.675670 0.835423
#
# Coordination Sequence:
#
# PCOD8015383 Si02
#       7
#     2   2   2   2   2   2   2
#     4  12  24  42  68  92 134 170 218 258 318 380
#     4  11  25  43  67  97 129 169 215 265 320 380
#     4  10  21  42  68  95 125 165 215 265 319 374
#     4  11  25  43  67  97 129 169 215 265 320 380
#     4  11  25  43  67  97 129 169 215 265 320 380
#     4  10  21  42  68  95 125 165 215 265 319 374
#     4  11  25  43  67  97 129 169 215 265 320 380
#
# _framework density 22.819423
#
# number of rings (size 3 to 8) (size 9 to 14) (size 15 to 20)
#    0.000    1.143    2.857    2.571    0.000    9.143 
#    0.000    0.000    0.000    0.000    0.000    0.000 
#    0.000    0.000    0.000    0.000    0.000    0.000 
#
# Total GULP energy -173677.645202 kJ/mol
# GULP energy per Si atom -12405.546086 kJ/mol
# Density = 2.276748 g / cm^3
# Si number density = 22.819423 Si / 1000 Ang^3
#
#
#
# Elastic Constant Matrix: (Units=GPa)
#
#
# Indices 1 2 3 4 5 6 
#
# 1 109.1989 72.3823 16.9728 12.1313 -7.1416 1.6116
# 2 72.3823 171.4880 18.5455 6.3222 -7.1357 0.8262
# 3 16.9728 18.5455 75.4049 13.4867 2.6815 1.6944
# 4 12.1313 6.3222 13.4867 37.0160 0.1235 -0.7270
# 5 -7.1416 -7.1357 2.6815 0.1235 20.5503 0.2532
# 6 1.6116 0.8262 1.6944 -0.7270 0.2532 42.5520
#
#
#
# Elastic Compliance Matrix: (Units=1/GPa)
#
#
# Indices 1 2 3 4 5 6 
#
# 1 0.013394 -0.005276 -0.001270 -0.003044 0.003012 -0.000424
# 2 -0.005276 0.008187 -0.000992 0.000690 0.001133 0.000085
# 3 -0.001270 -0.000992 0.014757 -0.004794 -0.002675 -0.000586
# 4 -0.003044 0.000690 -0.004794 0.029659 -0.000381 0.000802
# 5 0.003012 0.001133 -0.002675 -0.000381 0.050457 -0.000336
# 6 -0.000424 0.000085 -0.000586 0.000802 -0.000336 0.023554
#
#
# Mechanical properties :
#
#
# Convention : Reuss Voigt Hill
#
# Bulk Modulus (GPa) = 47.03293 63.54367 55.28830
# Shear Modulus (GPa) = 30.83163 36.56974 33.70068
#
# Velocity S-wave (km/s) = 3.67974 4.00756 3.84714
# Velocity P-wave (km/s) = 6.22171 7.02287 6.63439
#
# Compressibility (1/GPa) = 0.02126170
#
# Stress axis : x y z
#
# Youngs Moduli (GPa) = 74.66107 122.14609 67.76341
#
# Poissons Ratio (x) = 0.64449 0.08608
# Poissons Ratio (y) = 0.39394 0.06719
# Poissons Ratio (z) = 0.09484 0.12111
#
# Static dielectric constant tensor:
#      x y z
#    x 3.711090 0.017120 0.108060 
#    y 0.017120 4.123380 0.134180 
#    z 0.108060 0.134180 4.521950 
# 
# 
# High freq. dielectric constant tensor:
#      x y z
#    x 1.880020 0.001020 0.007190 
#    y 0.001020 1.907330 0.007980 
#    z 0.007190 0.007980 1.933940 
# 
# From -- ./inp_files/64377.got.cif
#   From: 2010.06.25/outbox.cif.g09.slc.cpg/sg2_33_cif.got.tgz:64377.got - 2010.06.27 13:26:56.
