data_PCOD8015870
_publ_section_title
;
Structure prediction by ZEFSAII (Michael W. Deem and Ramdas Pophale) SiO2 
 PCOD8015870
Probable space group: P -1
;
_chemical_formula_sum "Si O2"
_cell_formula_units_Z 14
_cell_length_a 5.275102
_cell_length_b 18.039768
_cell_length_c 9.046962
_cell_angle_alpha 129.562029
_cell_angle_beta 71.017888
_cell_angle_gamma 110.889515
_cell_volume 614.303448
_symmetry_space_group_name_H-M "P -1"
_symmetry_group_IT_number 2
_symmetry_cell_setting 'triclinic'
loop_
_space_group_symop_operation_xyz
x,y,z
-x,-y,-z
loop_
_atom_site_type_symbol
_atom_site_label
_atom_site_fract_x
_atom_site_fract_y
_atom_site_fract_z
Si Si1 0.705317 0.300298 0.793051
Si Si2 0.718730 0.877375 0.809155
Si Si3 0.876057 0.686769 0.486295
Si Si4 0.854360 0.588567 0.678662
Si Si5 0.630609 0.496019 0.128967
Si Si6 0.135599 0.911912 0.042257
Si Si7 0.937871 0.752768 0.097849
O O1 0.377685 0.274089 0.826659
O O2 0.801381 0.282499 0.583270
O O3 0.851698 0.234613 0.789911
O O4 0.815708 0.413943 0.971942
O O5 0.719709 0.775297 0.596635
O O6 0.419317 0.874938 0.926916
O O7 0.946533 0.882037 0.898420
O O8 0.804150 0.969915 0.799392
O O9 0.820454 0.647839 0.612126
O O10 0.779768 0.605003 0.276732
O O11 0.567561 0.538328 0.738628
O O12 0.000000 0.500000 0.500000
O O13 0.011726 0.669709 0.867106
O O14 0.500000 0.500000 0.000000
O O15 0.981985 0.859164 0.146956
#
# Coordination Sequence:
#
# PCOD8015870 Si02
#       7
#     2   2   2   2   2   2   2
#     4  11  25  42  62  94 133 182 211 264 330 399
#     4  10  23  39  69 102 126 170 216 284 327 385
#     4  12  23  41  65  98 132 172 230 272 319 390
#     4  11  23  36  62 100 126 173 223 277 314 389
#     4  11  24  42  63  93 139 179 214 266 334 392
#     4  10  21  43  66  97 135 165 218 273 346 381
#     4  11  23  43  66  91 134 179 214 261 343 387
#
# _framework density 22.790040000000001
#
# number of rings (size 3 to 8) (size 9 to 14) (size 15 to 20)
#    0.000    1.143    1.429    5.143    4.000    2.286 
#    0.000    1.429    0.000    0.000    0.000    0.000 
#    0.000    0.000    0.000    0.000    0.000    0.000 
#
# Total GULP energy -173525.114355 kJ/mol
# GULP energy per Si atom -12394.651025 kJ/mol
# Density = 2.273817 g / cm^3
# Si number density = 22.790040 Si / 1000 Ang^3
#
#
#
# Elastic Constant Matrix: (Units=GPa)
#
#
# Indices 1 2 3 4 5 6 
#
# 1 56.7608 44.9792 44.0292 13.6000 -2.5710 -4.0638
# 2 44.9792 144.2956 60.0049 -3.4365 -28.6039 -9.9781
# 3 44.0292 60.0049 87.3994 -19.8543 -37.0823 -2.3963
# 4 13.6000 -3.4365 -19.8543 29.3494 -13.6988 -2.4203
# 5 -2.5710 -28.6039 -37.0823 -13.6988 30.0805 2.4719
# 6 -4.0638 -9.9781 -2.3963 -2.4203 2.4719 24.0774
#
#
#
# Elastic Compliance Matrix: (Units=1/GPa)
#
#
# Indices 1 2 3 4 5 6 
#
# 1 0.004026 -0.001700 0.014668 0.019987 0.025847 0.000790
# 2 -0.001700 0.010472 -0.007318 -0.003086 -0.000868 0.003104
# 3 0.014668 -0.007318 -0.005914 -0.022561 -0.023185 -0.001033
# 4 0.019987 -0.003086 -0.022561 -0.005402 -0.031709 0.002562
# 5 0.025847 -0.000868 -0.023185 -0.031709 -0.008342 -0.000636
# 6 0.000790 0.003104 -0.001033 0.002562 -0.000636 0.043172
#
#
# Mechanical properties :
#
#
# Convention : Reuss Voigt Hill
#
# Bulk Modulus (GPa) = 50.29185 65.16469 57.72827
# Shear Modulus (GPa) = 149.97392 25.99762 87.98577
#
# Velocity S-wave (km/s) = 8.12094 3.38116 6.22020
# Velocity P-wave (km/s) = 10.49039 6.62560 8.77345
#
# Compressibility (1/GPa) = 0.01988394
#
# Stress axis : x y z
#
# Youngs Moduli (GPa) = 248.41295 95.49137 -169.08793
#
# Poissons Ratio (x) = 0.16234 2.48015
# Poissons Ratio (y) = 0.42232 -1.23731
# Poissons Ratio (z) = -3.64368 0.69877
#
# Static dielectric constant tensor:
#      x y z
#    x 3.976830 0.069060 -0.209930 
#    y 0.069060 5.037380 0.045370 
#    z -0.209930 0.045370 4.218450 
# 
# 
# High freq. dielectric constant tensor:
#      x y z
#    x 1.896480 -0.000030 -0.016300 
#    y -0.000030 1.921200 -0.003950 
#    z -0.016300 -0.003950 1.885820 
# 
# From -- ./inp_files/43833.got.cif
#   From: 2010.06.25/outbox.cif.g09.slc.cpg/sg2_22_cif.got.tgz:43833.got - 2010.06.27 13:26:56.
