data_PCOD8015211
_publ_section_title
;
Structure prediction by ZEFSAII (Michael W. Deem and Ramdas Pophale) SiO2 
 PCOD8015211
Probable space group: P -1
;
_chemical_formula_sum "Si O2"
_cell_formula_units_Z 12
_cell_length_a 4.820256
_cell_length_b 10.941247
_cell_length_c 15.621747
_cell_angle_alpha 39.499982
_cell_angle_beta 114.657395
_cell_angle_gamma 106.093899
_cell_volume 474.844810
_symmetry_space_group_name_H-M "P -1"
_symmetry_group_IT_number 2
_symmetry_cell_setting 'triclinic'
loop_
_space_group_symop_operation_xyz
x,y,z
-x,-y,-z
loop_
_atom_site_type_symbol
_atom_site_label
_atom_site_fract_x
_atom_site_fract_y
_atom_site_fract_z
Si Si1 0.540364 0.522498 0.196438
Si Si2 0.380657 0.119945 0.662614
Si Si3 0.195049 0.204389 0.156977
Si Si4 0.807435 0.365497 0.490126
Si Si5 0.772403 0.917501 0.949269
Si Si6 0.126499 0.586939 0.859320
O O1 0.182993 0.496039 0.171906
O O2 0.698426 0.477734 0.331110
O O3 0.676528 0.371766 0.221956
O O4 0.610740 0.737391 0.063495
O O5 0.015316 0.167533 0.598653
O O6 0.517147 0.308048 0.537776
O O7 0.491087 0.935325 0.715067
O O8 0.509963 0.081741 0.796972
O O9 0.035857 0.139890 0.082640
O O10 0.956507 0.217782 0.199188
O O11 0.293396 0.423345 0.033393
O O12 0.000000 0.500000 0.500000
O O13 0.000000 0.000000 0.000000
#
# Coordination Sequence:
#
# PCOD8015211 Si02
#       6
#     2   2   2   2   2   2
#     4  11  24  40  68  95 126 171 218 258 322 378
#     4  10  24  41  65  93 129 165 218 254 326 372
#     4   8  21  39  67  96 131 163 212 267 326 362
#     4  12  25  44  62  91 135 175 204 261 327 386
#     4   9  20  40  65  96 124 161 218 267 307 374
#     4  10  21  42  66  97 129 166 213 268 317 377
#
# _framework density 25.271412999999999
#
# number of rings (size 3 to 8) (size 9 to 14) (size 15 to 20)
#    1.000    1.000    0.000    2.500    2.333   10.000 
#    0.000   10.000    0.000    0.000    0.000    0.000 
#    0.000    0.000    0.000    0.000    0.000    0.000 
#
# Total GULP energy -148668.594128 kJ/mol
# GULP energy per Si atom -12389.049511 kJ/mol
# Density = 2.521389 g / cm^3
# Si number density = 25.271413 Si / 1000 Ang^3
#
#
#
# Elastic Constant Matrix: (Units=GPa)
#
#
# Indices 1 2 3 4 5 6 
#
# 1 86.0695 6.0082 25.8343 2.9031 -11.9528 0.6946
# 2 6.0082 97.6040 21.9757 14.3825 2.6094 -6.9917
# 3 25.8343 21.9757 130.6329 28.9940 -6.0554 -4.9242
# 4 2.9031 14.3825 28.9940 37.9837 -12.1320 10.8011
# 5 -11.9528 2.6094 -6.0554 -12.1320 17.7292 0.4032
# 6 0.6946 -6.9917 -4.9242 10.8011 0.4032 26.9178
#
#
#
# Elastic Compliance Matrix: (Units=1/GPa)
#
#
# Indices 1 2 3 4 5 6 
#
# 1 0.014921 -0.002209 -0.004186 0.009516 0.015598 -0.005777
# 2 -0.002209 0.012691 0.000463 -0.010628 -0.010650 0.007862
# 3 -0.004186 0.000463 0.011269 -0.013328 -0.008338 0.007763
# 4 0.009516 -0.010628 -0.013328 0.064252 0.048121 -0.031947
# 5 0.015598 -0.010650 -0.008338 0.048121 0.099149 -0.025489
# 6 -0.005777 0.007862 0.007763 -0.031947 -0.025489 0.053962
#
#
# Mechanical properties :
#
#
# Convention : Reuss Voigt Hill
#
# Bulk Modulus (GPa) = 37.01209 46.88253 41.94731
# Shear Modulus (GPa) = 18.04311 33.89202 25.96756
#
# Velocity S-wave (km/s) = 2.67493 3.66610 3.20901
# Velocity P-wave (km/s) = 4.92117 6.04254 5.51046
#
# Compressibility (1/GPa) = 0.02701820
#
# Stress axis : x y z
#
# Youngs Moduli (GPa) = 67.01980 78.79518 88.73706
#
# Poissons Ratio (x) = 0.17406 0.37145
# Poissons Ratio (y) = 0.14805 -0.04112
# Poissons Ratio (z) = 0.28054 -0.03652
#
# Static dielectric constant tensor:
#      x y z
#    x 4.663470 -0.315790 0.074720 
#    y -0.315790 4.688280 -0.099310 
#    z 0.074720 -0.099310 4.569760 
# 
# 
# High freq. dielectric constant tensor:
#      x y z
#    x 2.026000 -0.002460 -0.001520 
#    y -0.002460 2.006350 -0.007900 
#    z -0.001520 -0.007900 1.991880 
# 
# From -- ./inp_files/481437.got.cif
#   From: 2010.06.25/outbox.cif.g09.slc.cpg/sg2_241_cif.got.tgz:481437.got - 2010.06.27 13:26:56.
