data_PCOD8015333
_publ_section_title
;
Structure prediction by ZEFSAII (Michael W. Deem and Ramdas Pophale) SiO2 
 PCOD8015333
Probable space group: P -1
;
_chemical_formula_sum "Si O2"
_cell_formula_units_Z 14
_cell_length_a 12.401119
_cell_length_b 9.011939
_cell_length_c 7.918000
_cell_angle_alpha 76.593190
_cell_angle_beta 72.686456
_cell_angle_gamma 126.702102
_cell_volume 572.116063
_symmetry_space_group_name_H-M "P -1"
_symmetry_group_IT_number 2
_symmetry_cell_setting 'triclinic'
loop_
_space_group_symop_operation_xyz
x,y,z
-x,-y,-z
loop_
_atom_site_type_symbol
_atom_site_label
_atom_site_fract_x
_atom_site_fract_y
_atom_site_fract_z
Si Si1 0.029759 0.725819 0.136011
Si Si2 0.643772 0.793053 0.206310
Si Si3 0.639747 0.036566 0.509121
Si Si4 0.006477 0.653496 0.800575
Si Si5 0.861447 0.670445 0.568992
Si Si6 0.379264 0.319163 0.380388
Si Si7 0.593009 0.191092 0.775332
O O1 0.068373 0.580475 0.168777
O O2 0.916805 0.677689 0.352272
O O3 0.937663 0.649234 0.014725
O O4 0.186569 0.988133 0.010429
O O5 0.539248 0.576054 0.192791
O O6 0.664079 0.723913 0.389446
O O7 0.533958 0.837349 0.275114
O O8 0.801626 0.176757 0.283732
O O9 0.698161 0.182841 0.609327
O O10 0.500000 0.000000 0.500000
O O11 0.582041 0.814622 0.661722
O O12 0.992900 0.767935 0.629572
O O13 0.787662 0.769543 0.593832
O O14 0.712951 0.417739 0.758213
O O15 0.500000 0.000000 0.000000
#
# Coordination Sequence:
#
# PCOD8015333 Si02
#       7
#     2   2   2   2   2   2   2
#     4  11  22  43  73 103 142 187 230 286 347 413
#     4  10  21  42  67  98 138 182 234 274 346 419
#     4  12  23  45  71  98 134 180 236 289 338 412
#     4  11  24  41  72 110 139 177 240 290 344 413
#     4  11  25  44  70 105 146 183 227 290 356 412
#     4  10  23  44  68 100 141 185 230 286 349 417
#     4  11  23  42  71 102 134 185 231 289 346 409
#
# _framework density 24.470559000000002
#
# number of rings (size 3 to 8) (size 9 to 14) (size 15 to 20)
#    0.000    1.143    4.286    1.286    2.000    2.286 
#    0.000    4.286    0.000    0.000    0.000    0.000 
#    0.000    0.000    0.000    0.000    0.000    0.000 
#
# Total GULP energy -173436.254198 kJ/mol
# GULP energy per Si atom -12388.303871 kJ/mol
# Density = 2.441486 g / cm^3
# Si number density = 24.470559 Si / 1000 Ang^3
#
#
#
# Elastic Constant Matrix: (Units=GPa)
#
#
# Indices 1 2 3 4 5 6 
#
# 1 165.7172 46.1775 37.5470 0.1826 17.8613 -8.5469
# 2 46.1775 82.8364 25.2823 -17.5410 6.9794 -21.9834
# 3 37.5470 25.2823 87.8878 -13.9095 9.1157 1.0887
# 4 0.1826 -17.5410 -13.9095 53.8217 5.5466 4.6657
# 5 17.8613 6.9794 9.1157 5.5466 22.4917 -4.3678
# 6 -8.5469 -21.9834 1.0887 4.6657 -4.3678 32.8835
#
#
#
# Elastic Compliance Matrix: (Units=1/GPa)
#
#
# Indices 1 2 3 4 5 6 
#
# 1 0.008020 -0.004025 -0.002045 -0.001365 -0.004128 -0.000893
# 2 -0.004025 0.019273 -0.003203 0.004536 -0.000422 0.011245
# 3 -0.002045 -0.003203 0.014291 0.003532 -0.004879 -0.004295
# 4 -0.001365 0.004536 0.003532 0.021876 -0.007448 -0.001532
# 5 -0.004128 -0.000422 -0.004879 -0.007448 0.053025 0.006907
# 6 -0.000893 0.011245 -0.004295 -0.001532 0.006907 0.038973
#
#
# Mechanical properties :
#
#
# Convention : Reuss Voigt Hill
#
# Bulk Modulus (GPa) = 43.40353 61.60613 52.50483
# Shear Modulus (GPa) = 27.52057 37.00168 32.26112
#
# Velocity S-wave (km/s) = 3.35720 3.89278 3.63487
# Velocity P-wave (km/s) = 5.72742 6.74057 6.25454
#
# Compressibility (1/GPa) = 0.02303960
#
# Stress axis : x y z
#
# Youngs Moduli (GPa) = 124.69565 51.88552 69.97238
#
# Poissons Ratio (x) = 0.20881 0.14310
# Poissons Ratio (y) = 0.50184 0.22409
# Poissons Ratio (z) = 0.25502 0.16617
#
# Static dielectric constant tensor:
#      x y z
#    x 5.089590 -0.941340 -0.604170 
#    y -0.941340 5.711890 0.883180 
#    z -0.604170 0.883180 5.358730 
# 
# 
# High freq. dielectric constant tensor:
#      x y z
#    x 1.966770 -0.004620 0.011270 
#    y -0.004620 1.978230 -0.019650 
#    z 0.011270 -0.019650 1.960390 
# 
# From -- ./inp_files/242973.got.cif
#   From: 2010.06.25/outbox.cif.g09.slc.cpg/sg2_122_cif.got.tgz:242973.got - 2010.06.27 13:26:56.
