data_PCOD8015436
_publ_section_title
;
Structure prediction by ZEFSAII (Michael W. Deem and Ramdas Pophale) SiO2 
 PCOD8015436
Probable space group: P -1
;
_chemical_formula_sum "Si O2"
_cell_formula_units_Z 12
_cell_length_a 17.912452
_cell_length_b 14.935590
_cell_length_c 9.713164
_cell_angle_alpha 48.547310
_cell_angle_beta 36.006899
_cell_angle_gamma 21.773642
_cell_volume 517.061268
_symmetry_space_group_name_H-M "P -1"
_symmetry_group_IT_number 2
_symmetry_cell_setting 'triclinic'
loop_
_space_group_symop_operation_xyz
x,y,z
-x,-y,-z
loop_
_atom_site_type_symbol
_atom_site_label
_atom_site_fract_x
_atom_site_fract_y
_atom_site_fract_z
Si Si1 0.427962 0.132609 0.333559
Si Si2 0.223762 0.050376 0.222234
Si Si3 0.890940 0.739456 0.557412
Si Si4 0.584283 0.525409 0.238222
Si Si5 0.875471 0.976766 0.176467
Si Si6 0.393409 0.533578 0.264766
O O1 0.309371 0.148186 0.373396
O O2 0.200008 0.423756 0.415140
O O3 0.500000 0.000000 0.500000
O O4 0.703870 0.962687 0.026912
O O5 0.223285 0.164625 0.212260
O O6 0.933086 0.222644 0.483337
O O7 0.468048 0.754576 0.208661
O O8 0.902593 0.871494 0.376994
O O9 0.500000 0.500000 0.500000
O O10 0.463799 0.578560 0.220761
O O11 0.926631 0.249116 0.006665
O O12 0.553903 0.270851 0.312868
O O13 0.000000 0.000000 0.000000
O O14 0.500000 0.500000 0.000000
#
# Coordination Sequence:
#
# PCOD8015436 Si02
#       6
#     2   2   2   2   2   2
#     4  11  28  50  75 102 144 196 253 307 353 429
#     4  12  24  45  74 106 144 189 248 299 363 437
#     4  11  25  50  72 105 146 189 247 306 364 429
#     4  11  22  41  65 105 144 190 235 288 369 441
#     4  10  21  42  69 101 146 186 227 295 368 427
#     4  11  24  40  69 108 149 189 234 294 363 442
#
# _framework density 23.208081
#
# number of rings (size 3 to 8) (size 9 to 14) (size 15 to 20)
#    0.000    1.000    1.667    6.000    2.333    2.000 
#    6.000    0.000    0.000    0.000    0.000    0.000 
#    0.000    0.000    0.000    0.000    0.000    0.000 
#
# Total GULP energy -148716.942569 kJ/mol
# GULP energy per Si atom -12393.078547 kJ/mol
# Density = 2.315526 g / cm^3
# Si number density = 23.208081 Si / 1000 Ang^3
#
#
#
# Elastic Constant Matrix: (Units=GPa)
#
#
# Indices 1 2 3 4 5 6 
#
# 1 98.0997 26.7994 27.9642 4.9837 23.7520 9.5363
# 2 26.7994 153.9941 55.6413 4.6757 14.2350 13.8200
# 3 27.9642 55.6413 150.7535 -2.9359 25.8071 -0.6914
# 4 4.9837 4.6757 -2.9359 51.6236 -2.0888 7.3226
# 5 23.7520 14.2350 25.8071 -2.0888 40.0560 1.0397
# 6 9.5363 13.8200 -0.6914 7.3226 1.0397 30.7590
#
#
#
# Elastic Compliance Matrix: (Units=1/GPa)
#
#
# Indices 1 2 3 4 5 6 
#
# 1 0.012648 -0.000966 -0.000902 -0.001018 -0.006550 -0.003044
# 2 -0.000966 0.007986 -0.002713 -0.000341 -0.000451 -0.003253
# 3 -0.000902 -0.002713 0.008503 0.000409 -0.004003 0.001728
# 4 -0.001018 -0.000341 0.000409 0.020212 0.001629 -0.004389
# 5 -0.006550 -0.000451 -0.004003 0.001629 0.031655 0.000686
# 6 -0.003044 -0.003253 0.001728 -0.004389 0.000686 0.035977
#
#
# Mechanical properties :
#
#
# Convention : Reuss Voigt Hill
#
# Bulk Modulus (GPa) = 50.06066 69.29523 59.67795
# Shear Modulus (GPa) = 37.65035 43.98387 40.81711
#
# Velocity S-wave (km/s) = 4.03214 4.35811 4.19829
# Velocity P-wave (km/s) = 6.57987 7.43285 7.01933
#
# Compressibility (1/GPa) = 0.01997576
#
# Stress axis : x y z
#
# Youngs Moduli (GPa) = 79.06302 125.21930 117.60432
#
# Poissons Ratio (x) = 0.12091 0.10613
# Poissons Ratio (y) = 0.07634 0.31903
# Poissons Ratio (z) = 0.07135 0.33969
#
# Static dielectric constant tensor:
#      x y z
#    x 4.121780 -0.103440 0.072630 
#    y -0.103440 4.870960 0.276080 
#    z 0.072630 0.276080 4.552020 
# 
# 
# High freq. dielectric constant tensor:
#      x y z
#    x 1.904150 0.012090 0.014200 
#    y 0.012090 1.929300 0.008090 
#    z 0.014200 0.008090 1.933110 
# 
# From -- ./inp_files/335662.got.cif
#   From: 2010.06.25/outbox.cif.g09.slc.cpg/sg2_168_cif.got.tgz:335662.got - 2010.06.27 13:26:56.
