data_PCOD8015145
_publ_section_title
;
Structure prediction by ZEFSAII (Michael W. Deem and Ramdas Pophale) SiO2 
 PCOD8015145
Probable space group: P -1
;
_chemical_formula_sum "Si O2"
_cell_formula_units_Z 16
_cell_length_a 5.110122
_cell_length_b 9.050042
_cell_length_c 18.614577
_cell_angle_alpha 92.458061
_cell_angle_beta 107.548457
_cell_angle_gamma 55.112191
_cell_volume 663.978837
_symmetry_space_group_name_H-M "P -1"
_symmetry_group_IT_number 2
_symmetry_cell_setting 'triclinic'
loop_
_space_group_symop_operation_xyz
x,y,z
-x,-y,-z
loop_
_atom_site_type_symbol
_atom_site_label
_atom_site_fract_x
_atom_site_fract_y
_atom_site_fract_z
Si Si1 0.257786 0.220816 0.405400
Si Si2 0.118932 0.873627 0.725726
Si Si3 0.393728 0.874475 0.014869
Si Si4 0.280887 0.454042 0.311007
Si Si5 0.867496 0.827567 0.455062
Si Si6 0.341421 0.750748 0.367717
Si Si7 0.882302 0.563684 0.146227
Si Si8 0.421807 0.656724 0.881560
O O1 0.217498 0.406196 0.384452
O O2 0.029447 0.259909 0.458088
O O3 0.139728 0.166456 0.325534
O O4 0.646019 0.048221 0.450032
O O5 0.472639 0.739935 0.711496
O O6 0.177742 0.833987 0.814656
O O7 0.967488 0.083245 0.701086
O O8 0.496280 0.720257 0.961621
O O9 0.594045 0.769924 0.101994
O O10 0.500000 0.000000 0.000000
O O11 0.000000 0.000000 0.000000
O O12 0.448026 0.563833 0.334410
O O13 0.938940 0.569564 0.236819
O O14 0.656527 0.762461 0.397552
O O15 0.204106 0.758212 0.436746
O O16 0.770512 0.432757 0.116716
O O17 0.227743 0.493168 0.131585
#
# Coordination Sequence:
#
# PCOD8015145 Si02
#       8
#     2   2   2   2   2   2   2   2
#     4  10  21  42  66  90 133 174 226 272 338 392
#     4  10  23  43  65  96 132 177 221 272 340 391
#     4  12  26  45  70 107 140 173 217 279 331 395
#     4  11  24  41  68  96 134 174 224 279 328 399
#     4  10  24  41  65  93 131 176 221 280 333 399
#     4  11  25  41  63  97 130 173 224 278 335 393
#     4  11  24  45  69 100 132 182 225 267 333 404
#     4  11  23  44  72  95 134 182 220 271 330 408
#
# _framework density 24.097152999999999
#
# number of rings (size 3 to 8) (size 9 to 14) (size 15 to 20)
#    0.000    1.250    2.500    2.250    5.250    2.500 
#    4.500    0.000    0.000    0.000    0.000    0.000 
#    0.000    0.000    0.000    0.000    0.000    0.000 
#
# Total GULP energy -198456.105540 kJ/mol
# GULP energy per Si atom -12403.506596 kJ/mol
# Density = 2.404231 g / cm^3
# Si number density = 24.097153 Si / 1000 Ang^3
#
#
#
# Elastic Constant Matrix: (Units=GPa)
#
#
# Indices 1 2 3 4 5 6 
#
# 1 70.1240 16.3475 3.6876 -7.9747 -4.5294 11.7917
# 2 16.3475 83.2361 38.5325 -22.9315 -0.7257 25.0236
# 3 3.6876 38.5325 98.2199 -30.6716 -3.8579 9.2443
# 4 -7.9747 -22.9315 -30.6716 36.7274 6.9916 -0.7024
# 5 -4.5294 -0.7257 -3.8579 6.9916 32.2274 0.6422
# 6 11.7917 25.0236 9.2443 -0.7024 0.6422 45.3622
#
#
#
# Elastic Compliance Matrix: (Units=1/GPa)
#
#
# Indices 1 2 3 4 5 6 
#
# 1 0.015642 -0.001920 0.001498 0.003055 0.001737 -0.003290
# 2 -0.001920 0.019361 -0.004097 0.008450 -0.001974 -0.009187
# 3 0.001498 -0.004097 0.015060 0.010383 -0.000311 -0.001033
# 4 0.003055 0.008450 0.010383 0.043107 -0.007354 -0.006799
# 5 0.001737 -0.001974 -0.000311 -0.007354 0.032785 0.000123
# 6 -0.003290 -0.009187 -0.001033 -0.006799 0.000123 0.028071
#
#
# Mechanical properties :
#
#
# Convention : Reuss Voigt Hill
#
# Bulk Modulus (GPa) = 24.37637 40.96832 32.67235
# Shear Modulus (GPa) = 28.29023 35.73091 32.01057
#
# Velocity S-wave (km/s) = 3.43010 3.85487 3.64867
# Velocity P-wave (km/s) = 5.08185 6.07055 5.59807
#
# Compressibility (1/GPa) = 0.04102333
#
# Stress axis : x y z
#
# Youngs Moduli (GPa) = 63.93046 51.65151 66.40191
#
# Poissons Ratio (x) = 0.09915 -0.09945
# Poissons Ratio (y) = 0.12272 0.27208
# Poissons Ratio (z) = -0.09574 0.21164
#
# Static dielectric constant tensor:
#      x y z
#    x 4.129150 0.140030 0.001590 
#    y 0.140030 4.260140 -0.356220 
#    z 0.001590 -0.356220 4.657150 
# 
# 
# High freq. dielectric constant tensor:
#      x y z
#    x 1.958370 0.010750 0.001710 
#    y 0.010750 1.946390 -0.020890 
#    z 0.001710 -0.020890 1.960850 
# 
# From -- ./inp_files/137751.got.cif
#   From: 2010.06.25/outbox.cif.g09.slc.cpg/sg2_69_cif.got.tgz:137751.got - 2010.06.27 13:26:56.
