data_PCOD8015838
_publ_section_title
;
Structure prediction by ZEFSAII (Michael W. Deem and Ramdas Pophale) SiO2 
 PCOD8015838
Probable space group: P -1
;
_chemical_formula_sum "Si O2"
_cell_formula_units_Z 16
_cell_length_a 8.203120
_cell_length_b 11.332561
_cell_length_c 8.177199
_cell_angle_alpha 92.565971
_cell_angle_beta 85.550773
_cell_angle_gamma 117.514517
_cell_volume 672.125586
_symmetry_space_group_name_H-M "P -1"
_symmetry_group_IT_number 2
_symmetry_cell_setting 'triclinic'
loop_
_space_group_symop_operation_xyz
x,y,z
-x,-y,-z
loop_
_atom_site_type_symbol
_atom_site_label
_atom_site_fract_x
_atom_site_fract_y
_atom_site_fract_z
Si Si1 0.322599 0.113321 0.684915
Si Si2 0.136126 0.844853 0.786734
Si Si3 0.683506 0.357162 0.769830
Si Si4 0.814402 0.861593 0.655033
Si Si5 0.181114 0.602220 0.897016
Si Si6 0.658346 0.580200 0.617948
Si Si7 0.939741 0.622174 0.330916
Si Si8 0.987233 0.119625 0.850406
O O1 0.528391 0.230811 0.679582
O O2 0.215797 0.101269 0.523007
O O3 0.193416 0.135776 0.828770
O O4 0.326281 0.974342 0.724375
O O5 0.161293 0.713596 0.795979
O O6 0.994663 0.837207 0.655091
O O7 0.058139 0.876737 0.958615
O O8 0.648183 0.485456 0.762148
O O9 0.876384 0.396256 0.664289
O O10 0.672086 0.326957 0.964172
O O11 0.647696 0.711969 0.696732
O O12 0.830564 0.980032 0.778957
O O13 0.218710 0.506473 0.763262
O O14 0.000000 0.500000 0.000000
O O15 0.500000 0.500000 0.500000
O O16 0.852465 0.632462 0.508328
O O17 0.016943 0.757262 0.231226
#
# Coordination Sequence:
#
# PCOD8015838 Si02
#       8
#     2   2   2   2   2   2   2   2
#     4  11  23  41  64  97 133 165 219 269 319 380
#     4  11  22  41  70  94 127 176 217 267 318 382
#     4  11  23  44  65  95 135 169 212 271 321 391
#     4  11  22  40  67  91 133 164 218 264 324 372
#     4  10  21  43  66  93 131 172 217 258 326 383
#     4  12  24  44  67  96 130 167 218 271 319 381
#     4  11  23  43  68  92 131 171 218 260 329 388
#     4  11  21  42  66  96 124 172 218 265 320 383
#
# _framework density 23.805074999999999
#
# number of rings (size 3 to 8) (size 9 to 14) (size 15 to 20)
#    0.000    1.000    5.000    4.875    0.000    0.500 
#    4.500    1.875    0.000    0.000    0.000    0.000 
#    0.000    0.000    0.000    0.000    0.000    0.000 
#
# Total GULP energy -198229.508142 kJ/mol
# GULP energy per Si atom -12389.344259 kJ/mol
# Density = 2.375089 g / cm^3
# Si number density = 23.805075 Si / 1000 Ang^3
#
#
#
# Elastic Constant Matrix: (Units=GPa)
#
#
# Indices 1 2 3 4 5 6 
#
# 1 32.5309 35.0645 18.8416 8.7869 18.7154 -2.9979
# 2 35.0645 191.3153 49.7648 -2.8688 19.7755 -18.2320
# 3 18.8416 49.7648 80.0746 5.1629 22.1571 -3.1070
# 4 8.7869 -2.8688 5.1629 51.2118 -8.7242 10.3504
# 5 18.7154 19.7755 22.1571 -8.7242 29.7550 -3.5428
# 6 -2.9979 -18.2320 -3.1070 10.3504 -3.5428 37.5774
#
#
#
# Elastic Compliance Matrix: (Units=1/GPa)
#
#
# Indices 1 2 3 4 5 6 
#
# 1 0.072941 -0.009328 0.003628 -0.022313 -0.048547 0.003163
# 2 -0.009328 0.007759 -0.004050 0.002786 0.004825 0.002373
# 3 0.003628 -0.004050 0.018647 -0.005270 -0.015033 -0.000099
# 4 -0.022313 0.002786 -0.005270 0.029482 0.023951 -0.006727
# 5 -0.048547 0.004825 -0.015033 0.023951 0.078923 -0.001931
# 6 0.003163 0.002373 -0.000099 -0.006727 -0.001931 0.029678
#
#
# Mechanical properties :
#
#
# Convention : Reuss Voigt Hill
#
# Bulk Modulus (GPa) = 12.52366 56.80696 34.66531
# Shear Modulus (GPa) = 17.63383 37.05882 27.34633
#
# Velocity S-wave (km/s) = 2.72464 3.94986 3.39301
# Velocity P-wave (km/s) = 3.89494 6.68708 5.47209
#
# Compressibility (1/GPa) = 0.07984883
#
# Stress axis : x y z
#
# Youngs Moduli (GPa) = 13.70977 128.87883 53.62665
#
# Poissons Ratio (x) = 1.20213 -0.19458
# Poissons Ratio (y) = 0.12788 0.21720
# Poissons Ratio (z) = -0.04975 0.52198
#
# Static dielectric constant tensor:
#      x y z
#    x 3.921100 -0.199890 0.198170 
#    y -0.199890 5.077900 0.112160 
#    z 0.198170 0.112160 4.512600 
# 
# 
# High freq. dielectric constant tensor:
#      x y z
#    x 1.896300 -0.010720 0.020190 
#    y -0.010720 1.980130 0.000480 
#    z 0.020190 0.000480 1.945960 
# 
# From -- ./inp_files/179259.got.cif
#   From: 2010.06.25/outbox.cif.g09.slc.cpg/sg2_90_cif.got.tgz:179259.got - 2010.06.27 13:26:56.
