data_PCOD8015364
_publ_section_title
;
Structure prediction by ZEFSAII (Michael W. Deem and Ramdas Pophale) SiO2 
 PCOD8015364
Probable space group: P -1
;
_chemical_formula_sum "Si O2"
_cell_formula_units_Z 16
_cell_length_a 9.838947
_cell_length_b 9.031315
_cell_length_c 17.403519
_cell_angle_alpha 133.062969
_cell_angle_beta 116.744913
_cell_angle_gamma 42.333333
_cell_volume 756.162522
_symmetry_space_group_name_H-M "P -1"
_symmetry_group_IT_number 2
_symmetry_cell_setting 'triclinic'
loop_
_space_group_symop_operation_xyz
x,y,z
-x,-y,-z
loop_
_atom_site_type_symbol
_atom_site_label
_atom_site_fract_x
_atom_site_fract_y
_atom_site_fract_z
Si Si1 0.890983 0.070512 0.159929
Si Si2 0.006816 0.676829 0.918869
Si Si3 0.114786 0.130388 0.753288
Si Si4 0.554602 0.730671 0.644905
Si Si5 0.633320 0.578080 0.192911
Si Si6 0.771166 0.947075 0.809493
Si Si7 0.835641 0.151402 0.575656
Si Si8 0.403418 0.012928 0.558699
O O1 0.835635 0.030867 0.213668
O O2 0.035813 0.143693 0.223246
O O3 0.674817 0.335358 0.164658
O O4 0.996300 0.805580 0.041383
O O5 0.006667 0.438915 0.852635
O O6 0.214376 0.543496 0.882025
O O7 0.821402 0.917371 0.902631
O O8 0.938580 0.155691 0.677698
O O9 0.325245 0.972944 0.704179
O O10 0.639131 0.447792 0.600069
O O11 0.717710 0.759535 0.717407
O O12 0.543763 0.743682 0.553331
O O13 0.414591 0.751642 0.159434
O O14 0.659993 0.743941 0.316954
O O15 0.779752 0.966268 0.510704
O O16 0.000000 0.000000 0.500000
O O17 0.500000 0.000000 0.500000
#
# Coordination Sequence:
#
# PCOD8015364 Si02
#       8
#     2   2   2   2   2   2   2   2
#     4  11  27  38  71  98 134 174 225 278 328 393
#     4  11  21  46  67  98 130 178 226 270 336 393
#     4  12  25  45  64  99 139 173 219 279 327 393
#     4  11  24  45  66  92 138 176 212 273 333 389
#     4  10  22  45  65  97 138 165 220 280 330 390
#     4  10  21  42  68  92 124 182 214 273 327 388
#     4  12  25  44  70  97 130 184 222 261 340 397
#     4  11  25  42  69  99 130 169 220 275 323 396
#
# _framework density 21.159473999999999
#
# number of rings (size 3 to 8) (size 9 to 14) (size 15 to 20)
#    0.000    1.000    5.000    2.250    7.000    2.000 
#    0.000    1.875    0.000    0.000    0.000    0.000 
#    0.000    0.000    0.000    0.000    0.000    0.000 
#
# Total GULP energy -198271.837945 kJ/mol
# GULP energy per Si atom -12391.989872 kJ/mol
# Density = 2.111131 g / cm^3
# Si number density = 21.159474 Si / 1000 Ang^3
#
#
#
# Elastic Constant Matrix: (Units=GPa)
#
#
# Indices 1 2 3 4 5 6 
#
# 1 111.8812 29.8446 31.0274 -10.5624 -1.5878 11.5305
# 2 29.8446 117.1809 16.1709 4.0376 -16.6769 5.1822
# 3 31.0274 16.1709 67.9219 2.9441 -7.8197 0.7791
# 4 -10.5624 4.0376 2.9441 30.1422 3.1539 -3.9555
# 5 -1.5878 -16.6769 -7.8197 3.1539 25.1780 -10.7844
# 6 11.5305 5.1822 0.7791 -3.9555 -10.7844 33.7232
#
#
#
# Elastic Compliance Matrix: (Units=1/GPa)
#
#
# Indices 1 2 3 4 5 6 
#
# 1 0.012261 -0.003128 -0.005695 0.005245 -0.005787 -0.004815
# 2 -0.003128 0.010485 -0.000053 -0.003103 0.007801 0.001590
# 3 -0.005695 -0.000053 0.018310 -0.004093 0.007249 0.003370
# 4 0.005245 -0.003103 -0.004093 0.036689 -0.007267 0.000757
# 5 -0.005787 0.007801 0.007249 -0.007267 0.055129 0.017390
# 6 -0.004815 0.001590 0.003370 0.000757 0.017390 0.036627
#
#
# Mechanical properties :
#
#
# Convention : Reuss Voigt Hill
#
# Bulk Modulus (GPa) = 42.91042 50.11886 46.51464
# Shear Modulus (GPa) = 25.63823 32.47143 29.05483
#
# Velocity S-wave (km/s) = 3.48468 3.92165 3.70960
# Velocity P-wave (km/s) = 6.04270 6.65158 6.35443
#
# Compressibility (1/GPa) = 0.02330436
#
# Stress axis : x y z
#
# Youngs Moduli (GPa) = 81.55869 95.37786 54.61503
#
# Poissons Ratio (x) = 0.29837 0.31101
# Poissons Ratio (y) = 0.25514 0.00288
# Poissons Ratio (z) = 0.46444 0.00504
#
# Static dielectric constant tensor:
#      x y z
#    x 3.729950 0.102500 0.187340 
#    y 0.102500 3.964240 0.059320 
#    z 0.187340 0.059320 3.817210 
# 
# 
# High freq. dielectric constant tensor:
#      x y z
#    x 1.824880 0.008750 0.016460 
#    y 0.008750 1.842790 -0.002470 
#    z 0.016460 -0.002470 1.825150 
# 
# From -- ./inp_files/557603.got.cif
#   From: 2010.06.25/outbox.cif.g09.slc.cpg/sg2_279_cif.got.tgz:557603.got - 2010.06.27 13:26:56.
