data_PCOD8015589
_publ_section_title
;
Structure prediction by ZEFSAII (Michael W. Deem and Ramdas Pophale) SiO2 
 PCOD8015589
Probable space group: P -1
;
_chemical_formula_sum "Si O2"
_cell_formula_units_Z 12
_cell_length_a 9.125713
_cell_length_b 7.925421
_cell_length_c 8.455929
_cell_angle_alpha 60.888868
_cell_angle_beta 82.241638
_cell_angle_gamma 88.854839
_cell_volume 528.691380
_symmetry_space_group_name_H-M "P -1"
_symmetry_group_IT_number 2
_symmetry_cell_setting 'triclinic'
loop_
_space_group_symop_operation_xyz
x,y,z
-x,-y,-z
loop_
_atom_site_type_symbol
_atom_site_label
_atom_site_fract_x
_atom_site_fract_y
_atom_site_fract_z
Si Si1 0.418945 0.243979 0.718546
Si Si2 0.450913 0.401119 0.314309
Si Si3 0.873876 0.839109 0.048845
Si Si4 0.668397 0.153451 0.522409
Si Si5 0.806828 0.777229 0.726738
Si Si6 0.939015 0.439482 0.368512
O O1 0.374026 0.371578 0.513382
O O2 0.465688 0.387146 0.793483
O O3 0.274068 0.115279 0.852212
O O4 0.558442 0.116964 0.707989
O O5 0.568806 0.229773 0.355473
O O6 0.326388 0.388395 0.200230
O O7 0.927300 0.626659 0.175047
O O8 0.835602 0.848259 0.866410
O O9 0.000000 0.000000 0.000000
O O10 0.782393 0.329653 0.468802
O O11 0.749624 0.960782 0.552118
O O12 0.957022 0.709440 0.663130
O O13 0.000000 0.500000 0.500000
#
# Coordination Sequence:
#
# PCOD8015589 Si02
#       6
#     2   2   2   2   2   2
#     4   9  19  42  70  90 133 175 226 262 328 387
#     4   9  19  42  69  98 126 174 229 268 320 388
#     4  12  26  45  63 100 142 174 217 278 339 394
#     4  10  21  42  71  99 126 174 227 272 320 392
#     4  12  25  39  67 107 136 171 217 277 341 391
#     4  12  24  46  71  93 133 181 228 272 327 401
#
# _framework density 22.697552000000002
#
# number of rings (size 3 to 8) (size 9 to 14) (size 15 to 20)
#    1.000    0.333    1.667    4.500    0.000    2.667 
#    0.000    0.000    0.000    0.000    0.000    0.000 
#    0.000    0.000    0.000    0.000    0.000    0.000 
#
# Total GULP energy -148715.477736 kJ/mol
# GULP energy per Si atom -12392.956478 kJ/mol
# Density = 2.264589 g / cm^3
# Si number density = 22.697552 Si / 1000 Ang^3
#
#
#
# Elastic Constant Matrix: (Units=GPa)
#
#
# Indices 1 2 3 4 5 6 
#
# 1 164.0999 61.8482 44.1613 7.2205 -19.5869 11.3154
# 2 61.8482 96.1181 21.4698 -3.0295 -9.2389 0.8005
# 3 44.1613 21.4698 41.2263 6.8793 -7.3315 4.5324
# 4 7.2205 -3.0295 6.8793 30.5645 8.3788 9.8229
# 5 -19.5869 -9.2389 -7.3315 8.3788 38.1828 0.4426
# 6 11.3154 0.8005 4.5324 9.8229 0.4426 61.0433
#
#
#
# Elastic Compliance Matrix: (Units=1/GPa)
#
#
# Indices 1 2 3 4 5 6 
#
# 1 0.010517 -0.004764 -0.007827 -0.001714 0.003128 -0.001053
# 2 -0.004764 0.014186 -0.002897 0.003122 -0.000257 0.000412
# 3 -0.007827 -0.002897 0.036115 -0.007637 0.003894 0.000008
# 4 -0.001714 0.003122 -0.007637 0.039718 -0.010243 -0.005473
# 5 0.003128 -0.000257 0.003894 -0.010243 0.030721 0.000560
# 6 -0.001053 0.000412 0.000008 -0.005473 0.000560 0.017448
#
#
# Mechanical properties :
#
#
# Convention : Reuss Voigt Hill
#
# Bulk Modulus (GPa) = 33.50831 61.82252 47.66542
# Shear Modulus (GPa) = 26.36748 37.55578 31.96163
#
# Velocity S-wave (km/s) = 3.41205 4.07211 3.75661
# Velocity P-wave (km/s) = 5.50616 7.02895 6.31363
#
# Compressibility (1/GPa) = 0.02984334
#
# Stress axis : x y z
#
# Youngs Moduli (GPa) = 95.08589 70.49001 27.68921
#
# Poissons Ratio (x) = 0.33578 0.21672
# Poissons Ratio (y) = 0.45294 0.08022
# Poissons Ratio (z) = 0.74422 0.20423
#
# Static dielectric constant tensor:
#      x y z
#    x 4.388070 -0.008640 -0.085350 
#    y -0.008640 4.004880 0.046250 
#    z -0.085350 0.046250 3.602730 
# 
# 
# High freq. dielectric constant tensor:
#      x y z
#    x 1.918440 0.006430 0.004540 
#    y 0.006430 1.896970 -0.000150 
#    z 0.004540 -0.000150 1.848850 
# 
# From -- ./inp_files/144851.got.cif
#   From: 2010.06.25/outbox.cif.g09.slc.cpg/sg2_73_cif.got.tgz:144851.got - 2010.06.27 13:26:56.
