data_PCOD8015600
_publ_section_title
;
Structure prediction by ZEFSAII (Michael W. Deem and Ramdas Pophale) SiO2 
 PCOD8015600
Probable space group: P -1
;
_chemical_formula_sum "Si O2"
_cell_formula_units_Z 16
_cell_length_a 9.144741
_cell_length_b 11.755867
_cell_length_c 14.736119
_cell_angle_alpha 46.590550
_cell_angle_beta 41.961768
_cell_angle_gamma 68.559650
_cell_volume 734.184983
_symmetry_space_group_name_H-M "P -1"
_symmetry_group_IT_number 2
_symmetry_cell_setting 'triclinic'
loop_
_space_group_symop_operation_xyz
x,y,z
-x,-y,-z
loop_
_atom_site_type_symbol
_atom_site_label
_atom_site_fract_x
_atom_site_fract_y
_atom_site_fract_z
Si Si1 0.334186 0.070098 0.474167
Si Si2 0.723110 0.445812 0.412940
Si Si3 0.105435 0.581445 0.314839
Si Si4 0.488115 0.447968 0.136231
Si Si5 0.486861 0.926941 0.318778
Si Si6 0.087960 0.945453 0.821854
Si Si7 0.953505 0.427879 0.964413
Si Si8 0.665591 0.046253 0.984943
O O1 0.401971 0.259873 0.312094
O O2 0.500000 0.000000 0.500000
O O3 0.308751 0.976935 0.440440
O O4 0.108582 0.025604 0.666476
O O5 0.500000 0.500000 0.500000
O O6 0.641203 0.251444 0.561614
O O7 0.821526 0.504115 0.236995
O O8 0.921926 0.520875 0.352756
O O9 0.343799 0.544227 0.205749
O O10 0.000000 0.500000 0.500000
O O11 0.159651 0.773327 0.201668
O O12 0.500000 0.500000 0.000000
O O13 0.758154 0.510479 0.988480
O O14 0.725692 0.944632 0.252824
O O15 0.529658 0.036703 0.147603
O O16 0.133348 0.769438 0.893604
O O17 0.828173 0.926849 0.982654
O O18 0.000000 0.500000 0.000000
O O19 0.500000 0.000000 0.000000
#
# Coordination Sequence:
#
# PCOD8015600 Si02
#       8
#     2   2   2   2   2   2   2   2
#     4  10  21  42  72 102 135 181 233 281 347 422
#     4  12  26  44  68 105 138 184 242 289 347 426
#     4  12  27  46  70 100 144 187 230 297 363 415
#     4  12  24  47  72 104 148 183 234 296 362 419
#     4  11  22  43  70  97 135 179 236 284 344 417
#     4  11  23  46  72 100 138 186 236 289 344 423
#     4  12  26  43  73 106 141 187 239 291 357 421
#     4  12  26  45  67 100 140 185 236 287 356 420
#
# _framework density 21.792871999999999
#
# number of rings (size 3 to 8) (size 9 to 14) (size 15 to 20)
#    0.000    0.500    3.750    5.625    5.250    0.000 
#    0.000    1.250    0.000    0.000    0.000    0.000 
#    0.000    0.000    0.000    0.000    0.000    0.000 
#
# Total GULP energy -198228.222221 kJ/mol
# GULP energy per Si atom -12389.263889 kJ/mol
# Density = 2.174327 g / cm^3
# Si number density = 21.792872 Si / 1000 Ang^3
#
#
#
# Elastic Constant Matrix: (Units=GPa)
#
#
# Indices 1 2 3 4 5 6 
#
# 1 132.9581 52.1750 50.6574 8.4248 2.4734 15.5187
# 2 52.1750 95.2406 31.8979 15.6296 -7.1122 7.4781
# 3 50.6574 31.8979 130.8485 14.9631 23.1121 11.1084
# 4 8.4248 15.6296 14.9631 51.4680 5.9629 -2.4612
# 5 2.4734 -7.1122 23.1121 5.9629 51.7435 5.1368
# 6 15.5187 7.4781 11.1084 -2.4612 5.1368 42.1676
#
#
#
# Elastic Compliance Matrix: (Units=1/GPa)
#
#
# Indices 1 2 3 4 5 6 
#
# 1 0.010741 -0.004768 -0.002895 0.000382 0.000314 -0.002361
# 2 -0.004768 0.014676 -0.001870 -0.003597 0.003594 -0.001003
# 3 -0.002895 -0.001870 0.010242 -0.001462 -0.004441 -0.000846
# 4 0.000382 -0.003597 -0.001462 0.021297 -0.002556 0.002437
# 5 0.000314 0.003594 -0.004441 -0.002556 0.022327 -0.002452
# 6 -0.002361 -0.001003 -0.000846 0.002437 -0.002452 0.025425
#
#
# Mechanical properties :
#
#
# Convention : Reuss Voigt Hill
#
# Bulk Modulus (GPa) = 60.26732 69.83421 65.05076
# Shear Modulus (GPa) = 38.66838 44.03027 41.34932
#
# Velocity S-wave (km/s) = 4.21688 4.49976 4.36062
# Velocity P-wave (km/s) = 7.17106 7.68838 7.43422
#
# Compressibility (1/GPa) = 0.01659274
#
# Stress axis : x y z
#
# Youngs Moduli (GPa) = 93.10382 68.13985 97.63397
#
# Poissons Ratio (x) = 0.32492 0.28261
# Poissons Ratio (y) = 0.44396 0.18257
# Poissons Ratio (z) = 0.26950 0.12742
#
# Static dielectric constant tensor:
#      x y z
#    x 3.910000 0.090740 0.242670 
#    y 0.090740 4.371430 0.189180 
#    z 0.242670 0.189180 4.397170 
# 
# 
# High freq. dielectric constant tensor:
#      x y z
#    x 1.853930 0.002140 0.014470 
#    y 0.002140 1.867090 0.011950 
#    z 0.014470 0.011950 1.878220 
# 
# From -- ./inp_files/499977.got.cif
#   From: 2010.06.25/outbox.cif.g09.slc.cpg/sg2_250_cif.got.tgz:499977.got - 2010.06.27 13:26:56.
