data_PCOD8015550
_publ_section_title
;
Structure prediction by ZEFSAII (Michael W. Deem and Ramdas Pophale) SiO2 
 PCOD8015550
Probable space group: P -1
;
_chemical_formula_sum "Si O2"
_cell_formula_units_Z 16
_cell_length_a 17.882064
_cell_length_b 8.828974
_cell_length_c 5.414963
_cell_angle_alpha 124.890395
_cell_angle_beta 96.809238
_cell_angle_gamma 83.141052
_cell_volume 694.897428
_symmetry_space_group_name_H-M "P -1"
_symmetry_group_IT_number 2
_symmetry_cell_setting 'triclinic'
loop_
_space_group_symop_operation_xyz
x,y,z
-x,-y,-z
loop_
_atom_site_type_symbol
_atom_site_label
_atom_site_fract_x
_atom_site_fract_y
_atom_site_fract_z
Si Si1 0.296841 0.653468 0.906736
Si Si2 0.980133 0.302938 0.704053
Si Si3 0.589161 0.187034 0.208579
Si Si4 0.162859 0.784973 0.700777
Si Si5 0.658715 0.688435 0.113343
Si Si6 0.727828 0.048809 0.462865
Si Si7 0.066012 0.990771 0.208448
Si Si8 0.571568 0.786334 0.669519
O O1 0.377437 0.650992 0.794675
O O2 0.226086 0.626668 0.669899
O O3 0.300317 0.513594 0.009231
O O4 0.277772 0.862656 0.186605
O O5 0.912741 0.321510 0.490273
O O6 0.943771 0.183384 0.785799
O O7 0.057364 0.190232 0.531981
O O8 0.000000 0.500000 0.000000
O O9 0.651957 0.123091 0.368192
O O10 0.514251 0.273887 0.395331
O O11 0.569442 0.009300 0.873661
O O12 0.195179 0.897169 0.586873
O O13 0.144289 0.945457 0.051475
O O14 0.602287 0.722223 0.354904
O O15 0.725754 0.828060 0.278810
O O16 0.618857 0.696447 0.837349
O O17 0.000000 0.000000 0.000000
#
# Coordination Sequence:
#
# PCOD8015550 Si02
#       8
#     2   2   2   2   2   2   2   2
#     4  11  23  41  63  89 131 177 220 273 331 399
#     4  10  21  42  71 100 133 165 212 272 327 394
#     4   9  21  38  67  89 129 173 220 283 340 399
#     4  10  22  42  65  93 134 177 218 264 335 397
#     4  11  25  41  65  93 134 172 235 281 334 402
#     4  10  22  43  62  88 131 177 219 273 333 397
#     4   9  20  41  66  97 130 165 209 264 317 397
#     4  10  22  41  64  98 127 174 228 285 348 395
#
# _framework density 23.024979999999999
#
# number of rings (size 3 to 8) (size 9 to 14) (size 15 to 20)
#    0.000    2.000    1.250    0.750    5.250    4.500 
#    0.000   16.250    0.000    0.000    0.000    0.000 
#    0.000    0.000    0.000    0.000    0.000    0.000 
#
# Total GULP energy -198258.105685 kJ/mol
# GULP energy per Si atom -12391.131605 kJ/mol
# Density = 2.297257 g / cm^3
# Si number density = 23.024980 Si / 1000 Ang^3
#
#
#
# Elastic Constant Matrix: (Units=GPa)
#
#
# Indices 1 2 3 4 5 6 
#
# 1 114.7524 18.7259 29.6405 13.7579 -4.2355 6.5400
# 2 18.7259 90.7657 7.9484 10.1344 8.3507 6.7608
# 3 29.6405 7.9484 87.8284 8.7297 -10.3172 14.1936
# 4 13.7579 10.1344 8.7297 32.5107 7.8810 0.2813
# 5 -4.2355 8.3507 -10.3172 7.8810 30.9634 -3.0196
# 6 6.5400 6.7608 14.1936 0.2813 -3.0196 18.2645
#
#
#
# Elastic Compliance Matrix: (Units=1/GPa)
#
#
# Indices 1 2 3 4 5 6 
#
# 1 0.010179 -0.001590 -0.002623 -0.003534 0.001781 -0.000669
# 2 -0.001590 0.012246 -0.000020 -0.002281 -0.003382 -0.004473
# 3 -0.002623 -0.000020 0.014769 -0.003883 0.004609 -0.009709
# 4 -0.003534 -0.002281 -0.003883 0.036445 -0.010157 0.002887
# 5 0.001781 -0.003382 0.004609 -0.010157 0.037910 0.003456
# 6 -0.000669 -0.004473 -0.009709 0.002887 0.003456 0.064718
#
#
# Mechanical properties :
#
#
# Convention : Reuss Voigt Hill
#
# Bulk Modulus (GPa) = 34.80682 45.10847 39.95765
# Shear Modulus (GPa) = 25.73230 32.14986 28.94108
#
# Velocity S-wave (km/s) = 3.34665 3.74077 3.54918
# Velocity P-wave (km/s) = 5.48482 6.18801 5.84699
#
# Compressibility (1/GPa) = 0.02873000
#
# Stress axis : x y z
#
# Youngs Moduli (GPa) = 98.24310 81.65882 67.70867
#
# Poissons Ratio (x) = 0.12982 0.17758
# Poissons Ratio (y) = 0.15619 0.00132
# Poissons Ratio (z) = 0.25766 0.00160
#
# Static dielectric constant tensor:
#      x y z
#    x 4.563680 -0.023490 -0.290460 
#    y -0.023490 4.209440 0.016730 
#    z -0.290460 0.016730 4.300720 
# 
# 
# High freq. dielectric constant tensor:
#      x y z
#    x 1.907560 -0.007710 -0.006850 
#    y -0.007710 1.900870 -0.014430 
#    z -0.006850 -0.014430 1.910880 
# 
# From -- ./inp_files/105786.got.cif
#   From: 2010.06.25/outbox.cif.g09.slc.cpg/sg2_53_cif.got.tgz:105786.got - 2010.06.27 13:26:56.
