data_PCOD8015385
_publ_section_title
;
Structure prediction by ZEFSAII (Michael W. Deem and Ramdas Pophale) SiO2 
 PCOD8015385
Probable space group: P -1
;
_chemical_formula_sum "Si O2"
_cell_formula_units_Z 14
_cell_length_a 16.025373
_cell_length_b 9.363362
_cell_length_c 15.977367
_cell_angle_alpha 142.840673
_cell_angle_beta 26.497598
_cell_angle_gamma 145.162755
_cell_volume 592.429660
_symmetry_space_group_name_H-M "P -1"
_symmetry_group_IT_number 2
_symmetry_cell_setting 'triclinic'
loop_
_space_group_symop_operation_xyz
x,y,z
-x,-y,-z
loop_
_atom_site_type_symbol
_atom_site_label
_atom_site_fract_x
_atom_site_fract_y
_atom_site_fract_z
Si Si1 0.235997 0.646475 0.106339
Si Si2 0.310816 0.202116 0.293106
Si Si3 0.739075 0.468768 0.644543
Si Si4 0.101232 0.311755 0.228102
Si Si5 0.469570 0.571418 0.467143
Si Si6 0.875337 0.825844 0.115057
Si Si7 0.621498 0.992548 0.304988
O O1 0.211976 0.544858 0.174694
O O2 0.177283 0.894432 0.269500
O O3 0.471652 0.732384 0.913689
O O4 0.094207 0.424822 0.065397
O O5 0.196268 0.341326 0.405038
O O6 0.339141 0.309110 0.412154
O O7 0.766304 0.637199 0.782667
O O8 0.502797 0.269364 0.757285
O O9 0.876624 0.302658 0.445732
O O10 0.069928 0.028737 0.086902
O O11 0.500000 0.500000 0.500000
O O12 0.685697 0.725468 0.301420
O O13 0.343507 0.755954 0.665047
O O14 0.831302 0.980783 0.146419
O O15 0.500000 0.000000 0.500000
#
# Coordination Sequence:
#
# PCOD8015385 Si02
#       7
#     2   2   2   2   2   2   2
#     4  10  22  38  60  83 116 161 189 232 289 348
#     4  10  21  41  57  84 122 152 191 238 287 344
#     4  11  21  38  59  89 117 148 191 249 282 334
#     4  11  23  35  62  89 116 146 197 242 289 335
#     4  10  19  31  61  88 109 144 196 242 278 330
#     4  10  19  41  58  83 118 155 190 237 283 345
#     4  10  16  36  61  80 114 152 194 229 282 338
#
# _framework density 23.631499000000002
#
# number of rings (size 3 to 8) (size 9 to 14) (size 15 to 20)
#    0.000    1.714    7.143    0.429    2.000    1.143 
#    0.000    2.143    0.000    0.000    0.000    0.000 
#    0.000    0.000    0.000    0.000    0.000    0.000 
#
# Total GULP energy -173603.863507 kJ/mol
# GULP energy per Si atom -12400.275965 kJ/mol
# Density = 2.357771 g / cm^3
# Si number density = 23.631499 Si / 1000 Ang^3
#
#
#
# Elastic Constant Matrix: (Units=GPa)
#
#
# Indices 1 2 3 4 5 6 
#
# 1 174.2970 71.9219 49.1521 28.6326 31.6806 4.8325
# 2 71.9219 144.2896 41.7921 46.3878 17.3852 7.0130
# 3 49.1521 41.7921 53.7087 30.5139 18.4858 3.3651
# 4 28.6326 46.3878 30.5139 45.8282 5.3358 3.4958
# 5 31.6806 17.3852 18.4858 5.3358 42.5917 6.6973
# 6 4.8325 7.0130 3.3651 3.4958 6.6973 45.3801
#
#
#
# Elastic Compliance Matrix: (Units=1/GPa)
#
#
# Indices 1 2 3 4 5 6 
#
# 1 0.008838 -0.002888 -0.005601 0.001481 -0.003193 0.000278
# 2 -0.002888 0.011783 -0.000754 -0.009453 -0.001060 -0.000573
# 3 -0.005601 -0.000754 0.039821 -0.021121 -0.010306 0.000908
# 4 0.001481 -0.009453 -0.021121 0.043865 0.006663 -0.001493
# 5 -0.003193 -0.001060 -0.010306 0.006663 0.030514 -0.003749
# 6 0.000278 -0.000573 0.000908 -0.001493 -0.003749 0.022696
#
#
# Mechanical properties :
#
#
# Convention : Reuss Voigt Hill
#
# Bulk Modulus (GPa) = 23.83431 77.55861 50.69646
# Shear Modulus (GPa) = 26.31724 40.72196 33.51960
#
# Velocity S-wave (km/s) = 3.34076 4.15566 3.77029
# Velocity P-wave (km/s) = 4.99886 7.47778 6.36026
#
# Compressibility (1/GPa) = 0.04195632
#
# Stress axis : x y z
#
# Youngs Moduli (GPa) = 113.14977 84.86610 25.11211
#
# Poissons Ratio (x) = 0.24510 0.14064
# Poissons Ratio (y) = 0.32678 0.01894
# Poissons Ratio (z) = 0.63371 0.06402
#
# Static dielectric constant tensor:
#      x y z
#    x 4.275690 -0.025760 -0.047910 
#    y -0.025760 4.511350 0.402050 
#    z -0.047910 0.402050 4.621280 
# 
# 
# High freq. dielectric constant tensor:
#      x y z
#    x 1.913650 0.011090 0.009410 
#    y 0.011090 1.941630 0.003710 
#    z 0.009410 0.003710 1.947030 
# 
# From -- ./inp_files/257118.got.cif
#   From: 2010.06.25/outbox.cif.g09.slc.cpg/sg2_129_cif.got.tgz:257118.got - 2010.06.27 13:26:56.
