data_PCOD8015551
_publ_section_title
;
Structure prediction by ZEFSAII (Michael W. Deem and Ramdas Pophale) SiO2 
 PCOD8015551
Probable space group: P -1
;
_chemical_formula_sum "Si O2"
_cell_formula_units_Z 16
_cell_length_a 14.130571
_cell_length_b 15.085260
_cell_length_c 8.519940
_cell_angle_alpha 138.163090
_cell_angle_beta 141.580281
_cell_angle_gamma 36.611214
_cell_volume 639.156797
_symmetry_space_group_name_H-M "P -1"
_symmetry_group_IT_number 2
_symmetry_cell_setting 'triclinic'
loop_
_space_group_symop_operation_xyz
x,y,z
-x,-y,-z
loop_
_atom_site_type_symbol
_atom_site_label
_atom_site_fract_x
_atom_site_fract_y
_atom_site_fract_z
Si Si1 0.238483 0.593178 0.788634
Si Si2 0.882903 0.573544 0.789223
Si Si3 0.530530 0.202976 0.084238
Si Si4 0.354053 0.125581 0.267868
Si Si5 0.852109 0.151440 0.601732
Si Si6 0.074007 0.112986 0.118904
Si Si7 0.625491 0.204278 0.867622
Si Si8 0.211635 0.522455 0.007529
O O1 0.242604 0.491793 0.512039
O O2 0.031956 0.740639 0.709490
O O3 0.384267 0.643969 0.018562
O O4 0.284441 0.503437 0.898278
O O5 0.748810 0.763533 0.870829
O O6 0.000000 0.500000 0.000000
O O7 0.021657 0.534683 0.774856
O O8 0.658852 0.170710 0.357297
O O9 0.345097 0.368265 0.081003
O O10 0.632278 0.212020 0.074978
O O11 0.507013 0.053483 0.842603
O O12 0.209272 0.131255 0.206357
O O13 0.457358 0.194193 0.583492
O O14 0.821687 0.321517 0.740427
O O15 0.000000 0.000000 0.500000
O O16 0.913157 0.119670 0.818789
O O17 0.185849 0.950524 0.144778
#
# Coordination Sequence:
#
# PCOD8015551 Si02
#       8
#     2   2   2   2   2   2   2   2
#     4  11  25  43  71 100 145 179 237 292 338 417
#     4  12  27  46  73 100 139 182 232 287 359 418
#     4  11  23  40  73 100 141 186 229 291 343 419
#     4  11  23  45  69 100 138 182 238 283 352 412
#     4  11  19  40  70 100 138 179 230 283 345 408
#     4  10  21  42  71 100 135 193 231 279 345 425
#     4  11  24  39  69 106 140 182 237 286 350 401
#     4  11  25  45  70 105 136 190 233 280 354 420
#
# _framework density 25.032982000000001
#
# number of rings (size 3 to 8) (size 9 to 14) (size 15 to 20)
#    0.000    1.000    5.000    3.375    5.250    3.000 
#    4.500    0.625    0.000    0.000    0.000    0.000 
#    0.000    0.000    0.000    0.000    0.000    0.000 
#
# Total GULP energy -198306.424350 kJ/mol
# GULP energy per Si atom -12394.151522 kJ/mol
# Density = 2.497601 g / cm^3
# Si number density = 25.032982 Si / 1000 Ang^3
#
#
#
# Elastic Constant Matrix: (Units=GPa)
#
#
# Indices 1 2 3 4 5 6 
#
# 1 31.7940 12.8818 33.3087 6.8754 6.1522 16.6237
# 2 12.8818 192.4179 49.1337 14.4078 -3.9157 13.0678
# 3 33.3087 49.1337 149.2091 6.2780 17.5889 15.1937
# 4 6.8754 14.4078 6.2780 48.0719 -1.9806 -2.8202
# 5 6.1522 -3.9157 17.5889 -1.9806 28.8286 5.9188
# 6 16.6237 13.0678 15.1937 -2.8202 5.9188 34.8958
#
#
#
# Elastic Compliance Matrix: (Units=1/GPa)
#
#
# Indices 1 2 3 4 5 6 
#
# 1 0.055433 0.000942 -0.009816 -0.008337 -0.001586 -0.022891
# 2 0.000942 0.006013 -0.002155 -0.001695 0.002284 -0.002286
# 3 -0.009816 -0.002155 0.009914 0.000683 -0.004611 0.002004
# 4 -0.008337 -0.001695 0.000683 0.022821 0.001489 0.005901
# 5 -0.001586 0.002284 -0.004611 0.001489 0.039201 -0.004621
# 6 -0.022891 -0.002286 0.002004 0.005901 -0.004621 0.040806
#
#
# Mechanical properties :
#
#
# Convention : Reuss Voigt Hill
#
# Bulk Modulus (GPa) = 20.28369 62.67437 41.47903
# Shear Modulus (GPa) = 23.50955 40.89903 32.20429
#
# Velocity S-wave (km/s) = 3.06787 4.04642 3.59064
# Velocity P-wave (km/s) = 4.54637 6.85000 5.81343
#
# Compressibility (1/GPa) = 0.04930070
#
# Stress axis : x y z
#
# Youngs Moduli (GPa) = 18.03988 166.30517 100.86934
#
# Poissons Ratio (x) = -0.15667 0.99014
# Poissons Ratio (y) = -0.01699 0.21741
# Poissons Ratio (z) = 0.17708 0.35845
#
# Static dielectric constant tensor:
#      x y z
#    x 4.113310 -0.100990 0.127280 
#    y -0.100990 5.203460 0.221530 
#    z 0.127280 0.221530 4.468210 
# 
# 
# High freq. dielectric constant tensor:
#      x y z
#    x 1.963910 -0.008780 0.015030 
#    y -0.008780 2.034960 0.006540 
#    z 0.015030 0.006540 1.988070 
# 
# From -- ./inp_files/316136.got.cif
#   From: 2010.06.25/outbox.cif.g09.slc.cpg/sg2_159_cif.got.tgz:316136.got - 2010.06.27 13:26:56.
