data_PCOD8015622
_publ_section_title
;
Structure prediction by ZEFSAII (Michael W. Deem and Ramdas Pophale) SiO2 
 PCOD8015622
Probable space group: P -1
;
_chemical_formula_sum "Si O2"
_cell_formula_units_Z 16
_cell_length_a 16.768507
_cell_length_b 10.460748
_cell_length_c 9.147171
_cell_angle_alpha 86.739070
_cell_angle_beta 65.212951
_cell_angle_gamma 141.918754
_cell_volume 649.518324
_symmetry_space_group_name_H-M "P -1"
_symmetry_group_IT_number 2
_symmetry_cell_setting 'triclinic'
loop_
_space_group_symop_operation_xyz
x,y,z
-x,-y,-z
loop_
_atom_site_type_symbol
_atom_site_label
_atom_site_fract_x
_atom_site_fract_y
_atom_site_fract_z
Si Si1 0.683512 0.714009 0.110951
Si Si2 0.419679 0.607061 0.285731
Si Si3 0.593185 0.339658 0.033415
Si Si4 0.844283 0.843101 0.252862
Si Si5 0.917412 0.619474 0.200082
Si Si6 0.223970 0.812008 0.519197
Si Si7 0.492371 0.841806 0.478081
Si Si8 0.935080 0.626353 0.865981
O O1 0.520260 0.600419 0.190133
O O2 0.669685 0.571795 0.028722
O O3 0.657167 0.642390 0.308035
O O4 0.897220 0.060700 0.903780
O O5 0.219610 0.330251 0.550818
O O6 0.556354 0.882593 0.261693
O O7 0.372038 0.609670 0.169372
O O8 0.358912 0.006932 0.259055
O O9 0.714504 0.376408 0.000759
O O10 0.931366 0.074801 0.259989
O O11 0.000000 0.000000 0.000000
O O12 0.842885 0.422893 0.393528
O O13 0.743091 0.496797 0.300449
O O14 0.945062 0.580320 0.026802
O O15 0.029036 0.645556 0.679948
O O16 0.370099 0.052729 0.520509
O O17 0.500000 0.000000 0.500000
#
# Coordination Sequence:
#
# PCOD8015622 Si02
#       8
#     2   2   2   2   2   2   2   2
#     4  11  23  44  71 105 144 185 242 295 350 425
#     4  12  25  43  69 107 143 193 230 295 370 424
#     4  12  26  45  69 108 156 185 231 295 364 435
#     4  11  21  41  67 101 134 176 242 294 347 411
#     4  10  22  43  74 102 137 185 249 304 339 413
#     4  11  23  46  75 101 139 192 246 294 350 425
#     4  10  21  42  72  97 132 182 243 296 337 411
#     4  11  22  40  72 106 138 186 242 298 357 412
#
# _framework density 24.63364
#
# number of rings (size 3 to 8) (size 9 to 14) (size 15 to 20)
#    0.000    1.000    2.500    5.625    0.000    1.500 
#    4.500    3.125    0.000    1.500    0.000    0.000 
#    0.000    0.000    0.000    0.000    0.000    0.000 
#
# Total GULP energy -198208.874715 kJ/mol
# GULP energy per Si atom -12388.054670 kJ/mol
# Density = 2.457757 g / cm^3
# Si number density = 24.633640 Si / 1000 Ang^3
#
#
#
# Elastic Constant Matrix: (Units=GPa)
#
#
# Indices 1 2 3 4 5 6 
#
# 1 90.6016 11.7788 43.6556 2.7593 -8.1962 -7.0670
# 2 11.7788 53.6906 35.1550 4.9637 16.5675 -7.7515
# 3 43.6556 35.1550 150.6477 -5.8362 15.9816 -3.6957
# 4 2.7593 4.9637 -5.8362 31.4215 4.7126 2.4315
# 5 -8.1962 16.5675 15.9816 4.7126 53.0787 -1.6210
# 6 -7.0670 -7.7515 -3.6957 2.4315 -1.6210 26.4258
#
#
#
# Elastic Compliance Matrix: (Units=1/GPa)
#
#
# Indices 1 2 3 4 5 6 
#
# 1 0.013927 -0.000720 -0.004319 -0.002779 0.004027 0.003412
# 2 -0.000720 0.025288 -0.005083 -0.004503 -0.005874 0.006568
# 3 -0.004319 -0.005083 0.009405 0.003407 -0.002269 -0.001783
# 4 -0.002779 -0.004503 0.003407 0.034283 -0.003244 -0.004941
# 5 0.004027 -0.005874 -0.002269 -0.003244 0.022288 0.000702
# 6 0.003412 0.006568 -0.001783 -0.004941 0.000702 0.040929
#
#
# Mechanical properties :
#
#
# Convention : Reuss Voigt Hill
#
# Bulk Modulus (GPa) = 35.24109 52.90207 44.07158
# Shear Modulus (GPa) = 28.43778 35.80858 32.12318
#
# Velocity S-wave (km/s) = 3.40137 3.81681 3.61506
# Velocity P-wave (km/s) = 5.45554 6.39892 5.94597
#
# Compressibility (1/GPa) = 0.02837597
#
# Stress axis : x y z
#
# Youngs Moduli (GPa) = 71.80253 39.54387 106.33078
#
# Poissons Ratio (x) = 0.02849 0.45923
# Poissons Ratio (y) = 0.05173 0.54044
# Poissons Ratio (z) = 0.31011 0.20099
#
# Static dielectric constant tensor:
#      x y z
#    x 4.713480 0.006490 -0.144770 
#    y 0.006490 4.713850 -0.304910 
#    z -0.144770 -0.304910 4.530810 
# 
# 
# High freq. dielectric constant tensor:
#      x y z
#    x 1.976580 -0.022030 -0.011170 
#    y -0.022030 1.973290 -0.016140 
#    z -0.011170 -0.016140 1.975670 
# 
# From -- ./inp_files/331928.got.cif
#   From: 2010.06.25/outbox.cif.g09.slc.cpg/sg2_166_cif.got.tgz:331928.got - 2010.06.27 13:26:56.
