data_PCOD8015205
_publ_section_title
;
Structure prediction by ZEFSAII (Michael W. Deem and Ramdas Pophale) SiO2 
 PCOD8015205
Probable space group: P -1
;
_chemical_formula_sum "Si O2"
_cell_formula_units_Z 14
_cell_length_a 8.877940
_cell_length_b 12.695926
_cell_length_c 18.474143
_cell_angle_alpha 27.745004
_cell_angle_beta 117.719565
_cell_angle_gamma 133.913606
_cell_volume 625.944992
_symmetry_space_group_name_H-M "P -1"
_symmetry_group_IT_number 2
_symmetry_cell_setting 'triclinic'
loop_
_space_group_symop_operation_xyz
x,y,z
-x,-y,-z
loop_
_atom_site_type_symbol
_atom_site_label
_atom_site_fract_x
_atom_site_fract_y
_atom_site_fract_z
Si Si1 0.477903 0.220291 0.460773
Si Si2 0.741747 0.519244 0.966110
Si Si3 0.788440 0.259361 0.001704
Si Si4 0.826626 0.641007 0.163732
Si Si5 0.457484 0.541192 0.384076
Si Si6 0.474448 0.232923 0.218126
Si Si7 0.969334 0.621250 0.674116
O O1 0.608843 0.463106 0.277459
O O2 0.535208 0.401395 0.437360
O O3 0.584531 0.064823 0.581733
O O4 0.200736 0.966041 0.540341
O O5 0.740142 0.793001 0.795724
O O6 0.978526 0.643803 0.976413
O O7 0.699417 0.373956 0.966350
O O8 0.524156 0.254382 0.130502
O O9 0.595566 0.890195 0.179444
O O10 0.825829 0.407591 0.842347
O O11 0.714973 0.551411 0.113104
O O12 0.967844 0.535302 0.267009
O O13 0.000000 0.000000 0.000000
O O14 0.500000 0.500000 0.500000
O O15 0.185338 0.347768 0.426818
#
# Coordination Sequence:
#
# PCOD8015205 Si02
#       7
#     2   2   2   2   2   2   2
#     4  11  24  46  68  98 134 181 222 275 341 413
#     4  10  22  39  72  97 137 175 227 273 340 399
#     4  11  23  43  70 102 135 180 227 276 337 405
#     4  11  24  42  69  98 132 174 230 275 336 406
#     4  12  28  43  67 102 141 172 231 284 338 390
#     4  10  21  42  66  96 135 178 223 272 338 399
#     4  11  24  47  68  97 137 184 226 274 341 407
#
# _framework density 22.366182999999999
#
# number of rings (size 3 to 8) (size 9 to 14) (size 15 to 20)
#    0.000    1.143    2.857    4.286    6.000    2.286 
#    0.000    1.429    0.000    0.000    0.000    0.000 
#    0.000    0.000    0.000    0.000    0.000    0.000 
#
# Total GULP energy -173620.869214 kJ/mol
# GULP energy per Si atom -12401.490658 kJ/mol
# Density = 2.231528 g / cm^3
# Si number density = 22.366183 Si / 1000 Ang^3
#
#
#
# Elastic Constant Matrix: (Units=GPa)
#
#
# Indices 1 2 3 4 5 6 
#
# 1 136.4432 57.0453 45.3027 3.3389 10.0698 -15.1092
# 2 57.0453 103.3262 48.9162 13.8648 1.2742 -15.8876
# 3 45.3027 48.9162 113.1622 -1.2796 -19.8942 -5.7848
# 4 3.3389 13.8648 -1.2796 29.9249 -1.3538 12.0555
# 5 10.0698 1.2742 -19.8942 -1.3538 32.2665 10.3751
# 6 -15.1092 -15.8876 -5.7848 12.0555 10.3751 34.8350
#
#
#
# Elastic Compliance Matrix: (Units=1/GPa)
#
#
# Indices 1 2 3 4 5 6 
#
# 1 0.011411 -0.002404 -0.004758 -0.003539 -0.008766 0.006898
# 2 -0.002404 0.019975 -0.009045 -0.016131 -0.011278 0.015507
# 3 -0.004758 -0.009045 0.017103 0.011124 0.016774 -0.012194
# 4 -0.003539 -0.016131 0.011124 0.055952 0.021498 -0.032811
# 5 -0.008766 -0.011278 0.016774 0.021498 0.055064 -0.030000
# 6 0.006898 0.015507 -0.012194 -0.032811 -0.030000 0.057036
#
#
# Mechanical properties :
#
#
# Convention : Reuss Voigt Hill
#
# Bulk Modulus (GPa) = 62.20258 72.82890 67.51574
# Shear Modulus (GPa) = 19.66086 32.84974 26.25530
#
# Velocity S-wave (km/s) = 2.96808 3.83655 3.42992
# Velocity P-wave (km/s) = 6.29424 7.22899 6.77774
#
# Compressibility (1/GPa) = 0.01607650
#
# Stress axis : x y z
#
# Youngs Moduli (GPa) = 87.63226 50.06226 58.47074
#
# Poissons Ratio (x) = 0.12035 0.27818
# Poissons Ratio (y) = 0.21068 0.52884
# Poissons Ratio (z) = 0.41692 0.45279
#
# Static dielectric constant tensor:
#      x y z
#    x 4.383240 -0.152630 0.118730 
#    y -0.152630 4.007140 0.059780 
#    z 0.118730 0.059780 3.948970 
# 
# 
# High freq. dielectric constant tensor:
#      x y z
#    x 1.901670 -0.010240 0.007520 
#    y -0.010240 1.875620 0.008740 
#    z 0.007520 0.008740 1.872610 
# 
# From -- ./inp_files/327508.got.cif
#   From: 2010.06.25/outbox.cif.g09.slc.cpg/sg2_164_cif.got.tgz:327508.got - 2010.06.27 13:26:56.
