data_PCOD8015015
_publ_section_title
;
Structure prediction by ZEFSAII (Michael W. Deem and Ramdas Pophale) SiO2 
 PCOD8015015
Probable space group: P -1
;
_chemical_formula_sum "Si O2"
_cell_formula_units_Z 16
_cell_length_a 8.941235
_cell_length_b 11.538672
_cell_length_c 19.804413
_cell_angle_alpha 38.724777
_cell_angle_beta 137.467189
_cell_angle_gamma 109.994007
_cell_volume 721.141274
_symmetry_space_group_name_H-M "P -1"
_symmetry_group_IT_number 2
_symmetry_cell_setting 'triclinic'
loop_
_space_group_symop_operation_xyz
x,y,z
-x,-y,-z
loop_
_atom_site_type_symbol
_atom_site_label
_atom_site_fract_x
_atom_site_fract_y
_atom_site_fract_z
Si Si1 0.643990 0.893298 0.724116
Si Si2 0.584809 0.577467 0.769306
Si Si3 0.747960 0.944047 0.994600
Si Si4 0.985425 0.816070 0.990590
Si Si5 0.094515 0.990082 0.352280
Si Si6 0.961790 0.834944 0.607828
Si Si7 0.807265 0.522153 0.257958
Si Si8 0.152897 0.280339 0.606346
O O1 0.683229 0.655671 0.830025
O O2 0.713391 0.916825 0.813023
O O3 0.859348 0.899861 0.746087
O O4 0.341620 0.093573 0.522578
O O5 0.380358 0.799226 0.560763
O O6 0.453036 0.449728 0.809456
O O7 0.815508 0.428532 0.861207
O O8 0.732298 0.772427 0.115379
O O9 0.930258 0.801625 0.056912
O O10 0.892829 0.034988 0.044907
O O11 0.467213 0.153619 0.779554
O O12 0.925118 0.890388 0.318876
O O13 0.943010 0.165837 0.283515
O O14 0.138271 0.588779 0.747476
O O15 0.000000 0.000000 0.500000
O O16 0.066648 0.359925 0.464033
O O17 0.000000 0.500000 0.500000
#
# Coordination Sequence:
#
# PCOD8015015 Si02
#       8
#     2   2   2   2   2   2   2   2
#     4  11  23  40  67  96 132 174 218 271 338 396
#     4  10  21  42  64  98 131 170 217 273 333 396
#     4  11  27  46  65 100 134 176 227 272 330 391
#     4  11  26  45  61  94 142 167 217 283 323 396
#     4  10  23  38  68  99 127 176 222 268 336 393
#     4  11  19  42  67  96 137 167 220 279 325 394
#     4  11  24  42  74  98 129 182 219 275 336 384
#     4  11  24  45  70  98 134 174 230 274 319 402
#
# _framework density 22.187054
#
# number of rings (size 3 to 8) (size 9 to 14) (size 15 to 20)
#    0.000    1.250    3.750    4.125    7.000    1.000 
#    0.000    3.125    0.000    0.000    0.000    0.000 
#    0.000    0.000    0.000    0.000    0.000    0.000 
#
# Total GULP energy -198413.768788 kJ/mol
# GULP energy per Si atom -12400.860549 kJ/mol
# Density = 2.213656 g / cm^3
# Si number density = 22.187054 Si / 1000 Ang^3
#
#
#
# Elastic Constant Matrix: (Units=GPa)
#
#
# Indices 1 2 3 4 5 6 
#
# 1 62.6678 11.7491 11.7302 -0.9323 2.1851 5.1750
# 2 11.7491 121.8226 28.1184 9.1970 3.0292 4.0605
# 3 11.7302 28.1184 58.1062 -2.4997 11.5626 8.5701
# 4 -0.9323 9.1970 -2.4997 32.5724 -1.0085 5.7117
# 5 2.1851 3.0292 11.5626 -1.0085 36.7169 -10.2741
# 6 5.1750 4.0605 8.5701 5.7117 -10.2741 39.6570
#
#
#
# Elastic Compliance Matrix: (Units=1/GPa)
#
#
# Indices 1 2 3 4 5 6 
#
# 1 0.016800 -0.001045 -0.002448 0.000893 -0.000636 -0.001849
# 2 -0.001045 0.009638 -0.004930 -0.003264 0.000994 0.000943
# 3 -0.002448 -0.004930 0.022979 0.004037 -0.008512 -0.006928
# 4 0.000893 -0.003264 0.004037 0.032930 -0.001791 -0.005861
# 5 -0.000636 0.000994 -0.008512 -0.001791 0.032781 0.010571
# 6 -0.001849 0.000943 -0.006928 -0.005861 0.010571 0.030441
#
#
# Mechanical properties :
#
#
# Convention : Reuss Voigt Hill
#
# Bulk Modulus (GPa) = 30.70311 38.42133 34.56222
# Shear Modulus (GPa) = 28.85655 34.52251 31.68953
#
# Velocity S-wave (km/s) = 3.61030 3.94886 3.78337
# Velocity P-wave (km/s) = 5.58993 6.17624 5.89039
#
# Compressibility (1/GPa) = 0.03257000
#
# Stress axis : x y z
#
# Youngs Moduli (GPa) = 59.52557 103.75973 43.51801
#
# Poissons Ratio (x) = 0.10844 0.10653
# Poissons Ratio (y) = 0.06221 0.21454
# Poissons Ratio (z) = 0.14572 0.51153
#
# Static dielectric constant tensor:
#      x y z
#    x 3.956820 -0.054030 0.146130 
#    y -0.054030 4.334710 0.098570 
#    z 0.146130 0.098570 3.677290 
# 
# 
# High freq. dielectric constant tensor:
#      x y z
#    x 1.872350 -0.001790 0.013400 
#    y -0.001790 1.894140 0.000530 
#    z 0.013400 0.000530 1.849480 
# 
# From -- ./inp_files/205398.got.cif
#   From: 2010.06.25/outbox.cif.g09.slc.cpg/sg2_103_cif.got.tgz:205398.got - 2010.06.27 13:26:56.
