data_PCOD8015038
_publ_section_title
;
Structure prediction by ZEFSAII (Michael W. Deem and Ramdas Pophale) SiO2 
 PCOD8015038
Probable space group: P -1
;
_chemical_formula_sum "Si O2"
_cell_formula_units_Z 14
_cell_length_a 6.715789
_cell_length_b 14.215159
_cell_length_c 9.327150
_cell_angle_alpha 127.833816
_cell_angle_beta 72.648169
_cell_angle_gamma 76.808884
_cell_volume 562.634907
_symmetry_space_group_name_H-M "P -1"
_symmetry_group_IT_number 2
_symmetry_cell_setting 'triclinic'
loop_
_space_group_symop_operation_xyz
x,y,z
-x,-y,-z
loop_
_atom_site_type_symbol
_atom_site_label
_atom_site_fract_x
_atom_site_fract_y
_atom_site_fract_z
Si Si1 0.780013 0.519150 0.965396
Si Si2 0.971405 0.715242 0.545694
Si Si3 0.635474 0.631633 0.634903
Si Si4 0.223325 0.852445 0.762305
Si Si5 0.329172 0.557399 0.804255
Si Si6 0.435662 0.077441 0.379833
Si Si7 0.764273 0.782600 0.150239
O O1 0.119737 0.603975 0.285600
O O2 0.604512 0.501872 0.101038
O O3 0.666368 0.675286 0.065998
O O4 0.000000 0.500000 0.000000
O O5 0.151445 0.744157 0.621534
O O6 0.869350 0.648622 0.622560
O O7 0.747482 0.862690 0.662213
O O8 0.390052 0.786337 0.806258
O O9 0.570571 0.564080 0.717433
O O10 0.686718 0.549890 0.396905
O O11 0.372523 0.872065 0.622103
O O12 0.000000 0.000000 0.000000
O O13 0.060160 0.705314 0.985311
O O14 0.277364 0.140797 0.616854
O O15 0.597235 0.904555 0.182362
#
# Coordination Sequence:
#
# PCOD8015038 Si02
#       7
#     2   2   2   2   2   2   2
#     4  10  16  35  71  94 131 172 207 279 329 376
#     4  11  21  42  72  96 131 176 225 270 332 404
#     4  10  21  38  68  97 131 179 217 265 337 397
#     4  11  25  44  66  94 136 173 229 280 326 394
#     4  10  18  36  68  97 139 170 210 278 328 385
#     4  10  21  38  68  97 131 179 217 265 337 397
#     4  10  18  36  68  97 139 170 210 278 328 385
#
# _framework density 24.882921
#
# number of rings (size 3 to 8) (size 9 to 14) (size 15 to 20)
#    0.000    1.714    5.714    1.714    0.000    2.286 
#    0.000    8.571   18.857    0.000    0.000    0.000 
#    0.000    0.000    0.000    0.000    0.000    0.000 
#
# Total GULP energy -173569.107743 kJ/mol
# GULP energy per Si atom -12397.793410 kJ/mol
# Density = 2.482629 g / cm^3
# Si number density = 24.882921 Si / 1000 Ang^3
#
#
#
# Elastic Constant Matrix: (Units=GPa)
#
#
# Indices 1 2 3 4 5 6 
#
# 1 67.4618 27.2095 19.6006 -13.0105 -0.5223 26.1142
# 2 27.2095 146.0229 18.8124 -3.8356 -3.0350 37.0679
# 3 19.6006 18.8124 91.7751 -2.0983 -3.6747 20.0583
# 4 -13.0105 -3.8356 -2.0983 45.0746 10.0960 -8.5563
# 5 -0.5223 -3.0350 -3.6747 10.0960 28.5528 -3.2186
# 6 26.1142 37.0679 20.0583 -8.5563 -3.2186 34.8740
#
#
#
# Elastic Compliance Matrix: (Units=1/GPa)
#
#
# Indices 1 2 3 4 5 6 
#
# 1 0.021685 -0.000113 -0.001450 0.004065 -0.002880 -0.014553
# 2 -0.000113 0.009448 0.000353 -0.001266 0.000318 -0.010442
# 3 -0.001450 0.000353 0.012637 -0.001392 0.001366 -0.006774
# 4 0.004065 -0.001266 -0.001392 0.026074 -0.008932 0.004675
# 5 -0.002880 0.000318 0.001366 -0.008932 0.038609 0.002404
# 6 -0.014553 -0.010442 -0.006774 0.004675 0.002404 0.055936
#
#
# Mechanical properties :
#
#
# Convention : Reuss Voigt Hill
#
# Bulk Modulus (GPa) = 24.18328 48.50055 36.34192
# Shear Modulus (GPa) = 27.68693 37.67610 32.68152
#
# Velocity S-wave (km/s) = 3.33932 3.89541 3.62803
# Velocity P-wave (km/s) = 4.96064 6.30604 5.67336
#
# Compressibility (1/GPa) = 0.04135088
#
# Stress axis : x y z
#
# Youngs Moduli (GPa) = 46.11524 105.84424 79.13448
#
# Poissons Ratio (x) = 0.01194 0.11474
# Poissons Ratio (y) = 0.00520 -0.02797
# Poissons Ratio (z) = 0.06686 -0.03741
#
# Static dielectric constant tensor:
#      x y z
#    x 5.693970 0.292080 -0.093450 
#    y 0.292080 5.308110 0.008070 
#    z -0.093450 0.008070 4.726060 
# 
# 
# High freq. dielectric constant tensor:
#      x y z
#    x 1.972200 0.004330 -0.019150 
#    y 0.004330 2.006160 0.003150 
#    z -0.019150 0.003150 2.002830 
# 
# From -- ./inp_files/68309.got.cif
#   From: 2010.06.25/outbox.cif.g09.slc.cpg/sg2_35_cif.got.tgz:68309.got - 2010.06.27 13:26:56.
