data_PCOD8015938
_publ_section_title
;
Structure prediction by ZEFSAII (Michael W. Deem and Ramdas Pophale) SiO2 
 PCOD8015938
Probable space group: P -1
;
_chemical_formula_sum "Si O2"
_cell_formula_units_Z 16
_cell_length_a 9.010440
_cell_length_b 8.327461
_cell_length_c 11.813114
_cell_angle_alpha 80.245575
_cell_angle_beta 84.973258
_cell_angle_gamma 57.723302
_cell_volume 738.582289
_symmetry_space_group_name_H-M "P -1"
_symmetry_group_IT_number 2
_symmetry_cell_setting 'triclinic'
loop_
_space_group_symop_operation_xyz
x,y,z
-x,-y,-z
loop_
_atom_site_type_symbol
_atom_site_label
_atom_site_fract_x
_atom_site_fract_y
_atom_site_fract_z
Si Si1 0.417093 0.488932 0.305961
Si Si2 0.367732 0.223367 0.494866
Si Si3 0.514655 0.665309 0.922537
Si Si4 0.937097 0.799586 0.563501
Si Si5 0.925499 0.106929 0.670572
Si Si6 0.128050 0.887625 0.902840
Si Si7 0.730732 0.553123 0.308831
Si Si8 0.828816 0.522774 0.062885
O O1 0.442801 0.348466 0.424543
O O2 0.411592 0.389934 0.202775
O O3 0.239383 0.692012 0.305615
O O4 0.578489 0.518322 0.286784
O O5 0.190733 0.281092 0.431397
O O6 0.337273 0.265893 0.625559
O O7 0.500000 0.000000 0.500000
O O8 0.320144 0.858742 0.914803
O O9 0.500000 0.500000 0.000000
O O10 0.658712 0.682332 0.983648
O O11 0.954166 0.871372 0.431134
O O12 0.125279 0.633131 0.612002
O O13 0.858043 0.974976 0.637533
O O14 0.049596 0.007428 0.780544
O O15 0.151753 0.682060 0.912825
O O16 0.000000 0.000000 0.000000
O O17 0.807846 0.593430 0.185943
O O18 0.000000 0.500000 0.000000
#
# Coordination Sequence:
#
# PCOD8015938 Si02
#       8
#     2   2   2   2   2   2   2   2
#     4  12  24  43  74  96 136 184 225 281 345 414
#     4  12  29  43  67 102 140 176 232 283 348 404
#     4  10  21  43  67  97 131 176 228 276 332 407
#     4  11  25  44  65 101 139 174 226 284 335 413
#     4  11  23  40  74  98 135 180 230 273 346 407
#     4  11  23  43  71 101 132 176 235 281 335 412
#     4  12  24  48  70  96 140 181 230 280 347 413
#     4  11  25  45  70 100 139 182 226 285 348 403
#
# _framework density 21.663125000000001
#
# number of rings (size 3 to 8) (size 9 to 14) (size 15 to 20)
#    0.000    0.750    5.000    3.000    7.000    1.000 
#    0.000    0.625    0.000    0.000    0.000    0.000 
#    0.000    0.000    0.000    0.000    0.000    0.000 
#
# Total GULP energy -198456.145417 kJ/mol
# GULP energy per Si atom -12403.509089 kJ/mol
# Density = 2.161382 g / cm^3
# Si number density = 21.663125 Si / 1000 Ang^3
#
#
#
# Elastic Constant Matrix: (Units=GPa)
#
#
# Indices 1 2 3 4 5 6 
#
# 1 100.0901 32.7698 49.8861 -6.1694 2.6250 -20.0109
# 2 32.7698 130.6289 66.6001 11.4227 1.4194 -24.7889
# 3 49.8861 66.6001 173.1267 14.6141 8.3368 -22.5543
# 4 -6.1694 11.4227 14.6141 42.6939 -7.1279 2.7587
# 5 2.6250 1.4194 8.3368 -7.1279 28.8753 -0.4946
# 6 -20.0109 -24.7889 -22.5543 2.7587 -0.4946 30.7450
#
#
#
# Elastic Compliance Matrix: (Units=1/GPa)
#
#
# Indices 1 2 3 4 5 6 
#
# 1 0.013004 -0.001032 -0.002941 0.002913 0.000526 0.005221
# 2 -0.001032 0.010732 -0.002817 -0.002474 -0.000126 0.006135
# 3 -0.002941 -0.002817 0.008394 -0.003147 -0.002757 0.002210
# 4 0.002913 -0.002474 -0.003147 0.027120 0.007379 -0.004723
# 5 0.000526 -0.000126 -0.002757 0.007379 0.037176 -0.001846
# 6 0.005221 0.006135 0.002210 -0.004723 -0.001846 0.042886
#
#
# Mechanical properties :
#
#
# Convention : Reuss Voigt Hill
#
# Bulk Modulus (GPa) = 53.91004 78.03973 65.97489
# Shear Modulus (GPa) = 31.43156 37.43548 34.43352
#
# Velocity S-wave (km/s) = 3.81323 4.16152 3.99118
# Velocity P-wave (km/s) = 6.65788 7.69373 7.19447
#
# Compressibility (1/GPa) = 0.01854942
#
# Stress axis : x y z
#
# Youngs Moduli (GPa) = 76.89652 93.17622 119.13847
#
# Poissons Ratio (x) = 0.09620 0.35039
# Poissons Ratio (y) = 0.07939 0.33562
# Poissons Ratio (z) = 0.22615 0.26248
#
# Static dielectric constant tensor:
#      x y z
#    x 4.078210 -0.355340 0.043120 
#    y -0.355340 4.090890 0.041860 
#    z 0.043120 0.041860 4.008760 
# 
# 
# High freq. dielectric constant tensor:
#      x y z
#    x 1.846210 -0.019380 0.007140 
#    y -0.019380 1.849570 0.007260 
#    z 0.007140 0.007260 1.869160 
# 
# From -- ./inp_files/307489.got.cif
#   From: 2010.06.25/outbox.cif.g09.slc.cpg/sg2_154_cif.got.tgz:307489.got - 2010.06.27 13:26:56.
