data_PCOD8015074
_publ_section_title
;
Structure prediction by ZEFSAII (Michael W. Deem and Ramdas Pophale) SiO2 
 PCOD8015074
Probable space group: P -1
;
_chemical_formula_sum "Si O2"
_cell_formula_units_Z 16
_cell_length_a 8.093049
_cell_length_b 11.525745
_cell_length_c 13.669168
_cell_angle_alpha 108.581627
_cell_angle_beta 42.637022
_cell_angle_gamma 122.914076
_cell_volume 717.611957
_symmetry_space_group_name_H-M "P -1"
_symmetry_group_IT_number 2
_symmetry_cell_setting 'triclinic'
loop_
_space_group_symop_operation_xyz
x,y,z
-x,-y,-z
loop_
_atom_site_type_symbol
_atom_site_label
_atom_site_fract_x
_atom_site_fract_y
_atom_site_fract_z
Si Si1 0.789452 0.443682 0.382791
Si Si2 0.770964 0.092036 0.514277
Si Si3 0.712518 0.358021 0.092706
Si Si4 0.253651 0.828218 0.659190
Si Si5 0.157538 0.866678 0.923317
Si Si6 0.342481 0.590181 0.081022
Si Si7 0.700504 0.665176 0.575156
Si Si8 0.587791 0.840594 0.183746
O O1 0.821191 0.322782 0.391920
O O2 0.831737 0.561626 0.474921
O O3 0.478763 0.357622 0.450343
O O4 0.007798 0.496603 0.211521
O O5 0.835205 0.105351 0.373493
O O6 0.572587 0.159375 0.647718
O O7 0.056630 0.173122 0.474090
O O8 0.583683 0.925457 0.571204
O O9 0.737424 0.225284 0.086419
O O10 0.496090 0.382539 0.257876
O O11 0.585053 0.327592 0.031026
O O12 0.000000 0.500000 0.000000
O O13 0.078414 0.810904 0.830171
O O14 0.383867 0.031084 0.863671
O O15 0.884329 0.856171 0.090601
O O16 0.417720 0.696295 0.164967
O O17 0.500000 0.500000 0.000000
#
# Coordination Sequence:
#
# PCOD8015074 Si02
#       8
#     2   2   2   2   2   2   2   2
#     4  11  23  43  64  93 133 170 215 273 334 385
#     4  10  23  41  65  95 129 168 218 263 332 393
#     4  12  24  43  65  94 130 172 218 266 335 390
#     4  10  21  42  65  95 125 168 218 267 322 392
#     4  10  22  44  68  91 132 172 218 273 327 391
#     4  12  25  42  69  96 130 172 223 273 330 394
#     4  11  24  42  62  94 130 170 215 271 327 393
#     4  10  22  44  66  95 129 170 220 272 326 391
#
# _framework density 22.296173
#
# number of rings (size 3 to 8) (size 9 to 14) (size 15 to 20)
#    0.000    1.250    3.750    1.500    3.500    3.500 
#    0.000    0.000    0.000    0.000    0.000    0.000 
#    0.000    0.000    0.000    0.000    0.000    0.000 
#
# Total GULP energy -198250.366164 kJ/mol
# GULP energy per Si atom -12390.647885 kJ/mol
# Density = 2.224543 g / cm^3
# Si number density = 22.296173 Si / 1000 Ang^3
#
#
#
# Elastic Constant Matrix: (Units=GPa)
#
#
# Indices 1 2 3 4 5 6 
#
# 1 70.2180 16.0786 23.0158 6.8905 6.5808 -8.6845
# 2 16.0786 106.6506 16.6708 7.1749 -2.3800 -7.2958
# 3 23.0158 16.6708 115.3060 14.4699 -2.4493 -10.1634
# 4 6.8905 7.1749 14.4699 29.6829 5.2166 -7.0271
# 5 6.5808 -2.3800 -2.4493 5.2166 29.9957 -5.5362
# 6 -8.6845 -7.2958 -10.1634 -7.0271 -5.5362 38.2404
#
#
#
# Elastic Compliance Matrix: (Units=1/GPa)
#
#
# Indices 1 2 3 4 5 6 
#
# 1 0.016227 -0.001899 -0.002753 -0.000908 -0.003422 0.001929
# 2 -0.001899 0.010006 -0.000720 -0.001628 0.001662 0.001228
# 3 -0.002753 -0.000720 0.010026 -0.004138 0.002359 0.001483
# 4 -0.000908 -0.001628 -0.004138 0.038467 -0.006115 0.004567
# 5 -0.003422 0.001662 0.002359 -0.006115 0.036269 0.004294
# 6 0.001929 0.001228 0.001483 0.004567 0.004294 0.028678
#
#
# Mechanical properties :
#
#
# Convention : Reuss Voigt Hill
#
# Bulk Modulus (GPa) = 39.19297 44.85612 42.02454
# Shear Modulus (GPa) = 31.46196 35.34444 33.40320
#
# Velocity S-wave (km/s) = 3.76053 3.98581 3.87480
# Velocity P-wave (km/s) = 6.03920 6.42995 6.23763
#
# Compressibility (1/GPa) = 0.02551478
#
# Stress axis : x y z
#
# Youngs Moduli (GPa) = 61.62561 99.94142 99.73764
#
# Poissons Ratio (x) = 0.18983 0.27459
# Poissons Ratio (y) = 0.11705 0.07178
# Poissons Ratio (z) = 0.16967 0.07192
#
# Static dielectric constant tensor:
#      x y z
#    x 3.666910 0.072760 -0.122060 
#    y 0.072760 4.328730 0.021590 
#    z -0.122060 0.021590 4.269660 
# 
# 
# High freq. dielectric constant tensor:
#      x y z
#    x 1.840270 0.011160 -0.002300 
#    y 0.011160 1.892210 -0.001280 
#    z -0.002300 -0.001280 1.889750 
# 
# From -- ./inp_files/399768.got.cif
#   From: 2010.06.25/outbox.cif.g09.slc.cpg/sg2_200_cif.got.tgz:399768.got - 2010.06.27 13:26:56.
