data_PCOD8015289
_publ_section_title
;
Structure prediction by ZEFSAII (Michael W. Deem and Ramdas Pophale) SiO2 
 PCOD8015289
Probable space group: P -1
;
_chemical_formula_sum "Si O2"
_cell_formula_units_Z 16
_cell_length_a 8.732987
_cell_length_b 13.473118
_cell_length_c 8.252641
_cell_angle_alpha 91.784299
_cell_angle_beta 130.230592
_cell_angle_gamma 89.786026
_cell_volume 740.789061
_symmetry_space_group_name_H-M "P -1"
_symmetry_group_IT_number 2
_symmetry_cell_setting 'triclinic'
loop_
_space_group_symop_operation_xyz
x,y,z
-x,-y,-z
loop_
_atom_site_type_symbol
_atom_site_label
_atom_site_fract_x
_atom_site_fract_y
_atom_site_fract_z
Si Si1 0.525210 0.083607 0.391412
Si Si2 0.222355 0.742234 0.884788
Si Si3 0.089521 0.424601 0.426341
Si Si4 0.791706 0.234073 0.746910
Si Si5 0.487323 0.580490 0.130625
Si Si6 0.286410 0.543058 0.305247
Si Si7 0.103563 0.072472 0.940683
Si Si8 0.290724 0.953604 0.798936
O O1 0.590366 0.182339 0.537426
O O2 0.321721 0.105700 0.157492
O O3 0.702465 0.044639 0.391773
O O4 0.500000 0.000000 0.500000
O O5 0.257305 0.838254 0.807662
O O6 0.038885 0.676222 0.682636
O O7 0.190291 0.772983 0.048702
O O8 0.426459 0.681309 0.006342
O O9 0.309907 0.396708 0.634252
O O10 0.112758 0.473939 0.264514
O O11 0.000000 0.500000 0.500000
O O12 0.773335 0.345930 0.672029
O O13 0.984637 0.172046 0.819802
O O14 0.300984 0.546117 0.119674
O O15 0.500000 0.500000 0.000000
O O16 0.500000 0.500000 0.500000
O O17 0.118769 0.014908 0.775211
O O18 0.000000 0.000000 0.000000
O O19 0.500000 0.000000 0.000000
#
# Coordination Sequence:
#
# PCOD8015289 Si02
#       8
#     2   2   2   2   2   2   2   2
#     4  11  23  42  69  93 134 181 218 278 339 400
#     4  11  23  43  66  96 136 174 226 275 338 407
#     4  11  23  43  67  96 135 172 221 283 331 397
#     4  11  23  41  68  98 132 177 228 270 342 394
#     4  10  21  42  67  94 130 176 221 276 334 398
#     4   9  23  43  65  95 136 174 224 274 340 401
#     4  11  21  44  67  99 137 171 223 283 328 404
#     4  10  23  44  67  97 139 177 221 277 340 406
#
# _framework density 21.598593000000001
#
# number of rings (size 3 to 8) (size 9 to 14) (size 15 to 20)
#    0.000    1.500    3.750    0.750    1.750    5.500 
#    4.500    1.250    0.000    0.000    0.000    0.000 
#    0.000    0.000    0.000    0.000    0.000    0.000 
#
# Total GULP energy -198228.032683 kJ/mol
# GULP energy per Si atom -12389.252043 kJ/mol
# Density = 2.154943 g / cm^3
# Si number density = 21.598593 Si / 1000 Ang^3
#
#
#
# Elastic Constant Matrix: (Units=GPa)
#
#
# Indices 1 2 3 4 5 6 
#
# 1 137.3813 75.6243 42.2973 3.4694 -12.4438 -9.3049
# 2 75.6243 163.5486 50.4794 1.6567 1.7593 -8.4021
# 3 42.2973 50.4794 94.1231 18.9857 7.2572 -1.4187
# 4 3.4694 1.6567 18.9857 42.8482 -6.1711 7.3745
# 5 -12.4438 1.7593 7.2572 -6.1711 41.2874 -0.8419
# 6 -9.3049 -8.4021 -1.4187 7.3745 -0.8419 43.7868
#
#
#
# Elastic Compliance Matrix: (Units=1/GPa)
#
#
# Indices 1 2 3 4 5 6 
#
# 1 0.010965 -0.004043 -0.003290 0.001107 0.004248 0.001343
# 2 -0.004043 0.008985 -0.003162 0.001162 -0.000861 0.000550
# 3 -0.003290 -0.003162 0.015631 -0.007270 -0.004684 0.000335
# 4 0.001107 0.001162 -0.007270 0.027994 0.005657 -0.004383
# 5 0.004248 -0.000861 -0.004684 0.005657 0.027210 0.000156
# 6 0.001343 0.000550 0.000335 -0.004383 0.000156 0.023981
#
#
# Mechanical properties :
#
#
# Convention : Reuss Voigt Hill
#
# Bulk Modulus (GPa) = 68.52911 81.31722 74.92317
# Shear Modulus (GPa) = 35.55681 40.69461 38.12571
#
# Velocity S-wave (km/s) = 4.06181 4.34537 4.20598
# Velocity P-wave (km/s) = 7.33452 7.93142 7.63880
#
# Compressibility (1/GPa) = 0.01459234
#
# Stress axis : x y z
#
# Youngs Moduli (GPa) = 91.19808 111.29088 63.97410
#
# Poissons Ratio (x) = 0.44992 0.21047
# Poissons Ratio (y) = 0.36869 0.20229
# Poissons Ratio (z) = 0.30004 0.35191
#
# Static dielectric constant tensor:
#      x y z
#    x 4.428320 -0.190020 -0.184010 
#    y -0.190020 4.102820 0.028020 
#    z -0.184010 0.028020 4.040200 
# 
# 
# High freq. dielectric constant tensor:
#      x y z
#    x 1.861050 -0.009180 -0.005620 
#    y -0.009180 1.847190 0.001430 
#    z -0.005620 0.001430 1.850260 
# 
# From -- ./inp_files/188069.got.cif
#   From: 2010.06.25/outbox.cif.g09.slc.cpg/sg2_95_cif.got.tgz:188069.got - 2010.06.27 13:26:56.
