data_PCOD8015049
_publ_section_title
;
Structure prediction by ZEFSAII (Michael W. Deem and Ramdas Pophale) SiO2 
 PCOD8015049
Probable space group: P -1
;
_chemical_formula_sum "Si O2"
_cell_formula_units_Z 14
_cell_length_a 13.651503
_cell_length_b 13.323972
_cell_length_c 8.505305
_cell_angle_alpha 106.272214
_cell_angle_beta 128.977323
_cell_angle_gamma 35.508659
_cell_volume 599.437197
_symmetry_space_group_name_H-M "P -1"
_symmetry_group_IT_number 2
_symmetry_cell_setting 'triclinic'
loop_
_space_group_symop_operation_xyz
x,y,z
-x,-y,-z
loop_
_atom_site_type_symbol
_atom_site_label
_atom_site_fract_x
_atom_site_fract_y
_atom_site_fract_z
Si Si1 0.618399 0.813952 0.967413
Si Si2 0.942005 0.204839 0.123889
Si Si3 0.171974 0.795206 0.666525
Si Si4 0.495639 0.431017 0.615657
Si Si5 0.628970 0.601385 0.079815
Si Si6 0.882982 0.532312 0.551584
Si Si7 0.512976 0.177792 0.497063
O O1 0.520429 0.861825 0.715503
O O2 0.553788 0.762871 0.993250
O O3 0.906867 0.633810 0.180859
O O4 0.500000 0.000000 0.000000
O O5 0.977208 0.151428 0.319693
O O6 0.812958 0.409563 0.065874
O O7 0.768859 0.242322 0.881939
O O8 0.212354 0.023176 0.247096
O O9 0.275894 0.631567 0.586994
O O10 0.397054 0.696732 0.926269
O O11 0.000000 0.000000 0.500000
O O12 0.500000 0.500000 0.500000
O O13 0.437518 0.352860 0.474527
O O14 0.750435 0.524703 0.342014
O O15 0.666767 0.746803 0.520317
O O16 0.000000 0.500000 0.500000
#
# Coordination Sequence:
#
# PCOD8015049 Si02
#       7
#     2   2   2   2   2   2   2
#     4  11  24  44  66  92 125 170 230 282 329 388
#     4  11  22  40  65  98 135 173 214 262 334 414
#     4  11  22  39  66 101 137 177 216 260 327 410
#     4  11  23  39  64 102 138 170 217 267 326 409
#     4  10  21  42  65  90 130 176 214 271 331 387
#     4  10  23  43  64  89 123 168 224 274 325 385
#     4  12  23  41  67  94 130 174 214 280 339 385
#
# _framework density 23.355239999999998
#
# number of rings (size 3 to 8) (size 9 to 14) (size 15 to 20)
#    0.000    1.143    0.000    8.571    0.000    2.286 
#    0.000   15.714    0.000    0.000    0.000    0.000 
#    0.000    0.000    0.000    0.000    0.000    0.000 
#
# Total GULP energy -173519.170448 kJ/mol
# GULP energy per Si atom -12394.226461 kJ/mol
# Density = 2.330208 g / cm^3
# Si number density = 23.355240 Si / 1000 Ang^3
#
#
#
# Elastic Constant Matrix: (Units=GPa)
#
#
# Indices 1 2 3 4 5 6 
#
# 1 87.7878 54.0212 10.0245 -5.8729 -8.4496 -9.9922
# 2 54.0212 130.5275 58.1031 -5.2941 18.3464 -4.7085
# 3 10.0245 58.1031 107.3726 0.0510 7.7404 -12.2751
# 4 -5.8729 -5.2941 0.0510 51.3158 -3.3330 7.0175
# 5 -8.4496 18.3464 7.7404 -3.3330 28.8987 -3.9964
# 6 -9.9922 -4.7085 -12.2751 7.0175 -3.9964 46.1812
#
#
#
# Elastic Compliance Matrix: (Units=1/GPa)
#
#
# Indices 1 2 3 4 5 6 
#
# 1 0.020086 -0.011757 0.004137 0.001222 0.013088 0.005194
# 2 -0.011757 0.017824 -0.008063 0.000201 -0.013129 -0.004036
# 3 0.004137 -0.008063 0.013524 -0.000719 0.003183 0.004053
# 4 0.001222 0.000201 -0.000719 0.020181 0.002367 -0.002768
# 5 0.013088 -0.013129 0.003183 0.002367 0.047022 0.006049
# 6 0.005194 -0.004036 0.004053 -0.002768 0.006049 0.024387
#
#
# Mechanical properties :
#
#
# Convention : Reuss Voigt Hill
#
# Bulk Modulus (GPa) = 49.82997 63.33171 56.58084
# Shear Modulus (GPa) = 27.61195 38.84841 33.23018
#
# Velocity S-wave (km/s) = 3.44213 4.08287 3.77611
# Velocity P-wave (km/s) = 6.09751 7.02865 6.57958
#
# Compressibility (1/GPa) = 0.02006824
#
# Stress axis : x y z
#
# Youngs Moduli (GPa) = 49.78505 56.10396 73.94087
#
# Poissons Ratio (x) = 0.65963 -0.30587
# Poissons Ratio (y) = 0.58533 0.59616
# Poissons Ratio (z) = -0.20594 0.45235
#
# Static dielectric constant tensor:
#      x y z
#    x 4.141160 -0.055260 0.286010 
#    y -0.055260 4.406250 0.016420 
#    z 0.286010 0.016420 4.784430 
# 
# 
# High freq. dielectric constant tensor:
#      x y z
#    x 1.913700 -0.004710 0.011790 
#    y -0.004710 1.926830 0.002980 
#    z 0.011790 0.002980 1.937040 
# 
# From -- ./inp_files/315693.got.cif
#   From: 2010.06.25/outbox.cif.g09.slc.cpg/sg2_158_cif.got.tgz:315693.got - 2010.06.27 13:26:56.
