data_PCOD8015632
_publ_section_title
;
Structure prediction by ZEFSAII (Michael W. Deem and Ramdas Pophale) SiO2 
 PCOD8015632
Probable space group: P -1
;
_chemical_formula_sum "Si O2"
_cell_formula_units_Z 16
_cell_length_a 9.068479
_cell_length_b 11.692366
_cell_length_c 8.876708
_cell_angle_alpha 122.376141
_cell_angle_beta 83.432719
_cell_angle_gamma 117.887156
_cell_volume 690.817625
_symmetry_space_group_name_H-M "P -1"
_symmetry_group_IT_number 2
_symmetry_cell_setting 'triclinic'
loop_
_space_group_symop_operation_xyz
x,y,z
-x,-y,-z
loop_
_atom_site_type_symbol
_atom_site_label
_atom_site_fract_x
_atom_site_fract_y
_atom_site_fract_z
Si Si1 0.893121 0.513694 0.679891
Si Si2 0.832206 0.944083 0.276623
Si Si3 0.159241 0.931225 0.313123
Si Si4 0.559745 0.463805 0.618270
Si Si5 0.529192 0.835509 0.720913
Si Si6 0.515591 0.701956 0.955338
Si Si7 0.817773 0.368225 0.884577
Si Si8 0.839814 0.225193 0.308399
O O1 0.761162 0.543535 0.620406
O O2 0.781756 0.440205 0.791262
O O3 0.926772 0.378311 0.513443
O O4 0.062076 0.685431 0.796067
O O5 0.795892 0.965439 0.468891
O O6 0.886072 0.098195 0.277842
O O7 0.987359 0.905916 0.233182
O O8 0.662881 0.802611 0.127892
O O9 0.154324 0.775668 0.258367
O O10 0.307176 0.003255 0.221538
O O11 0.500000 0.500000 0.500000
O O12 0.480893 0.277680 0.495271
O O13 0.508634 0.535168 0.817093
O O14 0.555333 0.786665 0.849297
O O15 0.361792 0.855730 0.748092
O O16 0.332042 0.671250 0.008320
O O17 0.000000 0.500000 0.000000
#
# Coordination Sequence:
#
# PCOD8015632 Si02
#       8
#     2   2   2   2   2   2   2   2
#     4  10  22  41  69 101 135 181 227 284 335 413
#     4  11  26  45  72 104 139 180 233 290 342 417
#     4  11  27  48  69 102 143 184 228 286 355 404
#     4   9  22  43  68 104 136 178 228 286 348 401
#     4  10  23  46  73  99 139 185 226 288 342 419
#     4  11  26  44  72 106 136 185 234 283 346 417
#     4  12  27  45  69 101 144 181 230 287 345 407
#     4  10  21  42  73 100 131 182 235 269 347 412
#
# _framework density 23.160961
#
# number of rings (size 3 to 8) (size 9 to 14) (size 15 to 20)
#    0.000    1.500    1.250    1.500    8.750    8.000 
#    0.000    0.000    0.000    0.000    0.000    0.000 
#    0.000    0.000    0.000    0.000    0.000    0.000 
#
# Total GULP energy -198225.720056 kJ/mol
# GULP energy per Si atom -12389.107504 kJ/mol
# Density = 2.310825 g / cm^3
# Si number density = 23.160961 Si / 1000 Ang^3
#
#
#
# Elastic Constant Matrix: (Units=GPa)
#
#
# Indices 1 2 3 4 5 6 
#
# 1 158.9028 64.6683 49.8448 4.9783 1.3375 8.8628
# 2 64.6683 118.9363 27.6787 -13.0464 -2.9268 17.7838
# 3 49.8448 27.6787 89.1437 6.1841 2.4935 8.8943
# 4 4.9783 -13.0464 6.1841 26.7814 1.7915 0.8546
# 5 1.3375 -2.9268 2.4935 1.7915 36.1458 6.4650
# 6 8.8628 17.7838 8.8943 0.8546 6.4650 39.9330
#
#
#
# Elastic Compliance Matrix: (Units=1/GPa)
#
#
# Indices 1 2 3 4 5 6 
#
# 1 0.009443 -0.004805 -0.003649 -0.003252 -0.000506 0.001008
# 2 -0.004805 0.012951 -0.001427 0.007565 0.001815 -0.004839
# 3 -0.003649 -0.001427 0.014091 -0.003187 -0.000519 -0.001541
# 4 -0.003252 0.007565 -0.003187 0.042496 -0.000664 -0.002739
# 5 -0.000506 0.001815 -0.000519 -0.000664 0.028836 -0.005235
# 6 0.001008 -0.004839 -0.001541 -0.002739 -0.005235 0.028222
#
#
# Mechanical properties :
#
#
# Convention : Reuss Voigt Hill
#
# Bulk Modulus (GPa) = 59.80182 72.37403 66.08792
# Shear Modulus (GPa) = 30.98346 35.55812 33.27079
#
# Velocity S-wave (km/s) = 3.66149 3.92249 3.79423
# Velocity P-wave (km/s) = 6.61449 7.19935 6.91311
#
# Compressibility (1/GPa) = 0.01672190
#
# Stress axis : x y z
#
# Youngs Moduli (GPa) = 105.89540 77.21615 70.96922
#
# Poissons Ratio (x) = 0.37104 0.25897
# Poissons Ratio (y) = 0.50885 0.10127
# Poissons Ratio (z) = 0.38642 0.11019
#
# Static dielectric constant tensor:
#      x y z
#    x 4.166770 0.406840 -0.241630 
#    y 0.406840 3.236730 -0.663210 
#    z -0.241630 -0.663210 4.934550 
# 
# 
# High freq. dielectric constant tensor:
#      x y z
#    x 1.927530 -0.003990 0.002910 
#    y -0.003990 1.918020 0.002850 
#    z 0.002910 0.002850 1.912290 
# 
# From -- ./inp_files/189999.got.cif
#   From: 2010.06.25/outbox.cif.g09.slc.cpg/sg2_95_cif.got.tgz:189999.got - 2010.06.27 13:26:56.
