data_PCOD8015655
_publ_section_title
;
Structure prediction by ZEFSAII (Michael W. Deem and Ramdas Pophale) SiO2 
 PCOD8015655
Probable space group: P -1
;
_chemical_formula_sum "Si O2"
_cell_formula_units_Z 16
_cell_length_a 17.431030
_cell_length_b 11.521301
_cell_length_c 8.266750
_cell_angle_alpha 49.610504
_cell_angle_beta 128.906583
_cell_angle_gamma 147.488414
_cell_volume 665.984904
_symmetry_space_group_name_H-M "P -1"
_symmetry_group_IT_number 2
_symmetry_cell_setting 'triclinic'
loop_
_space_group_symop_operation_xyz
x,y,z
-x,-y,-z
loop_
_atom_site_type_symbol
_atom_site_label
_atom_site_fract_x
_atom_site_fract_y
_atom_site_fract_z
Si Si1 0.935287 0.514677 0.052725
Si Si2 0.848687 0.410506 0.521329
Si Si3 0.368928 0.037566 0.555969
Si Si4 0.423589 0.412183 0.150271
Si Si5 0.648768 0.858609 0.205739
Si Si6 0.917854 0.021885 0.259482
Si Si7 0.339570 0.819390 0.197825
Si Si8 0.864318 0.770657 0.118973
O O1 0.001971 0.512339 0.306297
O O2 0.000000 0.500000 0.000000
O O3 0.760024 0.309648 0.981776
O O4 0.974711 0.738176 0.904845
O O5 0.749784 0.316334 0.635194
O O6 0.894731 0.627095 0.317515
O O7 0.757304 0.221623 0.431766
O O8 0.367274 0.176556 0.306020
O O9 0.339230 0.070518 0.661608
O O10 0.527171 0.142601 0.668420
O O11 0.540157 0.592982 0.278913
O O12 0.500000 0.500000 0.000000
O O13 0.290184 0.377877 0.038288
O O14 0.811590 0.997318 0.252392
O O15 0.600554 0.939156 0.945473
O O16 0.834348 0.825732 0.196034
O O17 0.000000 0.000000 0.500000
O O18 0.000000 0.000000 0.000000
#
# Coordination Sequence:
#
# PCOD8015655 Si02
#       8
#     2   2   2   2   2   2   2   2
#     4  10  21  42  74 104 141 190 249 297 362 445
#     4  11  23  49  74 108 146 200 248 306 374 447
#     4  12  27  44  76 112 147 195 249 314 366 444
#     4  12  25  49  74 106 152 196 247 303 377 451
#     4  12  26  46  74 109 150 192 249 307 376 446
#     4  12  25  45  74 104 149 197 242 303 381 445
#     4  11  23  45  76 107 148 197 250 298 376 445
#     4  12  29  48  75 112 146 193 253 315 372 442
#
# _framework density 24.024570000000001
#
# number of rings (size 3 to 8) (size 9 to 14) (size 15 to 20)
#    0.000    0.500    3.750    5.625    3.500    2.000 
#    0.000    1.875    0.000    0.000    0.000    0.000 
#    0.000    0.000    0.000    0.000    0.000    0.000 
#
# Total GULP energy -198418.025669 kJ/mol
# GULP energy per Si atom -12401.126604 kJ/mol
# Density = 2.396989 g / cm^3
# Si number density = 24.024570 Si / 1000 Ang^3
#
#
#
# Elastic Constant Matrix: (Units=GPa)
#
#
# Indices 1 2 3 4 5 6 
#
# 1 106.8553 42.2640 46.1446 3.4109 -0.0708 -1.4259
# 2 42.2640 133.7668 48.4022 0.0461 -0.6894 -14.7539
# 3 46.1446 48.4022 149.5647 -13.0608 23.4747 -1.1606
# 4 3.4109 0.0461 -13.0608 57.0478 -4.5293 4.7667
# 5 -0.0708 -0.6894 23.4747 -4.5293 42.9412 2.7049
# 6 -1.4259 -14.7539 -1.1606 4.7667 2.7049 45.9609
#
#
#
# Elastic Compliance Matrix: (Units=1/GPa)
#
#
# Indices 1 2 3 4 5 6 
#
# 1 0.011796 -0.002636 -0.003151 -0.001254 0.001600 -0.000524
# 2 -0.002636 0.009540 -0.002501 -0.000564 0.001274 0.002901
# 3 -0.003151 -0.002501 0.009414 0.002002 -0.004944 -0.000579
# 4 -0.001254 -0.000564 0.002002 0.018317 0.000961 -0.002126
# 5 0.001600 0.001274 -0.004944 0.000961 0.026197 -0.001308
# 6 -0.000524 0.002901 -0.000579 -0.002126 -0.001308 0.022955
#
#
# Mechanical properties :
#
#
# Convention : Reuss Voigt Hill
#
# Bulk Modulus (GPa) = 70.54980 73.75647 72.15314
# Shear Modulus (GPa) = 41.83423 46.08170 43.95797
#
# Velocity S-wave (km/s) = 4.17743 4.38437 4.28215
# Velocity P-wave (km/s) = 7.25929 7.50982 7.38562
#
# Compressibility (1/GPa) = 0.01417438
#
# Stress axis : x y z
#
# Youngs Moduli (GPa) = 84.77567 104.82039 106.22668
#
# Poissons Ratio (x) = 0.27629 0.33473
# Poissons Ratio (y) = 0.22346 0.26565
# Poissons Ratio (z) = 0.26713 0.26213
#
# Static dielectric constant tensor:
#      x y z
#    x 4.210160 -0.186420 0.175940 
#    y -0.186420 4.566790 -0.114850 
#    z 0.175940 -0.114850 4.605950 
# 
# 
# High freq. dielectric constant tensor:
#      x y z
#    x 1.956100 -0.003850 0.005530 
#    y -0.003850 1.968180 -0.002260 
#    z 0.005530 -0.002260 1.962200 
# 
# From -- ./inp_files/332952.got.cif
#   From: 2010.06.25/outbox.cif.g09.slc.cpg/sg2_167_cif.got.tgz:332952.got - 2010.06.27 13:26:56.
