data_PCOD8015060
_publ_section_title
;
Structure prediction by ZEFSAII (Michael W. Deem and Ramdas Pophale) SiO2 
 PCOD8015060
Probable space group: P -1
;
_chemical_formula_sum "Si O2"
_cell_formula_units_Z 14
_cell_length_a 8.714054
_cell_length_b 11.284451
_cell_length_c 9.026314
_cell_angle_alpha 72.773987
_cell_angle_beta 118.433028
_cell_angle_gamma 69.274458
_cell_volume 602.357762
_symmetry_space_group_name_H-M "P -1"
_symmetry_group_IT_number 2
_symmetry_cell_setting 'triclinic'
loop_
_space_group_symop_operation_xyz
x,y,z
-x,-y,-z
loop_
_atom_site_type_symbol
_atom_site_label
_atom_site_fract_x
_atom_site_fract_y
_atom_site_fract_z
Si Si1 0.244789 0.823268 0.079096
Si Si2 0.091761 0.327818 0.452232
Si Si3 0.528999 0.143881 0.317880
Si Si4 0.694630 0.531322 0.389539
Si Si5 0.194410 0.043069 0.751160
Si Si6 0.848115 0.839604 0.755084
Si Si7 0.267753 0.760773 0.445342
O O1 0.453952 0.661886 0.177398
O O2 0.238803 0.843694 0.245311
O O3 0.042139 0.827919 0.928731
O O4 0.250310 0.963692 0.968326
O O5 0.233447 0.393624 0.486863
O O6 0.217292 0.181618 0.680214
O O7 0.065879 0.280183 0.296522
O O8 0.851936 0.464004 0.345220
O O9 0.285838 0.191543 0.179096
O O10 0.527838 0.279805 0.346531
O O11 0.646450 0.099060 0.230670
O O12 0.678517 0.008019 0.552766
O O13 0.702728 0.395532 0.525306
O O14 0.937873 0.125915 0.582978
#
# Coordination Sequence:
#
# PCOD8015060 Si02
#       7
#     2   2   2   2   2   2   2
#     4  12  24  39  64 105 125 158 218 269 310 364
#     4   9  21  45  65  90 126 176 207 253 323 384
#     4  10  21  42  65  92 127 173 206 254 328 377
#     4  10  23  42  65  90 131 174 209 250 322 383
#     4  10  22  40  69  95 124 160 217 267 309 368
#     4  10  22  39  65  93 131 162 214 263 313 373
#     4  11  22  42  67  90 130 172 207 256 319 386
#
# _framework density 23.242000999999998
#
# number of rings (size 3 to 8) (size 9 to 14) (size 15 to 20)
#    0.000    1.714    1.429    2.143    4.000    1.143 
#    7.714    1.429    0.000    0.000    0.000    0.000 
#    0.000    0.000    0.000    0.000    0.000    0.000 
#
# Total GULP energy -173470.472594 kJ/mol
# GULP energy per Si atom -12390.748042 kJ/mol
# Density = 2.318910 g / cm^3
# Si number density = 23.242001 Si / 1000 Ang^3
#
#
#
# Elastic Constant Matrix: (Units=GPa)
#
#
# Indices 1 2 3 4 5 6 
#
# 1 114.6616 50.5107 39.3036 -2.0600 3.8436 -7.0253
# 2 50.5107 104.3689 17.5469 5.5117 1.1356 -5.5663
# 3 39.3036 17.5469 47.8580 -7.5992 11.8806 -6.8533
# 4 -2.0600 5.5117 -7.5992 20.4455 3.3524 3.8609
# 5 3.8436 1.1356 11.8806 3.3524 34.9943 -5.7666
# 6 -7.0253 -5.5663 -6.8533 3.8609 -5.7666 33.7283
#
#
#
# Elastic Compliance Matrix: (Units=1/GPa)
#
#
# Indices 1 2 3 4 5 6 
#
# 1 0.014682 -0.005161 -0.010990 -0.001748 0.002554 0.000610
# 2 -0.005161 0.012619 -0.001272 -0.004899 0.001311 0.001534
# 3 -0.010990 -0.001272 0.035823 0.014334 -0.012111 0.001068
# 4 -0.001748 -0.004899 0.014334 0.058529 -0.011257 -0.006885
# 5 0.002554 0.001311 -0.012111 -0.011257 0.034341 0.005448
# 6 0.000610 0.001534 0.001068 -0.006885 0.005448 0.031966
#
#
# Mechanical properties :
#
#
# Convention : Reuss Voigt Hill
#
# Bulk Modulus (GPa) = 35.36302 53.51234 44.43768
# Shear Modulus (GPa) = 21.53029 28.46876 24.99953
#
# Velocity S-wave (km/s) = 3.04691 3.50363 3.28322
# Velocity P-wave (km/s) = 5.25608 6.28022 5.79084
#
# Compressibility (1/GPa) = 0.02827813
#
# Stress axis : x y z
#
# Youngs Moduli (GPa) = 68.10935 79.24374 27.91539
#
# Poissons Ratio (x) = 0.40897 0.30679
# Poissons Ratio (y) = 0.35151 0.03551
# Poissons Ratio (z) = 0.74851 0.10081
#
# Static dielectric constant tensor:
#      x y z
#    x 4.718980 0.138460 0.052420 
#    y 0.138460 4.263500 -0.205920 
#    z 0.052420 -0.205920 3.735290 
# 
# 
# High freq. dielectric constant tensor:
#      x y z
#    x 1.943850 -0.003990 0.004730 
#    y -0.003990 1.924640 -0.005710 
#    z 0.004730 -0.005710 1.871860 
# 
# From -- ./inp_files/186122.got.cif
#   From: 2010.06.25/outbox.cif.g09.slc.cpg/sg2_94_cif.got.tgz:186122.got - 2010.06.27 13:26:56.
