data_PCOD8015731
_publ_section_title
;
Structure prediction by ZEFSAII (Michael W. Deem and Ramdas Pophale) SiO2 
 PCOD8015731
Probable space group: P -1
;
_chemical_formula_sum "Si O2"
_cell_formula_units_Z 16
_cell_length_a 20.504327
_cell_length_b 23.725001
_cell_length_c 6.308026
_cell_angle_alpha 46.915321
_cell_angle_beta 120.648533
_cell_angle_gamma 158.665955
_cell_volume 717.008963
_symmetry_space_group_name_H-M "P -1"
_symmetry_group_IT_number 2
_symmetry_cell_setting 'triclinic'
loop_
_space_group_symop_operation_xyz
x,y,z
-x,-y,-z
loop_
_atom_site_type_symbol
_atom_site_label
_atom_site_fract_x
_atom_site_fract_y
_atom_site_fract_z
Si Si1 0.030509 0.259091 0.861149
Si Si2 0.664822 0.090821 0.575801
Si Si3 0.950978 0.859960 0.112897
Si Si4 0.664143 0.711286 0.128106
Si Si5 0.260837 0.930653 0.862333
Si Si6 0.314595 0.489589 0.111213
Si Si7 0.014951 0.375116 0.189688
Si Si8 0.434873 0.758297 0.778692
O O1 0.024758 0.169725 0.976244
O O2 0.067485 0.360164 0.490103
O O3 0.214096 0.434835 0.882125
O O4 0.815466 0.071907 0.106344
O O5 0.595139 0.941406 0.746417
O O6 0.500000 0.000000 0.500000
O O7 0.872309 0.306571 0.235372
O O8 0.711789 0.122391 0.819752
O O9 0.802856 0.793152 0.981024
O O10 0.848188 0.720257 0.504148
O O11 0.177816 0.103046 0.918423
O O12 0.500000 0.500000 0.500000
O O13 0.522526 0.645490 0.968286
O O14 0.088470 0.760013 0.838572
O O15 0.479253 0.151279 0.549873
O O16 0.379451 0.615224 0.072559
O O17 0.227998 0.612841 0.849909
#
# Coordination Sequence:
#
# PCOD8015731 Si02
#       8
#     2   2   2   2   2   2   2   2
#     4  11  21  39  64  93 127 165 211 268 316 374
#     4  10  25  44  66  96 131 170 211 258 318 387
#     4  10  21  43  64  86 132 169 212 269 320 375
#     4   9  22  42  61  89 128 173 210 264 321 378
#     4  10  23  40  63  94 130 162 209 266 317 375
#     4  11  23  37  65  95 127 163 216 268 323 373
#     4  10  22  43  63  93 132 161 209 263 317 376
#     4  11  23  39  66  97 127 166 214 265 318 380
#
# _framework density 22.314924000000001
#
# number of rings (size 3 to 8) (size 9 to 14) (size 15 to 20)
#    0.000    1.750    2.500    0.000    8.750    3.000 
#    2.250    6.875    0.000    0.000    0.000    0.000 
#    0.000    0.000    0.000    0.000    0.000    0.000 
#
# Total GULP energy -198226.695005 kJ/mol
# GULP energy per Si atom -12389.168438 kJ/mol
# Density = 2.226413 g / cm^3
# Si number density = 22.314924 Si / 1000 Ang^3
#
#
#
# Elastic Constant Matrix: (Units=GPa)
#
#
# Indices 1 2 3 4 5 6 
#
# 1 91.7068 44.7519 33.1555 12.0339 -25.5595 31.4811
# 2 44.7519 113.7807 52.4509 3.6223 -10.0437 25.4571
# 3 33.1555 52.4509 73.7012 -6.7637 -27.3598 11.0110
# 4 12.0339 3.6223 -6.7637 37.7977 8.0621 -1.4130
# 5 -25.5595 -10.0437 -27.3598 8.0621 37.2781 -12.5660
# 6 31.4811 25.4571 11.0110 -1.4130 -12.5660 47.3201
#
#
#
# Elastic Compliance Matrix: (Units=1/GPa)
#
#
# Indices 1 2 3 4 5 6 
#
# 1 0.020774 -0.004087 -0.002001 -0.009199 0.010775 -0.008570
# 2 -0.004087 0.016833 -0.012871 -0.000803 -0.009527 -0.005896
# 3 -0.002001 -0.012871 0.029852 0.003516 0.018437 0.006310
# 4 -0.009199 -0.000803 0.003516 0.032278 -0.009518 0.004170
# 5 0.010775 -0.009527 0.018437 -0.009518 0.049430 0.006509
# 6 -0.008570 -0.005896 0.006310 0.004170 0.006509 0.030390
#
#
# Mechanical properties :
#
#
# Convention : Reuss Voigt Hill
#
# Bulk Modulus (GPa) = 33.84982 59.98948 46.91965
# Shear Modulus (GPa) = 21.99522 34.40120 28.19821
#
# Velocity S-wave (km/s) = 3.14295 3.93061 3.55864
# Velocity P-wave (km/s) = 5.32662 6.89500 6.16092
#
# Compressibility (1/GPa) = 0.02954225
#
# Stress axis : x y z
#
# Youngs Moduli (GPa) = 48.13710 59.40646 33.49844
#
# Poissons Ratio (x) = 0.24280 0.06703
# Poissons Ratio (y) = 0.19674 0.43114
# Poissons Ratio (z) = 0.09632 0.76459
#
# Static dielectric constant tensor:
#      x y z
#    x 4.378330 0.328650 -0.286430 
#    y 0.328650 4.116300 -0.210400 
#    z -0.286430 -0.210400 3.913470 
# 
# 
# High freq. dielectric constant tensor:
#      x y z
#    x 1.890740 0.018120 -0.018760 
#    y 0.018120 1.882640 -0.016960 
#    z -0.018760 -0.016960 1.853600 
# 
# From -- ./inp_files/120629.got.cif
#   From: 2010.06.25/outbox.cif.g09.slc.cpg/sg2_61_cif.got.tgz:120629.got - 2010.06.27 13:26:56.
