data_PCOD8015663
_publ_section_title
;
Structure prediction by ZEFSAII (Michael W. Deem and Ramdas Pophale) SiO2 
 PCOD8015663
Probable space group: P -1
;
_chemical_formula_sum "Si O2"
_cell_formula_units_Z 16
_cell_length_a 18.610386
_cell_length_b 9.544870
_cell_length_c 13.377918
_cell_angle_alpha 135.887968
_cell_angle_beta 153.819284
_cell_angle_gamma 54.668224
_cell_volume 712.739289
_symmetry_space_group_name_H-M "P -1"
_symmetry_group_IT_number 2
_symmetry_cell_setting 'triclinic'
loop_
_space_group_symop_operation_xyz
x,y,z
-x,-y,-z
loop_
_atom_site_type_symbol
_atom_site_label
_atom_site_fract_x
_atom_site_fract_y
_atom_site_fract_z
Si Si1 0.863457 0.506732 0.751576
Si Si2 0.395408 0.943334 0.440325
Si Si3 0.156924 0.433918 0.622442
Si Si4 0.447431 0.717016 0.054761
Si Si5 0.662472 0.098623 0.191246
Si Si6 0.239370 0.306934 0.863218
Si Si7 0.460568 0.418276 0.519109
Si Si8 0.044236 0.644668 0.852005
O O1 0.780249 0.281344 0.491873
O O2 0.727181 0.607908 0.689293
O O3 0.958593 0.651085 0.855949
O O4 0.000000 0.500000 0.000000
O O5 0.497871 0.802683 0.554572
O O6 0.500000 0.000000 0.500000
O O7 0.405051 0.138254 0.624946
O O8 0.202080 0.832742 0.127932
O O9 0.222782 0.288315 0.711287
O O10 0.000000 0.500000 0.500000
O O11 0.102082 0.324928 0.391799
O O12 0.281278 0.656623 0.881939
O O13 0.500000 0.500000 0.000000
O O14 0.402060 0.818679 0.948499
O O15 0.770383 0.920615 0.218512
O O16 0.500000 0.000000 0.000000
O O17 0.100913 0.423810 0.796146
O O18 0.422638 0.442695 0.182647
O O19 0.500000 0.500000 0.500000
#
# Coordination Sequence:
#
# PCOD8015663 Si02
#       8
#     2   2   2   2   2   2   2   2
#     4  12  26  45  68 104 148 179 234 307 361 410
#     4  11  25  45  76 102 134 194 244 274 356 438
#     4  10  21  44  67 100 146 179 223 293 355 411
#     4  12  26  45  73 102 139 186 237 294 351 429
#     4  12  25  43  71 105 138 186 248 285 358 429
#     4  10  21  42  74  98 141 189 235 287 347 436
#     4  11  23  46  72  97 141 185 236 290 355 433
#     4  10  23  45  69 106 148 182 234 299 358 416
#
# _framework density 22.448602000000001
#
# number of rings (size 3 to 8) (size 9 to 14) (size 15 to 20)
#    0.000    1.000    2.500    5.250    3.500    0.500 
#    6.750    1.250    0.000    0.000    0.000    0.000 
#    0.000    0.000    0.000    0.000    0.000    0.000 
#
# Total GULP energy -198264.900748 kJ/mol
# GULP energy per Si atom -12391.556297 kJ/mol
# Density = 2.239751 g / cm^3
# Si number density = 22.448602 Si / 1000 Ang^3
#
#
#
# Elastic Constant Matrix: (Units=GPa)
#
#
# Indices 1 2 3 4 5 6 
#
# 1 133.2485 37.4104 45.9196 -9.6962 3.8892 28.2835
# 2 37.4104 124.3355 38.3583 -2.4275 -14.3077 18.2378
# 3 45.9196 38.3583 142.7209 -1.0995 -12.1959 9.0414
# 4 -9.6962 -2.4275 -1.0995 43.7042 6.7684 -6.8887
# 5 3.8892 -14.3077 -12.1959 6.7684 46.6971 -4.4514
# 6 28.2835 18.2378 9.0414 -6.8887 -4.4514 42.3453
#
#
#
# Elastic Compliance Matrix: (Units=1/GPa)
#
#
# Indices 1 2 3 4 5 6 
#
# 1 0.010332 -0.001744 -0.002735 0.001692 -0.002887 -0.005594
# 2 -0.001744 0.009735 -0.001684 -0.000679 0.002547 -0.002511
# 3 -0.002735 -0.001684 0.008459 -0.000678 0.002101 0.000856
# 4 0.001692 -0.000679 -0.000678 0.024235 -0.003767 0.002854
# 5 -0.002887 0.002547 0.002101 -0.003767 0.023746 0.002266
# 6 -0.005594 -0.002511 0.000856 0.002854 0.002266 0.028953
#
#
# Mechanical properties :
#
#
# Convention : Reuss Voigt Hill
#
# Bulk Modulus (GPa) = 61.72354 71.52015 66.62184
# Shear Modulus (GPa) = 40.58929 45.12374 42.85652
#
# Velocity S-wave (km/s) = 4.25679 4.48827 4.37406
# Velocity P-wave (km/s) = 7.19135 7.66734 7.43315
#
# Compressibility (1/GPa) = 0.01620127
#
# Stress axis : x y z
#
# Youngs Moduli (GPa) = 96.79072 102.72106 118.21377
#
# Poissons Ratio (x) = 0.17910 0.32329
# Poissons Ratio (y) = 0.16876 0.19907
# Poissons Ratio (z) = 0.26471 0.17298
#
# Static dielectric constant tensor:
#      x y z
#    x 4.775370 0.022250 -1.895760 
#    y 0.022250 4.546080 -0.730260 
#    z -1.895760 -0.730260 10.510340 
# 
# 
# High freq. dielectric constant tensor:
#      x y z
#    x 1.894740 0.008270 0.002610 
#    y 0.008270 1.882390 -0.013690 
#    z 0.002610 -0.013690 1.897450 
# 
# From -- ./inp_files/462523.got.cif
#   From: 2010.06.25/outbox.cif.g09.slc.cpg/sg2_232_cif.got.tgz:462523.got - 2010.06.27 13:26:56.
