data_PCOD8015587
_publ_section_title
;
Structure prediction by ZEFSAII (Michael W. Deem and Ramdas Pophale) SiO2 
 PCOD8015587
Probable space group: P -1
;
_chemical_formula_sum "Si O2"
_cell_formula_units_Z 16
_cell_length_a 14.950121
_cell_length_b 11.043729
_cell_length_c 9.736532
_cell_angle_alpha 76.566382
_cell_angle_beta 152.162889
_cell_angle_gamma 96.888752
_cell_volume 717.071444
_symmetry_space_group_name_H-M "P -1"
_symmetry_group_IT_number 2
_symmetry_cell_setting 'triclinic'
loop_
_space_group_symop_operation_xyz
x,y,z
-x,-y,-z
loop_
_atom_site_type_symbol
_atom_site_label
_atom_site_fract_x
_atom_site_fract_y
_atom_site_fract_z
Si Si1 0.620692 0.886983 0.280197
Si Si2 0.001864 0.512401 0.162429
Si Si3 0.886657 0.258395 0.629454
Si Si4 0.313446 0.789364 0.378167
Si Si5 0.610690 0.551787 0.758247
Si Si6 0.806759 0.949697 0.795230
Si Si7 0.691448 0.287259 0.070374
Si Si8 0.021254 0.757839 0.766069
O O1 0.670349 0.920726 0.493292
O O2 0.822605 0.859235 0.475458
O O3 0.505642 0.769392 0.165043
O O4 0.500000 0.000000 0.000000
O O5 0.149328 0.598688 0.393931
O O6 0.049844 0.373109 0.329316
O O7 0.801495 0.583258 0.939141
O O8 0.000000 0.500000 0.000000
O O9 0.728491 0.200276 0.517847
O O10 0.832647 0.257551 0.398715
O O11 0.108673 0.178389 0.970165
O O12 0.507193 0.687634 0.639837
O O13 0.321980 0.937224 0.314401
O O14 0.129557 0.747595 0.063036
O O15 0.500000 0.500000 0.500000
O O16 0.640069 0.440097 0.941895
O O17 0.000000 0.000000 0.000000
O O18 0.820506 0.216677 0.138137
#
# Coordination Sequence:
#
# PCOD8015587 Si02
#       8
#     2   2   2   2   2   2   2   2
#     4  12  25  47  75 101 139 192 237 287 355 427
#     4  11  21  41  73  99 131 192 231 277 364 414
#     4  11  23  44  70  98 142 184 233 290 350 422
#     4  11  21  42  70  99 141 184 231 289 348 416
#     4  11  23  41  69 106 143 176 237 297 337 425
#     4  10  21  42  71  98 136 186 236 281 350 420
#     4  11  28  46  69 110 141 179 239 298 351 413
#     4  11  24  43  72  99 140 184 232 291 350 418
#
# _framework density 22.31298
#
# number of rings (size 3 to 8) (size 9 to 14) (size 15 to 20)
#    0.000    1.000    6.250    1.500    5.250    3.000 
#    6.750    1.250    0.000    0.000    0.000    0.000 
#    0.000    0.000    0.000    0.000    0.000    0.000 
#
# Total GULP energy -198236.297028 kJ/mol
# GULP energy per Si atom -12389.768564 kJ/mol
# Density = 2.226219 g / cm^3
# Si number density = 22.312980 Si / 1000 Ang^3
#
#
#
# Elastic Constant Matrix: (Units=GPa)
#
#
# Indices 1 2 3 4 5 6 
#
# 1 91.5680 26.2520 40.8558 -16.9966 5.3665 -10.3976
# 2 26.2520 115.6640 44.6103 -9.8891 0.1939 -21.0308
# 3 40.8558 44.6103 131.8158 -17.2620 -12.4778 -12.6855
# 4 -16.9966 -9.8891 -17.2620 40.7767 -9.9806 13.1157
# 5 5.3665 0.1939 -12.4778 -9.9806 39.9484 -4.2989
# 6 -10.3976 -21.0308 -12.6855 13.1157 -4.2989 36.3325
#
#
#
# Elastic Compliance Matrix: (Units=1/GPa)
#
#
# Indices 1 2 3 4 5 6 
#
# 1 0.013647 -0.001386 -0.003488 0.003217 -0.002061 0.000480
# 2 -0.001386 0.010964 -0.002949 -0.000957 -0.000467 0.005211
# 3 -0.003488 -0.002949 0.010576 0.003341 0.004657 0.000332
# 4 0.003217 -0.000957 0.003341 0.031817 0.007591 -0.009055
# 5 -0.002061 -0.000467 0.004657 0.007591 0.028817 0.001435
# 6 0.000480 0.005211 0.000332 -0.009055 0.001435 0.034232
#
#
# Mechanical properties :
#
#
# Convention : Reuss Voigt Hill
#
# Bulk Modulus (GPa) = 51.17760 62.49821 56.83791
# Shear Modulus (GPa) = 32.84874 38.56684 35.70779
#
# Velocity S-wave (km/s) = 3.84106 4.16197 4.00473
# Velocity P-wave (km/s) = 6.53129 7.15308 6.84925
#
# Compressibility (1/GPa) = 0.01953980
#
# Stress axis : x y z
#
# Youngs Moduli (GPa) = 73.27583 91.20673 94.55505
#
# Poissons Ratio (x) = 0.12644 0.32984
# Poissons Ratio (y) = 0.10158 0.27884
# Poissons Ratio (z) = 0.25561 0.26897
#
# Static dielectric constant tensor:
#      x y z
#    x 3.894200 0.016280 -0.015310 
#    y 0.016280 3.417970 0.536440 
#    z -0.015310 0.536440 3.399700 
# 
# 
# High freq. dielectric constant tensor:
#      x y z
#    x 1.866500 -0.004690 0.004840 
#    y -0.004690 1.897740 -0.009020 
#    z 0.004840 -0.009020 1.865300 
# 
# From -- ./inp_files/307444.got.cif
#   From: 2010.06.25/outbox.cif.g09.slc.cpg/sg2_154_cif.got.tgz:307444.got - 2010.06.27 13:26:56.
