data_PCOD8015620
_publ_section_title
;
Structure prediction by ZEFSAII (Michael W. Deem and Ramdas Pophale) SiO2 
 PCOD8015620
Probable space group: P -1
;
_chemical_formula_sum "Si O2"
_cell_formula_units_Z 16
_cell_length_a 12.676006
_cell_length_b 6.453065
_cell_length_c 11.826417
_cell_angle_alpha 98.245531
_cell_angle_beta 98.742091
_cell_angle_gamma 50.660411
_cell_volume 738.086666
_symmetry_space_group_name_H-M "P -1"
_symmetry_group_IT_number 2
_symmetry_cell_setting 'triclinic'
loop_
_space_group_symop_operation_xyz
x,y,z
-x,-y,-z
loop_
_atom_site_type_symbol
_atom_site_label
_atom_site_fract_x
_atom_site_fract_y
_atom_site_fract_z
Si Si1 0.595589 0.080193 0.505449
Si Si2 0.135184 0.238791 0.090631
Si Si3 0.156849 0.540475 0.944815
Si Si4 0.127572 0.483332 0.491780
Si Si5 0.277981 0.692095 0.156089
Si Si6 0.198255 0.679893 0.729868
Si Si7 0.466392 0.574440 0.686180
Si Si8 0.936809 0.271190 0.736707
O O1 0.554585 0.308678 0.604072
O O2 0.587845 0.171371 0.381993
O O3 0.500000 0.000000 0.500000
O O4 0.748965 0.824858 0.538902
O O5 0.079933 0.488828 0.183175
O O6 0.008743 0.231510 0.049518
O O7 0.259814 0.961017 0.146063
O O8 0.189166 0.271734 0.983572
O O9 0.202026 0.506820 0.819420
O O10 0.243337 0.606716 0.031100
O O11 0.162639 0.597457 0.606144
O O12 0.090896 0.672061 0.395146
O O13 0.000000 0.500000 0.500000
O O14 0.432691 0.458132 0.203525
O O15 0.174395 0.759705 0.243939
O O16 0.344049 0.609761 0.733158
O O17 0.087844 0.995687 0.762261
#
# Coordination Sequence:
#
# PCOD8015620 Si02
#       8
#     2   2   2   2   2   2   2   2
#     4  11  23  47  68  92 134 181 221 257 329 408
#     4  10  21  42  72  97 124 177 221 275 330 379
#     4  10  23  40  68  97 132 172 221 275 326 385
#     4  12  25  42  70 102 132 171 219 277 334 390
#     4  11  23  43  69  97 127 174 229 266 317 399
#     4  12  25  44  62 101 142 170 213 280 336 384
#     4  11  26  42  68  95 135 179 214 269 331 394
#     4  11  24  40  70  98 130 166 223 276 324 392
#
# _framework density 21.677669999999999
#
# number of rings (size 3 to 8) (size 9 to 14) (size 15 to 20)
#    0.000    1.000    2.500    3.750    7.000    1.500 
#    0.000    0.625    0.000    0.000    0.000    0.000 
#    0.000    0.000    0.000    0.000    0.000    0.000 
#
# Total GULP energy -198434.015406 kJ/mol
# GULP energy per Si atom -12402.125963 kJ/mol
# Density = 2.162833 g / cm^3
# Si number density = 21.677670 Si / 1000 Ang^3
#
#
#
# Elastic Constant Matrix: (Units=GPa)
#
#
# Indices 1 2 3 4 5 6 
#
# 1 141.7233 49.2872 49.0201 -17.1382 -7.5361 -9.6379
# 2 49.2872 71.9576 23.4752 -16.5029 -11.7223 3.4379
# 3 49.0201 23.4752 119.8231 -29.5046 -8.0997 11.2964
# 4 -17.1382 -16.5029 -29.5046 37.4039 11.7926 -3.7679
# 5 -7.5361 -11.7223 -8.0997 11.7926 41.5966 -5.0497
# 6 -9.6379 3.4379 11.2964 -3.7679 -5.0497 36.0883
#
#
#
# Elastic Compliance Matrix: (Units=1/GPa)
#
#
# Indices 1 2 3 4 5 6 
#
# 1 0.010888 -0.006546 -0.003697 -0.000371 0.000079 0.004661
# 2 -0.006546 0.019968 0.000459 0.005012 0.002759 -0.002885
# 3 -0.003697 0.000459 0.012033 0.007879 -0.000930 -0.004105
# 4 -0.000371 0.005012 0.007879 0.037414 -0.007754 -0.000222
# 5 0.000079 0.002759 -0.000930 -0.007754 0.027220 0.003048
# 6 0.004661 -0.002885 -0.004105 -0.000222 0.003048 0.030918
#
#
# Mechanical properties :
#
#
# Convention : Reuss Voigt Hill
#
# Bulk Modulus (GPa) = 42.88406 64.11879 53.50142
# Shear Modulus (GPa) = 30.15996 37.13253 33.64624
#
# Velocity S-wave (km/s) = 3.73405 4.14326 3.94396
# Velocity P-wave (km/s) = 6.19809 7.24784 6.74343
#
# Compressibility (1/GPa) = 0.02331869
#
# Stress axis : x y z
#
# Youngs Moduli (GPa) = 91.84699 50.07981 83.10720
#
# Poissons Ratio (x) = 0.32784 0.30726
# Poissons Ratio (y) = 0.60126 -0.03812
# Poissons Ratio (z) = 0.33957 -0.02297
#
# Static dielectric constant tensor:
#      x y z
#    x 3.922980 0.061780 -0.112810 
#    y 0.061780 3.991100 -0.317260 
#    z -0.112810 -0.317260 3.987030 
# 
# 
# High freq. dielectric constant tensor:
#      x y z
#    x 1.855750 0.011520 0.001880 
#    y 0.011520 1.850400 -0.021940 
#    z 0.001880 -0.021940 1.857760 
# 
# From -- ./inp_files/109747.got.cif
#   From: 2010.06.25/outbox.cif.g09.slc.cpg/sg2_55_cif.got.tgz:109747.got - 2010.06.27 13:26:56.
