data_PCOD8015262
_publ_section_title
;
Structure prediction by ZEFSAII (Michael W. Deem and Ramdas Pophale) SiO2 
 PCOD8015262
Probable space group: P -1
;
_chemical_formula_sum "Si O2"
_cell_formula_units_Z 16
_cell_length_a 5.798178
_cell_length_b 5.169095
_cell_length_c 27.717661
_cell_angle_alpha 124.671229
_cell_angle_beta 101.267577
_cell_angle_gamma 85.156426
_cell_volume 669.684934
_symmetry_space_group_name_H-M "P -1"
_symmetry_group_IT_number 2
_symmetry_cell_setting 'triclinic'
loop_
_space_group_symop_operation_xyz
x,y,z
-x,-y,-z
loop_
_atom_site_type_symbol
_atom_site_label
_atom_site_fract_x
_atom_site_fract_y
_atom_site_fract_z
Si Si1 0.778184 0.595669 0.034377
Si Si2 0.634306 0.209370 0.067395
Si Si3 0.008008 0.197206 0.569489
Si Si4 0.826850 0.858136 0.620691
Si Si5 0.749116 0.761175 0.768832
Si Si6 0.135036 0.311498 0.735165
Si Si7 0.439889 0.308205 0.653220
Si Si8 0.565708 0.419919 0.819539
O O1 0.816460 0.452195 0.073813
O O2 0.793719 0.974624 0.079872
O O3 0.500000 0.500000 0.000000
O O4 0.000000 0.500000 0.000000
O O5 0.442922 0.381419 0.110424
O O6 0.500000 0.000000 0.000000
O O7 0.271717 0.350971 0.604348
O O8 0.827212 0.481903 0.587864
O O9 0.000000 0.000000 0.500000
O O10 0.952737 0.965783 0.587394
O O11 0.561060 0.971121 0.618083
O O12 0.942289 0.024748 0.691131
O O13 0.629264 0.598173 0.698645
O O14 0.626494 0.650854 0.802166
O O15 0.015324 0.649562 0.770295
O O16 0.746955 0.138694 0.803196
O O17 0.285516 0.306366 0.693504
O O18 0.303060 0.265507 0.783383
#
# Coordination Sequence:
#
# PCOD8015262 Si02
#       8
#     2   2   2   2   2   2   2   2
#     4  10  21  42  67  91 125 169 219 262 315 391
#     4  10  22  42  63  92 127 166 210 259 324 393
#     4  11  23  38  58  89 123 157 204 247 296 365
#     4  10  22  39  61  87 116 162 201 246 309 357
#     4  10  22  39  63  90 120 158 203 257 313 370
#     4   9  21  40  62  91 116 156 207 253 310 366
#     4   9  21  39  63  84 123 158 200 254 304 366
#     4  11  22  41  62  89 126 156 204 257 313 372
#
# _framework density 23.891831
#
# number of rings (size 3 to 8) (size 9 to 14) (size 15 to 20)
#    0.000    2.000    0.000    2.250    0.000   14.000 
#   13.500    0.000    0.000    0.000    0.000    0.000 
#    0.000    0.000    0.000    0.000    0.000    0.000 
#
# Total GULP energy -198251.271657 kJ/mol
# GULP energy per Si atom -12390.704479 kJ/mol
# Density = 2.383745 g / cm^3
# Si number density = 23.891831 Si / 1000 Ang^3
#
#
#
# Elastic Constant Matrix: (Units=GPa)
#
#
# Indices 1 2 3 4 5 6 
#
# 1 85.1547 6.9055 24.4427 1.8413 -21.6328 -19.4675
# 2 6.9055 130.2915 24.6913 19.9399 -5.0752 -10.9908
# 3 24.4427 24.6913 129.3264 11.0657 -8.4733 -20.3401
# 4 1.8413 19.9399 11.0657 36.9211 -9.8342 -15.7285
# 5 -21.6328 -5.0752 -8.4733 -9.8342 21.8220 11.8844
# 6 -19.4675 -10.9908 -20.3401 -15.7285 11.8844 27.9714
#
#
#
# Elastic Compliance Matrix: (Units=1/GPa)
#
#
# Indices 1 2 3 4 5 6 
#
# 1 0.018168 -0.000499 -0.001557 0.007907 0.015962 0.008981
# 2 -0.000499 0.008585 -0.001220 -0.004500 -0.001023 0.000043
# 3 -0.001557 -0.001220 0.009051 0.000061 -0.001349 0.005626
# 4 0.007907 -0.004500 0.000061 0.041967 0.014075 0.021398
# 5 0.015962 -0.001023 -0.001349 0.014075 0.074971 -0.014212
# 6 0.008981 0.000043 0.005626 0.021398 -0.014212 0.064181
#
#
# Mechanical properties :
#
#
# Convention : Reuss Voigt Hill
#
# Bulk Modulus (GPa) = 34.18463 50.76130 42.47296
# Shear Modulus (GPa) = 21.43858 36.59176 29.01517
#
# Velocity S-wave (km/s) = 2.99878 3.91776 3.48866
# Velocity P-wave (km/s) = 5.13121 6.46201 5.83468
#
# Compressibility (1/GPa) = 0.02925291
#
# Stress axis : x y z
#
# Youngs Moduli (GPa) = 55.04217 116.47895 110.48754
#
# Poissons Ratio (x) = 0.05809 0.17201
# Poissons Ratio (y) = 0.02745 0.13480
# Poissons Ratio (z) = 0.08569 0.14211
#
# Static dielectric constant tensor:
#      x y z
#    x 5.031930 0.052350 0.338520 
#    y 0.052350 5.168800 -0.109840 
#    z 0.338520 -0.109840 4.414010 
# 
# 
# High freq. dielectric constant tensor:
#      x y z
#    x 1.939820 -0.012930 -0.018190 
#    y -0.012930 1.951930 0.001450 
#    z -0.018190 0.001450 1.937900 
# 
# From -- ./inp_files/11372.got.cif
#   From: 2010.06.25/outbox.cif.g09.slc.cpg/sg2_6_cif.got.tgz:11372.got - 2010.06.27 13:26:56.
