data_PCOD8015560
_publ_section_title
;
Structure prediction by ZEFSAII (Michael W. Deem and Ramdas Pophale) SiO2 
 PCOD8015560
Probable space group: P -1
;
_chemical_formula_sum "Si O2"
_cell_formula_units_Z 16
_cell_length_a 9.618794
_cell_length_b 10.626591
_cell_length_c 12.200660
_cell_angle_alpha 87.879870
_cell_angle_beta 49.036781
_cell_angle_gamma 58.387254
_cell_volume 704.930710
_symmetry_space_group_name_H-M "P -1"
_symmetry_group_IT_number 2
_symmetry_cell_setting 'triclinic'
loop_
_space_group_symop_operation_xyz
x,y,z
-x,-y,-z
loop_
_atom_site_type_symbol
_atom_site_label
_atom_site_fract_x
_atom_site_fract_y
_atom_site_fract_z
Si Si1 0.861751 0.111520 0.436323
Si Si2 0.601956 0.556231 0.862154
Si Si3 0.026238 0.781636 0.426280
Si Si4 0.345349 0.250909 0.786312
Si Si5 0.244518 0.650926 0.683913
Si Si6 0.264430 0.818585 0.851168
Si Si7 0.520495 0.931074 0.613631
Si Si8 0.912367 0.566842 0.871274
O O1 0.588070 0.212480 0.621388
O O2 0.855035 0.172817 0.318455
O O3 0.994680 0.155880 0.441826
O O4 0.018325 0.912133 0.350939
O O5 0.398269 0.735773 0.901914
O O6 0.790366 0.562173 0.827454
O O7 0.735289 0.412086 0.705175
O O8 0.500000 0.500000 0.000000
O O9 0.802092 0.793712 0.508673
O O10 0.117086 0.382414 0.820978
O O11 0.380535 0.085272 0.766525
O O12 0.297313 0.312823 0.933834
O O13 0.500000 0.500000 0.500000
O O14 0.260100 0.679883 0.803688
O O15 0.045530 0.634344 0.765402
O O16 0.413751 0.840225 0.688089
O O17 0.000000 0.000000 0.000000
O O18 0.500000 0.000000 0.500000
#
# Coordination Sequence:
#
# PCOD8015560 Si02
#       8
#     2   2   2   2   2   2   2   2
#     4  10  21  42  71 101 141 187 238 296 366 427
#     4  12  29  46  74 107 148 190 242 303 368 423
#     4  10  23  42  71 102 140 184 244 301 355 428
#     4  10  21  43  68 101 140 194 238 285 361 443
#     4  12  25  43  72 106 143 188 239 296 358 433
#     4  12  30  50  73 108 149 191 244 302 364 442
#     4  11  24  44  74 102 141 192 243 299 364 430
#     4  11  25  41  72 100 148 189 238 292 363 432
#
# _framework density 22.697265999999999
#
# number of rings (size 3 to 8) (size 9 to 14) (size 15 to 20)
#    0.000    1.000    1.250    4.500   12.250    0.500 
#    0.000    1.250    0.000    0.000    0.000    0.000 
#    0.000    0.000    0.000    0.000    0.000    0.000 
#
# Total GULP energy -198363.169269 kJ/mol
# GULP energy per Si atom -12397.698079 kJ/mol
# Density = 2.264561 g / cm^3
# Si number density = 22.697266 Si / 1000 Ang^3
#
#
#
# Elastic Constant Matrix: (Units=GPa)
#
#
# Indices 1 2 3 4 5 6 
#
# 1 143.0745 35.2208 33.3009 0.5183 -9.6932 5.7208
# 2 35.2208 114.8163 41.2911 2.6533 -1.5376 -6.9907
# 3 33.3009 41.2911 77.4707 2.1575 -8.7111 1.3556
# 4 0.5183 2.6533 2.1575 46.5341 8.3121 -2.7235
# 5 -9.6932 -1.5376 -8.7111 8.3121 30.8264 -1.2672
# 6 5.7208 -6.9907 1.3556 -2.7235 -1.2672 39.5125
#
#
#
# Elastic Compliance Matrix: (Units=1/GPa)
#
#
# Indices 1 2 3 4 5 6 
#
# 1 0.008135 -0.001701 -0.002352 -0.000291 0.001831 -0.001359
# 2 -0.001701 0.011342 -0.005518 0.000025 -0.001437 0.002398
# 3 -0.002352 -0.005518 0.017389 -0.001284 0.004196 -0.001186
# 4 -0.000291 0.000025 -0.001284 0.022805 -0.006543 0.001453
# 5 0.001831 -0.001437 0.004196 -0.006543 0.035895 0.000037
# 6 -0.001359 0.002398 -0.001186 0.001453 0.000037 0.026072
#
#
# Mechanical properties :
#
#
# Convention : Reuss Voigt Hill
#
# Bulk Modulus (GPa) = 56.42513 61.66524 59.04519
# Shear Modulus (GPa) = 34.08584 38.41119 36.24852
#
# Velocity S-wave (km/s) = 3.87946 4.11825 4.00064
# Velocity P-wave (km/s) = 6.70677 7.05981 6.88555
#
# Compressibility (1/GPa) = 0.01772260
#
# Stress axis : x y z
#
# Youngs Moduli (GPa) = 122.92387 88.16753 57.50808
#
# Poissons Ratio (x) = 0.14997 0.13529
# Poissons Ratio (y) = 0.20909 0.31734
# Poissons Ratio (z) = 0.28918 0.48653
#
# Static dielectric constant tensor:
#      x y z
#    x 4.308850 -0.013320 -0.008830 
#    y -0.013320 4.286650 0.081400 
#    z -0.008830 0.081400 3.988700 
# 
# 
# High freq. dielectric constant tensor:
#      x y z
#    x 1.912720 0.004190 -0.001220 
#    y 0.004190 1.899870 0.008730 
#    z -0.001220 0.008730 1.883820 
# 
# From -- ./inp_files/392552.got.cif
#   From: 2010.06.25/outbox.cif.g09.slc.cpg/sg2_197_cif.got.tgz:392552.got - 2010.06.27 13:26:56.
