data_PCOD8015593
_publ_section_title
;
Structure prediction by ZEFSAII (Michael W. Deem and Ramdas Pophale) SiO2 
 PCOD8015593
Probable space group: P -1
;
_chemical_formula_sum "Si O2"
_cell_formula_units_Z 12
_cell_length_a 9.275095
_cell_length_b 14.820962
_cell_length_c 9.129095
_cell_angle_alpha 150.031620
_cell_angle_beta 65.312507
_cell_angle_gamma 123.565800
_cell_volume 516.643222
_symmetry_space_group_name_H-M "P -1"
_symmetry_group_IT_number 2
_symmetry_cell_setting 'triclinic'
loop_
_space_group_symop_operation_xyz
x,y,z
-x,-y,-z
loop_
_atom_site_type_symbol
_atom_site_label
_atom_site_fract_x
_atom_site_fract_y
_atom_site_fract_z
Si Si1 0.850795 0.728516 0.836664
Si Si2 0.634005 0.406092 0.281801
Si Si3 0.509122 0.971992 0.629432
Si Si4 0.313392 0.311769 0.833121
Si Si5 0.110354 0.376363 0.750871
Si Si6 0.847593 0.103494 0.248699
O O1 0.784458 0.508200 0.483565
O O2 0.061973 0.833448 0.862077
O O3 0.785711 0.699415 0.988706
O O4 0.770069 0.864866 0.976331
O O5 0.500000 0.500000 0.500000
O O6 0.706718 0.472348 0.181618
O O7 0.565814 0.169475 0.982178
O O8 0.500000 0.000000 0.500000
O O9 0.646047 0.880074 0.474621
O O10 0.311319 0.830127 0.570131
O O11 0.163722 0.294096 0.757355
O O12 0.500000 0.500000 0.000000
O O13 0.998775 0.196162 0.437658
O O14 0.000000 0.500000 0.000000
#
# Coordination Sequence:
#
# PCOD8015593 Si02
#       6
#     2   2   2   2   2   2
#     4  10  22  42  69  98 141 184 222 283 347 406
#     4  11  21  43  71  97 138 184 228 278 347 408
#     4  12  22  42  74 105 134 184 233 284 341 408
#     4  12  25  45  72 104 140 179 239 285 338 417
#     4  11  25  44  70  99 139 183 232 284 348 405
#     4  10  21  42  71  99 138 183 226 280 352 405
#
# _framework density 23.226859000000001
#
# number of rings (size 3 to 8) (size 9 to 14) (size 15 to 20)
#    0.000    1.000    3.333    4.000    0.000    0.667 
#    0.000   12.500    3.667    0.000    0.000    0.000 
#    0.000    0.000    0.000    0.000    0.000    0.000 
#
# Total GULP energy -148699.512944 kJ/mol
# GULP energy per Si atom -12391.626079 kJ/mol
# Density = 2.317399 g / cm^3
# Si number density = 23.226859 Si / 1000 Ang^3
#
#
#
# Elastic Constant Matrix: (Units=GPa)
#
#
# Indices 1 2 3 4 5 6 
#
# 1 130.6985 67.9763 52.6754 -13.3224 -23.6772 -1.0040
# 2 67.9763 174.5390 47.6783 -34.5422 -11.0942 24.1617
# 3 52.6754 47.6783 130.9031 -3.7158 -14.0404 -0.8544
# 4 -13.3224 -34.5422 -3.7158 38.1818 11.3724 -10.5428
# 5 -23.6772 -11.0942 -14.0404 11.3724 36.5777 -1.4964
# 6 -1.0040 24.1617 -0.8544 -10.5428 -1.4964 32.4746
#
#
#
# Elastic Compliance Matrix: (Units=1/GPa)
#
#
# Indices 1 2 3 4 5 6 
#
# 1 0.011874 -0.004133 -0.002652 -0.000616 0.005747 0.003437
# 2 -0.004133 0.009764 -0.002039 0.006501 -0.002741 -0.005462
# 3 -0.002652 -0.002039 0.009617 -0.002150 0.002070 0.001085
# 4 -0.000616 0.006501 -0.002150 0.036513 -0.010340 0.006464
# 5 0.005747 -0.002741 0.002070 -0.010340 0.034258 0.000493
# 6 0.003437 -0.005462 0.001085 0.006464 0.000493 0.037113
#
#
# Mechanical properties :
#
#
# Convention : Reuss Voigt Hill
#
# Bulk Modulus (GPa) = 73.47715 85.86675 79.67195
# Shear Modulus (GPa) = 30.99432 39.30085 35.14759
#
# Velocity S-wave (km/s) = 3.65693 4.11791 3.89425
# Velocity P-wave (km/s) = 7.03805 7.72389 7.38893
#
# Compressibility (1/GPa) = 0.01360967
#
# Stress axis : x y z
#
# Youngs Moduli (GPa) = 84.21834 102.41438 103.98558
#
# Poissons Ratio (x) = 0.42324 0.27572
# Poissons Ratio (y) = 0.34804 0.21198
# Poissons Ratio (z) = 0.22330 0.20877
#
# Static dielectric constant tensor:
#      x y z
#    x 4.190180 0.480900 0.168440 
#    y 0.480900 4.504020 0.220770 
#    z 0.168440 0.220770 5.026530 
# 
# 
# High freq. dielectric constant tensor:
#      x y z
#    x 1.898540 0.034650 -0.009630 
#    y 0.034650 1.922150 -0.006740 
#    z -0.009630 -0.006740 1.935360 
# 
# From -- ./inp_files/156564.got.cif
#   From: 2010.06.25/outbox.cif.g09.slc.cpg/sg2_79_cif.got.tgz:156564.got - 2010.06.27 13:26:56.
