data_PCOD8015642
_publ_section_title
;
Structure prediction by ZEFSAII (Michael W. Deem and Ramdas Pophale) SiO2 
 PCOD8015642
Probable space group: P -1
;
_chemical_formula_sum "Si O2"
_cell_formula_units_Z 14
_cell_length_a 13.941892
_cell_length_b 9.489311
_cell_length_c 7.669011
_cell_angle_alpha 80.796245
_cell_angle_beta 110.087605
_cell_angle_gamma 145.661635
_cell_volume 522.654202
_symmetry_space_group_name_H-M "P -1"
_symmetry_group_IT_number 2
_symmetry_cell_setting 'triclinic'
loop_
_space_group_symop_operation_xyz
x,y,z
-x,-y,-z
loop_
_atom_site_type_symbol
_atom_site_label
_atom_site_fract_x
_atom_site_fract_y
_atom_site_fract_z
Si Si1 0.995534 0.553800 0.718214
Si Si2 0.896511 0.734580 0.529376
Si Si3 0.276408 0.723796 0.081640
Si Si4 0.505396 0.237181 0.233825
Si Si5 0.243870 0.979198 0.443647
Si Si6 0.838784 0.829528 0.797317
Si Si7 0.480506 0.675245 0.145679
O O1 0.023282 0.737182 0.592866
O O2 0.188807 0.712388 0.868317
O O3 0.882482 0.309326 0.578525
O O4 0.875969 0.463357 0.827009
O O5 0.721099 0.506215 0.344186
O O6 0.831664 0.681418 0.698923
O O7 0.000000 0.000000 0.500000
O O8 0.340988 0.647492 0.066182
O O9 0.456711 0.015074 0.207811
O O10 0.391434 0.152585 0.346216
O O11 0.450856 0.266501 0.022087
O O12 0.124886 0.984451 0.331198
O O13 0.345315 0.104375 0.666091
O O14 0.640409 0.602634 0.815607
O O15 0.000000 0.000000 0.000000
#
# Coordination Sequence:
#
# PCOD8015642 Si02
#       7
#     2   2   2   2   2   2   2
#     4  10  22  44  74 101 142 192 237 295 359 421
#     4  12  26  47  70 106 147 187 241 295 358 428
#     4  10  21  42  73 107 139 187 243 294 357 424
#     4  11  25  44  71 105 141 186 242 288 356 421
#     4  11  25  47  74 105 143 189 240 292 360 425
#     4  12  26  46  70 102 148 190 233 297 364 422
#     4  12  23  44  72 104 147 184 240 296 356 425
#
# _framework density 26.786352000000001
#
# number of rings (size 3 to 8) (size 9 to 14) (size 15 to 20)
#    0.000    0.857    2.857    3.429    4.000    4.000 
#    0.000    2.143    0.000    0.000    0.000    0.000 
#    0.000    0.000    0.000    0.000    0.000    0.000 
#
# Total GULP energy -173639.951402 kJ/mol
# GULP energy per Si atom -12402.853672 kJ/mol
# Density = 2.672539 g / cm^3
# Si number density = 26.786352 Si / 1000 Ang^3
#
#
#
# Elastic Constant Matrix: (Units=GPa)
#
#
# Indices 1 2 3 4 5 6 
#
# 1 78.3608 39.2541 46.3963 3.8384 20.4767 -8.7690
# 2 39.2541 149.2477 62.6017 -5.5818 24.1312 -16.5057
# 3 46.3963 62.6017 213.7703 13.1929 16.9115 -6.9708
# 4 3.8384 -5.5818 13.1929 49.9080 0.7415 8.3433
# 5 20.4767 24.1312 16.9115 0.7415 42.0572 -11.9295
# 6 -8.7690 -16.5057 -6.9708 8.3433 -11.9295 36.9018
#
#
#
# Elastic Compliance Matrix: (Units=1/GPa)
#
#
# Indices 1 2 3 4 5 6 
#
# 1 0.017077 -0.002498 -0.002438 -0.001013 -0.005631 0.000889
# 2 -0.002498 0.008813 -0.001860 0.001400 -0.002595 0.001842
# 3 -0.002438 -0.001860 0.005855 -0.001572 -0.000064 0.000030
# 4 -0.001013 0.001400 -0.001572 0.021596 -0.001562 -0.005299
# 5 -0.005631 -0.002595 -0.000064 -0.001562 0.030220 0.007612
# 6 0.000889 0.001842 0.000030 -0.005299 0.007612 0.031798
#
#
# Mechanical properties :
#
#
# Convention : Reuss Voigt Hill
#
# Bulk Modulus (GPa) = 55.08669 81.98701 68.53685
# Shear Modulus (GPa) = 37.03683 45.31517 41.17600
#
# Velocity S-wave (km/s) = 3.72247 4.11752 3.92497
# Velocity P-wave (km/s) = 6.25184 7.29928 6.79577
#
# Compressibility (1/GPa) = 0.01815320
#
# Stress axis : x y z
#
# Youngs Moduli (GPa) = 58.55921 113.46963 170.80324
#
# Poissons Ratio (x) = 0.28345 0.41638
# Poissons Ratio (y) = 0.14628 0.31765
# Poissons Ratio (z) = 0.14276 0.21102
#
# Static dielectric constant tensor:
#      x y z
#    x 5.151660 0.139970 -0.393920 
#    y 0.139970 5.259930 -0.403660 
#    z -0.393920 -0.403660 4.966550 
# 
# 
# High freq. dielectric constant tensor:
#      x y z
#    x 2.083890 0.009160 -0.019020 
#    y 0.009160 2.103400 -0.013890 
#    z -0.019020 -0.013890 2.084760 
# 
# From -- ./inp_files/298359.got.cif
#   From: 2010.06.25/outbox.cif.g09.slc.cpg/sg2_150_cif.got.tgz:298359.got - 2010.06.27 13:26:56.
