data_PCOD8015771
_publ_section_title
;
Structure prediction by ZEFSAII (Michael W. Deem and Ramdas Pophale) SiO2 
 PCOD8015771
Probable space group: P -1
;
_chemical_formula_sum "Si O2"
_cell_formula_units_Z 16
_cell_length_a 9.038509
_cell_length_b 14.951180
_cell_length_c 15.115906
_cell_angle_alpha 48.760878
_cell_angle_beta 81.285566
_cell_angle_gamma 42.966743
_cell_volume 799.549958
_symmetry_space_group_name_H-M "P -1"
_symmetry_group_IT_number 2
_symmetry_cell_setting 'triclinic'
loop_
_space_group_symop_operation_xyz
x,y,z
-x,-y,-z
loop_
_atom_site_type_symbol
_atom_site_label
_atom_site_fract_x
_atom_site_fract_y
_atom_site_fract_z
Si Si1 0.372344 0.829656 0.644780
Si Si2 0.149504 0.975003 0.076928
Si Si3 0.006388 0.331162 0.893596
Si Si4 0.800223 0.857804 0.406845
Si Si5 0.212144 0.760783 0.371080
Si Si6 0.386277 0.005409 0.223794
Si Si7 0.742462 0.653074 0.269952
Si Si8 0.119511 0.994109 0.371712
O O1 0.705119 0.584823 0.785337
O O2 0.297602 0.903816 0.501400
O O3 0.296032 0.002336 0.590283
O O4 0.208099 0.820895 0.698362
O O5 0.138405 0.913961 0.210029
O O6 0.480746 0.778154 0.153662
O O7 0.000000 0.000000 0.000000
O O8 0.974758 0.214853 0.945463
O O9 0.133176 0.314337 0.809058
O O10 0.220932 0.200086 0.042225
O O11 0.528770 0.990145 0.294934
O O12 0.958239 0.837874 0.337308
O O13 0.009908 0.610775 0.577404
O O14 0.500000 0.500000 0.500000
O O15 0.248715 0.789555 0.447211
O O16 0.623409 0.766836 0.304782
O O17 0.150900 0.082838 0.243719
#
# Coordination Sequence:
#
# PCOD8015771 Si02
#       8
#     2   2   2   2   2   2   2   2
#     4  10  25  42  64  91 123 176 210 254 306 370
#     4  11  24  39  64  98 127 163 200 262 323 373
#     4  11  25  43  61  93 136 166 201 249 328 382
#     4  11  24  40  65  95 121 168 218 257 299 370
#     4  11  21  40  65  96 124 154 218 262 309 368
#     4  11  22  41  65  95 123 164 204 266 321 361
#     4  11  23  43  64  95 130 163 205 260 321 371
#     4  10  21  43  65  87 124 165 214 257 301 366
#
# _framework density 20.011258999999999
#
# number of rings (size 3 to 8) (size 9 to 14) (size 15 to 20)
#    0.000    1.250    3.750    2.625    5.250    4.000 
#    0.000    0.000    0.000    0.000    0.000    0.000 
#    0.000    0.000    0.000    0.000    0.000    0.000 
#
# Total GULP energy -198372.324301 kJ/mol
# GULP energy per Si atom -12398.270269 kJ/mol
# Density = 1.996571 g / cm^3
# Si number density = 20.011259 Si / 1000 Ang^3
#
#
#
# Elastic Constant Matrix: (Units=GPa)
#
#
# Indices 1 2 3 4 5 6 
#
# 1 118.1315 48.5506 49.7320 12.9155 1.7029 5.1699
# 2 48.5506 103.2957 55.9612 9.1298 -0.1433 -1.7254
# 3 49.7320 55.9612 94.7993 -5.4184 -4.2557 8.7570
# 4 12.9155 9.1298 -5.4184 24.4538 -5.2927 -0.2306
# 5 1.7029 -0.1433 -4.2557 -5.2927 42.3130 14.7771
# 6 5.1699 -1.7254 8.7570 -0.2306 14.7771 41.0880
#
#
#
# Elastic Compliance Matrix: (Units=1/GPa)
#
#
# Indices 1 2 3 4 5 6 
#
# 1 0.012707 -0.001992 -0.006070 -0.007792 -0.002233 0.000370
# 2 -0.001992 0.016711 -0.009816 -0.008041 -0.003321 0.004194
# 3 -0.006070 -0.009816 0.021115 0.012817 0.006132 -0.006282
# 4 -0.007792 -0.008041 0.012817 0.052985 0.010097 -0.005423
# 5 -0.002233 -0.003321 0.006132 0.010097 0.029711 -0.011794
# 6 0.000370 0.004194 -0.006282 -0.005423 -0.011794 0.030018
#
#
# Mechanical properties :
#
#
# Convention : Reuss Voigt Hill
#
# Bulk Modulus (GPa) = 67.66885 69.41270 68.54078
# Shear Modulus (GPa) = 24.51827 32.36982 28.44404
#
# Velocity S-wave (km/s) = 3.50412 4.02628 3.77424
# Velocity P-wave (km/s) = 7.08947 7.50844 7.30196
#
# Compressibility (1/GPa) = 0.01477785
#
# Stress axis : x y z
#
# Youngs Moduli (GPa) = 78.69492 59.83990 47.35868
#
# Poissons Ratio (x) = 0.11922 0.28747
# Poissons Ratio (y) = 0.15679 0.46486
# Poissons Ratio (z) = 0.47768 0.58737
#
# Static dielectric constant tensor:
#      x y z
#    x 3.999990 -0.163250 -0.027090 
#    y -0.163250 3.884120 0.186410 
#    z -0.027090 0.186410 3.609270 
# 
# 
# High freq. dielectric constant tensor:
#      x y z
#    x 1.799130 -0.008120 -0.000900 
#    y -0.008120 1.784040 0.006310 
#    z -0.000900 0.006310 1.769300 
# 
# From -- ./inp_files/182505.got.cif
#   From: 2010.06.25/outbox.cif.g09.slc.cpg/sg2_92_cif.got.tgz:182505.got - 2010.06.27 13:26:56.
