data_PCOD8015233
_publ_section_title
;
Structure prediction by ZEFSAII (Michael W. Deem and Ramdas Pophale) SiO2 
 PCOD8015233
Probable space group: P -1
;
_chemical_formula_sum "Si O2"
_cell_formula_units_Z 16
_cell_length_a 18.719103
_cell_length_b 8.497456
_cell_length_c 21.710889
_cell_angle_alpha 138.685093
_cell_angle_beta 17.882096
_cell_angle_gamma 139.891371
_cell_volume 678.436067
_symmetry_space_group_name_H-M "P -1"
_symmetry_group_IT_number 2
_symmetry_cell_setting 'triclinic'
loop_
_space_group_symop_operation_xyz
x,y,z
-x,-y,-z
loop_
_atom_site_type_symbol
_atom_site_label
_atom_site_fract_x
_atom_site_fract_y
_atom_site_fract_z
Si Si1 0.628510 0.316600 0.872389
Si Si2 0.448910 0.560337 0.898572
Si Si3 0.534620 0.184076 0.468357
Si Si4 0.985408 0.756840 0.115178
Si Si5 0.404609 0.009720 0.764852
Si Si6 0.972998 0.890236 0.557728
Si Si7 0.682604 0.728665 0.537569
Si Si8 0.318975 0.783717 0.954529
O O1 0.856386 0.301134 0.638664
O O2 0.438976 0.057287 0.957644
O O3 0.500000 0.500000 0.000000
O O4 0.706654 0.415795 0.906130
O O5 0.289622 0.603069 0.983951
O O6 0.699532 0.763694 0.758256
O O7 0.517244 0.300778 0.760511
O O8 0.278141 0.207612 0.661969
O O9 0.659138 0.073354 0.277632
O O10 0.703949 0.454031 0.423073
O O11 0.500000 0.000000 0.500000
O O12 0.000000 0.500000 0.000000
O O13 0.164528 0.966042 0.990070
O O14 0.061947 0.769799 0.128690
O O15 0.592339 0.864594 0.594430
O O16 0.061768 0.103963 0.599019
O O17 0.000000 0.000000 0.500000
O O18 0.487021 0.691836 0.741068
#
# Coordination Sequence:
#
# PCOD8015233 Si02
#       8
#     2   2   2   2   2   2   2   2
#     4  11  24  43  67 102 143 181 237 284 344 416
#     4  12  24  45  70 107 145 180 238 288 346 418
#     4  12  26  47  73 105 141 181 238 295 344 418
#     4  11  24  47  74  96 140 189 225 286 363 402
#     4  11  26  44  71 106 142 181 235 289 349 422
#     4  11  24  43  74  99 140 189 226 288 351 405
#     4  10  21  45  66 101 141 180 230 288 342 416
#     4  10  21  42  67 100 139 180 225 290 337 417
#
# _framework density 23.583651
#
# number of rings (size 3 to 8) (size 9 to 14) (size 15 to 20)
#    0.000    1.000    5.000    3.750    0.000    5.500 
#    0.000    0.000    0.000    0.000    0.000    0.000 
#    0.000    0.000    0.000    0.000    0.000    0.000 
#
# Total GULP energy -198451.474614 kJ/mol
# GULP energy per Si atom -12403.217163 kJ/mol
# Density = 2.352997 g / cm^3
# Si number density = 23.583651 Si / 1000 Ang^3
#
#
#
# Elastic Constant Matrix: (Units=GPa)
#
#
# Indices 1 2 3 4 5 6 
#
# 1 166.7198 54.0422 23.9469 10.2176 8.6592 3.2844
# 2 54.0422 132.0760 23.0454 15.2502 5.7643 11.0377
# 3 23.9469 23.0454 61.8977 -1.0907 -12.5724 8.5439
# 4 10.2176 15.2502 -1.0907 34.4493 5.6945 2.6891
# 5 8.6592 5.7643 -12.5724 5.6945 32.5410 4.7348
# 6 3.2844 11.0377 8.5439 2.6891 4.7348 41.1782
#
#
#
# Elastic Compliance Matrix: (Units=1/GPa)
#
#
# Indices 1 2 3 4 5 6 
#
# 1 0.007315 -0.002414 -0.002586 -0.000842 -0.002508 0.000944
# 2 -0.002414 0.009602 -0.002774 -0.003288 -0.001346 -0.001436
# 3 -0.002586 -0.002774 0.020800 0.001418 0.009632 -0.004566
# 4 -0.000842 -0.003288 0.001418 0.031517 -0.004024 -0.000941
# 5 -0.002508 -0.001346 0.009632 -0.004024 0.036849 -0.005412
# 6 0.000944 -0.001436 -0.004566 -0.000941 -0.005412 0.026226
#
#
# Mechanical properties :
#
#
# Convention : Reuss Voigt Hill
#
# Bulk Modulus (GPa) = 45.10654 62.52917 53.81785
# Shear Modulus (GPa) = 32.20680 38.94431 35.57555
#
# Velocity S-wave (km/s) = 3.69947 4.06806 3.88813
# Velocity P-wave (km/s) = 6.11684 6.97401 6.55944
#
# Compressibility (1/GPa) = 0.02216974
#
# Stress axis : x y z
#
# Youngs Moduli (GPa) = 136.69888 104.14916 48.07579
#
# Poissons Ratio (x) = 0.25144 0.12431
# Poissons Ratio (y) = 0.33003 0.13335
# Poissons Ratio (z) = 0.35347 0.28889
#
# Static dielectric constant tensor:
#      x y z
#    x 4.627570 0.015530 0.533070 
#    y 0.015530 4.231030 -0.275080 
#    z 0.533070 -0.275080 1.673410 
# 
# 
# High freq. dielectric constant tensor:
#      x y z
#    x 1.951840 0.005770 0.007520 
#    y 0.005770 1.933880 0.010420 
#    z 0.007520 0.010420 1.925850 
# 
# From -- ./inp_files/346249.got.cif
#   From: 2010.06.25/outbox.cif.g09.slc.cpg/sg2_174_cif.got.tgz:346249.got - 2010.06.27 13:26:56.
