data_PCOD8015894
_publ_section_title
;
Structure prediction by ZEFSAII (Michael W. Deem and Ramdas Pophale) SiO2 
 PCOD8015894
Probable space group: P -1
;
_chemical_formula_sum "Si O2"
_cell_formula_units_Z 16
_cell_length_a 25.252021
_cell_length_b 8.812324
_cell_length_c 8.861523
_cell_angle_alpha 59.484134
_cell_angle_beta 130.706824
_cell_angle_gamma 148.609295
_cell_volume 772.614985
_symmetry_space_group_name_H-M "P -1"
_symmetry_group_IT_number 2
_symmetry_cell_setting 'triclinic'
loop_
_space_group_symop_operation_xyz
x,y,z
-x,-y,-z
loop_
_atom_site_type_symbol
_atom_site_label
_atom_site_fract_x
_atom_site_fract_y
_atom_site_fract_z
Si Si1 0.301465 0.806483 0.404117
Si Si2 0.720369 0.364052 0.887555
Si Si3 0.295954 0.186276 0.082051
Si Si4 0.932368 0.713188 0.609568
Si Si5 0.121070 0.027720 0.023847
Si Si6 0.069583 0.656136 0.355100
Si Si7 0.815754 0.191659 0.212920
Si Si8 0.469520 0.817733 0.176657
O O1 0.307452 0.722374 0.296107
O O2 0.201062 0.522854 0.469908
O O3 0.285272 0.983150 0.258831
O O4 0.419102 0.007613 0.608342
O O5 0.615160 0.249245 0.833425
O O6 0.835782 0.715892 0.934216
O O7 0.749806 0.242939 0.091344
O O8 0.419315 0.530507 0.165227
O O9 0.201362 0.142061 0.973578
O O10 0.270657 0.100571 0.901825
O O11 0.942196 0.572483 0.584083
O O12 0.000000 0.000000 0.500000
O O13 0.992076 0.799318 0.838466
O O14 0.130598 0.876362 0.221365
O O15 0.156342 0.855796 0.557373
O O16 0.941666 0.483032 0.224123
O O17 0.500000 0.000000 0.000000
#
# Coordination Sequence:
#
# PCOD8015894 Si02
#       8
#     2   2   2   2   2   2   2   2
#     4  11  24  44  67  93 130 178 219 265 327 379
#     4  10  24  43  65  95 133 169 218 272 316 392
#     4  10  21  43  67  91 128 173 214 264 317 396
#     4  12  25  38  68  99 136 170 217 268 324 396
#     4  11  21  39  64  94 131 166 215 251 330 383
#     4  11  22  37  63  97 134 171 207 265 318 403
#     4  10  22  39  63  94 135 165 212 263 329 372
#     4  11  26  42  69  95 128 170 224 273 323 381
#
# _framework density 20.70889
#
# number of rings (size 3 to 8) (size 9 to 14) (size 15 to 20)
#    0.000    1.250    2.500    3.375    5.250    5.000 
#    0.000    2.500    0.000    0.000    0.000    0.000 
#    0.000    0.000    0.000    0.000    0.000    0.000 
#
# Total GULP energy -198371.067061 kJ/mol
# GULP energy per Si atom -12398.191691 kJ/mol
# Density = 2.066176 g / cm^3
# Si number density = 20.708890 Si / 1000 Ang^3
#
#
#
# Elastic Constant Matrix: (Units=GPa)
#
#
# Indices 1 2 3 4 5 6 
#
# 1 91.9653 63.8353 58.7233 10.9739 -4.2245 -15.4672
# 2 63.8353 109.1772 45.1879 6.8120 -9.1038 -8.2150
# 3 58.7233 45.1879 120.3932 23.5684 -12.1071 -4.8998
# 4 10.9739 6.8120 23.5684 42.8842 4.4413 -1.3974
# 5 -4.2245 -9.1038 -12.1071 4.4413 27.8389 3.1748
# 6 -15.4672 -8.2150 -4.8998 -1.3974 3.1748 34.2938
#
#
#
# Elastic Compliance Matrix: (Units=1/GPa)
#
#
# Indices 1 2 3 4 5 6 
#
# 1 0.024683 -0.010850 -0.008211 0.000625 -0.004362 0.007790
# 2 -0.010850 0.015835 -0.000365 0.000048 0.003534 -0.001478
# 3 -0.008211 -0.000365 0.014205 -0.006366 0.006123 -0.002588
# 4 0.000625 0.000048 -0.006366 0.027430 -0.007167 0.001165
# 5 -0.004362 0.003534 0.006123 -0.007167 0.040712 -0.004307
# 6 0.007790 -0.001478 -0.002588 0.001165 -0.004307 0.032396
#
#
# Mechanical properties :
#
#
# Convention : Reuss Voigt Hill
#
# Bulk Modulus (GPa) = 63.01148 73.00320 68.00734
# Shear Modulus (GPa) = 25.07463 31.25597 28.16530
#
# Velocity S-wave (km/s) = 3.48345 3.88919 3.69190
# Velocity P-wave (km/s) = 6.83173 7.44959 7.14734
#
# Compressibility (1/GPa) = 0.01587012
#
# Stress axis : x y z
#
# Youngs Moduli (GPa) = 40.51310 63.15042 70.39779
#
# Poissons Ratio (x) = 0.68520 0.57805
# Poissons Ratio (y) = 0.43958 0.02572
# Poissons Ratio (z) = 0.33266 0.02307
#
# Static dielectric constant tensor:
#      x y z
#    x 3.773250 -0.170900 -0.060160 
#    y -0.170900 3.756720 0.155050 
#    z -0.060160 0.155050 3.789130 
# 
# 
# High freq. dielectric constant tensor:
#      x y z
#    x 1.816840 -0.011960 -0.004280 
#    y -0.011960 1.803490 0.009190 
#    z -0.004280 0.009190 1.821480 
# 
# From -- ./inp_files/178703.got.cif
#   From: 2010.06.25/outbox.cif.g09.slc.cpg/sg2_90_cif.got.tgz:178703.got - 2010.06.27 13:26:56.
