data_PCOD8015522
_publ_section_title
;
Structure prediction by ZEFSAII (Michael W. Deem and Ramdas Pophale) SiO2 
 PCOD8015522
Probable space group: P -1
;
_chemical_formula_sum "Si O2"
_cell_formula_units_Z 16
_cell_length_a 12.136268
_cell_length_b 18.051213
_cell_length_c 20.233848
_cell_angle_alpha 20.320163
_cell_angle_beta 151.682920
_cell_angle_gamma 151.318984
_cell_volume 693.205824
_symmetry_space_group_name_H-M "P -1"
_symmetry_group_IT_number 2
_symmetry_cell_setting 'triclinic'
loop_
_space_group_symop_operation_xyz
x,y,z
-x,-y,-z
loop_
_atom_site_type_symbol
_atom_site_label
_atom_site_fract_x
_atom_site_fract_y
_atom_site_fract_z
Si Si1 0.958362 0.605067 0.785956
Si Si2 0.257962 0.942007 0.553105
Si Si3 0.711621 0.433183 0.206235
Si Si4 0.281484 0.386759 0.216606
Si Si5 0.271676 0.599298 0.368900
Si Si6 0.712132 0.119263 0.732895
Si Si7 0.247992 0.360520 0.807014
Si Si8 0.533427 0.254031 0.786947
O O1 0.790412 0.675674 0.692526
O O2 0.792858 0.387608 0.843393
O O3 0.074350 0.787057 0.638779
O O4 0.174369 0.563897 0.976900
O O5 0.309082 0.817851 0.618825
O O6 0.168708 0.154147 0.309277
O O7 0.512314 0.091522 0.594796
O O8 0.676868 0.457229 0.245637
O O9 0.993354 0.578837 0.217764
O O10 0.500000 0.500000 0.000000
O O11 0.575538 0.516584 0.262141
O O12 0.357992 0.768235 0.333657
O O13 0.316516 0.356753 0.609661
O O14 0.456559 0.724000 0.305048
O O15 0.965348 0.291660 0.693546
O O16 0.716464 0.870250 0.957534
O O17 0.500000 0.000000 0.000000
#
# Coordination Sequence:
#
# PCOD8015522 Si02
#       8
#     2   2   2   2   2   2   2   2
#     4  11  24  44  63 101 136 170 223 279 332 400
#     4  12  23  42  71  98 131 178 219 275 345 387
#     4  11  21  42  69  95 134 172 220 278 332 393
#     4  11  25  40  68  98 134 173 222 279 328 404
#     4  10  24  43  66  96 136 173 219 273 330 402
#     4  10  21  42  70  92 132 178 218 278 331 394
#     4  10  22  42  63  97 132 176 225 269 335 393
#     4  11  25  42  67  98 133 178 222 269 336 402
#
# _framework density 23.081168000000002
#
# number of rings (size 3 to 8) (size 9 to 14) (size 15 to 20)
#    0.000    1.250    3.750    1.125    3.500    1.000 
#    0.000    2.500    0.000    0.000    0.000    0.000 
#    0.000    0.000    0.000    0.000    0.000    0.000 
#
# Total GULP energy -198237.904304 kJ/mol
# GULP energy per Si atom -12389.869019 kJ/mol
# Density = 2.302863 g / cm^3
# Si number density = 23.081168 Si / 1000 Ang^3
#
#
#
# Elastic Constant Matrix: (Units=GPa)
#
#
# Indices 1 2 3 4 5 6 
#
# 1 108.7168 47.4746 48.6411 -15.4195 30.0481 0.6981
# 2 47.4746 132.1691 37.5555 -6.6046 10.2861 1.6852
# 3 48.6411 37.5555 71.4555 -25.2260 10.3623 10.3592
# 4 -15.4195 -6.6046 -25.2260 44.6697 -2.8479 8.1432
# 5 30.0481 10.2861 10.3623 -2.8479 26.4454 -9.0826
# 6 0.6981 1.6852 10.3592 8.1432 -9.0826 40.7660
#
#
#
# Elastic Compliance Matrix: (Units=1/GPa)
#
#
# Indices 1 2 3 4 5 6 
#
# 1 0.019518 -0.003138 -0.008337 0.000820 -0.018409 -0.002351
# 2 -0.003138 0.009611 -0.004163 -0.002182 0.001753 0.001541
# 3 -0.008337 -0.004163 0.028818 0.014537 -0.002208 -0.010404
# 4 0.000820 -0.002182 0.014537 0.032246 -0.006239 -0.011449
# 5 -0.018409 0.001753 -0.002208 -0.006239 0.063830 0.016271
# 6 -0.002351 0.001541 -0.010404 -0.011449 0.016271 0.033063
#
#
# Mechanical properties :
#
#
# Convention : Reuss Voigt Hill
#
# Bulk Modulus (GPa) = 37.49382 64.40930 50.95156
# Shear Modulus (GPa) = 22.00187 34.28757 28.14472
#
# Velocity S-wave (km/s) = 3.09081 3.85843 3.49575
# Velocity P-wave (km/s) = 5.38675 6.91492 6.19811
#
# Compressibility (1/GPa) = 0.02667106
#
# Stress axis : x y z
#
# Youngs Moduli (GPa) = 51.23451 104.04580 34.70016
#
# Poissons Ratio (x) = 0.32653 0.28929
# Poissons Ratio (y) = 0.16079 0.14446
# Poissons Ratio (z) = 0.42713 0.43316
#
# Static dielectric constant tensor:
#      x y z
#    x 4.351690 0.041600 0.561580 
#    y 0.041600 4.338080 0.065170 
#    z 0.561580 0.065170 4.525660 
# 
# 
# High freq. dielectric constant tensor:
#      x y z
#    x 1.907040 0.000570 0.023980 
#    y 0.000570 1.922260 0.000380 
#    z 0.023980 0.000380 1.917140 
# 
# From -- ./inp_files/272968.got.cif
#   From: 2010.06.25/outbox.cif.g09.slc.cpg/sg2_137_cif.got.tgz:272968.got - 2010.06.27 13:26:56.
