data_PCOD8015728
_publ_section_title
;
Structure prediction by ZEFSAII (Michael W. Deem and Ramdas Pophale) SiO2 
 PCOD8015728
Probable space group: P -1
;
_chemical_formula_sum "Si O2"
_cell_formula_units_Z 16
_cell_length_a 7.008351
_cell_length_b 13.871318
_cell_length_c 16.765194
_cell_angle_alpha 28.945833
_cell_angle_beta 116.879606
_cell_angle_gamma 104.341857
_cell_volume 660.985258
_symmetry_space_group_name_H-M "P -1"
_symmetry_group_IT_number 2
_symmetry_cell_setting 'triclinic'
loop_
_space_group_symop_operation_xyz
x,y,z
-x,-y,-z
loop_
_atom_site_type_symbol
_atom_site_label
_atom_site_fract_x
_atom_site_fract_y
_atom_site_fract_z
Si Si1 0.624416 0.668048 0.803784
Si Si2 0.167405 0.099202 0.999018
Si Si3 0.033854 0.787976 0.785774
Si Si4 0.642504 0.020444 0.338348
Si Si5 0.499504 0.629628 0.640362
Si Si6 0.342677 0.087395 0.751703
Si Si7 0.068274 0.532658 0.578981
Si Si8 0.105686 0.808597 0.966318
O O1 0.504147 0.796405 0.764501
O O2 0.452922 0.664339 0.702067
O O3 0.793930 0.779559 0.714127
O O4 0.765213 0.435084 0.030986
O O5 0.167859 0.311298 0.802754
O O6 0.101895 0.150877 0.041476
O O7 0.414427 0.916167 0.167287
O O8 0.000000 0.000000 0.000000
O O9 0.096725 0.972454 0.616482
O O10 0.994746 0.824230 0.846887
O O11 0.602746 0.801451 0.502466
O O12 0.590550 0.071904 0.196830
O O13 0.696453 0.410107 0.819244
O O14 0.264031 0.642542 0.542363
O O15 0.166989 0.321804 0.528197
O O16 0.217282 0.992004 0.863564
O O17 0.000000 0.500000 0.500000
#
# Coordination Sequence:
#
# PCOD8015728 Si02
#       8
#     2   2   2   2   2   2   2   2
#     4  10  21  43  64 100 147 184 236 292 349 425
#     4  12  27  46  78 106 135 189 241 301 368 422
#     4   9  21  40  68 101 139 191 231 287 359 420
#     4  11  23  40  70 102 142 186 234 289 351 427
#     4  11  25  45  70 104 146 191 239 298 355 424
#     4  11  26  47  74 106 141 189 234 294 362 426
#     4  12  29  50  75 104 147 189 241 303 356 428
#     4  10  22  47  70 102 146 181 236 294 355 431
#
# _framework density 24.206289999999999
#
# number of rings (size 3 to 8) (size 9 to 14) (size 15 to 20)
#    0.000    1.250    1.250    3.000    8.750    2.000 
#    9.000    0.000    0.000    0.000    0.000    0.000 
#    0.000    0.000    0.000    0.000    0.000    0.000 
#
# Total GULP energy -198308.921890 kJ/mol
# GULP energy per Si atom -12394.307618 kJ/mol
# Density = 2.415120 g / cm^3
# Si number density = 24.206290 Si / 1000 Ang^3
#
#
#
# Elastic Constant Matrix: (Units=GPa)
#
#
# Indices 1 2 3 4 5 6 
#
# 1 122.3024 50.4046 50.0986 5.0645 3.5791 12.6735
# 2 50.4046 113.6568 26.2936 3.1844 8.2941 7.2895
# 3 50.0986 26.2936 64.2175 -1.8466 4.6693 6.0593
# 4 5.0645 3.1844 -1.8466 30.2309 5.9830 2.1875
# 5 3.5791 8.2941 4.6693 5.9830 40.4887 0.1251
# 6 12.6735 7.2895 6.0593 2.1875 0.1251 45.9995
#
#
#
# Elastic Compliance Matrix: (Units=1/GPa)
#
#
# Indices 1 2 3 4 5 6 
#
# 1 0.013788 -0.003885 -0.009136 -0.002524 0.001009 -0.001862
# 2 -0.003885 0.010985 -0.001302 -0.000210 -0.001724 -0.000484
# 3 -0.009136 -0.001302 0.023544 0.003574 -0.002167 -0.000542
# 4 -0.002524 -0.000210 0.003574 0.034891 -0.005298 -0.001387
# 5 0.001009 -0.001724 -0.002167 -0.005298 0.025994 0.000462
# 6 -0.001862 -0.000484 -0.000542 -0.001387 0.000462 0.022465
#
#
# Mechanical properties :
#
#
# Convention : Reuss Voigt Hill
#
# Bulk Modulus (GPa) = 50.83548 61.53002 56.18275
# Shear Modulus (GPa) = 29.96346 34.90247 32.43297
#
# Velocity S-wave (km/s) = 3.52211 3.80132 3.66438
# Velocity P-wave (km/s) = 6.13081 6.68887 6.41591
#
# Compressibility (1/GPa) = 0.01967130
#
# Stress axis : x y z
#
# Youngs Moduli (GPa) = 72.52814 91.03173 42.47324
#
# Poissons Ratio (x) = 0.35362 0.38804
# Poissons Ratio (y) = 0.28174 0.05531
# Poissons Ratio (z) = 0.66262 0.11855
#
# Static dielectric constant tensor:
#      x y z
#    x 4.721090 0.127640 -0.138960 
#    y 0.127640 4.558420 -0.132730 
#    z -0.138960 -0.132730 4.227050 
# 
# 
# High freq. dielectric constant tensor:
#      x y z
#    x 1.972130 0.005020 -0.003050 
#    y 0.005020 1.968640 -0.005960 
#    z -0.003050 -0.005960 1.949330 
# 
# From -- ./inp_files/550046.got.cif
#   From: 2010.06.25/outbox.cif.g09.slc.cpg/sg2_276_cif.got.tgz:550046.got - 2010.06.27 13:26:56.
