data_PCOD8015996
_publ_section_title
;
Structure prediction by ZEFSAII (Michael W. Deem and Ramdas Pophale) SiO2 
 PCOD8015996
Probable space group: P -1
;
_chemical_formula_sum "Si O2"
_cell_formula_units_Z 16
_cell_length_a 8.557515
_cell_length_b 14.632450
_cell_length_c 9.544603
_cell_angle_alpha 62.459525
_cell_angle_beta 110.612056
_cell_angle_gamma 138.655575
_cell_volume 700.010317
_symmetry_space_group_name_H-M "P -1"
_symmetry_group_IT_number 2
_symmetry_cell_setting 'triclinic'
loop_
_space_group_symop_operation_xyz
x,y,z
-x,-y,-z
loop_
_atom_site_type_symbol
_atom_site_label
_atom_site_fract_x
_atom_site_fract_y
_atom_site_fract_z
Si Si1 0.852861 0.095132 0.450028
Si Si2 0.719103 0.102173 0.891196
Si Si3 0.436553 0.632057 0.856023
Si Si4 0.037642 0.196624 0.161720
Si Si5 0.526707 0.899792 0.709944
Si Si6 0.226950 0.395347 0.467687
Si Si7 0.870958 0.548592 0.880783
Si Si8 0.034880 0.410962 0.660310
O O1 0.688338 0.124796 0.392542
O O2 0.888552 0.064403 0.324976
O O3 0.114380 0.240466 0.482818
O O4 0.720076 0.957209 0.607557
O O5 0.799114 0.254844 0.766510
O O6 0.663624 0.011099 0.802719
O O7 0.935983 0.140901 0.013203
O O8 0.500000 0.000000 0.000000
O O9 0.687470 0.709726 0.818307
O O10 0.416521 0.741639 0.820819
O O11 0.233851 0.515898 0.764022
O O12 0.375785 0.546855 0.042191
O O13 0.978714 0.285722 0.140695
O O14 0.500000 0.500000 0.500000
O O15 0.179370 0.468601 0.289809
O O16 0.117340 0.364304 0.606501
O O17 0.000000 0.500000 0.000000
O O18 0.000000 0.500000 0.500000
#
# Coordination Sequence:
#
# PCOD8015996 Si02
#       8
#     2   2   2   2   2   2   2   2
#     4  10  21  43  68  94 136 189 227 279 353 428
#     4  12  26  45  72 102 140 184 239 293 355 421
#     4  12  26  42  71 106 138 183 232 299 361 420
#     4  11  24  43  69  99 142 179 233 296 357 415
#     4  11  24  43  70  97 139 185 236 284 356 431
#     4  11  24  41  68 103 139 177 226 294 352 413
#     4  11  23  42  70 102 136 183 235 285 349 423
#     4  12  25  44  71 106 137 180 242 296 343 426
#
# _framework density 22.856807
#
# number of rings (size 3 to 8) (size 9 to 14) (size 15 to 20)
#    0.000    0.750    3.750    4.875    3.500    1.000 
#    0.000    1.250    0.000    0.000    0.000    0.000 
#    0.000    0.000    0.000    0.000    0.000    0.000 
#
# Total GULP energy -198282.401358 kJ/mol
# GULP energy per Si atom -12392.650085 kJ/mol
# Density = 2.280478 g / cm^3
# Si number density = 22.856807 Si / 1000 Ang^3
#
#
#
# Elastic Constant Matrix: (Units=GPa)
#
#
# Indices 1 2 3 4 5 6 
#
# 1 51.5809 16.1520 18.9874 -0.2421 -12.4465 16.5584
# 2 16.1520 115.5595 65.7430 9.0453 -2.0846 10.6606
# 3 18.9874 65.7430 114.3863 -9.2236 -19.4531 14.2444
# 4 -0.2421 9.0453 -9.2236 41.0049 13.3583 -10.7604
# 5 -12.4465 -2.0846 -19.4531 13.3583 35.4600 -5.0497
# 6 16.5584 10.6606 14.2444 -10.7604 -5.0497 38.4448
#
#
#
# Elastic Compliance Matrix: (Units=1/GPa)
#
#
# Indices 1 2 3 4 5 6 
#
# 1 0.025779 -0.001431 -0.001050 -0.005480 0.008932 -0.010678
# 2 -0.001431 0.014199 -0.008559 -0.004602 -0.002888 -0.001817
# 3 -0.001050 -0.008559 0.015282 0.002982 0.006219 -0.001185
# 4 -0.005480 -0.004602 0.002982 0.032380 -0.011317 0.010108
# 5 0.008932 -0.002888 0.006219 -0.011317 0.038346 -0.003482
# 6 -0.010678 -0.001817 -0.001185 0.010108 -0.003482 0.033925
#
#
# Mechanical properties :
#
#
# Convention : Reuss Voigt Hill
#
# Bulk Modulus (GPa) = 30.13881 53.69906 41.91893
# Shear Modulus (GPa) = 25.90012 35.02491 30.46252
#
# Velocity S-wave (km/s) = 3.36988 3.91879 3.65465
# Velocity P-wave (km/s) = 5.32503 6.63480 6.01567
#
# Compressibility (1/GPa) = 0.03317981
#
# Stress axis : x y z
#
# Youngs Moduli (GPa) = 38.79122 70.42970 65.43824
#
# Poissons Ratio (x) = 0.10076 0.06871
# Poissons Ratio (y) = 0.05550 0.56009
# Poissons Ratio (z) = 0.04073 0.60281
#
# Static dielectric constant tensor:
#      x y z
#    x 3.831090 0.192140 -0.338400 
#    y 0.192140 4.292300 -0.270080 
#    z -0.338400 -0.270080 4.849720 
# 
# 
# High freq. dielectric constant tensor:
#      x y z
#    x 1.882850 0.018110 -0.026390 
#    y 0.018110 1.906360 -0.010510 
#    z -0.026390 -0.010510 1.923960 
# 
# From -- ./inp_files/206501.got.cif
#   From: 2010.06.25/outbox.cif.g09.slc.cpg/sg2_104_cif.got.tgz:206501.got - 2010.06.27 13:26:56.
