data_PCOD8015510
_publ_section_title
;
Structure prediction by ZEFSAII (Michael W. Deem and Ramdas Pophale) SiO2 
 PCOD8015510
Probable space group: P -1
;
_chemical_formula_sum "Si O2"
_cell_formula_units_Z 16
_cell_length_a 11.963123
_cell_length_b 12.494334
_cell_length_c 11.521602
_cell_angle_alpha 116.238506
_cell_angle_beta 89.659238
_cell_angle_gamma 144.020483
_cell_volume 675.625718
_symmetry_space_group_name_H-M "P -1"
_symmetry_group_IT_number 2
_symmetry_cell_setting 'triclinic'
loop_
_space_group_symop_operation_xyz
x,y,z
-x,-y,-z
loop_
_atom_site_type_symbol
_atom_site_label
_atom_site_fract_x
_atom_site_fract_y
_atom_site_fract_z
Si Si1 0.246385 0.274056 0.963558
Si Si2 0.363375 0.675982 0.647638
Si Si3 0.145477 0.545961 0.819909
Si Si4 0.521970 0.955707 0.203535
Si Si5 0.875820 0.084775 0.292594
Si Si6 0.462392 0.296235 0.662503
Si Si7 0.147727 0.944663 0.282322
Si Si8 0.705780 0.290192 0.677116
O O1 0.120460 0.022103 0.849727
O O2 0.500000 0.500000 0.000000
O O3 0.333546 0.406688 0.153861
O O4 0.067837 0.190824 0.850511
O O5 0.285742 0.606500 0.748967
O O6 0.648257 0.898570 0.740506
O O7 0.170717 0.399781 0.456111
O O8 0.346559 0.791515 0.644201
O O9 0.980155 0.496797 0.743729
O O10 0.357956 0.816632 0.022902
O O11 0.969958 0.286587 0.769480
O O12 0.325054 0.721097 0.189920
O O13 0.735960 0.063166 0.226805
O O14 0.737127 0.923650 0.338666
O O15 0.289805 0.161988 0.485662
O O16 0.640664 0.354913 0.650369
O O17 0.500000 0.000000 0.500000
#
# Coordination Sequence:
#
# PCOD8015510 Si02
#       8
#     2   2   2   2   2   2   2   2
#     4  10  24  45  74 102 132 183 237 280 335 408
#     4  12  25  42  67 104 136 178 225 279 348 410
#     4  12  23  42  66 102 142 176 225 281 341 413
#     4  11  23  40  68 101 136 184 219 284 349 400
#     4  10  22  45  66  98 139 174 236 281 332 416
#     4  10  21  42  70 103 132 184 229 282 339 404
#     4  12  24  45  74 101 136 184 224 281 349 399
#     4  11  19  37  66  98 139 174 225 274 340 414
#
# _framework density 23.681750999999998
#
# number of rings (size 3 to 8) (size 9 to 14) (size 15 to 20)
#    0.000    1.000    3.750    4.125    1.750    3.500 
#    4.500    0.625    0.000    0.000    0.000    0.000 
#    0.000    0.000    0.000    0.000    0.000    0.000 
#
# Total GULP energy -198342.579114 kJ/mol
# GULP energy per Si atom -12396.411195 kJ/mol
# Density = 2.362785 g / cm^3
# Si number density = 23.681751 Si / 1000 Ang^3
#
#
#
# Elastic Constant Matrix: (Units=GPa)
#
#
# Indices 1 2 3 4 5 6 
#
# 1 126.5442 25.1372 37.6520 20.1204 0.9336 13.1718
# 2 25.1372 69.1516 17.9321 13.5867 4.2453 19.4079
# 3 37.6520 17.9321 118.1680 7.8832 -8.1919 2.6522
# 4 20.1204 13.5867 7.8832 24.5037 -3.1365 -2.8010
# 5 0.9336 4.2453 -8.1919 -3.1365 51.1466 9.1371
# 6 13.1718 19.4079 2.6522 -2.8010 9.1371 30.4454
#
#
#
# Elastic Compliance Matrix: (Units=1/GPa)
#
#
# Indices 1 2 3 4 5 6 
#
# 1 0.010574 -0.000086 -0.002703 -0.008366 -0.000242 -0.004981
# 2 -0.000086 0.021760 -0.002094 -0.013047 -0.000303 -0.014761
# 3 -0.002703 -0.002094 0.009683 0.000611 0.001590 0.001240
# 4 -0.008366 -0.013047 0.000611 0.056848 0.001862 0.016554
# 5 -0.000242 -0.000303 0.001590 0.001862 0.021018 -0.005977
# 6 -0.004981 -0.014761 0.001240 0.016554 -0.005977 0.047619
#
#
# Mechanical properties :
#
#
# Convention : Reuss Voigt Hill
#
# Bulk Modulus (GPa) = 31.00690 52.81183 41.90936
# Shear Modulus (GPa) = 26.59305 36.76198 31.67752
#
# Velocity S-wave (km/s) = 3.35466 3.94424 3.66134
# Velocity P-wave (km/s) = 5.30345 6.56443 5.96734
#
# Compressibility (1/GPa) = 0.03225089
#
# Stress axis : x y z
#
# Youngs Moduli (GPa) = 94.57001 45.95562 103.27126
#
# Poissons Ratio (x) = 0.00397 0.27915
# Poissons Ratio (y) = 0.00817 0.21624
# Poissons Ratio (z) = 0.25563 0.09623
#
# Static dielectric constant tensor:
#      x y z
#    x 3.795190 -0.795120 -0.085040 
#    y -0.795120 3.453240 0.454300 
#    z -0.085040 0.454300 4.660500 
# 
# 
# High freq. dielectric constant tensor:
#      x y z
#    x 1.933280 0.017250 -0.008660 
#    y 0.017250 1.920210 0.007180 
#    z -0.008660 0.007180 1.953770 
# 
# From -- ./inp_files/428571.got.cif
#   From: 2010.06.25/outbox.cif.g09.slc.cpg/sg2_215_cif.got.tgz:428571.got - 2010.06.27 13:26:56.
