data_PCOD8015639
_publ_section_title
;
Structure prediction by ZEFSAII (Michael W. Deem and Ramdas Pophale) SiO2 
 PCOD8015639
Probable space group: P -1
;
_chemical_formula_sum "Si O2"
_cell_formula_units_Z 16
_cell_length_a 9.251706
_cell_length_b 19.868291
_cell_length_c 19.576014
_cell_angle_alpha 26.217720
_cell_angle_beta 28.417507
_cell_angle_gamma 36.579666
_cell_volume 754.847372
_symmetry_space_group_name_H-M "P -1"
_symmetry_group_IT_number 2
_symmetry_cell_setting 'triclinic'
loop_
_space_group_symop_operation_xyz
x,y,z
-x,-y,-z
loop_
_atom_site_type_symbol
_atom_site_label
_atom_site_fract_x
_atom_site_fract_y
_atom_site_fract_z
Si Si1 0.815475 0.429287 0.701073
Si Si2 0.707839 0.664356 0.089152
Si Si3 0.037566 0.899311 0.009911
Si Si4 0.311793 0.895082 0.127771
Si Si5 0.774233 0.141784 0.296710
Si Si6 0.486858 0.871571 0.726786
Si Si7 0.835450 0.685560 0.572316
Si Si8 0.192109 0.426588 0.173369
O O1 0.480314 0.394763 0.843420
O O2 0.813703 0.550875 0.650626
O O3 0.000000 0.500000 0.500000
O O4 0.990026 0.275935 0.797587
O O5 0.479815 0.736518 0.175919
O O6 0.939782 0.531533 0.142880
O O7 0.906799 0.803909 0.857587
O O8 0.335888 0.914304 0.823967
O O9 0.751975 0.974992 0.020147
O O10 0.000000 0.000000 0.000000
O O11 0.005787 0.834689 0.343048
O O12 0.500000 0.000000 0.000000
O O13 0.769834 0.131577 0.224238
O O14 0.512644 0.265078 0.314756
O O15 0.733190 0.984975 0.495301
O O16 0.690194 0.713667 0.796115
O O17 0.978666 0.624357 0.640183
O O18 0.500000 0.500000 0.000000
#
# Coordination Sequence:
#
# PCOD8015639 Si02
#       8
#     2   2   2   2   2   2   2   2
#     4  12  27  48  67  99 152 193 231 287 362 431
#     4  12  25  46  68 107 141 189 243 291 355 433
#     4  12  24  47  73 100 145 196 233 288 364 428
#     4  12  27  44  74 107 141 184 251 299 354 427
#     4  10  22  42  73 102 139 179 246 288 359 415
#     4  10  21  42  73 103 137 188 225 301 360 417
#     4  11  23  46  72 101 141 194 225 306 364 411
#     4  11  23  42  71 108 139 181 243 299 363 413
#
# _framework density 21.196337
#
# number of rings (size 3 to 8) (size 9 to 14) (size 15 to 20)
#    0.000    0.750    6.250    1.500    5.250    2.000 
#    0.000    0.625    0.000    0.000    0.000    0.000 
#    0.000    0.000    0.000    0.000    0.000    0.000 
#
# Total GULP energy -198215.592161 kJ/mol
# GULP energy per Si atom -12388.474510 kJ/mol
# Density = 2.114809 g / cm^3
# Si number density = 21.196337 Si / 1000 Ang^3
#
#
#
# Elastic Constant Matrix: (Units=GPa)
#
#
# Indices 1 2 3 4 5 6 
#
# 1 117.7419 64.5125 53.3544 -9.2801 -3.4158 2.5632
# 2 64.5125 127.1189 33.5669 -7.7424 12.4022 13.4443
# 3 53.3544 33.5669 120.1945 -7.9582 -1.4025 3.0841
# 4 -9.2801 -7.7424 -7.9582 40.0457 0.8285 7.8637
# 5 -3.4158 12.4022 -1.4025 0.8285 40.9891 -5.0954
# 6 2.5632 13.4443 3.0841 7.8637 -5.0954 46.0659
#
#
#
# Elastic Compliance Matrix: (Units=1/GPa)
#
#
# Indices 1 2 3 4 5 6 
#
# 1 0.014150 -0.006441 -0.004436 0.000771 0.003161 0.001607
# 2 -0.006441 0.012233 -0.000399 0.001678 -0.004783 -0.004000
# 3 -0.004436 -0.000399 0.010485 0.001080 0.000023 -0.000521
# 4 0.000771 0.001678 0.001080 0.026774 -0.001613 -0.005354
# 5 0.003161 -0.004783 0.000023 -0.001613 0.026693 0.004446
# 6 0.001607 -0.004000 -0.000521 -0.005354 0.004446 0.024227
#
#
# Mechanical properties :
#
#
# Convention : Reuss Voigt Hill
#
# Bulk Modulus (GPa) = 69.85015 74.21364 72.03189
# Shear Modulus (GPa) = 35.23958 39.66157 37.45058
#
# Velocity S-wave (km/s) = 4.08184 4.33037 4.20794
# Velocity P-wave (km/s) = 7.43240 7.75186 7.59381
#
# Compressibility (1/GPa) = 0.01431636
#
# Stress axis : x y z
#
# Youngs Moduli (GPa) = 70.67246 81.74738 95.37024
#
# Poissons Ratio (x) = 0.52654 0.42302
# Poissons Ratio (y) = 0.45521 0.03807
# Poissons Ratio (z) = 0.31347 0.03263
#
# Static dielectric constant tensor:
#      x y z
#    x 4.169900 0.717680 0.635070 
#    y 0.717680 5.966140 0.811780 
#    z 0.635070 0.811780 4.718270 
# 
# 
# High freq. dielectric constant tensor:
#      x y z
#    x 1.814340 0.004250 0.012450 
#    y 0.004250 1.853290 -0.010610 
#    z 0.012450 -0.010610 1.838140 
# 
# From -- ./inp_files/243981.got.cif
#   From: 2010.06.25/outbox.cif.g09.slc.cpg/sg2_122_cif.got.tgz:243981.got - 2010.06.27 13:26:56.
