data_PCOD8015811
_publ_section_title
;
Structure prediction by ZEFSAII (Michael W. Deem and Ramdas Pophale) SiO2 
 PCOD8015811
Probable space group: P -1
;
_chemical_formula_sum "Si O2"
_cell_formula_units_Z 14
_cell_length_a 7.391036
_cell_length_b 20.690390
_cell_length_c 11.176500
_cell_angle_alpha 152.973710
_cell_angle_beta 53.219107
_cell_angle_gamma 130.084099
_cell_volume 592.645971
_symmetry_space_group_name_H-M "P -1"
_symmetry_group_IT_number 2
_symmetry_cell_setting 'triclinic'
loop_
_space_group_symop_operation_xyz
x,y,z
-x,-y,-z
loop_
_atom_site_type_symbol
_atom_site_label
_atom_site_fract_x
_atom_site_fract_y
_atom_site_fract_z
Si Si1 0.881017 0.366491 0.560074
Si Si2 0.662823 0.908607 0.090190
Si Si3 0.073327 0.200342 0.400353
Si Si4 0.835686 0.079952 0.764068
Si Si5 0.667066 0.615237 0.717181
Si Si6 0.236583 0.357742 0.020193
Si Si7 0.629400 0.802065 0.511483
O O1 0.813683 0.519571 0.845530
O O2 0.644825 0.231981 0.399609
O O3 0.995644 0.330230 0.578398
O O4 0.064020 0.382237 0.406222
O O5 0.401457 0.924141 0.219582
O O6 0.748416 0.859185 0.849047
O O7 0.654048 0.782885 0.985023
O O8 0.844428 0.068012 0.315980
O O9 0.224330 0.268601 0.570952
O O10 0.748544 0.982723 0.759337
O O11 0.000000 0.000000 0.500000
O O12 0.992469 0.251311 0.000855
O O13 0.500000 0.500000 0.500000
O O14 0.603935 0.568653 0.804853
O O15 0.368375 0.267762 0.737081
#
# Coordination Sequence:
#
# PCOD8015811 Si02
#       7
#     2   2   2   2   2   2   2
#     4  11  24  44  70  99 137 178 229 281 329 411
#     4  10  21  43  66 101 133 176 230 279 331 402
#     4  10  23  41  70 103 134 174 230 280 336 394
#     4  10  22  43  66  99 137 179 222 278 340 400
#     4  11  25  44  69 100 134 181 229 281 342 403
#     4  11  25  44  65 100 139 179 223 278 348 395
#     4  11  24  45  68 101 138 178 229 279 336 410
#
# _framework density 23.622872000000001
#
# number of rings (size 3 to 8) (size 9 to 14) (size 15 to 20)
#    0.000    1.429    1.429    2.571    6.000    1.143 
#    7.714    4.286    0.000    0.000    0.000    0.000 
#    0.000    0.000    0.000    0.000    0.000    0.000 
#
# Total GULP energy -173526.676912 kJ/mol
# GULP energy per Si atom -12394.762637 kJ/mol
# Density = 2.356911 g / cm^3
# Si number density = 23.622872 Si / 1000 Ang^3
#
#
#
# Elastic Constant Matrix: (Units=GPa)
#
#
# Indices 1 2 3 4 5 6 
#
# 1 134.2477 40.0161 31.0452 -12.2209 1.3471 -4.9158
# 2 40.0161 93.4842 25.8850 17.1621 3.0252 6.0289
# 3 31.0452 25.8850 57.6932 3.4190 -6.8988 -2.9039
# 4 -12.2209 17.1621 3.4190 35.6388 -7.5352 -8.9213
# 5 1.3471 3.0252 -6.8988 -7.5352 43.2624 -4.3281
# 6 -4.9158 6.0289 -2.9039 -8.9213 -4.3281 45.9659
#
#
#
# Elastic Compliance Matrix: (Units=1/GPa)
#
#
# Indices 1 2 3 4 5 6 
#
# 1 0.010590 -0.005163 -0.003538 0.007471 0.001082 0.003138
# 2 -0.005163 0.016981 -0.004964 -0.011872 -0.004468 -0.005818
# 3 -0.003538 -0.004964 0.022055 0.000509 0.004280 0.002168
# 4 0.007471 -0.011872 0.000509 0.040978 0.008935 0.011183
# 5 0.001082 -0.004468 0.004280 0.008935 0.026149 0.005169
# 6 0.003138 -0.005818 0.002168 0.011183 0.005169 0.025648
#
#
# Mechanical properties :
#
#
# Convention : Reuss Voigt Hill
#
# Bulk Modulus (GPa) = 44.85000 53.25752 49.05376
# Shear Modulus (GPa) = 28.22275 37.53868 32.88071
#
# Velocity S-wave (km/s) = 3.46022 3.99065 3.73487
# Velocity P-wave (km/s) = 5.91534 6.62024 6.27769
#
# Compressibility (1/GPa) = 0.02229654
#
# Stress axis : x y z
#
# Youngs Moduli (GPa) = 94.42846 58.89029 45.34179
#
# Poissons Ratio (x) = 0.30402 0.16041
# Poissons Ratio (y) = 0.48749 0.22509
# Poissons Ratio (z) = 0.33406 0.29234
#
# Static dielectric constant tensor:
#      x y z
#    x 4.162410 0.133370 -0.162910 
#    y 0.133370 4.763250 0.423610 
#    z -0.162910 0.423610 3.998600 
# 
# 
# High freq. dielectric constant tensor:
#      x y z
#    x 1.935200 0.005110 -0.016860 
#    y 0.005110 1.951380 0.018020 
#    z -0.016860 0.018020 1.910960 
# 
# From -- ./inp_files/370499.got.cif
#   From: 2010.06.25/outbox.cif.g09.slc.cpg/sg2_186_cif.got.tgz:370499.got - 2010.06.27 13:26:56.
