data_PCOD8015316
_publ_section_title
;
Structure prediction by ZEFSAII (Michael W. Deem and Ramdas Pophale) SiO2 
 PCOD8015316
Probable space group: P -1
;
_chemical_formula_sum "Si O2"
_cell_formula_units_Z 16
_cell_length_a 8.750038
_cell_length_b 8.769186
_cell_length_c 23.500369
_cell_angle_alpha 50.568445
_cell_angle_beta 41.488630
_cell_angle_gamma 79.368464
_cell_volume 758.558060
_symmetry_space_group_name_H-M "P -1"
_symmetry_group_IT_number 2
_symmetry_cell_setting 'triclinic'
loop_
_space_group_symop_operation_xyz
x,y,z
-x,-y,-z
loop_
_atom_site_type_symbol
_atom_site_label
_atom_site_fract_x
_atom_site_fract_y
_atom_site_fract_z
Si Si1 0.306878 0.094783 0.541951
Si Si2 0.784161 0.364784 0.143729
Si Si3 0.165862 0.155476 0.360519
Si Si4 0.010600 0.230518 0.926925
Si Si5 0.747937 0.375309 0.808140
Si Si6 0.104433 0.989525 0.748929
Si Si7 0.246852 0.385883 0.701096
Si Si8 0.496973 0.137874 0.046579
O O1 0.456274 0.376435 0.420417
O O2 0.500000 0.000000 0.500000
O O3 0.259930 0.076171 0.626088
O O4 0.028378 0.957681 0.614165
O O5 0.454415 0.173080 0.264821
O O6 0.775802 0.551255 0.143359
O O7 0.898129 0.234088 0.176616
O O8 0.000000 0.500000 0.000000
O O9 0.259285 0.430383 0.273709
O O10 0.000000 0.000000 0.500000
O O11 0.085265 0.257647 0.833676
O O12 0.717755 0.211912 0.018967
O O13 0.000000 0.000000 0.000000
O O14 0.071321 0.464031 0.696831
O O15 0.549352 0.110292 0.901146
O O16 0.632254 0.348368 0.911126
O O17 0.788652 0.902834 0.844256
O O18 0.267709 0.201158 0.700044
#
# Coordination Sequence:
#
# PCOD8015316 Si02
#       8
#     2   2   2   2   2   2   2   2
#     4  12  24  43  68  96 128 176 230 273 335 412
#     4  12  27  43  64 100 146 179 220 287 339 399
#     4  12  25  42  67  98 137 179 227 279 348 402
#     4  11  22  40  70  96 136 175 224 273 342 397
#     4   9  18  38  66  95 129 165 223 274 332 397
#     4  11  24  42  67  96 135 172 227 276 338 397
#     4  10  21  42  67  97 126 173 221 282 325 404
#     4   9  20  37  67  98 125 173 225 275 328 400
#
# _framework density 21.092652000000001
#
# number of rings (size 3 to 8) (size 9 to 14) (size 15 to 20)
#    0.000    1.250    1.250    5.625    3.500    0.500 
#    0.000    0.625    0.000    0.000    0.000    0.000 
#    0.000    0.000    0.000    0.000    0.000    0.000 
#
# Total GULP energy -198319.155879 kJ/mol
# GULP energy per Si atom -12394.947242 kJ/mol
# Density = 2.104464 g / cm^3
# Si number density = 21.092652 Si / 1000 Ang^3
#
#
#
# Elastic Constant Matrix: (Units=GPa)
#
#
# Indices 1 2 3 4 5 6 
#
# 1 104.9340 41.1862 48.5659 -1.8194 -5.0657 -7.3916
# 2 41.1862 111.4764 44.9469 -1.5713 4.4760 0.6598
# 3 48.5659 44.9469 119.3885 -1.7254 -0.1880 -10.7582
# 4 -1.8194 -1.5713 -1.7254 38.3565 -4.6814 3.5076
# 5 -5.0657 4.4760 -0.1880 -4.6814 42.4088 -7.0235
# 6 -7.3916 0.6598 -10.7582 3.5076 -7.0235 38.0234
#
#
#
# Elastic Compliance Matrix: (Units=1/GPa)
#
#
# Indices 1 2 3 4 5 6 
#
# 1 0.012828 -0.003302 -0.003800 0.000404 0.002215 0.001848
# 2 -0.003302 0.011577 -0.003208 0.000127 -0.001969 -0.002126
# 3 -0.003800 -0.003208 0.011364 0.000007 0.000366 0.002600
# 4 0.000404 0.000127 0.000007 0.026593 0.002658 -0.001884
# 5 0.002215 -0.001969 0.000366 0.002658 0.025171 0.004973
# 6 0.001848 -0.002126 0.002600 -0.001884 0.004973 0.028524
#
#
# Mechanical properties :
#
#
# Convention : Reuss Voigt Hill
#
# Bulk Modulus (GPa) = 66.00287 67.24411 66.62349
# Shear Modulus (GPa) = 35.27918 37.16440 36.22179
#
# Velocity S-wave (km/s) = 4.09416 4.20212 4.14849
# Velocity P-wave (km/s) = 7.32866 7.44939 7.38927
#
# Compressibility (1/GPa) = 0.01515086
#
# Stress axis : x y z
#
# Youngs Moduli (GPa) = 77.95254 86.37527 87.99419
#
# Poissons Ratio (x) = 0.28519 0.33434
# Poissons Ratio (y) = 0.25738 0.28231
# Poissons Ratio (z) = 0.29618 0.27712
#
# Static dielectric constant tensor:
#      x y z
#    x 4.158990 0.059450 -0.232950 
#    y 0.059450 3.768150 -0.125740 
#    z -0.232950 -0.125740 3.978720 
# 
# 
# High freq. dielectric constant tensor:
#      x y z
#    x 1.832790 -0.003040 -0.005860 
#    y -0.003040 1.818740 -0.009520 
#    z -0.005860 -0.009520 1.836240 
# 
# From -- ./inp_files/277983.got.cif
#   From: 2010.06.25/outbox.cif.g09.slc.cpg/sg2_139_cif.got.tgz:277983.got - 2010.06.27 13:26:56.
