data_PCOD8015977
_publ_section_title
;
Structure prediction by ZEFSAII (Michael W. Deem and Ramdas Pophale) SiO2 
 PCOD8015977
Probable space group: P -1
;
_chemical_formula_sum "Si O2"
_cell_formula_units_Z 16
_cell_length_a 14.160825
_cell_length_b 14.580807
_cell_length_c 13.935888
_cell_angle_alpha 142.314264
_cell_angle_beta 150.806657
_cell_angle_gamma 30.445637
_cell_volume 702.372397
_symmetry_space_group_name_H-M "P -1"
_symmetry_group_IT_number 2
_symmetry_cell_setting 'triclinic'
loop_
_space_group_symop_operation_xyz
x,y,z
-x,-y,-z
loop_
_atom_site_type_symbol
_atom_site_label
_atom_site_fract_x
_atom_site_fract_y
_atom_site_fract_z
Si Si1 0.405963 0.393103 0.873860
Si Si2 0.476567 0.099802 0.349095
Si Si3 0.166898 0.075181 0.796585
Si Si4 0.494910 0.798675 0.010765
Si Si5 0.009221 0.234854 0.139600
Si Si6 0.690416 0.098858 0.734940
Si Si7 0.263962 0.358942 0.089584
Si Si8 0.335998 0.785154 0.548189
O O1 0.543084 0.304616 0.023494
O O2 0.474469 0.227920 0.725227
O O3 0.125885 0.549635 0.771916
O O4 0.500000 0.500000 0.000000
O O5 0.193982 0.197243 0.188675
O O6 0.580672 0.069647 0.521670
O O7 0.535948 0.221356 0.441471
O O8 0.590571 0.906543 0.236388
O O9 0.880991 0.232214 0.683288
O O10 0.213417 0.978013 0.654927
O O11 0.315042 0.163510 0.004686
O O12 0.257844 0.931526 0.847153
O O13 0.698764 0.641991 0.992007
O O14 0.133353 0.102753 0.231678
O O15 0.825688 0.191467 0.900984
O O16 0.455172 0.375998 0.331490
O O17 0.000000 0.500000 0.000000
#
# Coordination Sequence:
#
# PCOD8015977 Si02
#       8
#     2   2   2   2   2   2   2   2
#     4  10  23  43  66  96 133 171 226 268 328 392
#     4  12  22  38  67  97 125 168 228 259 330 401
#     4  10  21  43  68  88 128 169 216 270 324 394
#     4  11  22  41  69  94 128 179 218 271 336 388
#     4  10  23  41  66  87 131 172 214 276 331 372
#     4  10  23  42  62  95 125 172 220 272 322 393
#     4  11  23  42  67  97 138 165 213 278 329 394
#     4  10  22  39  65  96 121 168 218 260 325 398
#
# _framework density 22.77994
#
# number of rings (size 3 to 8) (size 9 to 14) (size 15 to 20)
#    0.000    1.500    3.750    1.125    3.500    1.000 
#    2.250    0.000    0.000    0.000    0.000    0.000 
#    0.000    0.000    0.000    0.000    0.000    0.000 
#
# Total GULP energy -198282.410650 kJ/mol
# GULP energy per Si atom -12392.650666 kJ/mol
# Density = 2.272809 g / cm^3
# Si number density = 22.779940 Si / 1000 Ang^3
#
#
#
# Elastic Constant Matrix: (Units=GPa)
#
#
# Indices 1 2 3 4 5 6 
#
# 1 131.2462 10.5542 33.7469 -9.5154 -16.1618 1.6745
# 2 10.5542 54.0159 10.6189 -19.3430 -25.6886 -7.7311
# 3 33.7469 10.6189 94.0057 -8.7671 -9.9624 -9.1010
# 4 -9.5154 -19.3430 -8.7671 18.8146 1.0444 6.8085
# 5 -16.1618 -25.6886 -9.9624 1.0444 35.8772 -2.9627
# 6 1.6745 -7.7311 -9.1010 6.8085 -2.9627 37.5185
#
#
#
# Elastic Compliance Matrix: (Units=1/GPa)
#
#
# Indices 1 2 3 4 5 6 
#
# 1 0.009295 0.004479 -0.002510 0.008174 0.006370 -0.001081
# 2 0.004479 0.062402 0.002639 0.063109 0.046047 0.005483
# 3 -0.002510 0.002639 0.012541 0.005980 0.004311 0.002953
# 4 0.008174 0.063109 0.005980 0.124090 0.046525 -0.004755
# 5 0.006370 0.046047 0.004311 0.046525 0.064123 0.006871
# 6 -0.001081 0.005483 0.002953 -0.004755 0.006871 0.029953
#
#
# Mechanical properties :
#
#
# Convention : Reuss Voigt Hill
#
# Bulk Modulus (GPa) = 10.70036 43.23421 26.96728
# Shear Modulus (GPa) = 15.41597 33.39858 24.40728
#
# Velocity S-wave (km/s) = 2.60423 3.83317 3.27683
# Velocity P-wave (km/s) = 3.70812 6.21379 5.11671
#
# Compressibility (1/GPa) = 0.09345477
#
# Stress axis : x y z
#
# Youngs Moduli (GPa) = 107.58086 16.02521 79.73768
#
# Poissons Ratio (x) = -0.07178 0.20015
# Poissons Ratio (y) = -0.48186 -0.21046
# Poissons Ratio (z) = 0.27004 -0.04230
#
# Static dielectric constant tensor:
#      x y z
#    x 4.407540 -0.277320 0.168530 
#    y -0.277320 4.759500 0.018790 
#    z 0.168530 0.018790 4.253690 
# 
# 
# High freq. dielectric constant tensor:
#      x y z
#    x 1.908580 -0.009140 -0.000590 
#    y -0.009140 1.891000 -0.005890 
#    z -0.000590 -0.005890 1.884130 
# 
# From -- ./inp_files/534473.got.cif
#   From: 2010.06.25/outbox.cif.g09.slc.cpg/sg2_268_cif.got.tgz:534473.got - 2010.06.27 13:26:56.
