data_PCOD8015292
_publ_section_title
;
Structure prediction by ZEFSAII (Michael W. Deem and Ramdas Pophale) SiO2 
 PCOD8015292
Probable space group: P -1
;
_chemical_formula_sum "Si O2"
_cell_formula_units_Z 16
_cell_length_a 22.007305
_cell_length_b 18.488599
_cell_length_c 9.518415
_cell_angle_alpha 128.839755
_cell_angle_beta 41.312133
_cell_angle_gamma 161.818191
_cell_volume 724.080356
_symmetry_space_group_name_H-M "P -1"
_symmetry_group_IT_number 2
_symmetry_cell_setting 'triclinic'
loop_
_space_group_symop_operation_xyz
x,y,z
-x,-y,-z
loop_
_atom_site_type_symbol
_atom_site_label
_atom_site_fract_x
_atom_site_fract_y
_atom_site_fract_z
Si Si1 0.737011 0.758180 0.816270
Si Si2 0.867890 0.088567 0.987826
Si Si3 0.474921 0.757882 0.474732
Si Si4 0.372326 0.492812 0.506481
Si Si5 0.434109 0.164900 0.048681
Si Si6 0.880059 0.595471 0.592240
Si Si7 0.839711 0.956009 0.439171
Si Si8 0.407207 0.016771 0.188907
O O1 0.718906 0.850784 0.938505
O O2 0.745717 0.714837 0.596065
O O3 0.500000 0.500000 0.000000
O O4 0.990293 0.970442 0.720519
O O5 0.775049 0.063167 0.983837
O O6 0.761715 0.035543 0.250749
O O7 0.170163 0.356612 0.792927
O O8 0.421631 0.601680 0.417314
O O9 0.270666 0.589181 0.503823
O O10 0.447273 0.796081 0.706883
O O11 0.640930 0.726590 0.395351
O O12 0.327696 0.162115 0.287055
O O13 0.463997 0.119177 0.066414
O O14 0.707023 0.436061 0.836009
O O15 0.108133 0.738398 0.399055
O O16 0.992695 0.803902 0.625624
O O17 0.500000 0.000000 0.000000
#
# Coordination Sequence:
#
# PCOD8015292 Si02
#       8
#     2   2   2   2   2   2   2   2
#     4  12  23  43  60  93 140 176 224 274 310 372
#     4  11  24  42  67  93 134 179 221 270 317 383
#     4  11  22  44  68  94 128 180 214 262 335 389
#     4  12  22  39  63  93 129 175 223 266 323 369
#     4  10  21  43  67  91 131 175 209 265 334 384
#     4  10  21  42  67  94 133 171 215 265 326 393
#     4  11  23  38  63  95 129 175 224 268 315 375
#     4  11  25  44  69 103 132 161 213 274 334 404
#
# _framework density 22.096995
#
# number of rings (size 3 to 8) (size 9 to 14) (size 15 to 20)
#    0.000    1.000    6.250    1.875    1.750    2.000 
#    0.000    2.500    0.000    0.000    0.000    0.000 
#    0.000    0.000    0.000    0.000    0.000    0.000 
#
# Total GULP energy -198363.988271 kJ/mol
# GULP energy per Si atom -12397.749267 kJ/mol
# Density = 2.204670 g / cm^3
# Si number density = 22.096995 Si / 1000 Ang^3
#
#
#
# Elastic Constant Matrix: (Units=GPa)
#
#
# Indices 1 2 3 4 5 6 
#
# 1 86.2640 34.9315 41.9376 4.1360 3.6769 6.0294
# 2 34.9315 87.9930 31.9482 -7.3676 -0.0184 20.7705
# 3 41.9376 31.9482 100.7086 -11.7633 15.9225 0.3301
# 4 4.1360 -7.3676 -11.7633 39.2250 -2.8294 -9.8533
# 5 3.6769 -0.0184 15.9225 -2.8294 30.0660 -8.0973
# 6 6.0294 20.7705 0.3301 -9.8533 -8.0973 18.3782
#
#
#
# Elastic Compliance Matrix: (Units=1/GPa)
#
#
# Indices 1 2 3 4 5 6 
#
# 1 0.016800 -0.003852 -0.006348 -0.005453 -0.000314 -0.004106
# 2 -0.003852 0.020218 -0.004486 -0.003864 -0.004373 -0.025504
# 3 -0.006348 -0.004486 0.015420 0.006164 -0.004619 0.008145
# 4 -0.005453 -0.003864 0.006164 0.034943 0.008353 0.028460
# 5 -0.000314 -0.004373 -0.004619 0.008353 0.044382 0.029161
# 6 -0.004106 -0.025504 0.008145 0.028460 0.029161 0.112544
#
#
# Mechanical properties :
#
#
# Convention : Reuss Voigt Hill
#
# Bulk Modulus (GPa) = 43.35345 54.73337 49.04341
# Shear Modulus (GPa) = 17.77037 28.61040 23.19038
#
# Velocity S-wave (km/s) = 2.83892 3.60219 3.24308
# Velocity P-wave (km/s) = 5.51436 6.49033 6.02215
#
# Compressibility (1/GPa) = 0.02306621
#
# Stress axis : x y z
#
# Youngs Moduli (GPa) = 59.52423 49.46018 64.85223
#
# Poissons Ratio (x) = 0.19052 0.41166
# Poissons Ratio (y) = 0.22928 0.29094
# Poissons Ratio (z) = 0.37784 0.22189
#
# Static dielectric constant tensor:
#      x y z
#    x 4.001200 0.282930 0.181560 
#    y 0.282930 3.798020 -0.249240 
#    z 0.181560 -0.249240 4.147460 
# 
# 
# High freq. dielectric constant tensor:
#      x y z
#    x 1.860930 0.025530 0.019510 
#    y 0.025530 1.851020 -0.024390 
#    z 0.019510 -0.024390 1.878800 
# 
# From -- ./inp_files/348510.got.cif
#   From: 2010.06.25/outbox.cif.g09.slc.cpg/sg2_175_cif.got.tgz:348510.got - 2010.06.27 13:26:56.
