data_PCOD8015245
_publ_section_title
;
Structure prediction by ZEFSAII (Michael W. Deem and Ramdas Pophale) SiO2 
 PCOD8015245
Probable space group: P -1
;
_chemical_formula_sum "Si O2"
_cell_formula_units_Z 16
_cell_length_a 11.655012
_cell_length_b 17.496919
_cell_length_c 19.132612
_cell_angle_alpha 150.807601
_cell_angle_beta 22.318918
_cell_angle_gamma 151.641279
_cell_volume 665.187641
_symmetry_space_group_name_H-M "P -1"
_symmetry_group_IT_number 2
_symmetry_cell_setting 'triclinic'
loop_
_space_group_symop_operation_xyz
x,y,z
-x,-y,-z
loop_
_atom_site_type_symbol
_atom_site_label
_atom_site_fract_x
_atom_site_fract_y
_atom_site_fract_z
Si Si1 0.314614 0.333410 0.427568
Si Si2 0.261584 0.504957 0.959641
Si Si3 0.518281 0.960908 0.862561
Si Si4 0.939621 0.874369 0.208548
Si Si5 0.398401 0.470510 0.700197
Si Si6 0.609518 0.074826 0.626657
Si Si7 0.595649 0.167149 0.323127
Si Si8 0.657083 0.664500 0.995117
O O1 0.500000 0.500000 0.500000
O O2 0.530825 0.221040 0.221241
O O3 0.296387 0.390890 0.403529
O O4 0.956337 0.223068 0.572181
O O5 0.232542 0.326087 0.867599
O O6 0.445185 0.529153 0.800939
O O7 0.481088 0.644705 0.002842
O O8 0.923260 0.525769 0.153498
O O9 0.557135 0.960893 0.757593
O O10 0.847956 0.106333 0.823674
O O11 0.184470 0.978732 0.091205
O O12 0.675652 0.961776 0.437321
O O13 0.388536 0.281026 0.546596
O O14 0.422811 0.951012 0.695583
O O15 0.379735 0.175703 0.815431
O O16 0.963395 0.294331 0.198624
O O17 0.500000 0.500000 0.000000
#
# Coordination Sequence:
#
# PCOD8015245 Si02
#       8
#     2   2   2   2   2   2   2   2
#     4  11  20  37  69 104 142 182 240 291 355 423
#     4  11  24  45  73 110 150 180 247 299 367 429
#     4  10  22  37  68 105 150 182 231 298 362 429
#     4  10  21  42  67 105 146 182 232 301 365 425
#     4  11  23  41  75 110 145 185 236 313 360 422
#     4  11  26  46  69 101 144 189 246 294 360 437
#     4  12  25  46  74 108 148 192 245 297 366 436
#     4  12  28  50  76 103 143 203 245 296 359 444
#
# _framework density 24.053363000000001
#
# number of rings (size 3 to 8) (size 9 to 14) (size 15 to 20)
#    0.000    1.000    3.750    2.625    1.750    5.500 
#    0.000    2.500    0.000    0.000    0.000    0.000 
#    0.000    0.000    0.000    0.000    0.000    0.000 
#
# Total GULP energy -198366.741946 kJ/mol
# GULP energy per Si atom -12397.921372 kJ/mol
# Density = 2.399862 g / cm^3
# Si number density = 24.053363 Si / 1000 Ang^3
#
#
#
# Elastic Constant Matrix: (Units=GPa)
#
#
# Indices 1 2 3 4 5 6 
#
# 1 51.9743 -10.7600 21.9731 -4.6863 9.5654 -7.8119
# 2 -10.7600 85.8755 27.4576 -2.1808 -1.3423 -17.1938
# 3 21.9731 27.4576 129.4126 18.6242 14.4010 -10.8509
# 4 -4.6863 -2.1808 18.6242 40.6107 -6.8558 1.1454
# 5 9.5654 -1.3423 14.4010 -6.8558 31.2914 -1.6952
# 6 -7.8119 -17.1938 -10.8509 1.1454 -1.6952 44.1435
#
#
#
# Elastic Compliance Matrix: (Units=1/GPa)
#
#
# Indices 1 2 3 4 5 6 
#
# 1 0.024523 0.005845 -0.005290 0.004840 -0.003477 0.005057
# 2 0.005845 0.015094 -0.004472 0.003718 0.002047 0.005796
# 3 -0.005290 -0.004472 0.011140 -0.006838 -0.005198 0.000038
# 4 0.004840 0.003718 -0.006838 0.029930 0.008394 0.000170
# 5 -0.003477 0.002047 -0.005198 0.008394 0.037346 0.000121
# 6 0.005057 0.005796 0.000038 0.000170 0.000121 0.025816
#
#
# Mechanical properties :
#
#
# Convention : Reuss Voigt Hill
#
# Bulk Modulus (GPa) = 23.29697 38.28930 30.79313
# Shear Modulus (GPa) = 30.12243 38.44857 34.28550
#
# Velocity S-wave (km/s) = 3.54265 4.00242 3.77953
# Velocity P-wave (km/s) = 5.14202 6.10837 5.64591
#
# Compressibility (1/GPa) = 0.04292404
#
# Stress axis : x y z
#
# Youngs Moduli (GPa) = 40.77808 66.25199 89.76829
#
# Poissons Ratio (x) = -0.38724 0.47483
# Poissons Ratio (y) = -0.23835 0.40143
# Poissons Ratio (z) = 0.21570 0.29627
#
# Static dielectric constant tensor:
#      x y z
#    x 4.190820 -0.345110 0.288140 
#    y -0.345110 3.043000 -0.362340 
#    z 0.288140 -0.362340 4.460870 
# 
# 
# High freq. dielectric constant tensor:
#      x y z
#    x 1.936160 -0.010900 0.025190 
#    y -0.010900 1.950100 0.010370 
#    z 0.025190 0.010370 1.968180 
# 
# From -- ./inp_files/596002.got.cif
#   From: 2010.06.25/outbox.cif.g09.slc.cpg/sg2_299_cif.got.tgz:596002.got - 2010.06.27 13:26:56.
