data_PCOD8015458
_publ_section_title
;
Structure prediction by ZEFSAII (Michael W. Deem and Ramdas Pophale) SiO2 
 PCOD8015458
Probable space group: P -1
;
_chemical_formula_sum "Si O2"
_cell_formula_units_Z 14
_cell_length_a 16.569242
_cell_length_b 23.941107
_cell_length_c 13.543582
_cell_angle_alpha 25.327789
_cell_angle_beta 155.389695
_cell_angle_gamma 163.582127
_cell_volume 608.878887
_symmetry_space_group_name_H-M "P -1"
_symmetry_group_IT_number 2
_symmetry_cell_setting 'triclinic'
loop_
_space_group_symop_operation_xyz
x,y,z
-x,-y,-z
loop_
_atom_site_type_symbol
_atom_site_label
_atom_site_fract_x
_atom_site_fract_y
_atom_site_fract_z
Si Si1 0.703472 0.300564 0.930204
Si Si2 0.433486 0.783698 0.757242
Si Si3 0.661382 0.135736 0.764415
Si Si4 0.982048 0.335605 0.006211
Si Si5 0.757536 0.898620 0.738402
Si Si6 0.106838 0.837347 0.213891
Si Si7 0.751494 0.729227 0.451750
O O1 0.410589 0.237468 0.723518
O O2 0.000000 0.500000 0.000000
O O3 0.787677 0.341467 0.842192
O O4 0.624310 0.110252 0.174167
O O5 0.690666 0.921116 0.737243
O O6 0.149767 0.733750 0.497728
O O7 0.598978 0.915216 0.831775
O O8 0.304993 0.570652 0.963998
O O9 0.535414 0.216165 0.471881
O O10 0.910471 0.220940 0.824886
O O11 0.802503 0.200363 0.925603
O O12 0.031513 0.230389 0.292898
O O13 0.060717 0.118332 0.676234
O O14 0.801263 0.763994 0.009320
O O15 0.500000 0.500000 0.500000
#
# Coordination Sequence:
#
# PCOD8015458 Si02
#       7
#     2   2   2   2   2   2   2
#     4  12  23  42  69  95 135 172 222 276 332 394
#     4  10  24  42  68  98 129 179 227 283 331 393
#     4  11  24  42  66 100 137 180 216 280 340 396
#     4  12  26  43  66 103 140 172 226 277 339 403
#     4  11  22  41  69  96 134 175 226 274 332 398
#     4  10  21  42  69  92 131 175 230 274 331 393
#     4  12  24  41  72 101 131 173 225 279 338 399
#
# _framework density 22.993078000000001
#
# number of rings (size 3 to 8) (size 9 to 14) (size 15 to 20)
#    0.000    0.857    4.286    2.571    0.000    7.429 
#    0.000    1.429    0.000    0.000    0.000    0.000 
#    0.000    0.000    0.000    0.000    0.000    0.000 
#
# Total GULP energy -173535.884136 kJ/mol
# GULP energy per Si atom -12395.420295 kJ/mol
# Density = 2.294074 g / cm^3
# Si number density = 22.993078 Si / 1000 Ang^3
#
#
#
# Elastic Constant Matrix: (Units=GPa)
#
#
# Indices 1 2 3 4 5 6 
#
# 1 151.3151 28.0213 55.1042 13.8384 11.6961 -1.5739
# 2 28.0213 42.0321 6.0081 -2.2703 2.1704 -1.9784
# 3 55.1042 6.0081 124.5663 12.5749 24.5562 3.4844
# 4 13.8384 -2.2703 12.5749 29.7090 5.7794 -7.3787
# 5 11.6961 2.1704 24.5562 5.7794 36.9870 5.2057
# 6 -1.5739 -1.9784 3.4844 -7.3787 5.2057 37.0145
#
#
#
# Elastic Compliance Matrix: (Units=1/GPa)
#
#
# Indices 1 2 3 4 5 6 
#
# 1 0.009268 -0.005891 -0.003528 -0.003418 0.000336 -0.000317
# 2 -0.005891 0.028074 0.000954 0.005411 -0.001610 0.002465
# 3 -0.003528 0.000954 0.010896 -0.001947 -0.005772 -0.000701
# 4 -0.003418 0.005411 -0.001947 0.039787 -0.005431 0.009022
# 5 0.000336 -0.001610 -0.005772 -0.005431 0.032433 -0.005172
# 6 -0.000317 0.002465 -0.000701 0.009022 -0.005172 0.029727
#
#
# Mechanical properties :
#
#
# Convention : Reuss Voigt Hill
#
# Bulk Modulus (GPa) = 31.94027 55.13119 43.53573
# Shear Modulus (GPa) = 28.16099 35.99410 32.07754
#
# Velocity S-wave (km/s) = 3.50345 3.96085 3.73915
# Velocity P-wave (km/s) = 5.50336 6.70426 6.13327
#
# Compressibility (1/GPa) = 0.03130844
#
# Stress axis : x y z
#
# Youngs Moduli (GPa) = 107.90105 35.62038 91.77292
#
# Poissons Ratio (x) = 0.20984 0.32377
# Poissons Ratio (y) = 0.63566 -0.08757
# Poissons Ratio (z) = 0.38067 -0.03399
#
# Static dielectric constant tensor:
#      x y z
#    x 4.387630 0.119130 0.144700 
#    y 0.119130 3.672000 -0.017760 
#    z 0.144700 -0.017760 4.578820 
# 
# 
# High freq. dielectric constant tensor:
#      x y z
#    x 1.920830 0.005030 0.003910 
#    y 0.005030 1.872420 0.001630 
#    z 0.003910 0.001630 1.921330 
# 
# From -- ./inp_files/457669.got.cif
#   From: 2010.06.25/outbox.cif.g09.slc.cpg/sg2_229_cif.got.tgz:457669.got - 2010.06.27 13:26:56.
