data_PCOD8015299
_publ_section_title
;
Structure prediction by ZEFSAII (Michael W. Deem and Ramdas Pophale) SiO2 
 PCOD8015299
Probable space group: P -1
;
_chemical_formula_sum "Si O2"
_cell_formula_units_Z 16
_cell_length_a 15.549979
_cell_length_b 11.989391
_cell_length_c 14.441351
_cell_angle_alpha 131.308215
_cell_angle_beta 152.559647
_cell_angle_gamma 37.520597
_cell_volume 746.396713
_symmetry_space_group_name_H-M "P -1"
_symmetry_group_IT_number 2
_symmetry_cell_setting 'triclinic'
loop_
_space_group_symop_operation_xyz
x,y,z
-x,-y,-z
loop_
_atom_site_type_symbol
_atom_site_label
_atom_site_fract_x
_atom_site_fract_y
_atom_site_fract_z
Si Si1 0.792471 0.659276 0.994289
Si Si2 0.050393 0.569584 0.496702
Si Si3 0.367648 0.334385 0.965751
Si Si4 0.416576 0.650710 0.142621
Si Si5 0.374890 0.920519 0.386177
Si Si6 0.725851 0.711954 0.759577
Si Si7 0.227821 0.037316 0.950149
Si Si8 0.034790 0.858742 0.748434
O O1 0.606617 0.728084 0.936727
O O2 0.019783 0.455548 0.125464
O O3 0.856598 0.804954 0.122779
O O4 0.683599 0.653916 0.788687
O O5 0.318458 0.421235 0.646092
O O6 0.992745 0.767497 0.573413
O O7 0.000000 0.500000 0.500000
O O8 0.890851 0.589276 0.271373
O O9 0.400079 0.494750 0.082892
O O10 0.556668 0.162660 0.989381
O O11 0.291301 0.833220 0.187438
O O12 0.294823 0.711166 0.958442
O O13 0.540113 0.758494 0.529949
O O14 0.500000 0.000000 0.500000
O O15 0.146967 0.085589 0.312702
O O16 0.702730 0.901569 0.857936
O O17 0.019310 0.028036 0.778432
#
# Coordination Sequence:
#
# PCOD8015299 Si02
#       8
#     2   2   2   2   2   2   2   2
#     4   9  22  41  73  91 133 186 218 273 335 389
#     4  12  23  42  67  95 137 178 219 270 341 402
#     4  12  23  42  69  99 137 177 224 278 331 396
#     4  12  26  41  65 105 135 175 225 272 341 402
#     4  12  26  42  68 103 134 173 226 279 339 402
#     4   9  21  44  68  93 127 179 222 265 337 392
#     4  10  21  42  67  95 131 174 227 266 335 391
#     4  12  24  43  64 100 136 176 220 283 333 400
#
# _framework density 21.436319999999998
#
# number of rings (size 3 to 8) (size 9 to 14) (size 15 to 20)
#    0.750    0.250    2.500    4.875    3.500    0.000 
#    0.000    4.375    0.000    0.000    0.000    0.000 
#    0.000    0.000    0.000    0.000    0.000    0.000 
#
# Total GULP energy -198334.194642 kJ/mol
# GULP energy per Si atom -12395.887165 kJ/mol
# Density = 2.138753 g / cm^3
# Si number density = 21.436320 Si / 1000 Ang^3
#
#
#
# Elastic Constant Matrix: (Units=GPa)
#
#
# Indices 1 2 3 4 5 6 
#
# 1 110.1939 27.3272 27.4842 0.6202 13.0902 12.2607
# 2 27.3272 97.0604 19.0380 10.8707 8.9370 1.1768
# 3 27.4842 19.0380 82.7203 -2.0349 3.0131 4.3329
# 4 0.6202 10.8707 -2.0349 34.5346 0.1270 6.0324
# 5 13.0902 8.9370 3.0131 0.1270 32.4924 -1.5786
# 6 12.2607 1.1768 4.3329 6.0324 -1.5786 36.2451
#
#
#
# Elastic Compliance Matrix: (Units=1/GPa)
#
#
# Indices 1 2 3 4 5 6 
#
# 1 0.011217 -0.002322 -0.002834 0.001026 -0.003802 -0.003717
# 2 -0.002322 0.011997 -0.002078 -0.004064 -0.002096 0.001229
# 3 -0.002834 -0.002078 0.013579 0.001653 0.000406 -0.000855
# 4 0.001026 -0.004064 0.001653 0.031295 0.000156 -0.005614
# 5 -0.003802 -0.002096 0.000406 0.000156 0.032978 0.002716
# 6 -0.003717 0.001229 -0.000855 -0.005614 0.002716 0.029962
#
#
# Mechanical properties :
#
#
# Convention : Reuss Voigt Hill
#
# Bulk Modulus (GPa) = 44.79039 48.63038 46.71038
# Shear Modulus (GPa) = 32.69275 35.06275 33.87775
#
# Velocity S-wave (km/s) = 3.90950 4.04873 3.97973
# Velocity P-wave (km/s) = 6.42798 6.67769 6.55402
#
# Compressibility (1/GPa) = 0.02232622
#
# Stress axis : x y z
#
# Youngs Moduli (GPa) = 89.15025 83.35108 73.64090
#
# Poissons Ratio (x) = 0.19354 0.20871
# Poissons Ratio (y) = 0.20700 0.15301
# Poissons Ratio (z) = 0.25266 0.17318
#
# Static dielectric constant tensor:
#      x y z
#    x 3.273050 0.419560 1.198150 
#    y 0.419560 3.464540 -0.870240 
#    z 1.198150 -0.870240 1.429240 
# 
# 
# High freq. dielectric constant tensor:
#      x y z
#    x 1.848310 -0.008900 -0.001500 
#    y -0.008900 1.850210 0.009840 
#    z -0.001500 0.009840 1.817530 
# 
# From -- ./inp_files/532683.got.cif
#   From: 2010.06.25/outbox.cif.g09.slc.cpg/sg2_267_cif.got.tgz:532683.got - 2010.06.27 13:26:56.
