data_PCOD8015583
_publ_section_title
;
Structure prediction by ZEFSAII (Michael W. Deem and Ramdas Pophale) SiO2 
 PCOD8015583
Probable space group: P -1
;
_chemical_formula_sum "Si O2"
_cell_formula_units_Z 16
_cell_length_a 6.884584
_cell_length_b 10.118469
_cell_length_c 11.585376
_cell_angle_alpha 115.502441
_cell_angle_beta 96.916495
_cell_angle_gamma 94.757807
_cell_volume 714.889960
_symmetry_space_group_name_H-M "P -1"
_symmetry_group_IT_number 2
_symmetry_cell_setting 'triclinic'
loop_
_space_group_symop_operation_xyz
x,y,z
-x,-y,-z
loop_
_atom_site_type_symbol
_atom_site_label
_atom_site_fract_x
_atom_site_fract_y
_atom_site_fract_z
Si Si1 0.004130 0.323856 0.104541
Si Si2 0.747341 0.378350 0.735013
Si Si3 0.607922 0.355879 0.958808
Si Si4 0.186862 0.806105 0.730472
Si Si5 0.053726 0.181561 0.690641
Si Si6 0.849797 0.871661 0.573373
Si Si7 0.531999 0.333572 0.462089
Si Si8 0.739768 0.858958 0.084599
O O1 0.927037 0.293051 0.216230
O O2 0.200398 0.446012 0.173626
O O3 0.831306 0.378740 0.035362
O O4 0.090273 0.180756 0.005276
O O5 0.623172 0.304282 0.807332
O O6 0.962755 0.330166 0.724986
O O7 0.635300 0.329061 0.590926
O O8 0.481829 0.229692 0.983509
O O9 0.500000 0.500000 0.000000
O O10 0.354628 0.719615 0.659485
O O11 0.047522 0.819774 0.616595
O O12 0.270019 0.966244 0.851553
O O13 0.172216 0.155590 0.574147
O O14 0.214405 0.201118 0.809066
O O15 0.874064 0.048882 0.659592
O O16 0.667062 0.783833 0.595468
O O17 0.500000 0.500000 0.500000
#
# Coordination Sequence:
#
# PCOD8015583 Si02
#       8
#     2   2   2   2   2   2   2   2
#     4  12  26  44  67  95 136 176 221 267 322 387
#     4  12  24  43  69  97 134 169 219 270 329 385
#     4  12  25  42  69 100 131 173 217 272 329 383
#     4  11  27  45  68  95 132 179 217 267 326 389
#     4  10  21  42  71  97 130 170 208 276 329 385
#     4  10  23  45  67  97 134 167 216 266 332 386
#     4  12  28  43  67  99 133 175 218 267 325 395
#     4  11  24  46  68  98 131 169 224 271 325 387
#
# _framework density 22.381066000000001
#
# number of rings (size 3 to 8) (size 9 to 14) (size 15 to 20)
#    0.000    0.750    3.750    3.000    5.250    3.000 
#    0.000    0.000    0.000    0.000    0.000    0.000 
#    0.000    0.000    0.000    0.000    0.000    0.000 
#
# Total GULP energy -198380.793096 kJ/mol
# GULP energy per Si atom -12398.799568 kJ/mol
# Density = 2.233013 g / cm^3
# Si number density = 22.381066 Si / 1000 Ang^3
#
#
#
# Elastic Constant Matrix: (Units=GPa)
#
#
# Indices 1 2 3 4 5 6 
#
# 1 87.1284 28.5037 27.2497 13.8533 -25.1759 14.7785
# 2 28.5037 81.8398 18.7394 2.9523 -15.7390 8.2522
# 3 27.2497 18.7394 78.0033 5.5145 -24.3215 5.1129
# 4 13.8533 2.9523 5.5145 36.1618 1.3124 -6.5935
# 5 -25.1759 -15.7390 -24.3215 1.3124 28.9178 4.5755
# 6 14.7785 8.2522 5.1129 -6.5935 4.5755 41.5124
#
#
#
# Elastic Compliance Matrix: (Units=1/GPa)
#
#
# Indices 1 2 3 4 5 6 
#
# 1 0.021568 -0.002206 0.000981 -0.011062 0.020708 -0.011400
# 2 -0.002206 0.014608 -0.000603 -0.000997 0.006023 -0.002867
# 3 0.000981 -0.000603 0.018685 -0.004749 0.017278 -0.005190
# 4 -0.011062 -0.000997 -0.004749 0.035589 -0.017734 0.012329
# 5 0.020708 0.006023 0.017278 -0.017734 0.074664 -0.021744
# 6 -0.011400 -0.002867 -0.005190 0.012329 -0.021744 0.033712
#
#
# Mechanical properties :
#
#
# Convention : Reuss Voigt Hill
#
# Bulk Modulus (GPa) = 19.52826 43.99522 31.76174
# Shear Modulus (GPa) = 22.77392 32.81698 27.79545
#
# Velocity S-wave (km/s) = 3.19337 3.83336 3.52791
# Velocity P-wave (km/s) = 4.72664 6.26840 5.55131
#
# Compressibility (1/GPa) = 0.05120784
#
# Stress axis : x y z
#
# Youngs Moduli (GPa) = 46.36479 68.45352 53.51803
#
# Poissons Ratio (x) = 0.15098 -0.05252
# Poissons Ratio (y) = 0.10226 0.03226
# Poissons Ratio (z) = -0.04550 0.04126
#
# Static dielectric constant tensor:
#      x y z
#    x 4.015970 0.042110 0.078290 
#    y 0.042110 4.061620 0.071250 
#    z 0.078290 0.071250 4.183400 
# 
# 
# High freq. dielectric constant tensor:
#      x y z
#    x 1.879910 0.003350 -0.005390 
#    y 0.003350 1.884110 -0.000340 
#    z -0.005390 -0.000340 1.891380 
# 
# From -- ./inp_files/365269.got.cif
#   From: 2010.06.25/outbox.cif.g09.slc.cpg/sg2_183_cif.got.tgz:365269.got - 2010.06.27 13:26:56.
