data_PCOD8015586
_publ_section_title
;
Structure prediction by ZEFSAII (Michael W. Deem and Ramdas Pophale) SiO2 
 PCOD8015586
Probable space group: P -1
;
_chemical_formula_sum "Si O2"
_cell_formula_units_Z 16
_cell_length_a 13.693241
_cell_length_b 9.793367
_cell_length_c 9.176948
_cell_angle_alpha 136.864605
_cell_angle_beta 110.410376
_cell_angle_gamma 94.706715
_cell_volume 671.086496
_symmetry_space_group_name_H-M "P -1"
_symmetry_group_IT_number 2
_symmetry_cell_setting 'triclinic'
loop_
_space_group_symop_operation_xyz
x,y,z
-x,-y,-z
loop_
_atom_site_type_symbol
_atom_site_label
_atom_site_fract_x
_atom_site_fract_y
_atom_site_fract_z
Si Si1 0.263458 0.912042 0.472381
Si Si2 0.573330 0.659517 0.296445
Si Si3 0.325415 0.426946 0.460624
Si Si4 0.101023 0.608179 0.917410
Si Si5 0.068865 0.193418 0.063511
Si Si6 0.467693 0.823389 0.614772
Si Si7 0.886017 0.114573 0.363925
Si Si8 0.269988 0.906172 0.980508
O O1 0.372339 0.904413 0.602751
O O2 0.191920 0.978993 0.601881
O O3 0.309691 0.103942 0.518606
O O4 0.170131 0.662710 0.151759
O O5 0.616745 0.511134 0.298862
O O6 0.491803 0.732685 0.404644
O O7 0.500000 0.500000 0.000000
O O8 0.419534 0.610004 0.536413
O O9 0.296324 0.165184 0.219356
O O10 0.195129 0.409261 0.366449
O O11 0.022555 0.330682 0.634560
O O12 0.199062 0.726856 0.933131
O O13 0.011563 0.706762 0.955332
O O14 0.101483 0.090121 0.860515
O O15 0.000000 0.000000 0.000000
O O16 0.592702 0.049771 0.923149
O O17 0.813074 0.198239 0.287653
#
# Coordination Sequence:
#
# PCOD8015586 Si02
#       8
#     2   2   2   2   2   2   2   2
#     4  12  26  47  65 107 150 177 229 300 357 416
#     4  11  24  43  69 102 143 183 229 285 355 427
#     4  10  21  43  71 100 134 184 235 288 345 418
#     4  12  23  48  68 102 148 183 235 299 352 412
#     4  11  22  44  73 100 137 187 240 289 351 417
#     4  11  24  46  71  99 141 191 227 288 359 412
#     4  11  26  42  72 107 136 187 239 293 354 424
#     4  10  21  42  71  98 136 180 242 287 337 432
#
# _framework density 23.841933000000001
#
# number of rings (size 3 to 8) (size 9 to 14) (size 15 to 20)
#    0.000    1.000    5.000    3.375    5.250    1.000 
#    6.750    0.000    0.000    0.000    0.000    0.000 
#    0.000    0.000    0.000    0.000    0.000    0.000 
#
# Total GULP energy -198385.262668 kJ/mol
# GULP energy per Si atom -12399.078917 kJ/mol
# Density = 2.378767 g / cm^3
# Si number density = 23.841933 Si / 1000 Ang^3
#
#
#
# Elastic Constant Matrix: (Units=GPa)
#
#
# Indices 1 2 3 4 5 6 
#
# 1 93.5678 40.1195 17.3111 8.1456 24.8039 19.3751
# 2 40.1195 96.2356 9.3504 -4.5897 4.4157 25.9402
# 3 17.3111 9.3504 72.3350 -20.3295 25.4763 6.8267
# 4 8.1456 -4.5897 -20.3295 34.5379 -3.2762 3.6951
# 5 24.8039 4.4157 25.4763 -3.2762 42.0837 -5.6718
# 6 19.3751 25.9402 6.8267 3.6951 -5.6718 46.5766
#
#
#
# Elastic Compliance Matrix: (Units=1/GPa)
#
#
# Indices 1 2 3 4 5 6 
#
# 1 0.017559 -0.005770 -0.001133 -0.006038 -0.010159 -0.004683
# 2 -0.005770 0.014533 0.001149 0.004694 0.000717 -0.006147
# 3 -0.001133 0.001149 0.022885 0.013308 -0.013102 -0.006174
# 4 -0.006038 0.004694 0.013308 0.039167 -0.002680 -0.005487
# 5 -0.010159 0.000717 -0.013102 -0.002680 0.038838 0.010689
# 6 -0.004683 -0.006147 -0.006174 -0.005487 0.010689 0.029484
#
#
# Mechanical properties :
#
#
# Convention : Reuss Voigt Hill
#
# Bulk Modulus (GPa) = 23.00498 43.96672 33.48585
# Shear Modulus (GPa) = 26.53025 37.66347 32.09686
#
# Velocity S-wave (km/s) = 3.33942 3.97888 3.67309
# Velocity P-wave (km/s) = 4.95367 6.29202 5.66253
#
# Compressibility (1/GPa) = 0.04346884
#
# Stress axis : x y z
#
# Youngs Moduli (GPa) = 56.94937 68.80994 43.69733
#
# Poissons Ratio (x) = 0.39701 0.04953
# Poissons Ratio (y) = 0.32858 -0.05021
# Poissons Ratio (z) = 0.06454 -0.07906
#
# Static dielectric constant tensor:
#      x y z
#    x 4.553090 -0.029140 0.616140 
#    y -0.029140 4.504750 -0.091250 
#    z 0.616140 -0.091250 5.194000 
# 
# 
# High freq. dielectric constant tensor:
#      x y z
#    x 1.948310 0.010210 0.019940 
#    y 0.010210 1.945630 -0.009320 
#    z 0.019940 -0.009320 1.954440 
# 
# From -- ./inp_files/299789.got.cif
#   From: 2010.06.25/outbox.cif.g09.slc.cpg/sg2_150_cif.got.tgz:299789.got - 2010.06.27 13:26:56.
