data_PCOD8015536
_publ_section_title
;
Structure prediction by ZEFSAII (Michael W. Deem and Ramdas Pophale) SiO2 
 PCOD8015536
Probable space group: P -1
;
_chemical_formula_sum "Si O2"
_cell_formula_units_Z 16
_cell_length_a 12.208563
_cell_length_b 21.157499
_cell_length_c 8.507440
_cell_angle_alpha 68.849686
_cell_angle_beta 69.191139
_cell_angle_gamma 21.180995
_cell_volume 739.348260
_symmetry_space_group_name_H-M "P -1"
_symmetry_group_IT_number 2
_symmetry_cell_setting 'triclinic'
loop_
_space_group_symop_operation_xyz
x,y,z
-x,-y,-z
loop_
_atom_site_type_symbol
_atom_site_label
_atom_site_fract_x
_atom_site_fract_y
_atom_site_fract_z
Si Si1 0.391687 0.991934 0.978054
Si Si2 0.894175 0.675867 0.770341
Si Si3 0.852386 0.121494 0.611487
Si Si4 0.213469 0.618191 0.117782
Si Si5 0.513889 0.205730 0.329334
Si Si6 0.391951 0.487704 0.490808
Si Si7 0.154499 0.506230 0.102024
Si Si8 0.544526 0.783676 0.280493
O O1 0.053029 0.184074 0.913987
O O2 0.625460 0.856099 0.839362
O O3 0.500000 0.000000 0.000000
O O4 0.377565 0.939334 0.160422
O O5 0.715605 0.719943 0.711027
O O6 0.099526 0.617368 0.618433
O O7 0.123778 0.516657 0.919269
O O8 0.671837 0.286122 0.514388
O O9 0.610024 0.198877 0.741736
O O10 0.000000 0.000000 0.500000
O O11 0.124429 0.998084 0.702355
O O12 0.281982 0.557623 0.309982
O O13 0.114401 0.606258 0.076335
O O14 0.500000 0.500000 0.000000
O O15 0.457618 0.312483 0.197227
O O16 0.464042 0.220092 0.525221
O O17 0.500000 0.500000 0.500000
O O18 0.894584 0.597929 0.226077
#
# Coordination Sequence:
#
# PCOD8015536 Si02
#       8
#     2   2   2   2   2   2   2   2
#     4  11  25  46  69 103 137 193 236 285 344 426
#     4  11  25  45  68 101 145 178 230 295 350 417
#     4  10  24  44  68 105 136 183 232 289 343 423
#     4  12  26  44  73 100 141 186 236 281 355 424
#     4  11  23  39  72 101 135 175 233 292 354 400
#     4  12  28  48  71 106 145 184 231 298 357 409
#     4  11  22  45  66 100 133 188 228 282 346 425
#     4  10  21  42  70  95 137 180 235 283 336 420
#
# _framework density 21.64068
#
# number of rings (size 3 to 8) (size 9 to 14) (size 15 to 20)
#    0.000    1.000    2.500    4.500    7.000    1.500 
#    0.000    3.125    0.000    0.000    0.000    0.000 
#    0.000    0.000    0.000    0.000    0.000    0.000 
#
# Total GULP energy -198287.257202 kJ/mol
# GULP energy per Si atom -12392.953575 kJ/mol
# Density = 2.159143 g / cm^3
# Si number density = 21.640680 Si / 1000 Ang^3
#
#
#
# Elastic Constant Matrix: (Units=GPa)
#
#
# Indices 1 2 3 4 5 6 
#
# 1 130.8770 38.8348 56.4685 -6.4618 -6.4425 -9.8966
# 2 38.8348 152.8386 77.8198 -24.1319 -7.8137 0.5432
# 3 56.4685 77.8198 160.4172 -16.8802 -5.7117 -12.0861
# 4 -6.4618 -24.1319 -16.8802 47.9848 -1.4638 -5.0339
# 5 -6.4425 -7.8137 -5.7117 -1.4638 28.2163 -3.9389
# 6 -9.8966 0.5432 -12.0861 -5.0339 -3.9389 39.0555
#
#
#
# Elastic Compliance Matrix: (Units=1/GPa)
#
#
# Indices 1 2 3 4 5 6 
#
# 1 0.009256 -0.000935 -0.002610 0.000086 0.001571 0.001720
# 2 -0.000935 0.009345 -0.003891 0.003149 0.001610 -0.001003
# 3 -0.002610 -0.003891 0.009388 0.001279 0.000646 0.002528
# 4 0.000086 0.003149 0.001279 0.023358 0.002875 0.003675
# 5 0.001571 0.001610 0.000646 0.002875 0.037180 0.004696
# 6 0.001720 -0.001003 0.002528 0.003675 0.004696 0.027784
#
#
# Mechanical properties :
#
#
# Convention : Reuss Voigt Hill
#
# Bulk Modulus (GPa) = 76.23834 87.81991 82.02913
# Shear Modulus (GPa) = 36.88525 41.11864 39.00195
#
# Velocity S-wave (km/s) = 4.13297 4.36370 4.24990
# Velocity P-wave (km/s) = 7.62108 8.12762 7.87842
#
# Compressibility (1/GPa) = 0.01311676
#
# Stress axis : x y z
#
# Youngs Moduli (GPa) = 108.03801 107.01413 106.51848
#
# Poissons Ratio (x) = 0.10007 0.27801
# Poissons Ratio (y) = 0.10103 0.41445
# Poissons Ratio (z) = 0.28197 0.41638
#
# Static dielectric constant tensor:
#      x y z
#    x 4.332850 -0.101300 -0.130820 
#    y -0.101300 4.918650 -0.120030 
#    z -0.130820 -0.120030 3.892040 
# 
# 
# High freq. dielectric constant tensor:
#      x y z
#    x 1.860770 -0.011160 -0.005790 
#    y -0.011160 1.866600 -0.009670 
#    z -0.005790 -0.009670 1.851590 
# 
# From -- ./inp_files/283011.got.cif
#   From: 2010.06.25/outbox.cif.g09.slc.cpg/sg2_142_cif.got.tgz:283011.got - 2010.06.27 13:26:56.
