data_PCOD8015084
_publ_section_title
;
Structure prediction by ZEFSAII (Michael W. Deem and Ramdas Pophale) SiO2 
 PCOD8015084
Probable space group: P -1
;
_chemical_formula_sum "Si O2"
_cell_formula_units_Z 14
_cell_length_a 11.026461
_cell_length_b 11.076954
_cell_length_c 6.694911
_cell_angle_alpha 110.291164
_cell_angle_beta 90.060560
_cell_angle_gamma 120.226129
_cell_volume 646.945515
_symmetry_space_group_name_H-M "P -1"
_symmetry_group_IT_number 2
_symmetry_cell_setting 'triclinic'
loop_
_space_group_symop_operation_xyz
x,y,z
-x,-y,-z
loop_
_atom_site_type_symbol
_atom_site_label
_atom_site_fract_x
_atom_site_fract_y
_atom_site_fract_z
Si Si1 0.410407 0.827467 0.844602
Si Si2 0.023938 0.603032 0.370344
Si Si3 0.172312 0.108047 0.546723
Si Si4 0.665495 0.612210 0.017199
Si Si5 0.778283 0.409699 0.961445
Si Si6 0.309809 0.153424 0.161010
Si Si7 0.785667 0.094549 0.301174
O O1 0.337969 0.738024 0.998660
O O2 0.525081 0.786868 0.743103
O O3 0.303464 0.819760 0.666069
O O4 0.500000 0.000000 0.000000
O O5 0.056175 0.763467 0.554933
O O6 0.000000 0.500000 0.500000
O O7 0.882002 0.525855 0.196784
O O8 0.151055 0.636345 0.236197
O O9 0.238734 0.275021 0.737808
O O10 0.209566 0.128701 0.329122
O O11 0.256004 0.032820 0.602552
O O12 0.000000 0.000000 0.500000
O O13 0.716280 0.497784 0.897708
O O14 0.500000 0.500000 0.000000
O O15 0.686796 0.714393 0.886818
O O16 0.227094 0.988094 0.955497
#
# Coordination Sequence:
#
# PCOD8015084 Si02
#       7
#     2   2   2   2   2   2   2
#     4  10  21  42  65  96 128 168 213 269 325 380
#     4  11  24  41  64 100 129 172 211 266 335 386
#     4  11  26  45  68  98 131 178 220 268 326 390
#     4  11  24  45  68  99 132 174 222 264 330 389
#     4  11  24  42  66  95 138 165 214 275 319 393
#     4  10  24  45  69  92 132 171 219 274 320 386
#     4  10  23  41  68  98 126 165 223 264 327 386
#
# _framework density 21.640155
#
# number of rings (size 3 to 8) (size 9 to 14) (size 15 to 20)
#    0.000    1.429    2.857    0.857    4.000    8.000 
#    0.000    0.000    0.000    0.000    0.000    0.000 
#    0.000    0.000    0.000    0.000    0.000    0.000 
#
# Total GULP energy -173445.278926 kJ/mol
# GULP energy per Si atom -12388.948495 kJ/mol
# Density = 2.159090 g / cm^3
# Si number density = 21.640155 Si / 1000 Ang^3
#
#
#
# Elastic Constant Matrix: (Units=GPa)
#
#
# Indices 1 2 3 4 5 6 
#
# 1 95.3942 48.4448 32.1124 -24.6725 0.9034 -1.8793
# 2 48.4448 141.6733 53.8557 -5.7417 -9.5684 4.3962
# 3 32.1124 53.8557 94.9343 -17.8383 4.7640 10.9903
# 4 -24.6725 -5.7417 -17.8383 37.6898 7.9751 2.4580
# 5 0.9034 -9.5684 4.7640 7.9751 22.7733 -6.9588
# 6 -1.8793 4.3962 10.9903 2.4580 -6.9588 46.2685
#
#
#
# Elastic Compliance Matrix: (Units=1/GPa)
#
#
# Indices 1 2 3 4 5 6 
#
# 1 0.016324 -0.005718 0.000333 0.011567 -0.007351 -0.000593
# 2 -0.005718 0.011997 -0.007046 -0.007521 0.010052 0.002213
# 3 0.000333 -0.007046 0.017676 0.010463 -0.012137 -0.005897
# 4 0.011567 -0.007521 0.010463 0.043265 -0.023121 -0.007077
# 5 -0.007351 0.010052 -0.012137 -0.023121 0.062823 0.012306
# 6 -0.000593 0.002213 -0.005897 -0.007077 0.012306 0.025006
#
#
# Mechanical properties :
#
#
# Convention : Reuss Voigt Hill
#
# Bulk Modulus (GPa) = 47.31302 66.75862 57.03582
# Shear Modulus (GPa) = 23.92371 34.51890 29.22131
#
# Velocity S-wave (km/s) = 3.32855 3.99824 3.67867
# Velocity P-wave (km/s) = 6.05668 7.22710 6.66762
#
# Compressibility (1/GPa) = 0.02113583
#
# Stress axis : x y z
#
# Youngs Moduli (GPa) = 61.25947 83.35072 56.57426
#
# Poissons Ratio (x) = 0.47659 -0.01883
# Poissons Ratio (y) = 0.35027 0.39861
# Poissons Ratio (z) = -0.02039 0.58728
#
# Static dielectric constant tensor:
#      x y z
#    x 4.278240 0.057070 0.627430 
#    y 0.057070 4.205560 0.410070 
#    z 0.627430 0.410070 4.357590 
# 
# 
# High freq. dielectric constant tensor:
#      x y z
#    x 1.849220 -0.009590 0.021530 
#    y -0.009590 1.869930 0.005220 
#    z 0.021530 0.005220 1.844030 
# 
# From -- ./inp_files/67082.got.cif
#   From: 2010.06.25/outbox.cif.g09.slc.cpg/sg2_34_cif.got.tgz:67082.got - 2010.06.27 13:26:56.
