data_PCOD8015863
_publ_section_title
;
Structure prediction by ZEFSAII (Michael W. Deem and Ramdas Pophale) SiO2 
 PCOD8015863
Probable space group: P -1
;
_chemical_formula_sum "Si O2"
_cell_formula_units_Z 14
_cell_length_a 11.534732
_cell_length_b 12.057791
_cell_length_c 5.314526
_cell_angle_alpha 80.607167
_cell_angle_beta 57.630426
_cell_angle_gamma 72.253326
_cell_volume 594.597068
_symmetry_space_group_name_H-M "P -1"
_symmetry_group_IT_number 2
_symmetry_cell_setting 'triclinic'
loop_
_space_group_symop_operation_xyz
x,y,z
-x,-y,-z
loop_
_atom_site_type_symbol
_atom_site_label
_atom_site_fract_x
_atom_site_fract_y
_atom_site_fract_z
Si Si1 0.825200 0.492016 0.958551
Si Si2 0.050938 0.846906 0.267685
Si Si3 0.354121 0.293978 0.618233
Si Si4 0.832406 0.095997 0.393434
Si Si5 0.477620 0.933103 0.297785
Si Si6 0.444063 0.570142 0.790849
Si Si7 0.897689 0.662794 0.415179
O O1 0.845503 0.569996 0.672621
O O2 0.979259 0.410274 0.893621
O O3 0.742386 0.580051 0.231194
O O4 0.727616 0.405396 0.019393
O O5 0.162171 0.837949 0.372181
O O6 0.969548 0.747751 0.457219
O O7 0.126489 0.830993 0.912955
O O8 0.935946 0.969511 0.349649
O O9 0.405006 0.192432 0.801552
O O10 0.497736 0.313589 0.314923
O O11 0.243586 0.253895 0.578607
O O12 0.676133 0.087336 0.519753
O O13 0.500000 0.000000 0.500000
O O14 0.500000 0.000000 0.000000
O O15 0.500000 0.500000 0.500000
O O16 0.500000 0.500000 0.000000
#
# Coordination Sequence:
#
# PCOD8015863 Si02
#       7
#     2   2   2   2   2   2   2
#     4  10  24  43  66 104 138 185 239 287 353 421
#     4  10  23  42  72  93 141 176 228 289 343 412
#     4  11  25  43  73  98 148 186 233 296 362 410
#     4  10  23  46  65 104 131 181 232 283 349 413
#     4  12  28  46  75 106 141 184 241 292 353 425
#     4  10  21  43  66  96 136 182 227 283 344 420
#     4  11  23  42  70 103 139 188 237 289 349 424
#
# _framework density 23.545359000000001
#
# number of rings (size 3 to 8) (size 9 to 14) (size 15 to 20)
#    0.000    1.429    1.429    2.143    8.000    1.143 
#    5.143    0.000    0.000    0.000    0.000    0.000 
#    0.000    0.000    0.000    0.000    0.000    0.000 
#
# Total GULP energy -173480.409471 kJ/mol
# GULP energy per Si atom -12391.457819 kJ/mol
# Density = 2.349177 g / cm^3
# Si number density = 23.545359 Si / 1000 Ang^3
#
#
#
# Elastic Constant Matrix: (Units=GPa)
#
#
# Indices 1 2 3 4 5 6 
#
# 1 179.1965 45.9029 68.1050 -17.8857 -14.1202 7.6547
# 2 45.9029 57.6418 39.6604 -35.6427 2.0018 10.7608
# 3 68.1050 39.6604 118.2623 -17.3798 -2.8982 -1.6382
# 4 -17.8857 -35.6427 -17.3798 15.9817 11.8352 10.4930
# 5 -14.1202 2.0018 -2.8982 11.8352 50.7434 -6.1320
# 6 7.6547 10.7608 -1.6382 10.4930 -6.1320 34.8781
#
#
#
# Elastic Compliance Matrix: (Units=1/GPa)
#
#
# Indices 1 2 3 4 5 6 
#
# 1 0.007736 -0.000943 -0.003611 0.003698 0.000814 -0.002546
# 2 -0.000943 -0.007438 -0.002104 -0.038265 0.010746 0.015804
# 3 -0.003611 -0.002104 0.011979 0.005248 -0.001441 0.000172
# 4 0.003698 -0.038265 0.005248 -0.042304 0.015940 0.026770
# 5 0.000814 0.010746 -0.001441 0.015940 0.015019 -0.005717
# 6 -0.002546 0.015804 0.000172 0.026770 -0.005717 0.015303
#
#
# Mechanical properties :
#
#
# Convention : Reuss Voigt Hill
#
# Bulk Modulus (GPa) = -963.59536 73.60411 -444.99562
# Shear Modulus (GPa) = 376.96260 33.74947 205.35604
#
# Velocity S-wave (km/s) = 12.66681 3.79011 9.34915
# Velocity P-wave (km/s) = 14.00743 7.10504 8.53600
#
# Compressibility (1/GPa) = -0.00103778
#
# Stress axis : x y z
#
# Youngs Moduli (GPa) = 129.26160 -134.44497 83.47897
#
# Poissons Ratio (x) = -0.12675 0.30144
# Poissons Ratio (y) = 0.12186 0.17563
# Poissons Ratio (z) = 0.46675 -0.28286
#
# Static dielectric constant tensor:
#      x y z
#    x 4.881690 0.062750 -0.419990 
#    y 0.062750 4.328220 0.019300 
#    z -0.419990 0.019300 4.560600 
# 
# 
# High freq. dielectric constant tensor:
#      x y z
#    x 1.953370 0.000140 -0.019330 
#    y 0.000140 1.924980 -0.011670 
#    z -0.019330 -0.011670 1.930130 
# 
# From -- ./inp_files/68849.got.cif
#   From: 2010.06.25/outbox.cif.g09.slc.cpg/sg2_35_cif.got.tgz:68849.got - 2010.06.27 13:26:56.
