data_PCOD8015765
_publ_section_title
;
Structure prediction by ZEFSAII (Michael W. Deem and Ramdas Pophale) SiO2 
 PCOD8015765
Probable space group: P -1
;
_chemical_formula_sum "Si O2"
_cell_formula_units_Z 16
_cell_length_a 5.308548
_cell_length_b 23.696748
_cell_length_c 20.912785
_cell_angle_alpha 16.946231
_cell_angle_beta 68.745856
_cell_angle_gamma 69.784036
_cell_volume 714.627101
_symmetry_space_group_name_H-M "P -1"
_symmetry_group_IT_number 2
_symmetry_cell_setting 'triclinic'
loop_
_space_group_symop_operation_xyz
x,y,z
-x,-y,-z
loop_
_atom_site_type_symbol
_atom_site_label
_atom_site_fract_x
_atom_site_fract_y
_atom_site_fract_z
Si Si1 0.705545 0.749717 0.068475
Si Si2 0.384963 0.506118 0.935264
Si Si3 0.205616 0.501330 0.332416
Si Si4 0.389993 0.301290 0.405066
Si Si5 0.032008 0.164824 0.369886
Si Si6 0.563227 0.825582 0.134089
Si Si7 0.051983 0.919152 0.391558
Si Si8 0.986460 0.767930 0.250406
O O1 0.431818 0.651128 0.174303
O O2 0.629765 0.887198 0.987686
O O3 0.916661 0.595561 0.243093
O O4 0.843937 0.869425 0.868531
O O5 0.600900 0.529221 0.833741
O O6 0.222542 0.705160 0.731710
O O7 0.500000 0.500000 0.000000
O O8 0.237852 0.301871 0.163920
O O9 0.301418 0.405793 0.362762
O O10 0.169656 0.322564 0.577604
O O11 0.685061 0.215158 0.485153
O O12 0.167308 0.145714 0.571007
O O13 0.103204 0.075455 0.530484
O O14 0.000000 0.000000 0.500000
O O15 0.294289 0.690015 0.302562
O O16 0.819807 0.708044 0.266562
O O17 0.500000 0.000000 0.000000
O O18 0.000000 0.000000 0.000000
#
# Coordination Sequence:
#
# PCOD8015765 Si02
#       8
#     2   2   2   2   2   2   2   2
#     4  12  27  44  68 104 140 164 232 284 336 406
#     4  10  21  43  65 101 135 180 233 287 335 412
#     4  12  27  44  69 104 134 176 215 294 345 385
#     4  11  25  44  72  94 140 184 227 269 345 414
#     4  10  23  41  69 100 139 182 232 286 346 403
#     4  10  23  41  68  94 126 178 211 272 329 403
#     4  11  25  45  69 100 135 188 227 268 337 423
#     4  10  23  41  68  95 126 171 227 254 339 405
#
# _framework density 22.389298
#
# number of rings (size 3 to 8) (size 9 to 14) (size 15 to 20)
#    0.000    1.250    1.250    3.000    8.750    4.500 
#    0.000    0.000    0.000    0.000    0.000    0.000 
#    0.000    0.000    0.000    0.000    0.000    0.000 
#
# Total GULP energy -198213.584001 kJ/mol
# GULP energy per Si atom -12388.349000 kJ/mol
# Density = 2.233834 g / cm^3
# Si number density = 22.389298 Si / 1000 Ang^3
#
#
#
# Elastic Constant Matrix: (Units=GPa)
#
#
# Indices 1 2 3 4 5 6 
#
# 1 143.9898 1.7721 23.8839 7.8125 -21.2607 18.3860
# 2 1.7721 138.1570 19.6330 1.4932 17.3351 6.8128
# 3 23.8839 19.6330 150.0381 36.0687 -51.4349 21.3899
# 4 7.8125 1.4932 36.0687 47.3243 -12.2373 2.8988
# 5 -21.2607 17.3351 -51.4349 -12.2373 66.6105 -11.1328
# 6 18.3860 6.8128 21.3899 2.8988 -11.1328 38.4189
#
#
#
# Elastic Compliance Matrix: (Units=1/GPa)
#
#
# Indices 1 2 3 4 5 6 
#
# 1 0.007643 -0.000184 0.000038 -0.000608 0.001896 -0.003051
# 2 -0.000184 0.008164 -0.002438 0.000632 -0.004160 -0.001255
# 3 0.000038 -0.002438 0.011782 -0.006645 0.007966 -0.003336
# 4 -0.000608 0.000632 -0.006645 0.026062 -0.000401 0.001796
# 5 0.001896 -0.004160 0.007966 -0.000401 0.023133 0.002129
# 6 -0.003051 -0.001255 -0.003336 0.001796 0.002129 0.030051
#
#
# Mechanical properties :
#
#
# Convention : Reuss Voigt Hill
#
# Bulk Modulus (GPa) = 44.60038 58.08477 51.34258
# Shear Modulus (GPa) = 41.84944 56.26380 49.05662
#
# Velocity S-wave (km/s) = 4.32808 5.01840 4.68597
# Velocity P-wave (km/s) = 6.70373 7.71871 7.22906
#
# Compressibility (1/GPa) = 0.02242133
#
# Stress axis : x y z
#
# Youngs Moduli (GPa) = 130.83276 122.48988 84.87791
#
# Poissons Ratio (x) = 0.02257 -0.00326
# Poissons Ratio (y) = 0.02411 0.20693
# Poissons Ratio (z) = -0.00503 0.29862
#
# Static dielectric constant tensor:
#      x y z
#    x 4.270220 0.133780 0.475520 
#    y 0.133780 4.043010 0.131720 
#    z 0.475520 0.131720 3.820840 
# 
# 
# High freq. dielectric constant tensor:
#      x y z
#    x 1.901010 0.008130 -0.005200 
#    y 0.008130 1.888120 0.021330 
#    z -0.005200 0.021330 1.881310 
# 
# From -- ./inp_files/550958.got.cif
#   From: 2010.06.25/outbox.cif.g09.slc.cpg/sg2_276_cif.got.tgz:550958.got - 2010.06.27 13:26:56.
