data_PCOD8015024
_publ_section_title
;
Structure prediction by ZEFSAII (Michael W. Deem and Ramdas Pophale) SiO2 
 PCOD8015024
Probable space group: P -1
;
_chemical_formula_sum "Si O2"
_cell_formula_units_Z 16
_cell_length_a 15.353079
_cell_length_b 9.889531
_cell_length_c 11.670680
_cell_angle_alpha 52.013242
_cell_angle_beta 108.993158
_cell_angle_gamma 65.748493
_cell_volume 755.971082
_symmetry_space_group_name_H-M "P -1"
_symmetry_group_IT_number 2
_symmetry_cell_setting 'triclinic'
loop_
_space_group_symop_operation_xyz
x,y,z
-x,-y,-z
loop_
_atom_site_type_symbol
_atom_site_label
_atom_site_fract_x
_atom_site_fract_y
_atom_site_fract_z
Si Si1 0.713496 0.643753 0.783921
Si Si2 0.219081 0.757911 0.631019
Si Si3 0.543611 0.083338 0.062430
Si Si4 0.823586 0.845490 0.739391
Si Si5 0.341134 0.862733 0.249564
Si Si6 0.092788 0.927055 0.735560
Si Si7 0.163103 0.151600 0.785865
Si Si8 0.481222 0.074022 0.646937
O O1 0.716126 0.844827 0.661857
O O2 0.662657 0.631801 0.647647
O O3 0.585219 0.797171 0.749226
O O4 0.877014 0.305765 0.072245
O O5 0.202957 0.794810 0.741308
O O6 0.184038 0.000292 0.442012
O O7 0.393157 0.437648 0.830589
O O8 0.096244 0.794361 0.519396
O O9 0.689892 0.975385 0.142133
O O10 0.596111 0.922127 0.289288
O O11 0.500000 0.000000 0.000000
O O12 0.760853 0.023798 0.738953
O O13 0.000000 0.500000 0.000000
O O14 0.500000 0.500000 0.500000
O O15 0.406642 0.955592 0.231214
O O16 0.210939 0.053551 0.991103
O O17 0.138709 0.998880 0.808989
O O18 0.000000 0.500000 0.500000
#
# Coordination Sequence:
#
# PCOD8015024 Si02
#       8
#     2   2   2   2   2   2   2   2
#     4  10  21  42  65 101 134 177 224 291 345 405
#     4  11  25  44  72 103 135 184 231 283 353 417
#     4  12  24  44  70  99 140 181 235 278 348 428
#     4  11  24  41  71 102 137 179 235 289 346 420
#     4  11  24  46  68  96 143 186 231 286 362 423
#     4  11  24  44  71  97 144 173 230 285 350 409
#     4  12  28  44  69 102 139 183 232 292 358 413
#     4  10  22  39  68  94 136 177 229 282 348 408
#
# _framework density 21.164829000000001
#
# number of rings (size 3 to 8) (size 9 to 14) (size 15 to 20)
#    0.000    1.000    3.750    2.250    3.500    2.500 
#    0.000    0.625    0.000    0.000    0.000    0.000 
#    0.000    0.000    0.000    0.000    0.000    0.000 
#
# Total GULP energy -198307.068453 kJ/mol
# GULP energy per Si atom -12394.191778 kJ/mol
# Density = 2.111666 g / cm^3
# Si number density = 21.164829 Si / 1000 Ang^3
#
#
#
# Elastic Constant Matrix: (Units=GPa)
#
#
# Indices 1 2 3 4 5 6 
#
# 1 96.6439 38.9475 32.3254 -0.2429 -4.6449 0.8504
# 2 38.9475 112.5020 57.9317 14.1251 -1.9653 8.1174
# 3 32.3254 57.9317 143.7632 -0.6979 -2.8661 -7.1202
# 4 -0.2429 14.1251 -0.6979 40.2917 -4.7174 8.4184
# 5 -4.6449 -1.9653 -2.8661 -4.7174 41.5529 -2.0713
# 6 0.8504 8.1174 -7.1202 8.4184 -2.0713 28.9178
#
#
#
# Elastic Compliance Matrix: (Units=1/GPa)
#
#
# Indices 1 2 3 4 5 6 
#
# 1 0.012360 -0.003838 -0.001196 0.001537 0.001295 0.000065
# 2 -0.003838 0.013448 -0.004775 -0.004141 -0.000776 -0.003688
# 3 -0.001196 -0.004775 0.009333 0.001193 0.000588 0.003368
# 4 0.001537 -0.004141 0.001193 0.028007 0.002912 -0.006534
# 5 0.001295 -0.000776 0.000588 0.002912 0.024607 0.001239
# 6 0.000065 -0.003688 0.003368 -0.006534 0.001239 0.038434
#
#
# Mechanical properties :
#
#
# Convention : Reuss Voigt Hill
#
# Bulk Modulus (GPa) = 64.41609 67.92424 66.17016
# Shear Modulus (GPa) = 33.11689 37.06611 35.09150
#
# Velocity S-wave (km/s) = 3.95994 4.18940 4.07628
# Velocity P-wave (km/s) = 7.17005 7.45413 7.31347
#
# Compressibility (1/GPa) = 0.01552407
#
# Stress axis : x y z
#
# Youngs Moduli (GPa) = 80.90898 74.35803 107.14563
#
# Poissons Ratio (x) = 0.28539 0.12815
# Poissons Ratio (y) = 0.31053 0.51157
# Poissons Ratio (z) = 0.09677 0.35502
#
# Static dielectric constant tensor:
#      x y z
#    x 3.967800 -0.041600 0.009370 
#    y -0.041600 3.981510 0.186050 
#    z 0.009370 0.186050 4.294290 
# 
# 
# High freq. dielectric constant tensor:
#      x y z
#    x 1.835060 -0.001680 -0.002220 
#    y -0.001680 1.830800 0.010250 
#    z -0.002220 0.010250 1.840500 
# 
# From -- ./inp_files/446808.got.cif
#   From: 2010.06.25/outbox.cif.g09.slc.cpg/sg2_224_cif.got.tgz:446808.got - 2010.06.27 13:26:56.
