data_PCOD8015929
_publ_section_title
;
Structure prediction by ZEFSAII (Michael W. Deem and Ramdas Pophale) SiO2 
 PCOD8015929
Probable space group: P -1
;
_chemical_formula_sum "Si O2"
_cell_formula_units_Z 16
_cell_length_a 13.701035
_cell_length_b 8.507143
_cell_length_c 7.075088
_cell_angle_alpha 97.864896
_cell_angle_beta 61.117440
_cell_angle_gamma 90.769746
_cell_volume 713.960258
_symmetry_space_group_name_H-M "P -1"
_symmetry_group_IT_number 2
_symmetry_cell_setting 'triclinic'
loop_
_space_group_symop_operation_xyz
x,y,z
-x,-y,-z
loop_
_atom_site_type_symbol
_atom_site_label
_atom_site_fract_x
_atom_site_fract_y
_atom_site_fract_z
Si Si1 0.013714 0.293422 0.307486
Si Si2 0.620904 0.406998 0.708709
Si Si3 0.377874 0.338001 0.950480
Si Si4 0.211227 0.870609 0.493772
Si Si5 0.622113 0.930045 0.819414
Si Si6 0.089910 0.117376 0.878803
Si Si7 0.342206 0.332151 0.541860
Si Si8 0.907920 0.617607 0.354260
O O1 0.913441 0.181983 0.448908
O O2 0.966383 0.442192 0.247499
O O3 0.084136 0.343864 0.426301
O O4 0.110072 0.208662 0.070957
O O5 0.512212 0.311782 0.835737
O O6 0.719427 0.285062 0.520055
O O7 0.585581 0.531023 0.593686
O O8 0.660023 0.497286 0.877953
O O9 0.338394 0.336270 0.771542
O O10 0.330672 0.190381 0.082296
O O11 0.284314 0.937802 0.263451
O O12 0.199288 0.015483 0.682276
O O13 0.612033 0.837863 0.612310
O O14 0.500000 0.000000 0.000000
O O15 0.037395 0.243720 0.794135
O O16 0.000000 0.000000 0.000000
O O17 0.219099 0.379341 0.589285
#
# Coordination Sequence:
#
# PCOD8015929 Si02
#       8
#     2   2   2   2   2   2   2   2
#     4  10  24  44  70  92 129 175 218 278 323 377
#     4  10  21  43  67  96 130 170 222 264 325 386
#     4  10  23  42  68  94 133 176 214 271 320 382
#     4  11  21  44  66  96 134 170 216 270 322 391
#     4  11  23  43  66  96 140 171 214 265 325 392
#     4  10  23  42  65  94 130 166 215 271 327 387
#     4  11  23  43  67  97 131 172 222 268 319 392
#     4  11  22  45  68  96 130 168 223 270 325 393
#
# _framework density 22.410208000000001
#
# number of rings (size 3 to 8) (size 9 to 14) (size 15 to 20)
#    0.000    1.500    3.750    0.750    0.000    4.500 
#    4.500    1.250    0.000    0.000    0.000    0.000 
#    0.000    0.000    0.000    0.000    0.000    0.000 
#
# Total GULP energy -198241.505709 kJ/mol
# GULP energy per Si atom -12390.094107 kJ/mol
# Density = 2.235920 g / cm^3
# Si number density = 22.410208 Si / 1000 Ang^3
#
#
#
# Elastic Constant Matrix: (Units=GPa)
#
#
# Indices 1 2 3 4 5 6 
#
# 1 71.4086 34.8199 45.7625 7.3570 1.5083 -9.4435
# 2 34.8199 114.9168 62.3132 -0.1462 -3.4770 4.1106
# 3 45.7625 62.3132 132.5659 11.1273 4.7178 -9.9832
# 4 7.3570 -0.1462 11.1273 52.0216 3.2342 -12.7085
# 5 1.5083 -3.4770 4.7178 3.2342 36.0027 -3.7077
# 6 -9.4435 4.1106 -9.9832 -12.7085 -3.7077 19.7377
#
#
#
# Elastic Compliance Matrix: (Units=1/GPa)
#
#
# Indices 1 2 3 4 5 6 
#
# 1 0.019788 -0.003894 -0.004402 0.000114 0.000202 0.008163
# 2 -0.003894 0.013103 -0.005394 -0.000083 0.001411 -0.007109
# 3 -0.004402 -0.005394 0.012042 -0.000828 -0.001396 0.004313
# 4 0.000114 -0.000083 -0.000828 0.022910 -0.000488 0.014313
# 5 0.000202 0.001411 -0.001396 -0.000488 0.028557 0.004147
# 6 0.008163 -0.007109 0.004313 0.014313 0.004147 0.068226
#
#
# Mechanical properties :
#
#
# Convention : Reuss Voigt Hill
#
# Bulk Modulus (GPa) = 56.97001 67.18693 62.07847
# Shear Modulus (GPa) = 25.27057 33.28544 29.27800
#
# Velocity S-wave (km/s) = 3.36167 3.85811 3.61842
# Velocity P-wave (km/s) = 6.36745 7.06345 6.72446
#
# Compressibility (1/GPa) = 0.01755310
#
# Stress axis : x y z
#
# Youngs Moduli (GPa) = 50.53681 76.31600 83.04041
#
# Poissons Ratio (x) = 0.29719 0.36557
# Poissons Ratio (y) = 0.19680 0.44788
# Poissons Ratio (z) = 0.22248 0.41162
#
# Static dielectric constant tensor:
#      x y z
#    x 3.676650 0.039780 -0.300880 
#    y 0.039780 4.870040 0.144100 
#    z -0.300880 0.144100 5.065460 
# 
# 
# High freq. dielectric constant tensor:
#      x y z
#    x 1.851670 0.015470 -0.025410 
#    y 0.015470 1.902570 -0.002240 
#    z -0.025410 -0.002240 1.893120 
# 
# From -- ./inp_files/90334.got.cif
#   From: 2010.06.25/outbox.cif.g09.slc.cpg/sg2_46_cif.got.tgz:90334.got - 2010.06.27 13:26:56.
