data_PCOD8015338
_publ_section_title
;
Structure prediction by ZEFSAII (Michael W. Deem and Ramdas Pophale) SiO2 
 PCOD8015338
Probable space group: P -1
;
_chemical_formula_sum "Si O2"
_cell_formula_units_Z 16
_cell_length_a 7.524939
_cell_length_b 6.563218
_cell_length_c 17.665054
_cell_angle_alpha 119.194269
_cell_angle_beta 57.779069
_cell_angle_gamma 112.781504
_cell_volume 634.703409
_symmetry_space_group_name_H-M "P -1"
_symmetry_group_IT_number 2
_symmetry_cell_setting 'triclinic'
loop_
_space_group_symop_operation_xyz
x,y,z
-x,-y,-z
loop_
_atom_site_type_symbol
_atom_site_label
_atom_site_fract_x
_atom_site_fract_y
_atom_site_fract_z
Si Si1 0.293937 0.183789 0.923799
Si Si2 0.894682 0.461860 0.328378
Si Si3 0.434316 0.351387 0.771224
Si Si4 0.202457 0.928945 0.345219
Si Si5 0.659786 0.875521 0.804259
Si Si6 0.078074 0.200294 0.123212
Si Si7 0.326386 0.191562 0.504873
Si Si8 0.232325 0.986754 0.640231
O O1 0.352514 0.385504 0.882109
O O2 0.476069 0.034173 0.877875
O O3 0.228455 0.307322 0.038160
O O4 0.088624 0.018778 0.906570
O O5 0.663016 0.533289 0.417234
O O6 0.062566 0.681952 0.359538
O O7 0.946770 0.405229 0.219019
O O8 0.928720 0.223336 0.321014
O O9 0.562011 0.135063 0.714763
O O10 0.556646 0.602326 0.758627
O O11 0.259484 0.231346 0.727172
O O12 0.171988 0.021799 0.282981
O O13 0.202856 0.139712 0.444544
O O14 0.776927 0.885240 0.859624
O O15 0.160747 0.048593 0.582532
O O16 0.548956 0.109202 0.442502
#
# Coordination Sequence:
#
# PCOD8015338 Si02
#       8
#     2   2   2   2   2   2   2   2
#     4  10  24  47  69 101 140 175 232 278 337 412
#     4  12  23  41  65  95 134 175 222 286 333 397
#     4  10  21  42  67  99 135 177 226 280 333 404
#     4  10  24  42  63  98 135 175 227 279 332 402
#     4  11  24  46  71  98 141 184 221 281 344 398
#     4  11  24  46  69 104 137 176 230 283 336 406
#     4  10  24  41  63  95 132 181 222 275 340 403
#     4  10  23  41  65  96 133 176 228 274 340 406
#
# _framework density 25.208621999999998
#
# number of rings (size 3 to 8) (size 9 to 14) (size 15 to 20)
#    0.000    1.500    2.500    1.125    3.500    4.000 
#    2.250    1.250    0.000    0.000    0.000    0.000 
#    0.000    0.000    0.000    0.000    0.000    0.000 
#
# Total GULP energy -198221.555847 kJ/mol
# GULP energy per Si atom -12388.847240 kJ/mol
# Density = 2.515125 g / cm^3
# Si number density = 25.208622 Si / 1000 Ang^3
#
#
#
# Elastic Constant Matrix: (Units=GPa)
#
#
# Indices 1 2 3 4 5 6 
#
# 1 72.5963 14.8123 32.0735 -4.3545 28.3053 -3.2956
# 2 14.8123 71.5849 6.5635 -7.6629 3.9320 -0.2263
# 3 32.0735 6.5635 143.4750 -6.0685 13.4952 -19.4198
# 4 -4.3545 -7.6629 -6.0685 38.5721 -4.1713 0.4339
# 5 28.3053 3.9320 13.4952 -4.1713 34.4754 -1.5142
# 6 -3.2956 -0.2263 -19.4198 0.4339 -1.5142 20.0906
#
#
#
# Elastic Compliance Matrix: (Units=1/GPa)
#
#
# Indices 1 2 3 4 5 6 
#
# 1 0.022487 -0.003471 -0.003432 -0.000500 -0.016824 -0.000925
# 2 -0.003471 0.014896 0.000029 0.002733 0.001456 -0.000322
# 3 -0.003432 0.000029 0.008873 0.000903 -0.000199 0.007979
# 4 -0.000500 0.002733 0.000903 0.026875 0.003017 0.000469
# 5 -0.016824 0.001456 -0.000199 0.003017 0.043107 0.000248
# 6 -0.000925 -0.000322 0.007979 0.000469 0.000248 0.057341
#
#
# Mechanical properties :
#
#
# Convention : Reuss Voigt Hill
#
# Bulk Modulus (GPa) = 30.75996 43.83944 37.29970
# Shear Modulus (GPa) = 25.23185 34.24143 29.73664
#
# Velocity S-wave (km/s) = 3.16717 3.68954 3.43829
# Velocity P-wave (km/s) = 5.05996 5.96479 5.53091
#
# Compressibility (1/GPa) = 0.03250980
#
# Stress axis : x y z
#
# Youngs Moduli (GPa) = 44.46999 67.12993 112.70574
#
# Poissons Ratio (x) = 0.23298 0.38681
# Poissons Ratio (y) = 0.15434 -0.00332
# Poissons Ratio (z) = 0.15262 -0.00198
#
# Static dielectric constant tensor:
#      x y z
#    x 4.677870 -0.171570 -0.249170 
#    y -0.171570 4.633070 -0.430290 
#    z -0.249170 -0.430290 5.379400 
# 
# 
# High freq. dielectric constant tensor:
#      x y z
#    x 2.013370 -0.004810 -0.015430 
#    y -0.004810 1.998930 -0.019150 
#    z -0.015430 -0.019150 2.024910 
# 
# From -- ./inp_files/553818.got.cif
#   From: 2010.06.25/outbox.cif.g09.slc.cpg/sg2_277_cif.got.tgz:553818.got - 2010.06.27 13:26:56.
