data_PCOD8015167
_publ_section_title
;
Structure prediction by ZEFSAII (Michael W. Deem and Ramdas Pophale) SiO2 
 PCOD8015167
Probable space group: P -1
;
_chemical_formula_sum "Si O2"
_cell_formula_units_Z 16
_cell_length_a 14.561425
_cell_length_b 8.578770
_cell_length_c 19.121101
_cell_angle_alpha 41.100770
_cell_angle_beta 141.730996
_cell_angle_gamma 148.136060
_cell_volume 752.978326
_symmetry_space_group_name_H-M "P -1"
_symmetry_group_IT_number 2
_symmetry_cell_setting 'triclinic'
loop_
_space_group_symop_operation_xyz
x,y,z
-x,-y,-z
loop_
_atom_site_type_symbol
_atom_site_label
_atom_site_fract_x
_atom_site_fract_y
_atom_site_fract_z
Si Si1 0.732444 0.447665 0.172464
Si Si2 0.177739 0.268385 0.557238
Si Si3 0.363538 0.436087 0.150597
Si Si4 0.260026 0.935303 0.813112
Si Si5 0.036588 0.456209 0.957849
Si Si6 0.055479 0.641530 0.409134
Si Si7 0.333477 0.157549 0.082381
Si Si8 0.429854 0.192640 0.402402
O O1 0.778564 0.307654 0.185577
O O2 0.514630 0.186612 0.155394
O O3 0.876770 0.562184 0.285375
O O4 0.744443 0.731751 0.058423
O O5 0.142193 0.505037 0.468921
O O6 0.386562 0.465293 0.575438
O O7 0.183891 0.115118 0.682412
O O8 0.000000 0.000000 0.500000
O O9 0.394232 0.360778 0.118241
O O10 0.382230 0.239737 0.281190
O O11 0.513701 0.804728 0.125253
O O12 0.153643 0.330599 0.070032
O O13 0.148563 0.767086 0.874934
O O14 0.835250 0.202417 0.884551
O O15 0.000000 0.500000 0.000000
O O16 0.000000 0.500000 0.500000
O O17 0.235591 0.011131 0.394673
O O18 0.500000 0.000000 0.500000
#
# Coordination Sequence:
#
# PCOD8015167 Si02
#       8
#     2   2   2   2   2   2   2   2
#     4  11  24  43  66  92 137 169 225 266 332 392
#     4  10  21  42  66  93 124 171 221 265 331 390
#     4  11  23  42  70  92 131 172 221 265 335 391
#     4  11  24  42  66  92 132 178 209 273 338 387
#     4  12  26  41  64  98 133 166 220 270 332 386
#     4  11  24  42  67  96 131 172 220 273 327 385
#     4  11  26  40  68 100 127 173 221 272 322 398
#     4   9  22  39  65  93 127 166 217 263 325 386
#
# _framework density 21.248951000000002
#
# number of rings (size 3 to 8) (size 9 to 14) (size 15 to 20)
#    0.000    1.250    2.500    2.250   10.500    1.000 
#    0.000    0.625    0.000    0.000    0.000    0.000 
#    0.000    0.000    0.000    0.000    0.000    0.000 
#
# Total GULP energy -198297.158302 kJ/mol
# GULP energy per Si atom -12393.572394 kJ/mol
# Density = 2.120059 g / cm^3
# Si number density = 21.248951 Si / 1000 Ang^3
#
#
#
# Elastic Constant Matrix: (Units=GPa)
#
#
# Indices 1 2 3 4 5 6 
#
# 1 79.2591 37.7155 32.8941 3.5871 -18.4577 22.8077
# 2 37.7155 149.1260 50.7023 14.9225 -15.9543 36.5798
# 3 32.8941 50.7023 126.5622 -0.6332 -6.1947 27.7159
# 4 3.5871 14.9225 -0.6332 33.4324 -0.3128 -1.6065
# 5 -18.4577 -15.9543 -6.1947 -0.3128 34.9314 -1.5280
# 6 22.8077 36.5798 27.7159 -1.6065 -1.5280 37.9692
#
#
#
# Elastic Compliance Matrix: (Units=1/GPa)
#
#
# Indices 1 2 3 4 5 6 
#
# 1 0.018424 -0.000681 -0.002238 -0.002044 0.008636 -0.008516
# 2 -0.000681 0.010502 -0.002066 -0.005016 0.003664 -0.008265
# 3 -0.002238 -0.002066 0.010184 0.001155 -0.000488 -0.004070
# 4 -0.002044 -0.005016 0.001155 0.032679 -0.002589 0.006496
# 5 0.008636 0.003664 -0.000488 -0.002589 0.034445 -0.007085
# 6 -0.008516 -0.008265 -0.004070 0.006496 -0.007085 0.042376
#
#
# Mechanical properties :
#
#
# Convention : Reuss Voigt Hill
#
# Bulk Modulus (GPa) = 34.31837 66.39679 50.35758
# Shear Modulus (GPa) = 29.71013 36.84230 33.27622
#
# Velocity S-wave (km/s) = 3.74330 4.16846 3.96159
# Velocity P-wave (km/s) = 5.90497 7.38126 6.68400
#
# Compressibility (1/GPa) = 0.02913891
#
# Stress axis : x y z
#
# Youngs Moduli (GPa) = 54.27636 95.22254 98.19621
#
# Poissons Ratio (x) = 0.06488 0.21978
# Poissons Ratio (y) = 0.03698 0.20286
# Poissons Ratio (z) = 0.12148 0.19672
#
# Static dielectric constant tensor:
#      x y z
#    x 3.796320 0.274880 0.026710 
#    y 0.274880 4.533880 0.184950 
#    z 0.026710 0.184950 4.151870 
# 
# 
# High freq. dielectric constant tensor:
#      x y z
#    x 1.809610 0.022630 0.007940 
#    y 0.022630 1.851810 0.001380 
#    z 0.007940 0.001380 1.846750 
# 
# From -- ./inp_files/179500.got.cif
#   From: 2010.06.25/outbox.cif.g09.slc.cpg/sg2_90_cif.got.tgz:179500.got - 2010.06.27 13:26:56.
