data_PCOD8015985
_publ_section_title
;
Structure prediction by ZEFSAII (Michael W. Deem and Ramdas Pophale) SiO2 
 PCOD8015985
Probable space group: P -1
;
_chemical_formula_sum "Si O2"
_cell_formula_units_Z 16
_cell_length_a 16.423946
_cell_length_b 8.927550
_cell_length_c 24.571127
_cell_angle_alpha 150.489242
_cell_angle_beta 150.953770
_cell_angle_gamma 49.517034
_cell_volume 762.092897
_symmetry_space_group_name_H-M "P -1"
_symmetry_group_IT_number 2
_symmetry_cell_setting 'triclinic'
loop_
_space_group_symop_operation_xyz
x,y,z
-x,-y,-z
loop_
_atom_site_type_symbol
_atom_site_label
_atom_site_fract_x
_atom_site_fract_y
_atom_site_fract_z
Si Si1 0.514745 0.700050 0.854893
Si Si2 0.994929 0.621695 0.271277
Si Si3 0.155441 0.732096 0.816977
Si Si4 0.615849 0.290138 0.503767
Si Si5 0.286103 0.596318 0.059306
Si Si6 0.617322 0.956443 0.505760
Si Si7 0.880150 0.585722 0.415159
Si Si8 0.986222 0.723299 0.110419
O O1 0.661562 0.709122 0.991122
O O2 0.478953 0.408283 0.696419
O O3 0.333874 0.661550 0.769665
O O4 0.616300 0.063073 0.996255
O O5 0.900828 0.510155 0.240049
O O6 0.170247 0.529128 0.339421
O O7 0.819802 0.428737 0.066893
O O8 0.082461 0.024104 0.437237
O O9 0.062935 0.483625 0.633091
O O10 0.094869 0.030918 0.882445
O O11 0.500000 0.500000 0.500000
O O12 0.486691 0.939865 0.285165
O O13 0.644020 0.246556 0.569840
O O14 0.144693 0.574026 0.017871
O O15 0.500000 0.000000 0.500000
O O16 0.818096 0.019419 0.665588
O O17 0.000000 0.500000 0.500000
O O18 0.000000 0.500000 0.000000
#
# Coordination Sequence:
#
# PCOD8015985 Si02
#       8
#     2   2   2   2   2   2   2   2
#     4  10  21  45  67  97 131 178 225 280 332 409
#     4  12  25  47  66 102 144 173 227 289 344 402
#     4  11  26  40  68 103 133 175 231 283 342 398
#     4  11  25  42  65  98 140 185 219 279 351 402
#     4  10  21  43  68  92 133 181 225 266 347 407
#     4  11  21  39  65  95 134 172 236 273 329 405
#     4  12  23  47  75  96 134 183 231 279 341 408
#     4  11  22  41  66  97 133 180 229 281 330 412
#
# _framework density 20.994817000000001
#
# number of rings (size 3 to 8) (size 9 to 14) (size 15 to 20)
#    0.000    1.000    3.750    5.250    3.500    2.500 
#    2.250    1.250    0.000    0.000    0.000    0.000 
#    0.000    0.000    0.000    0.000    0.000    0.000 
#
# Total GULP energy -198295.573991 kJ/mol
# GULP energy per Si atom -12393.473374 kJ/mol
# Density = 2.094703 g / cm^3
# Si number density = 20.994817 Si / 1000 Ang^3
#
#
#
# Elastic Constant Matrix: (Units=GPa)
#
#
# Indices 1 2 3 4 5 6 
#
# 1 146.5409 44.0927 36.7906 -16.8132 4.7576 14.7160
# 2 44.0927 85.4480 31.1417 -13.7309 7.1573 5.2924
# 3 36.7906 31.1417 91.4943 -26.3107 10.1384 13.1848
# 4 -16.8132 -13.7309 -26.3107 34.5080 -0.3822 -0.8310
# 5 4.7576 7.1573 10.1384 -0.3822 42.6620 3.4183
# 6 14.7160 5.2924 13.1848 -0.8310 3.4183 35.2871
#
#
#
# Elastic Compliance Matrix: (Units=1/GPa)
#
#
# Indices 1 2 3 4 5 6 
#
# 1 0.008697 -0.003546 -0.001475 0.001643 0.000193 -0.002524
# 2 -0.003546 0.015043 -0.003064 0.001920 -0.001427 0.000551
# 3 -0.001475 -0.003064 0.016574 0.010558 -0.002797 -0.004598
# 4 0.001643 0.001920 0.010558 0.038475 -0.002366 -0.003782
# 5 0.000193 -0.001427 -0.002797 -0.002366 0.024401 -0.001241
# 6 -0.002524 0.000551 -0.004598 -0.003782 -0.001241 0.031058
#
#
# Mechanical properties :
#
#
# Convention : Reuss Voigt Hill
#
# Bulk Modulus (GPa) = 41.41679 60.83701 51.12690
# Shear Modulus (GPa) = 31.55226 36.58865 34.07045
#
# Velocity S-wave (km/s) = 3.88088 4.17915 4.03277
# Velocity P-wave (km/s) = 6.31281 7.23375 6.78892
#
# Compressibility (1/GPa) = 0.02414479
#
# Stress axis : x y z
#
# Youngs Moduli (GPa) = 114.98097 66.47505 60.33447
#
# Poissons Ratio (x) = 0.23572 0.08902
# Poissons Ratio (y) = 0.40771 0.18484
# Poissons Ratio (z) = 0.16965 0.20365
#
# Static dielectric constant tensor:
#      x y z
#    x 3.695390 -0.264000 -0.248620 
#    y -0.264000 3.471980 -0.737220 
#    z -0.248620 -0.737220 3.057620 
# 
# 
# High freq. dielectric constant tensor:
#      x y z
#    x 1.830140 -0.005090 0.004360 
#    y -0.005090 1.812860 -0.010270 
#    z 0.004360 -0.010270 1.833220 
# 
# From -- ./inp_files/592107.got.cif
#   From: 2010.06.25/outbox.cif.g09.slc.cpg/sg2_297_cif.got.tgz:592107.got - 2010.06.27 13:26:56.
