data_PCOD8015636
_publ_section_title
;
Structure prediction by ZEFSAII (Michael W. Deem and Ramdas Pophale) SiO2 
 PCOD8015636
Probable space group: P -1
;
_chemical_formula_sum "Si O2"
_cell_formula_units_Z 16
_cell_length_a 8.953802
_cell_length_b 8.698309
_cell_length_c 19.288067
_cell_angle_alpha 38.827247
_cell_angle_beta 51.661284
_cell_angle_gamma 71.279399
_cell_volume 697.357744
_symmetry_space_group_name_H-M "P -1"
_symmetry_group_IT_number 2
_symmetry_cell_setting 'triclinic'
loop_
_space_group_symop_operation_xyz
x,y,z
-x,-y,-z
loop_
_atom_site_type_symbol
_atom_site_label
_atom_site_fract_x
_atom_site_fract_y
_atom_site_fract_z
Si Si1 0.425906 0.744362 0.429499
Si Si2 0.196535 0.024956 0.480021
Si Si3 0.582378 0.380698 0.800759
Si Si4 0.974961 0.852443 0.743009
Si Si5 0.345536 0.885872 0.260169
Si Si6 0.189296 0.931795 0.076166
Si Si7 0.776211 0.284289 0.996435
Si Si8 0.135581 0.902228 0.826692
O O1 0.500000 0.500000 0.500000
O O2 0.289557 0.799265 0.511139
O O3 0.301431 0.728197 0.400206
O O4 0.627122 0.982613 0.283439
O O5 0.144530 0.984573 0.590428
O O6 0.363163 0.308682 0.318799
O O7 0.000000 0.000000 0.500000
O O8 0.718995 0.285846 0.847876
O O9 0.622288 0.310514 0.736082
O O10 0.347029 0.224783 0.941503
O O11 0.850319 0.043260 0.728751
O O12 0.825040 0.579922 0.853043
O O13 0.071583 0.792167 0.807356
O O14 0.535649 0.149697 0.118636
O O15 0.142795 0.875574 0.027841
O O16 0.982821 0.898225 0.188597
O O17 0.899949 0.298407 0.028103
#
# Coordination Sequence:
#
# PCOD8015636 Si02
#       8
#     2   2   2   2   2   2   2   2
#     4  11  28  48  70 100 146 185 227 289 359 418
#     4  12  27  46  70 104 139 187 235 285 344 425
#     4  10  23  42  71 105 139 173 246 282 337 409
#     4  12  24  41  71 101 139 186 237 285 345 415
#     4  10  22  45  69 101 133 191 228 295 338 411
#     4  10  21  42  73 102 134 188 224 297 342 403
#     4  10  23  41  66 102 143 177 236 289 350 408
#     4  11  25  44  66 103 137 186 231 288 361 401
#
# _framework density 22.943750000000001
#
# number of rings (size 3 to 8) (size 9 to 14) (size 15 to 20)
#    0.000    1.250    2.500    1.875    5.250    4.000 
#    0.000    0.000    0.000    0.000    0.000    0.000 
#    0.000    0.000    0.000    0.000    0.000    0.000 
#
# Total GULP energy -198325.661885 kJ/mol
# GULP energy per Si atom -12395.353868 kJ/mol
# Density = 2.289153 g / cm^3
# Si number density = 22.943750 Si / 1000 Ang^3
#
#
#
# Elastic Constant Matrix: (Units=GPa)
#
#
# Indices 1 2 3 4 5 6 
#
# 1 91.7037 36.5070 21.5739 10.4299 11.1012 5.5515
# 2 36.5070 97.0386 36.3573 9.1671 1.1700 -7.6759
# 3 21.5739 36.3573 73.1677 -1.5795 14.3123 8.6784
# 4 10.4299 9.1671 -1.5795 47.8616 -2.0924 3.2468
# 5 11.1012 1.1700 14.3123 -2.0924 21.2732 10.3258
# 6 5.5515 -7.6759 8.6784 3.2468 10.3258 39.3910
#
#
#
# Elastic Compliance Matrix: (Units=1/GPa)
#
#
# Indices 1 2 3 4 5 6 
#
# 1 0.014078 -0.004941 -0.000340 -0.002358 -0.006621 -0.000942
# 2 -0.004941 0.015577 -0.007750 -0.002264 0.004563 0.004430
# 3 -0.000340 -0.007750 0.020243 0.001944 -0.011311 -0.003117
# 4 -0.002358 -0.002264 0.001944 0.022306 0.003889 -0.003395
# 5 -0.006621 0.004563 -0.011311 0.003889 0.064468 -0.012906
# 6 -0.000942 0.004430 -0.003117 -0.003395 -0.012906 0.030732
#
#
# Mechanical properties :
#
#
# Convention : Reuss Voigt Hill
#
# Bulk Modulus (GPa) = 41.95359 50.08736 46.02047
# Shear Modulus (GPa) = 24.82474 32.86996 28.84735
#
# Velocity S-wave (km/s) = 3.29292 3.78912 3.54970
# Velocity P-wave (km/s) = 5.72563 6.40477 6.07470
#
# Compressibility (1/GPa) = 0.02383586
#
# Stress axis : x y z
#
# Youngs Moduli (GPa) = 71.03087 64.19716 49.40001
#
# Poissons Ratio (x) = 0.31720 0.01680
# Poissons Ratio (y) = 0.35096 0.38286
# Poissons Ratio (z) = 0.02415 0.49755
#
# Static dielectric constant tensor:
#      x y z
#    x 4.204930 0.159270 -0.119380 
#    y 0.159270 4.015970 0.269260 
#    z -0.119380 0.269260 4.579610 
# 
# 
# High freq. dielectric constant tensor:
#      x y z
#    x 1.906960 0.008360 0.005530 
#    y 0.008360 1.904760 0.012360 
#    z 0.005530 0.012360 1.901160 
# 
# From -- ./inp_files/556757.got.cif
#   From: 2010.06.25/outbox.cif.g09.slc.cpg/sg2_279_cif.got.tgz:556757.got - 2010.06.27 13:26:56.
