data_PCOD8015356
_publ_section_title
;
Structure prediction by ZEFSAII (Michael W. Deem and Ramdas Pophale) SiO2 
 PCOD8015356
Probable space group: P -1
;
_chemical_formula_sum "Si O2"
_cell_formula_units_Z 16
_cell_length_a 8.230210
_cell_length_b 15.205638
_cell_length_c 15.140618
_cell_angle_alpha 27.199803
_cell_angle_beta 87.019262
_cell_angle_gamma 70.878459
_cell_volume 681.141733
_symmetry_space_group_name_H-M "P -1"
_symmetry_group_IT_number 2
_symmetry_cell_setting 'triclinic'
loop_
_space_group_symop_operation_xyz
x,y,z
-x,-y,-z
loop_
_atom_site_type_symbol
_atom_site_label
_atom_site_fract_x
_atom_site_fract_y
_atom_site_fract_z
Si Si1 0.957606 0.394530 0.341254
Si Si2 0.817294 0.508174 0.537577
Si Si3 0.021766 0.193025 0.978336
Si Si4 0.852828 0.718160 0.742637
Si Si5 0.686150 0.361875 0.508454
Si Si6 0.409767 0.626138 0.137617
Si Si7 0.525725 0.186982 0.429620
Si Si8 0.387115 0.071663 0.705491
O O1 0.906721 0.659717 0.110741
O O2 0.781293 0.392056 0.390539
O O3 0.003097 0.303800 0.319879
O O4 0.153735 0.206926 0.562636
O O5 0.696571 0.482465 0.487355
O O6 0.634565 0.772016 0.349201
O O7 0.000000 0.500000 0.500000
O O8 0.940832 0.277943 0.805498
O O9 0.832909 0.230595 0.002863
O O10 0.220788 0.913314 0.227687
O O11 0.675916 0.706036 0.720025
O O12 0.737726 0.980941 0.557951
O O13 0.000000 0.500000 0.000000
O O14 0.452812 0.518997 0.334574
O O15 0.531219 0.408050 0.256942
O O16 0.481902 0.794921 0.974066
O O17 0.518982 0.069113 0.625690
#
# Coordination Sequence:
#
# PCOD8015356 Si02
#       8
#     2   2   2   2   2   2   2   2
#     4  10  21  45  65  93 132 174 214 270 331 389
#     4  11  20  44  68  96 131 183 220 266 327 384
#     4  11  22  45  66  91 140 174 213 279 323 383
#     4  10  22  41  75  92 124 177 222 262 333 399
#     4  12  26  38  69 102 128 177 229 261 330 390
#     4  12  24  40  68  99 133 173 216 272 328 389
#     4  10  23  46  62  98 133 170 214 274 333 387
#     4  10  21  42  68  87 140 175 211 269 332 375
#
# _framework density 23.489971000000001
#
# number of rings (size 3 to 8) (size 9 to 14) (size 15 to 20)
#    0.000    1.250    7.500    0.375    3.500    1.000 
#    0.000    7.500    0.000    0.000    0.000    0.000 
#    0.000    0.000    0.000    0.000    0.000    0.000 
#
# Total GULP energy -198370.088199 kJ/mol
# GULP energy per Si atom -12398.130512 kJ/mol
# Density = 2.343651 g / cm^3
# Si number density = 23.489971 Si / 1000 Ang^3
#
#
#
# Elastic Constant Matrix: (Units=GPa)
#
#
# Indices 1 2 3 4 5 6 
#
# 1 45.6548 14.9856 27.3325 -5.8928 -11.5791 0.5429
# 2 14.9856 148.3259 62.3610 -13.2306 -11.7538 9.2279
# 3 27.3325 62.3610 152.2526 -17.2883 -21.5464 14.1340
# 4 -5.8928 -13.2306 -17.2883 26.4479 7.7795 -6.9732
# 5 -11.5791 -11.7538 -21.5464 7.7795 31.6302 3.3094
# 6 0.5429 9.2279 14.1340 -6.9732 3.3094 29.5650
#
#
#
# Elastic Compliance Matrix: (Units=1/GPa)
#
#
# Indices 1 2 3 4 5 6 
#
# 1 0.025979 -0.000595 -0.003415 0.001623 0.006459 0.001001
# 2 -0.000595 0.008284 -0.002941 0.001720 0.000520 -0.000821
# 3 -0.003415 -0.002941 0.009500 0.001843 0.004050 -0.003580
# 4 0.001623 0.001720 0.001843 0.045915 -0.009902 0.010490
# 5 0.006459 0.000520 0.004050 -0.009902 0.040316 -0.009065
# 6 0.001001 -0.000821 -0.003580 0.010490 -0.009065 0.039262
#
#
# Mechanical properties :
#
#
# Convention : Reuss Voigt Hill
#
# Bulk Modulus (GPa) = 33.48717 61.73241 47.60979
# Shear Modulus (GPa) = 25.89168 33.63222 29.76195
#
# Velocity S-wave (km/s) = 3.32361 3.78798 3.56337
# Velocity P-wave (km/s) = 5.38659 6.74308 6.10264
#
# Compressibility (1/GPa) = 0.02986219
#
# Stress axis : x y z
#
# Youngs Moduli (GPa) = 38.49300 120.71013 105.25781
#
# Poissons Ratio (x) = 0.07179 0.35942
# Poissons Ratio (y) = 0.02289 0.30959
# Poissons Ratio (z) = 0.13144 0.35504
#
# Static dielectric constant tensor:
#      x y z
#    x 4.260470 0.142360 0.026800 
#    y 0.142360 5.045300 -0.328410 
#    z 0.026800 -0.328410 4.325900 
# 
# 
# High freq. dielectric constant tensor:
#      x y z
#    x 1.933060 0.002430 0.009040 
#    y 0.002430 1.930600 -0.002010 
#    z 0.009040 -0.002010 1.933050 
# 
# From -- ./inp_files/505018.got.cif
#   From: 2010.06.25/outbox.cif.g09.slc.cpg/sg2_253_cif.got.tgz:505018.got - 2010.06.27 13:26:56.
