data_PCOD8015066
_publ_section_title
;
Structure prediction by ZEFSAII (Michael W. Deem and Ramdas Pophale) SiO2 
 PCOD8015066
Probable space group: P -1
;
_chemical_formula_sum "Si O2"
_cell_formula_units_Z 14
_cell_length_a 8.626652
_cell_length_b 14.175865
_cell_length_c 14.602647
_cell_angle_alpha 30.116238
_cell_angle_beta 94.524872
_cell_angle_gamma 114.632482
_cell_volume 640.643404
_symmetry_space_group_name_H-M "P -1"
_symmetry_group_IT_number 2
_symmetry_cell_setting 'triclinic'
loop_
_space_group_symop_operation_xyz
x,y,z
-x,-y,-z
loop_
_atom_site_type_symbol
_atom_site_label
_atom_site_fract_x
_atom_site_fract_y
_atom_site_fract_z
Si Si1 0.929607 0.424976 0.163627
Si Si2 0.680220 0.592694 0.052892
Si Si3 0.292261 0.696966 0.095817
Si Si4 0.783807 0.894424 0.624691
Si Si5 0.352580 0.138198 0.809642
Si Si6 0.200823 0.375098 0.524303
Si Si7 0.259443 0.081985 0.059922
O O1 0.790563 0.484209 0.139229
O O2 0.156933 0.604007 0.076179
O O3 0.783065 0.119504 0.433226
O O4 0.000000 0.500000 0.000000
O O5 0.421123 0.355913 0.231172
O O6 0.772047 0.814726 0.795458
O O7 0.740132 0.724194 0.044973
O O8 0.208612 0.446021 0.359412
O O9 0.543961 0.883003 0.924516
O O10 0.265346 0.857157 0.023798
O O11 0.000000 0.000000 0.500000
O O12 0.250726 0.193436 0.683797
O O13 0.615432 0.360897 0.629861
O O14 0.283036 0.151609 0.895724
O O15 0.963888 0.219723 0.683524
#
# Coordination Sequence:
#
# PCOD8015066 Si02
#       7
#     2   2   2   2   2   2   2
#     4  12  25  46  68  98 134 177 226 281 331 397
#     4  11  25  43  69  99 132 176 224 273 338 396
#     4  11  25  43  65  96 136 174 222 272 329 389
#     4  11  23  46  70  94 135 175 222 281 332 393
#     4  10  23  43  66  97 134 170 221 269 324 404
#     4  10  21  42  65  93 131 173 216 264 333 384
#     4  11  22  41  69  99 134 170 220 272 328 399
#
# _framework density 21.853031000000001
#
# number of rings (size 3 to 8) (size 9 to 14) (size 15 to 20)
#    0.000    1.143    1.429    5.143    2.000    3.429 
#   10.286    1.429    0.000    0.000    0.000    0.000 
#    0.000    0.000    0.000    0.000    0.000    0.000 
#
# Total GULP energy -173651.964128 kJ/mol
# GULP energy per Si atom -12403.711723 kJ/mol
# Density = 2.180329 g / cm^3
# Si number density = 21.853031 Si / 1000 Ang^3
#
#
#
# Elastic Constant Matrix: (Units=GPa)
#
#
# Indices 1 2 3 4 5 6 
#
# 1 121.9767 67.0436 73.5889 13.8762 -4.9000 5.5670
# 2 67.0436 131.2954 64.0458 5.2606 1.9044 -3.1056
# 3 73.5889 64.0458 147.6670 2.8510 -7.7225 3.7979
# 4 13.8762 5.2606 2.8510 23.2414 7.4618 3.3545
# 5 -4.9000 1.9044 -7.7225 7.4618 48.1466 -8.7014
# 6 5.5670 -3.1056 3.7979 3.3545 -8.7014 44.1055
#
#
#
# Elastic Compliance Matrix: (Units=1/GPa)
#
#
# Indices 1 2 3 4 5 6 
#
# 1 0.014923 -0.004902 -0.005039 -0.007688 0.001947 -0.000826
# 2 -0.004902 0.011415 -0.002626 0.000880 -0.001267 0.001332
# 3 -0.005039 -0.002626 0.010438 0.002110 0.000859 -0.000439
# 4 -0.007688 0.000880 0.002110 0.050820 -0.009229 -0.004835
# 5 0.001947 -0.001267 0.000859 -0.009229 0.023476 0.004925
# 6 -0.000826 0.001332 -0.000439 -0.004835 0.004925 0.024248
#
#
# Mechanical properties :
#
#
# Convention : Reuss Voigt Hill
#
# Bulk Modulus (GPa) = 85.89516 90.03286 87.96401
# Shear Modulus (GPa) = 30.42588 36.18272 33.30430
#
# Velocity S-wave (km/s) = 3.73540 4.07348 3.90810
# Velocity P-wave (km/s) = 7.61547 7.96323 7.79129
#
# Compressibility (1/GPa) = 0.01164210
#
# Stress axis : x y z
#
# Youngs Moduli (GPa) = 67.00902 87.60551 95.80776
#
# Poissons Ratio (x) = 0.42943 0.48282
# Poissons Ratio (y) = 0.32847 0.25154
# Poissons Ratio (z) = 0.33769 0.23001
#
# Static dielectric constant tensor:
#      x y z
#    x 4.078760 0.211370 -0.026050 
#    y 0.211370 3.857730 -0.106370 
#    z -0.026050 -0.106370 4.127910 
# 
# 
# High freq. dielectric constant tensor:
#      x y z
#    x 1.866070 0.014680 -0.003160 
#    y 0.014680 1.857180 -0.006880 
#    z -0.003160 -0.006880 1.866660 
# 
# From -- ./inp_files/312695.got.cif
#   From: 2010.06.25/outbox.cif.g09.slc.cpg/sg2_157_cif.got.tgz:312695.got - 2010.06.27 13:26:56.
