data_PCOD8015912
_publ_section_title
;
Structure prediction by ZEFSAII (Michael W. Deem and Ramdas Pophale) SiO2 
 PCOD8015912
Probable space group: P -1
;
_chemical_formula_sum "Si O2"
_cell_formula_units_Z 14
_cell_length_a 9.680320
_cell_length_b 16.431622
_cell_length_c 16.180270
_cell_angle_alpha 143.686036
_cell_angle_beta 150.897398
_cell_angle_gamma 34.269071
_cell_volume 671.113840
_symmetry_space_group_name_H-M "P -1"
_symmetry_group_IT_number 2
_symmetry_cell_setting 'triclinic'
loop_
_space_group_symop_operation_xyz
x,y,z
-x,-y,-z
loop_
_atom_site_type_symbol
_atom_site_label
_atom_site_fract_x
_atom_site_fract_y
_atom_site_fract_z
Si Si1 0.369309 0.526114 0.045423
Si Si2 0.239332 0.064024 0.645940
Si Si3 0.136721 0.690647 0.462983
Si Si4 0.688206 0.586995 0.776359
Si Si5 0.781754 0.940609 0.714698
Si Si6 0.420936 0.234271 0.667827
Si Si7 0.516314 0.265717 0.037988
O O1 0.446708 0.663838 0.231357
O O2 0.529659 0.370216 0.054178
O O3 0.500000 0.500000 0.000000
O O4 0.995816 0.598608 0.914766
O O5 0.064635 0.140132 0.533066
O O6 0.580904 0.943263 0.694440
O O7 0.287825 0.183920 0.830999
O O8 0.000000 0.000000 0.500000
O O9 0.390828 0.707072 0.669867
O O10 0.294695 0.577895 0.375973
O O11 0.878368 0.647300 0.338343
O O12 0.639871 0.617007 0.872949
O O13 0.725945 0.840196 0.534156
O O14 0.143648 0.864872 0.869712
O O15 0.683085 0.109899 0.763496
#
# Coordination Sequence:
#
# PCOD8015912 Si02
#       7
#     2   2   2   2   2   2   2
#     4  12  24  41  67 100 133 171 219 275 328 386
#     4  11  25  42  64  94 132 174 219 273 327 387
#     4  10  21  44  65  94 133 173 214 266 333 387
#     4  11  23  41  69  95 133 171 214 275 327 387
#     4  10  23  44  66  91 134 176 214 269 325 394
#     4  10  21  43  67  94 129 174 219 264 327 391
#     4  12  25  44  68 100 132 173 223 274 326 389
#
# _framework density 20.860842000000002
#
# number of rings (size 3 to 8) (size 9 to 14) (size 15 to 20)
#    0.000    1.143    4.286    1.714    2.000    2.857 
#    0.000    1.429    0.000    0.000    0.000    0.000 
#    0.000    0.000    0.000    0.000    0.000    0.000 
#
# Total GULP energy -173465.749565 kJ/mol
# GULP energy per Si atom -12390.410683 kJ/mol
# Density = 2.081336 g / cm^3
# Si number density = 20.860842 Si / 1000 Ang^3
#
#
#
# Elastic Constant Matrix: (Units=GPa)
#
#
# Indices 1 2 3 4 5 6 
#
# 1 125.9397 38.3457 50.6248 2.0511 -1.9861 -4.5999
# 2 38.3457 94.3706 67.5722 -14.3818 8.7122 0.1625
# 3 50.6248 67.5722 111.0712 -13.4051 13.7109 18.2627
# 4 2.0511 -14.3818 -13.4051 40.6235 -3.0833 3.4541
# 5 -1.9861 8.7122 13.7109 -3.0833 37.4141 5.4050
# 6 -4.5999 0.1625 18.2627 3.4541 5.4050 26.6454
#
#
#
# Elastic Compliance Matrix: (Units=1/GPa)
#
#
# Indices 1 2 3 4 5 6 
#
# 1 0.010955 -0.000667 -0.006226 -0.003231 0.001856 0.006205
# 2 -0.000667 0.020973 -0.013539 0.002146 -0.001078 0.008977
# 3 -0.006226 -0.013539 0.023863 0.004639 -0.003036 -0.017333
# 4 -0.003231 0.002146 0.004639 0.027789 0.001011 -0.007558
# 5 0.001856 -0.001078 -0.003036 0.001011 0.028788 -0.003563
# 6 0.006205 0.008977 -0.017333 -0.007558 -0.003563 0.052129
#
#
# Mechanical properties :
#
#
# Convention : Reuss Voigt Hill
#
# Bulk Modulus (GPa) = 67.00325 71.60742 69.30534
# Shear Modulus (GPa) = 23.77126 32.59253 28.18189
#
# Velocity S-wave (km/s) = 3.37933 3.95698 3.67951
# Velocity P-wave (km/s) = 6.88588 7.43490 7.16565
#
# Compressibility (1/GPa) = 0.01492465
#
# Stress axis : x y z
#
# Youngs Moduli (GPa) = 91.28343 47.67947 41.90654
#
# Poissons Ratio (x) = 0.03182 0.26092
# Poissons Ratio (y) = 0.06093 0.56739
# Poissons Ratio (z) = 0.56836 0.64555
#
# Static dielectric constant tensor:
#      x y z
#    x 4.273310 -0.183650 0.133610 
#    y -0.183650 3.935220 -0.069430 
#    z 0.133610 -0.069430 4.042650 
# 
# 
# High freq. dielectric constant tensor:
#      x y z
#    x 1.815680 -0.020280 -0.007800 
#    y -0.020280 1.811910 -0.009830 
#    z -0.007800 -0.009830 1.827530 
# 
# From -- ./inp_files/157134.got.cif
#   From: 2010.06.25/outbox.cif.g09.slc.cpg/sg2_79_cif.got.tgz:157134.got - 2010.06.27 13:26:56.
