data_PCOD8015737
_publ_section_title
;
Structure prediction by ZEFSAII (Michael W. Deem and Ramdas Pophale) SiO2 
 PCOD8015737
Probable space group: P -1
;
_chemical_formula_sum "Si O2"
_cell_formula_units_Z 14
_cell_length_a 14.673448
_cell_length_b 5.190914
_cell_length_c 27.363872
_cell_angle_alpha 106.958366
_cell_angle_beta 159.271633
_cell_angle_gamma 78.784348
_cell_volume 686.495283
_symmetry_space_group_name_H-M "P -1"
_symmetry_group_IT_number 2
_symmetry_cell_setting 'triclinic'
loop_
_space_group_symop_operation_xyz
x,y,z
-x,-y,-z
loop_
_atom_site_type_symbol
_atom_site_label
_atom_site_fract_x
_atom_site_fract_y
_atom_site_fract_z
Si Si1 0.748933 0.271226 0.417147
Si Si2 0.339700 0.346036 0.689703
Si Si3 0.777986 0.605128 0.000556
Si Si4 0.368142 0.608484 0.525806
Si Si5 0.027393 0.204640 0.159276
Si Si6 0.759599 0.012646 0.598593
Si Si7 0.263132 0.056630 0.916019
O O1 0.640643 0.490103 0.342311
O O2 0.653399 0.288540 0.424790
O O3 0.065792 0.342783 0.579256
O O4 0.627791 0.963304 0.319694
O O5 0.570595 0.504793 0.848775
O O6 0.990117 0.884400 0.105235
O O7 0.632283 0.677947 0.981068
O O8 0.935458 0.370897 0.078131
O O9 0.233945 0.286233 0.436116
O O10 0.224518 0.778893 0.426918
O O11 0.674932 0.660700 0.668432
O O12 0.854312 0.207927 0.122274
O O13 0.500000 0.000000 0.500000
O O14 0.025131 0.123896 0.768702
O O15 0.500000 0.000000 0.000000
#
# Coordination Sequence:
#
# PCOD8015737 Si02
#       7
#     2   2   2   2   2   2   2
#     4  10  23  40  66  91 120 156 217 261 307 387
#     4  10  21  43  64  90 122 161 201 267 329 359
#     4  10  22  40  64  85 129 161 197 260 321 365
#     4  12  24  41  66  92 126 166 219 254 312 368
#     4  10  22  40  60  88 129 159 206 256 304 375
#     4  12  24  41  66  92 131 176 206 256 314 372
#     4  10  25  40  62  95 127 166 213 255 306 382
#
# _framework density 20.393438
#
# number of rings (size 3 to 8) (size 9 to 14) (size 15 to 20)
#    0.857    0.571    1.429    3.857    4.000    1.714 
#    0.000    4.286    0.000    0.000    0.000    0.000 
#    0.000    0.000    0.000    0.000    0.000    0.000 
#
# Total GULP energy -173583.173998 kJ/mol
# GULP energy per Si atom -12398.798143 kJ/mol
# Density = 2.034702 g / cm^3
# Si number density = 20.393438 Si / 1000 Ang^3
#
#
#
# Elastic Constant Matrix: (Units=GPa)
#
#
# Indices 1 2 3 4 5 6 
#
# 1 78.2916 4.5532 19.0731 -8.4898 -0.1388 3.3693
# 2 4.5532 102.1544 9.2708 -16.8006 -9.7256 17.1383
# 3 19.0731 9.2708 72.3189 -10.0383 -13.9266 5.2286
# 4 -8.4898 -16.8006 -10.0383 27.6136 -2.4998 -8.9095
# 5 -0.1388 -9.7256 -13.9266 -2.4998 26.8248 -1.2108
# 6 3.3693 17.1383 5.2286 -8.9095 -1.2108 22.8262
#
#
#
# Elastic Compliance Matrix: (Units=1/GPa)
#
#
# Indices 1 2 3 4 5 6 
#
# 1 0.013952 0.000066 -0.003569 0.002807 -0.001507 -0.000276
# 2 0.000066 0.012346 0.000716 0.006058 0.005105 -0.006808
# 3 -0.003569 0.000716 0.017524 0.006262 0.009875 -0.001057
# 4 0.002807 0.006058 0.006262 0.048177 0.010537 0.012966
# 5 -0.001507 0.005105 0.009875 0.010537 0.045260 0.000641
# 6 -0.000276 -0.006808 -0.001057 0.012966 0.000641 0.054299
#
#
# Mechanical properties :
#
#
# Convention : Reuss Voigt Hill
#
# Bulk Modulus (GPa) = 26.14427 35.39545 30.76986
# Shear Modulus (GPa) = 23.82323 30.11078 26.96700
#
# Velocity S-wave (km/s) = 3.42157 3.84669 3.64034
# Velocity P-wave (km/s) = 5.33454 6.09289 5.72628
#
# Compressibility (1/GPa) = 0.03824930
#
# Stress axis : x y z
#
# Youngs Moduli (GPa) = 71.67471 81.00038 57.06337
#
# Poissons Ratio (x) = -0.00539 0.20365
# Poissons Ratio (y) = -0.00477 -0.04086
# Poissons Ratio (z) = 0.25580 -0.05800
#
# Static dielectric constant tensor:
#      x y z
#    x 3.533820 0.074270 -0.038590 
#    y 0.074270 3.962790 -0.143700 
#    z -0.038590 -0.143700 3.730190 
# 
# 
# High freq. dielectric constant tensor:
#      x y z
#    x 1.784270 0.006680 -0.016310 
#    y 0.006680 1.811550 -0.001310 
#    z -0.016310 -0.001310 1.795940 
# 
# From -- ./inp_files/458584.got.cif
#   From: 2010.06.25/outbox.cif.g09.slc.cpg/sg2_230_cif.got.tgz:458584.got - 2010.06.27 13:26:56.
