data_PCOD8015116
_publ_section_title
;
Structure prediction by ZEFSAII (Michael W. Deem and Ramdas Pophale) SiO2 
 PCOD8015116
Probable space group: P -1
;
_chemical_formula_sum "Si O2"
_cell_formula_units_Z 16
_cell_length_a 14.706517
_cell_length_b 12.644344
_cell_length_c 13.653022
_cell_angle_alpha 61.341522
_cell_angle_beta 43.104635
_cell_angle_gamma 27.779271
_cell_volume 689.462666
_symmetry_space_group_name_H-M "P -1"
_symmetry_group_IT_number 2
_symmetry_cell_setting 'triclinic'
loop_
_space_group_symop_operation_xyz
x,y,z
-x,-y,-z
loop_
_atom_site_type_symbol
_atom_site_label
_atom_site_fract_x
_atom_site_fract_y
_atom_site_fract_z
Si Si1 0.349738 0.783035 0.579688
Si Si2 0.844718 0.861379 0.907677
Si Si3 0.208172 0.425965 0.424770
Si Si4 0.176524 0.175645 0.835281
Si Si5 0.891665 0.498560 0.308633
Si Si6 0.727392 0.360126 0.803254
Si Si7 0.543028 0.624659 0.100710
Si Si8 0.473571 0.429969 0.660712
O O1 0.564918 0.722459 0.437719
O O2 0.491529 0.555096 0.627704
O O3 0.290914 0.790104 0.509881
O O4 0.035999 0.075424 0.736521
O O5 0.865938 0.754216 0.844527
O O6 0.151126 0.682852 0.752590
O O7 0.576732 0.170665 0.963107
O O8 0.779445 0.852619 0.068408
O O9 0.060731 0.571481 0.582412
O O10 0.256930 0.510760 0.289488
O O11 0.000000 0.500000 0.500000
O O12 0.532891 0.106988 0.321736
O O13 0.092092 0.373381 0.774051
O O14 0.898077 0.320250 0.953247
O O15 0.627942 0.362569 0.787460
O O16 0.500000 0.500000 0.000000
O O17 0.473202 0.707786 0.233035
#
# Coordination Sequence:
#
# PCOD8015116 Si02
#       8
#     2   2   2   2   2   2   2   2
#     4  10  21  42  66 101 140 174 234 288 355 415
#     4  10  22  45  72 110 140 180 239 297 361 426
#     4  12  29  49  72 103 144 196 248 293 351 428
#     4  11  26  47  72 100 149 191 237 294 356 427
#     4  11  25  45  74 102 142 192 238 298 359 424
#     4  12  27  42  72 104 143 191 237 292 352 428
#     4  11  24  42  74 103 144 180 232 293 365 420
#     4   9  20  40  68  99 140 177 219 297 353 419
#
# _framework density 23.206478000000001
#
# number of rings (size 3 to 8) (size 9 to 14) (size 15 to 20)
#    0.000    1.250    1.250    3.000    8.750    1.500 
#    2.250    0.000    0.000    0.000    0.000    0.000 
#    0.000    0.000    0.000    0.000    0.000    0.000 
#
# Total GULP energy -198251.510626 kJ/mol
# GULP energy per Si atom -12390.719414 kJ/mol
# Density = 2.315366 g / cm^3
# Si number density = 23.206478 Si / 1000 Ang^3
#
#
#
# Elastic Constant Matrix: (Units=GPa)
#
#
# Indices 1 2 3 4 5 6 
#
# 1 83.7481 37.2874 27.4305 -1.8415 -4.1204 0.8061
# 2 37.2874 86.2647 28.9960 -14.0990 -3.5736 -2.0245
# 3 27.4305 28.9960 87.2480 -9.3338 1.5084 -6.4739
# 4 -1.8415 -14.0990 -9.3338 46.0896 -2.4003 -1.9162
# 5 -4.1204 -3.5736 1.5084 -2.4003 44.9373 -7.8412
# 6 0.8061 -2.0245 -6.4739 -1.9162 -7.8412 33.1125
#
#
#
# Elastic Compliance Matrix: (Units=1/GPa)
#
#
# Indices 1 2 3 4 5 6 
#
# 1 0.015681 -0.005993 -0.003250 -0.001881 0.000740 -0.001317
# 2 -0.005993 0.015912 -0.002901 0.004149 0.001224 0.001081
# 3 -0.003250 -0.002901 0.013849 0.001873 -0.000437 0.002614
# 4 -0.001881 0.004149 0.001873 0.023464 0.001774 0.002444
# 5 0.000740 0.001224 -0.000437 0.001774 0.023512 0.005642
# 6 -0.001317 0.001081 0.002614 0.002444 0.005642 0.032287
#
#
# Mechanical properties :
#
#
# Convention : Reuss Voigt Hill
#
# Bulk Modulus (GPa) = 47.27240 49.40982 48.34111
# Shear Modulus (GPa) = 32.04169 35.73101 33.88635
#
# Velocity S-wave (km/s) = 3.71984 3.92816 3.82542
# Velocity P-wave (km/s) = 6.23411 6.47391 6.35514
#
# Compressibility (1/GPa) = 0.02115399
#
# Stress axis : x y z
#
# Youngs Moduli (GPa) = 63.77033 62.84497 72.20500
#
# Poissons Ratio (x) = 0.37666 0.23467
# Poissons Ratio (y) = 0.38220 0.20946
# Poissons Ratio (z) = 0.20726 0.18231
#
# Static dielectric constant tensor:
#      x y z
#    x 1.328140 0.503750 0.669770 
#    y 0.503750 3.908510 -0.088290 
#    z 0.669770 -0.088290 4.137150 
# 
# 
# High freq. dielectric constant tensor:
#      x y z
#    x 1.917840 -0.002230 0.000010 
#    y -0.002230 1.905390 -0.006720 
#    z 0.000010 -0.006720 1.931650 
# 
# From -- ./inp_files/411028.got.cif
#   From: 2010.06.25/outbox.cif.g09.slc.cpg/sg2_206_cif.got.tgz:411028.got - 2010.06.27 13:26:56.
