data_PCOD8015022
_publ_section_title
;
Structure prediction by ZEFSAII (Michael W. Deem and Ramdas Pophale) SiO2 
 PCOD8015022
Probable space group: P -1
;
_chemical_formula_sum "Si O2"
_cell_formula_units_Z 14
_cell_length_a 11.987050
_cell_length_b 9.031533
_cell_length_c 8.953558
_cell_angle_alpha 38.028485
_cell_angle_beta 73.751245
_cell_angle_gamma 72.364328
_cell_volume 567.690332
_symmetry_space_group_name_H-M "P -1"
_symmetry_group_IT_number 2
_symmetry_cell_setting 'triclinic'
loop_
_space_group_symop_operation_xyz
x,y,z
-x,-y,-z
loop_
_atom_site_type_symbol
_atom_site_label
_atom_site_fract_x
_atom_site_fract_y
_atom_site_fract_z
Si Si1 0.687083 0.478219 0.437639
Si Si2 0.248545 0.068950 0.492995
Si Si3 0.224656 0.576510 0.248591
Si Si4 0.066839 0.764204 0.909892
Si Si5 0.825341 0.692450 0.960120
Si Si6 0.482904 0.876514 0.261798
Si Si7 0.574085 0.245245 0.135177
O O1 0.790316 0.413593 0.574052
O O2 0.732174 0.617310 0.170957
O O3 0.585847 0.652442 0.423998
O O4 0.640336 0.231756 0.598120
O O5 0.265575 0.306301 0.390166
O O6 0.122649 0.995708 0.647235
O O7 0.357446 0.861767 0.656226
O O8 0.245361 0.115646 0.279166
O O9 0.103457 0.698485 0.120070
O O10 0.328404 0.732426 0.044724
O O11 0.117348 0.540397 0.965555
O O12 0.926087 0.816226 0.909170
O O13 0.486669 0.067501 0.244467
O O14 0.500000 0.000000 0.000000
O O15 0.500000 0.500000 0.000000
#
# Coordination Sequence:
#
# PCOD8015022 Si02
#       7
#     2   2   2   2   2   2   2
#     4  11  24  43  68  98 142 183 228 277 358 405
#     4  10  21  43  66  94 140 175 229 287 341 409
#     4  10  21  42  65 100 136 177 226 288 335 417
#     4   9  21  41  69 100 136 173 235 285 340 409
#     4  10  22  42  68 102 133 180 227 289 349 414
#     4  11  24  45  67  95 141 185 232 284 337 413
#     4  11  24  43  70  99 134 188 240 285 341 406
#
# _framework density 24.661332999999999
#
# number of rings (size 3 to 8) (size 9 to 14) (size 15 to 20)
#    0.000    1.714    2.857    0.429    0.000    6.857 
#    2.571    1.429    0.000    0.000    0.000    0.000 
#    0.000    0.000    0.000    0.000    0.000    0.000 
#
# Total GULP energy -173651.543040 kJ/mol
# GULP energy per Si atom -12403.681646 kJ/mol
# Density = 2.460520 g / cm^3
# Si number density = 24.661333 Si / 1000 Ang^3
#
#
#
# Elastic Constant Matrix: (Units=GPa)
#
#
# Indices 1 2 3 4 5 6 
#
# 1 139.1844 59.1939 74.1194 8.4091 3.3427 38.0758
# 2 59.1939 93.1770 52.4679 -3.5852 6.1764 31.1708
# 3 74.1194 52.4679 174.4848 20.5272 5.4552 25.7095
# 4 8.4091 -3.5852 20.5272 39.9553 6.4336 3.6036
# 5 3.3427 6.1764 5.4552 6.4336 37.7952 1.8005
# 6 38.0758 31.1708 25.7095 3.6036 1.8005 36.6482
#
#
#
# Elastic Compliance Matrix: (Units=1/GPa)
#
#
# Indices 1 2 3 4 5 6 
#
# 1 0.012497 -0.003779 -0.002964 -0.000830 0.000445 -0.007631
# 2 -0.003779 0.018646 -0.003050 0.005390 -0.002705 -0.010191
# 3 -0.002964 -0.003050 0.008340 -0.003989 0.000226 0.000205
# 4 -0.000830 0.005390 -0.003989 0.028854 -0.004976 -0.003517
# 5 0.000445 -0.002705 0.000226 -0.004976 0.027637 0.000811
# 6 -0.007631 -0.010191 0.000205 -0.003517 0.000811 0.044045
#
#
# Mechanical properties :
#
#
# Convention : Reuss Voigt Hill
#
# Bulk Modulus (GPa) = 50.25808 86.48986 68.37397
# Shear Modulus (GPa) = 30.07759 37.61739 33.84749
#
# Velocity S-wave (km/s) = 3.49610 3.90982 3.70874
# Velocity P-wave (km/s) = 6.05975 7.45181 6.79154
#
# Compressibility (1/GPa) = 0.01989730
#
# Stress axis : x y z
#
# Youngs Moduli (GPa) = 80.01657 53.63082 119.91081
#
# Poissons Ratio (x) = 0.20266 0.35546
# Poissons Ratio (y) = 0.30236 0.36568
# Poissons Ratio (z) = 0.23720 0.16355
#
# Static dielectric constant tensor:
#      x y z
#    x 4.621590 0.456570 0.019780 
#    y 0.456570 4.116220 -0.079420 
#    z 0.019780 -0.079420 4.695770 
# 
# 
# High freq. dielectric constant tensor:
#      x y z
#    x 1.979800 0.026960 0.003960 
#    y 0.026960 1.965580 -0.003480 
#    z 0.003960 -0.003480 1.998880 
# 
# From -- ./inp_files/241803.got.cif
#   From: 2010.06.25/outbox.cif.g09.slc.cpg/sg2_121_cif.got.tgz:241803.got - 2010.06.27 13:26:56.
