data_PCOD8015833
_publ_section_title
;
Structure prediction by ZEFSAII (Michael W. Deem and Ramdas Pophale) SiO2 
 PCOD8015833
Probable space group: P -1
;
_chemical_formula_sum "Si O2"
_cell_formula_units_Z 16
_cell_length_a 16.686658
_cell_length_b 18.157821
_cell_length_c 6.879769
_cell_angle_alpha 42.762515
_cell_angle_beta 124.002737
_cell_angle_gamma 149.638706
_cell_volume 698.424465
_symmetry_space_group_name_H-M "P -1"
_symmetry_group_IT_number 2
_symmetry_cell_setting 'triclinic'
loop_
_space_group_symop_operation_xyz
x,y,z
-x,-y,-z
loop_
_atom_site_type_symbol
_atom_site_label
_atom_site_fract_x
_atom_site_fract_y
_atom_site_fract_z
Si Si1 0.417026 0.015252 0.718386
Si Si2 0.860440 0.708850 0.560464
Si Si3 0.777794 0.962374 0.507444
Si Si4 0.270080 0.593943 0.783226
Si Si5 0.538830 0.638152 0.559684
Si Si6 0.653411 0.723458 0.143159
Si Si7 0.761166 0.495601 0.497037
Si Si8 0.813738 0.343962 0.108590
O O1 0.296809 0.860564 0.687465
O O2 0.304088 0.994753 0.732797
O O3 0.548588 0.208034 0.413513
O O4 0.500000 0.000000 0.000000
O O5 0.786269 0.761159 0.342795
O O6 0.885722 0.683134 0.425453
O O7 0.732740 0.515907 0.873387
O O8 0.029981 0.860040 0.610735
O O9 0.709665 0.806632 0.575051
O O10 0.744012 0.898383 0.808759
O O11 0.171275 0.474004 0.684388
O O12 0.190237 0.623487 0.733159
O O13 0.557949 0.690418 0.258219
O O14 0.472813 0.454351 0.826658
O O15 0.411368 0.600168 0.569748
O O16 0.727557 0.354739 0.836861
O O17 0.000000 0.500000 0.000000
#
# Coordination Sequence:
#
# PCOD8015833 Si02
#       8
#     2   2   2   2   2   2   2   2
#     4  12  24  44  68 100 129 174 228 269 320 391
#     4  10  25  43  66 101 138 167 220 270 330 396
#     4  12  24  43  67  99 133 172 218 279 324 384
#     4  11  23  43  72  89 132 178 214 268 330 380
#     4  10  22  40  68 100 129 167 229 260 324 401
#     4  10  24  41  69  96 135 176 212 269 335 388
#     4  10  21  43  66  92 134 173 217 267 325 388
#     4  11  24  44  65  99 132 169 221 274 325 390
#
# _framework density 22.908705999999999
#
# number of rings (size 3 to 8) (size 9 to 14) (size 15 to 20)
#    0.000    1.250    2.500    2.625    7.000    4.000 
#    4.500    0.000    0.000    0.000    0.000    0.000 
#    0.000    0.000    0.000    0.000    0.000    0.000 
#
# Total GULP energy -198315.682314 kJ/mol
# GULP energy per Si atom -12394.730145 kJ/mol
# Density = 2.285656 g / cm^3
# Si number density = 22.908706 Si / 1000 Ang^3
#
#
#
# Elastic Constant Matrix: (Units=GPa)
#
#
# Indices 1 2 3 4 5 6 
#
# 1 95.4839 48.6247 26.5593 9.3567 -9.5771 -10.2246
# 2 48.6247 150.1646 27.6080 3.3747 -4.1872 3.0050
# 3 26.5593 27.6080 85.4236 -4.6475 2.7852 -0.3176
# 4 9.3567 3.3747 -4.6475 23.8424 -4.5676 -8.9059
# 5 -9.5771 -4.1872 2.7852 -4.5676 33.7241 10.9364
# 6 -10.2246 3.0050 -0.3176 -8.9059 10.9364 34.6278
#
#
#
# Elastic Compliance Matrix: (Units=1/GPa)
#
#
# Indices 1 2 3 4 5 6 
#
# 1 0.014393 -0.003902 -0.003518 -0.004315 0.002441 0.002675
# 2 -0.003902 0.008284 -0.001531 -0.000655 0.000695 -0.002273
# 3 -0.003518 -0.001531 0.013594 0.004209 -0.002049 0.000948
# 4 -0.004315 -0.000655 0.004209 0.048912 0.001418 0.010953
# 5 0.002441 0.000695 -0.002049 0.001418 0.033943 -0.009714
# 6 0.002675 -0.002273 0.000948 0.010953 -0.009714 0.035759
#
#
# Mechanical properties :
#
#
# Convention : Reuss Voigt Hill
#
# Bulk Modulus (GPa) = 54.44035 59.62846 57.03441
# Shear Modulus (GPa) = 27.94688 33.65755 30.80222
#
# Velocity S-wave (km/s) = 3.49653 3.83718 3.67081
# Velocity P-wave (km/s) = 6.33377 6.76145 6.55110
#
# Compressibility (1/GPa) = 0.01836873
#
# Stress axis : x y z
#
# Youngs Moduli (GPa) = 69.47853 120.71468 73.56025
#
# Poissons Ratio (x) = 0.47106 0.25880
# Poissons Ratio (y) = 0.27112 0.11261
# Poissons Ratio (z) = 0.24444 0.18479
#
# Static dielectric constant tensor:
#      x y z
#    x 4.290030 -0.396870 -0.040260 
#    y -0.396870 4.272940 -0.009470 
#    z -0.040260 -0.009470 3.947950 
# 
# 
# High freq. dielectric constant tensor:
#      x y z
#    x 1.904610 -0.014890 0.002430 
#    y -0.014890 1.908620 0.001680 
#    z 0.002430 0.001680 1.888050 
# 
# From -- ./inp_files/111590.got.cif
#   From: 2010.06.25/outbox.cif.g09.slc.cpg/sg2_56_cif.got.tgz:111590.got - 2010.06.27 13:26:56.
