data_PCOD8015937
_publ_section_title
;
Structure prediction by ZEFSAII (Michael W. Deem and Ramdas Pophale) SiO2 
 PCOD8015937
Probable space group: P -1
;
_chemical_formula_sum "Si O2"
_cell_formula_units_Z 12
_cell_length_a 12.692882
_cell_length_b 26.209226
_cell_length_c 9.276893
_cell_angle_alpha 148.830794
_cell_angle_beta 40.952551
_cell_angle_gamma 160.186062
_cell_volume 519.216684
_symmetry_space_group_name_H-M "P -1"
_symmetry_group_IT_number 2
_symmetry_cell_setting 'triclinic'
loop_
_space_group_symop_operation_xyz
x,y,z
-x,-y,-z
loop_
_atom_site_type_symbol
_atom_site_label
_atom_site_fract_x
_atom_site_fract_y
_atom_site_fract_z
Si Si1 0.826826 0.765923 0.402105
Si Si2 0.883505 0.637860 0.813800
Si Si3 0.789675 0.210566 0.877689
Si Si4 0.879172 0.516617 0.053107
Si Si5 0.931143 0.206451 0.298986
Si Si6 0.159200 0.114024 0.762129
O O1 0.466845 0.597605 0.427695
O O2 0.019429 0.789881 0.362138
O O3 0.804570 0.707000 0.120521
O O4 0.020786 0.971050 0.686679
O O5 0.106818 0.760729 0.738393
O O6 0.083335 0.684490 0.842587
O O7 0.862629 0.333780 0.982752
O O8 0.411187 0.985482 0.731418
O O9 0.841367 0.602058 0.377307
O O10 0.543949 0.303917 0.813823
O O11 0.000000 0.500000 0.000000
O O12 0.095465 0.189874 0.064146
O O13 0.000000 0.000000 0.500000
#
# Coordination Sequence:
#
# PCOD8015937 Si02
#       6
#     2   2   2   2   2   2
#     4   9  19  39  70  93 135 175 230 271 336 390
#     4   9  19  40  71  98 134 179 232 274 335 404
#     4  10  21  43  67  96 137 186 224 277 337 413
#     4  12  28  47  67 100 145 183 222 289 348 396
#     4  12  24  41  70 105 137 174 229 287 342 402
#     4  12  23  44  71 102 134 184 229 275 337 414
#
# _framework density 23.111737000000002
#
# number of rings (size 3 to 8) (size 9 to 14) (size 15 to 20)
#    1.000    0.333    1.667    4.500    0.000    2.667 
#    0.000    5.000    0.000    0.000    0.000    0.000 
#    0.000    0.000    0.000    0.000    0.000    0.000 
#
# Total GULP energy -148752.098336 kJ/mol
# GULP energy per Si atom -12396.008195 kJ/mol
# Density = 2.305913 g / cm^3
# Si number density = 23.111737 Si / 1000 Ang^3
#
#
#
# Elastic Constant Matrix: (Units=GPa)
#
#
# Indices 1 2 3 4 5 6 
#
# 1 126.4786 54.4502 37.2089 20.3316 0.1743 -21.5635
# 2 54.4502 100.3229 50.4280 34.8473 -3.1804 -19.4754
# 3 37.2089 50.4280 87.9826 18.1984 -0.4518 0.1681
# 4 20.3316 34.8473 18.1984 37.0440 1.0748 -0.1483
# 5 0.1743 -3.1804 -0.4518 1.0748 24.4130 8.5383
# 6 -21.5635 -19.4754 0.1681 -0.1483 8.5383 47.3013
#
#
#
# Elastic Compliance Matrix: (Units=1/GPa)
#
#
# Indices 1 2 3 4 5 6 
#
# 1 0.011049 -0.003650 -0.002302 -0.001429 -0.001891 0.003879
# 2 -0.003650 0.023177 -0.008522 -0.015607 0.000881 0.007701
# 3 -0.002302 -0.008522 0.017061 0.000855 0.000853 -0.004770
# 4 -0.001429 -0.015607 0.000855 0.042058 -0.001525 -0.006673
# 5 -0.001891 0.000881 0.000853 -0.001525 0.044137 -0.008474
# 6 0.003879 0.007701 -0.004770 -0.006673 -0.008474 0.027606
#
#
# Mechanical properties :
#
#
# Convention : Reuss Voigt Hill
#
# Bulk Modulus (GPa) = 44.76820 66.55094 55.65957
# Shear Modulus (GPa) = 24.81618 33.26479 29.04049
#
# Velocity S-wave (km/s) = 3.28036 3.79793 3.54860
# Velocity P-wave (km/s) = 5.81034 6.93471 6.39728
#
# Compressibility (1/GPa) = 0.02233728
#
# Stress axis : x y z
#
# Youngs Moduli (GPa) = 90.50749 43.14687 58.61425
#
# Poissons Ratio (x) = 0.15749 0.13494
# Poissons Ratio (y) = 0.33035 0.49953
# Poissons Ratio (z) = 0.20836 0.36771
#
# Static dielectric constant tensor:
#      x y z
#    x 4.047910 -0.225440 -0.021960 
#    y -0.225440 4.019900 0.177770 
#    z -0.021960 0.177770 4.022760 
# 
# 
# High freq. dielectric constant tensor:
#      x y z
#    x 1.908790 -0.014950 0.002110 
#    y -0.014950 1.910430 0.021180 
#    z 0.002110 0.021180 1.897140 
# 
# From -- ./inp_files/284469.got.cif
#   From: 2010.06.25/outbox.cif.g09.slc.cpg/sg2_143_cif.got.tgz:284469.got - 2010.06.27 13:26:56.
