data_PCOD8015090
_publ_section_title
;
Structure prediction by ZEFSAII (Michael W. Deem and Ramdas Pophale) SiO2 
 PCOD8015090
Probable space group: P -1
;
_chemical_formula_sum "Si O2"
_cell_formula_units_Z 16
_cell_length_a 14.287576
_cell_length_b 8.983691
_cell_length_c 8.117082
_cell_angle_alpha 50.864308
_cell_angle_beta 105.526151
_cell_angle_gamma 84.451219
_cell_volume 727.792474
_symmetry_space_group_name_H-M "P -1"
_symmetry_group_IT_number 2
_symmetry_cell_setting 'triclinic'
loop_
_space_group_symop_operation_xyz
x,y,z
-x,-y,-z
loop_
_atom_site_type_symbol
_atom_site_label
_atom_site_fract_x
_atom_site_fract_y
_atom_site_fract_z
Si Si1 0.117318 0.999530 0.193986
Si Si2 0.038494 0.104207 0.597601
Si Si3 0.560208 0.272908 0.623048
Si Si4 0.416687 0.092938 0.531356
Si Si5 0.232851 0.843461 0.032913
Si Si6 0.732175 0.494881 0.962209
Si Si7 0.056630 0.471246 0.874089
Si Si8 0.322642 0.788271 0.623910
O O1 0.204135 0.930153 0.426634
O O2 0.080604 0.244406 0.971650
O O3 0.018051 0.941093 0.235894
O O4 0.165544 0.869304 0.147144
O O5 0.016622 0.346771 0.403464
O O6 0.163925 0.006256 0.750916
O O7 0.000000 0.000000 0.500000
O O8 0.500000 0.500000 0.500000
O O9 0.474114 0.162935 0.659164
O O10 0.606078 0.284834 0.454181
O O11 0.654848 0.142224 0.879644
O O12 0.500000 0.000000 0.500000
O O13 0.366645 0.923056 0.674053
O O14 0.329301 0.272515 0.270227
O O15 0.252966 0.619854 0.125384
O O16 0.840376 0.475979 0.104911
O O17 0.672004 0.409360 0.129241
O O18 0.000000 0.500000 0.000000
#
# Coordination Sequence:
#
# PCOD8015090 Si02
#       8
#     2   2   2   2   2   2   2   2
#     4  11  22  42  63  99 135 169 213 273 330 384
#     4  12  22  41  68  96 129 172 222 262 325 399
#     4  10  21  42  65  96 133 171 211 275 335 375
#     4  10  22  41  69  93 129 171 221 271 324 380
#     4  11  24  40  65  94 137 171 212 273 331 386
#     4  12  22  42  69  98 127 174 226 263 320 399
#     4  12  24  39  70  99 130 173 217 270 325 394
#     4  10  22  40  71  96 126 175 223 263 320 396
#
# _framework density 21.984289
#
# number of rings (size 3 to 8) (size 9 to 14) (size 15 to 20)
#    0.000    1.000    6.250    0.375    0.000    2.500 
#    0.000    3.125    0.000    0.000    0.000    0.000 
#    0.000    0.000    0.000    0.000    0.000    0.000 
#
# Total GULP energy -198324.487633 kJ/mol
# GULP energy per Si atom -12395.280477 kJ/mol
# Density = 2.193425 g / cm^3
# Si number density = 21.984289 Si / 1000 Ang^3
#
#
#
# Elastic Constant Matrix: (Units=GPa)
#
#
# Indices 1 2 3 4 5 6 
#
# 1 93.9906 29.2884 39.4044 -2.0650 8.4778 14.9954
# 2 29.2884 92.0566 22.5745 -2.2211 -2.5425 -2.0951
# 3 39.4044 22.5745 82.4420 2.5946 7.6227 7.1386
# 4 -2.0650 -2.2211 2.5946 29.5470 10.3454 5.7547
# 5 8.4778 -2.5425 7.6227 10.3454 43.4532 -0.1362
# 6 14.9954 -2.0951 7.1386 5.7547 -0.1362 38.4555
#
#
#
# Elastic Compliance Matrix: (Units=1/GPa)
#
#
# Indices 1 2 3 4 5 6 
#
# 1 0.015428 -0.003638 -0.005712 0.003489 -0.003069 -0.005687
# 2 -0.003638 0.012641 -0.002110 -0.000278 0.001894 0.002547
# 3 -0.005712 -0.002110 0.015665 -0.001309 -0.001447 -0.000605
# 4 0.003489 -0.000278 -0.001309 0.038965 -0.009766 -0.006998
# 5 -0.003069 0.001894 -0.001447 -0.009766 0.026312 0.003123
# 6 -0.005687 0.002547 -0.000605 -0.006998 0.003123 0.029531
#
#
# Mechanical properties :
#
#
# Convention : Reuss Voigt Hill
#
# Bulk Modulus (GPa) = 48.03996 50.11376 49.07686
# Shear Modulus (GPa) = 29.69145 34.10593 31.89869
#
# Velocity S-wave (km/s) = 3.67901 3.94303 3.81330
# Velocity P-wave (km/s) = 6.32030 6.60111 6.46223
#
# Compressibility (1/GPa) = 0.02081600
#
# Stress axis : x y z
#
# Youngs Moduli (GPa) = 64.81568 79.10626 63.83776
#
# Poissons Ratio (x) = 0.28779 0.36462
# Poissons Ratio (y) = 0.23580 0.13467
# Poissons Ratio (z) = 0.37020 0.16687
#
# Static dielectric constant tensor:
#      x y z
#    x 4.864900 0.879600 0.302840 
#    y 0.879600 4.923120 0.023080 
#    z 0.302840 0.023080 3.942090 
# 
# 
# High freq. dielectric constant tensor:
#      x y z
#    x 1.874360 -0.002760 0.024140 
#    y -0.002760 1.867560 -0.002660 
#    z 0.024140 -0.002660 1.856300 
# 
# From -- ./inp_files/201099.got.cif
#   From: 2010.06.25/outbox.cif.g09.slc.cpg/sg2_101_cif.got.tgz:201099.got - 2010.06.27 13:26:56.
