data_PCOD8015754
_publ_section_title
;
Structure prediction by ZEFSAII (Michael W. Deem and Ramdas Pophale) SiO2 
 PCOD8015754
Probable space group: P -1
;
_chemical_formula_sum "Si O2"
_cell_formula_units_Z 16
_cell_length_a 17.855454
_cell_length_b 9.360765
_cell_length_c 8.403993
_cell_angle_alpha 46.263953
_cell_angle_beta 135.490257
_cell_angle_gamma 121.446854
_cell_volume 710.336611
_symmetry_space_group_name_H-M "P -1"
_symmetry_group_IT_number 2
_symmetry_cell_setting 'triclinic'
loop_
_space_group_symop_operation_xyz
x,y,z
-x,-y,-z
loop_
_atom_site_type_symbol
_atom_site_label
_atom_site_fract_x
_atom_site_fract_y
_atom_site_fract_z
Si Si1 0.329122 0.822614 0.952430
Si Si2 0.262725 0.164003 0.372992
Si Si3 0.057183 0.420014 0.494585
Si Si4 0.095059 0.017782 0.006134
Si Si5 0.203639 0.673818 0.333808
Si Si6 0.570721 0.183935 0.542938
Si Si7 0.434103 0.469398 0.266592
Si Si8 0.851175 0.469794 0.968917
O O1 0.216073 0.707184 0.906404
O O2 0.312635 0.038435 0.687564
O O3 0.395908 0.861895 0.187818
O O4 0.385321 0.686260 0.007420
O O5 0.350151 0.288858 0.310503
O O6 0.204293 0.016474 0.273806
O O7 0.173751 0.310863 0.182310
O O8 0.085046 0.196726 0.733599
O O9 0.171334 0.540885 0.542965
O O10 0.000000 0.500000 0.500000
O O11 0.976306 0.437575 0.210272
O O12 0.110954 0.831867 0.059212
O O13 0.000000 0.000000 0.000000
O O14 0.325254 0.768037 0.447160
O O15 0.184385 0.530106 0.266756
O O16 0.505708 0.388461 0.292260
O O17 0.500000 0.000000 0.500000
O O18 0.500000 0.500000 0.500000
#
# Coordination Sequence:
#
# PCOD8015754 Si02
#       8
#     2   2   2   2   2   2   2   2
#     4   9  21  38  68  95 125 170 215 256 322 382
#     4  11  21  39  66  94 127 171 214 260 315 384
#     4  12  23  42  68  96 126 172 217 262 325 381
#     4  12  24  40  65  96 129 166 215 266 316 389
#     4  11  25  41  65  98 131 167 213 271 328 379
#     4  10  21  43  64  94 134 168 214 271 320 379
#     4   9  20  39  62  90 123 164 213 263 307 377
#     4  10  22  42  64  97 136 163 211 269 316 384
#
# _framework density 22.524529999999999
#
# number of rings (size 3 to 8) (size 9 to 14) (size 15 to 20)
#    0.000    1.500    2.500    2.625    0.000    4.500 
#    0.000    3.750    0.000   13.500    0.000    0.000 
#    0.000    0.000    0.000    0.000    0.000    0.000 
#
# Total GULP energy -198249.016066 kJ/mol
# GULP energy per Si atom -12390.563504 kJ/mol
# Density = 2.247326 g / cm^3
# Si number density = 22.524530 Si / 1000 Ang^3
#
#
#
# Elastic Constant Matrix: (Units=GPa)
#
#
# Indices 1 2 3 4 5 6 
#
# 1 129.8982 31.8288 37.3895 -13.8042 17.4246 9.6071
# 2 31.8288 86.5331 27.8349 -1.2319 6.0103 8.9618
# 3 37.3895 27.8349 106.4405 -19.9221 -3.2136 11.9504
# 4 -13.8042 -1.2319 -19.9221 45.2344 2.4192 5.5015
# 5 17.4246 6.0103 -3.2136 2.4192 29.0027 -1.8243
# 6 9.6071 8.9618 11.9504 5.5015 -1.8243 31.7537
#
#
#
# Elastic Compliance Matrix: (Units=1/GPa)
#
#
# Indices 1 2 3 4 5 6 
#
# 1 0.010260 -0.002265 -0.002448 0.002617 -0.006333 -0.002361
# 2 -0.002265 0.013611 -0.002825 -0.001227 -0.001795 -0.001983
# 3 -0.002448 -0.002825 0.012440 0.004974 0.002778 -0.003846
# 4 0.002617 -0.001227 0.004974 0.026100 -0.003386 -0.007034
# 5 -0.006333 -0.001795 0.002778 -0.003386 0.039513 0.004234
# 6 -0.002361 -0.001983 -0.003846 -0.007034 0.004234 0.035676
#
#
# Mechanical properties :
#
#
# Convention : Reuss Voigt Hill
#
# Bulk Modulus (GPa) = 47.09141 57.44201 52.26671
# Shear Modulus (GPa) = 31.29817 36.25273 33.77545
#
# Velocity S-wave (km/s) = 3.73166 4.01618 3.87653
# Velocity P-wave (km/s) = 6.28643 6.86029 6.57962
#
# Compressibility (1/GPa) = 0.02123530
#
# Stress axis : x y z
#
# Youngs Moduli (GPa) = 97.46416 73.47189 80.38396
#
# Poissons Ratio (x) = 0.16640 0.19679
# Poissons Ratio (y) = 0.22074 0.22708
# Poissons Ratio (z) = 0.23861 0.20755
#
# Static dielectric constant tensor:
#      x y z
#    x 3.998630 0.047840 0.274990 
#    y 0.047840 4.225350 -0.115140 
#    z 0.274990 -0.115140 4.082270 
# 
# 
# High freq. dielectric constant tensor:
#      x y z
#    x 1.888250 0.003390 0.019610 
#    y 0.003390 1.902080 -0.005940 
#    z 0.019610 -0.005940 1.874590 
# 
# From -- ./inp_files/327202.got.cif
#   From: 2010.06.25/outbox.cif.g09.slc.cpg/sg2_164_cif.got.tgz:327202.got - 2010.06.27 13:26:56.
