data_PCOD8015637
_publ_section_title
;
Structure prediction by ZEFSAII (Michael W. Deem and Ramdas Pophale) SiO2 
 PCOD8015637
Probable space group: P -1
;
_chemical_formula_sum "Si O2"
_cell_formula_units_Z 14
_cell_length_a 14.511341
_cell_length_b 29.653127
_cell_length_c 24.177594
_cell_angle_alpha 169.726561
_cell_angle_beta 18.643779
_cell_angle_gamma 160.989251
_cell_volume 577.235446
_symmetry_space_group_name_H-M "P -1"
_symmetry_group_IT_number 2
_symmetry_cell_setting 'triclinic'
loop_
_space_group_symop_operation_xyz
x,y,z
-x,-y,-z
loop_
_atom_site_type_symbol
_atom_site_label
_atom_site_fract_x
_atom_site_fract_y
_atom_site_fract_z
Si Si1 0.072839 0.808915 0.333659
Si Si2 0.740751 0.347919 0.747422
Si Si3 0.676540 0.629565 0.608735
Si Si4 0.566101 0.234591 0.529272
Si Si5 0.128699 0.989714 0.641951
Si Si6 0.491274 0.831210 0.641936
Si Si7 0.821947 0.426583 0.386160
O O1 0.842621 0.917549 0.557428
O O2 0.406926 0.933626 0.270941
O O3 0.018054 0.897307 0.533056
O O4 0.000000 0.500000 0.000000
O O5 0.474449 0.126914 0.608921
O O6 0.984185 0.399416 0.623048
O O7 0.901296 0.262273 0.606434
O O8 0.634366 0.607898 0.133152
O O9 0.500000 0.500000 0.500000
O O10 0.587181 0.482537 0.540933
O O11 0.656163 0.924638 0.979997
O O12 0.559808 0.303955 0.551808
O O13 0.906920 0.318040 0.455119
O O14 0.932656 0.170203 0.997885
O O15 0.342900 0.622144 0.520161
#
# Coordination Sequence:
#
# PCOD8015637 Si02
#       7
#     2   2   2   2   2   2   2
#     4  12  27  45  72 103 143 191 239 289 357 426
#     4  10  21  43  72 103 137 184 239 291 344 419
#     4  12  26  42  72 105 148 182 234 295 360 418
#     4  11  25  49  71 101 147 190 241 290 350 428
#     4  10  21  42  73 102 136 186 240 288 345 424
#     4  12  27  46  70 109 144 184 237 297 358 416
#     4  11  25  47  75 107 141 188 238 294 358 418
#
# _framework density 24.253534999999999
#
# number of rings (size 3 to 8) (size 9 to 14) (size 15 to 20)
#    0.000    0.857    1.429    5.143    4.000    4.000 
#    5.143    0.000    0.000    0.000    0.000    0.000 
#    0.000    0.000    0.000    0.000    0.000    0.000 
#
# Total GULP energy -173653.757880 kJ/mol
# GULP energy per Si atom -12403.839849 kJ/mol
# Density = 2.419833 g / cm^3
# Si number density = 24.253535 Si / 1000 Ang^3
#
#
#
# Elastic Constant Matrix: (Units=GPa)
#
#
# Indices 1 2 3 4 5 6 
#
# 1 134.1842 12.8087 11.5031 6.8620 2.8465 -5.0218
# 2 12.8087 86.8535 21.7758 10.0054 0.9792 -15.9177
# 3 11.5031 21.7758 62.4479 8.5714 -0.4832 -2.9171
# 4 6.8620 10.0054 8.5714 32.7675 -4.6471 -4.6157
# 5 2.8465 0.9792 -0.4832 -4.6471 40.1932 0.6374
# 6 -5.0218 -15.9177 -2.9171 -4.6157 0.6374 38.0599
#
#
#
# Elastic Compliance Matrix: (Units=1/GPa)
#
#
# Indices 1 2 3 4 5 6 
#
# 1 0.007695 -0.000639 -0.001014 -0.001172 -0.000686 0.000540
# 2 -0.000639 0.013872 -0.004157 -0.002393 -0.000701 0.005120
# 3 -0.001014 -0.004157 0.018070 -0.003369 0.000015 -0.000896
# 4 -0.001172 -0.002393 -0.003369 0.033290 0.003909 0.002558
# 5 -0.000686 -0.000701 0.000015 0.003909 0.025403 -0.000334
# 6 0.000540 0.005120 -0.000896 0.002558 -0.000334 0.028734
#
#
# Mechanical properties :
#
#
# Convention : Reuss Voigt Hill
#
# Bulk Modulus (GPa) = 35.69218 41.74009 38.71613
# Shear Modulus (GPa) = 33.77819 38.03065 35.90442
#
# Velocity S-wave (km/s) = 3.73595 3.96415 3.85174
# Velocity P-wave (km/s) = 5.77564 6.18061 5.98155
#
# Compressibility (1/GPa) = 0.02801734
#
# Stress axis : x y z
#
# Youngs Moduli (GPa) = 129.95374 72.08698 55.33883
#
# Poissons Ratio (x) = 0.04606 0.05610
# Poissons Ratio (y) = 0.08303 0.23007
# Poissons Ratio (z) = 0.13175 0.29969
#
# Static dielectric constant tensor:
#      x y z
#    x 4.611620 -0.051640 0.050060 
#    y -0.051640 4.586810 -0.043210 
#    z 0.050060 -0.043210 4.208150 
# 
# 
# High freq. dielectric constant tensor:
#      x y z
#    x 1.983420 -0.005890 0.001020 
#    y -0.005890 1.967950 -0.001800 
#    z 0.001020 -0.001800 1.954440 
# 
# From -- ./inp_files/263710.got.cif
#   From: 2010.06.25/outbox.cif.g09.slc.cpg/sg2_132_cif.got.tgz:263710.got - 2010.06.27 13:26:56.
