data_PCOD8015744
_publ_section_title
;
Structure prediction by ZEFSAII (Michael W. Deem and Ramdas Pophale) SiO2 
 PCOD8015744
Probable space group: P -1
;
_chemical_formula_sum "Si O2"
_cell_formula_units_Z 16
_cell_length_a 9.257767
_cell_length_b 14.159558
_cell_length_c 7.576700
_cell_angle_alpha 92.310839
_cell_angle_beta 76.131594
_cell_angle_gamma 48.709798
_cell_volume 697.175917
_symmetry_space_group_name_H-M "P -1"
_symmetry_group_IT_number 2
_symmetry_cell_setting 'triclinic'
loop_
_space_group_symop_operation_xyz
x,y,z
-x,-y,-z
loop_
_atom_site_type_symbol
_atom_site_label
_atom_site_fract_x
_atom_site_fract_y
_atom_site_fract_z
Si Si1 0.734831 0.900668 0.371460
Si Si2 0.586574 0.274273 0.787465
Si Si3 0.061404 0.668013 0.493698
Si Si4 0.742677 0.263043 0.357614
Si Si5 0.979587 0.980755 0.302311
Si Si6 0.595940 0.565749 0.822678
Si Si7 0.213746 0.301296 0.859488
Si Si8 0.942204 0.550820 0.742209
O O1 0.813908 0.971107 0.311976
O O2 0.763941 0.820428 0.187461
O O3 0.858669 0.806920 0.494828
O O4 0.500000 0.000000 0.500000
O O5 0.630138 0.289651 0.578300
O O6 0.436203 0.250787 0.815201
O O7 0.790813 0.152489 0.827896
O O8 0.485493 0.403202 0.947431
O O9 0.129117 0.697725 0.647034
O O10 0.240761 0.589386 0.283804
O O11 0.025773 0.574464 0.553707
O O12 0.584284 0.356078 0.259329
O O13 0.892964 0.111760 0.238024
O O14 0.000000 0.000000 0.500000
O O15 0.713702 0.614168 0.773476
O O16 0.098896 0.396406 0.729121
O O17 0.068845 0.376497 0.077849
#
# Coordination Sequence:
#
# PCOD8015744 Si02
#       8
#     2   2   2   2   2   2   2   2
#     4  12  24  39  69  96 125 175 218 265 329 388
#     4  10  22  42  66  95 130 174 214 266 323 392
#     4  12  24  41  63 101 131 165 222 268 324 393
#     4  11  24  43  66  93 134 175 215 270 324 382
#     4  10  21  43  64  92 130 175 221 261 320 389
#     4  11  24  41  66  99 128 172 220 267 332 382
#     4  10  22  42  66  96 128 171 215 264 339 380
#     4  10  23  42  66  95 133 166 212 277 322 393
#
# _framework density 22.949729999999999
#
# number of rings (size 3 to 8) (size 9 to 14) (size 15 to 20)
#    0.000    1.250    3.750    3.000    3.500    2.000 
#    0.000    0.625    0.000    0.000    0.000    0.000 
#    0.000    0.000    0.000    0.000    0.000    0.000 
#
# Total GULP energy -198374.325188 kJ/mol
# GULP energy per Si atom -12398.395324 kJ/mol
# Density = 2.289750 g / cm^3
# Si number density = 22.949730 Si / 1000 Ang^3
#
#
#
# Elastic Constant Matrix: (Units=GPa)
#
#
# Indices 1 2 3 4 5 6 
#
# 1 103.3115 11.4306 -10.0992 9.4686 13.2737 -16.9457
# 2 11.4306 74.9530 0.4525 14.6145 4.4577 -22.1758
# 3 -10.0992 0.4525 60.3392 5.9177 6.6248 -12.9856
# 4 9.4686 14.6145 5.9177 35.9669 3.9515 4.1136
# 5 13.2737 4.4577 6.6248 3.9515 36.3868 4.9239
# 6 -16.9457 -22.1758 -12.9856 4.1136 4.9239 45.3136
#
#
#
# Elastic Compliance Matrix: (Units=1/GPa)
#
#
# Indices 1 2 3 4 5 6 
#
# 1 0.012599 0.001861 0.005062 -0.005155 -0.006299 0.008226
# 2 0.001861 0.018936 0.004328 -0.009849 -0.004419 0.012578
# 3 0.005062 0.004328 0.021347 -0.007149 -0.007049 0.011543
# 4 -0.005155 -0.009849 -0.007149 0.035500 0.002192 -0.012258
# 5 -0.006299 -0.004419 -0.007049 0.002192 0.032761 -0.010297
# 6 0.008226 0.012578 0.011543 -0.012258 -0.010297 0.036840
#
#
# Mechanical properties :
#
#
# Convention : Reuss Voigt Hill
#
# Bulk Modulus (GPa) = 13.26513 26.90793 20.08653
# Shear Modulus (GPa) = 31.13154 39.32145 35.22650
#
# Velocity S-wave (km/s) = 3.68708 4.14378 3.92208
# Velocity P-wave (km/s) = 4.89067 5.88598 5.41126
#
# Compressibility (1/GPa) = 0.07538562
#
# Stress axis : x y z
#
# Youngs Moduli (GPa) = 79.36873 52.80869 46.84464
#
# Poissons Ratio (x) = -0.09830 -0.23714
# Poissons Ratio (y) = -0.14774 -0.20272
# Poissons Ratio (z) = -0.40179 -0.22853
#
# Static dielectric constant tensor:
#      x y z
#    x 4.419310 -0.074390 0.198410 
#    y -0.074390 4.293470 0.484180 
#    z 0.198410 0.484180 4.173650 
# 
# 
# High freq. dielectric constant tensor:
#      x y z
#    x 1.930310 -0.006010 0.020220 
#    y -0.006010 1.891050 0.023440 
#    z 0.020220 0.023440 1.900970 
# 
# From -- ./inp_files/207742.got.cif
#   From: 2010.06.25/outbox.cif.g09.slc.cpg/sg2_104_cif.got.tgz:207742.got - 2010.06.27 13:26:56.
