data_PCOD8015538
_publ_section_title
;
Structure prediction by ZEFSAII (Michael W. Deem and Ramdas Pophale) SiO2 
 PCOD8015538
Probable space group: P -1
;
_chemical_formula_sum "Si O2"
_cell_formula_units_Z 16
_cell_length_a 20.137618
_cell_length_b 11.710973
_cell_length_c 17.759612
_cell_angle_alpha 147.665406
_cell_angle_beta 159.914202
_cell_angle_gamma 41.207015
_cell_volume 749.711118
_symmetry_space_group_name_H-M "P -1"
_symmetry_group_IT_number 2
_symmetry_cell_setting 'triclinic'
loop_
_space_group_symop_operation_xyz
x,y,z
-x,-y,-z
loop_
_atom_site_type_symbol
_atom_site_label
_atom_site_fract_x
_atom_site_fract_y
_atom_site_fract_z
Si Si1 0.537918 0.966568 0.608506
Si Si2 0.819402 0.409314 0.933425
Si Si3 0.370657 0.870203 0.962603
Si Si4 0.300251 0.331101 0.180377
Si Si5 0.360244 0.636005 0.965192
Si Si6 0.991663 0.200087 0.548310
Si Si7 0.810198 0.797300 0.395066
Si Si8 0.073393 0.132153 0.970064
O O1 0.395930 0.745625 0.365987
O O2 0.500000 0.000000 0.500000
O O3 0.766325 0.962872 0.865169
O O4 0.503859 0.181845 0.735089
O O5 0.825247 0.571539 0.960243
O O6 0.973893 0.260215 0.997340
O O7 0.884242 0.564956 0.161262
O O8 0.590794 0.836456 0.168290
O O9 0.369009 0.122743 0.105799
O O10 0.266575 0.757870 0.866632
O O11 0.234941 0.774674 0.692640
O O12 0.500000 0.500000 0.500000
O O13 0.174459 0.294132 0.102150
O O14 0.197156 0.460090 0.739800
O O15 0.500000 0.500000 0.000000
O O16 0.066836 0.130952 0.509396
O O17 0.000000 0.000000 0.500000
O O18 0.907153 0.938322 0.648466
#
# Coordination Sequence:
#
# PCOD8015538 Si02
#       8
#     2   2   2   2   2   2   2   2
#     4  12  26  46  66 101 143 176 225 277 338 407
#     4  12  26  43  69 100 141 179 223 280 340 396
#     4  11  23  44  69  99 133 173 230 278 327 404
#     4  12  21  44  71  96 134 175 224 283 331 394
#     4  10  21  42  70  96 129 172 227 275 332 394
#     4  12  25  44  62 100 140 175 225 275 335 406
#     4  11  24  43  73  98 131 181 224 280 341 391
#     4  12  25  44  71 104 130 178 233 274 338 406
#
# _framework density 21.341555
#
# number of rings (size 3 to 8) (size 9 to 14) (size 15 to 20)
#    0.000    0.500    5.000    3.375    0.000    8.000 
#    0.000    0.000    0.000    0.000    0.000    0.000 
#    0.000    0.000    0.000    0.000    0.000    0.000 
#
# Total GULP energy -198409.986408 kJ/mol
# GULP energy per Si atom -12400.624151 kJ/mol
# Density = 2.129298 g / cm^3
# Si number density = 21.341555 Si / 1000 Ang^3
#
#
#
# Elastic Constant Matrix: (Units=GPa)
#
#
# Indices 1 2 3 4 5 6 
#
# 1 84.3408 45.5071 31.0796 -2.3311 -13.1695 13.3466
# 2 45.5071 114.5793 64.9028 -1.8867 -11.1817 8.1195
# 3 31.0796 64.9028 149.6480 1.3796 -12.6981 3.7947
# 4 -2.3311 -1.8867 1.3796 49.5594 0.9446 -3.1335
# 5 -13.1695 -11.1817 -12.6981 0.9446 39.4772 3.9937
# 6 13.3466 8.1195 3.7947 -3.1335 3.9937 43.1384
#
#
#
# Elastic Compliance Matrix: (Units=1/GPa)
#
#
# Indices 1 2 3 4 5 6 
#
# 1 0.016354 -0.005455 -0.000569 0.000223 0.004163 -0.004352
# 2 -0.005455 0.013676 -0.004741 0.000354 0.000571 -0.000497
# 3 -0.000569 -0.004741 0.008973 -0.000475 0.001353 0.000119
# 4 0.000223 0.000354 -0.000475 0.020318 -0.000610 0.001439
# 5 0.004163 0.000571 0.001353 -0.000610 0.027749 -0.004128
# 6 -0.004352 -0.000497 0.000119 0.001439 -0.004128 0.025097
#
#
# Mechanical properties :
#
#
# Convention : Reuss Voigt Hill
#
# Bulk Modulus (GPa) = 57.22822 70.17192 63.70007
# Shear Modulus (GPa) = 35.83688 40.24023 38.03856
#
# Velocity S-wave (km/s) = 4.10226 4.34698 4.22639
# Velocity P-wave (km/s) = 7.02222 7.62541 7.33002
#
# Compressibility (1/GPa) = 0.01747390
#
# Stress axis : x y z
#
# Youngs Moduli (GPa) = 61.14541 73.12043 111.44785
#
# Poissons Ratio (x) = 0.39884 0.06346
# Poissons Ratio (y) = 0.33352 0.52835
# Poissons Ratio (z) = 0.03481 0.34664
#
# Static dielectric constant tensor:
#      x y z
#    x 4.300890 0.597250 0.110850 
#    y 0.597250 4.542560 0.273450 
#    z 0.110850 0.273450 4.243110 
# 
# 
# High freq. dielectric constant tensor:
#      x y z
#    x 1.829820 0.008830 -0.001320 
#    y 0.008830 1.848870 0.005400 
#    z -0.001320 0.005400 1.854450 
# 
# From -- ./inp_files/467093.got.cif
#   From: 2010.06.25/outbox.cif.g09.slc.cpg/sg2_234_cif.got.tgz:467093.got - 2010.06.27 13:26:56.
