data_PCOD8015768
_publ_section_title
;
Structure prediction by ZEFSAII (Michael W. Deem and Ramdas Pophale) SiO2 
 PCOD8015768
Probable space group: P -1
;
_chemical_formula_sum "Si O2"
_cell_formula_units_Z 16
_cell_length_a 8.706318
_cell_length_b 11.544877
_cell_length_c 14.286642
_cell_angle_alpha 39.320185
_cell_angle_beta 90.176246
_cell_angle_gamma 105.593912
_cell_volume 825.572794
_symmetry_space_group_name_H-M "P -1"
_symmetry_group_IT_number 2
_symmetry_cell_setting 'triclinic'
loop_
_space_group_symop_operation_xyz
x,y,z
-x,-y,-z
loop_
_atom_site_type_symbol
_atom_site_label
_atom_site_fract_x
_atom_site_fract_y
_atom_site_fract_z
Si Si1 0.322018 0.946762 0.827348
Si Si2 0.025687 0.077937 0.754733
Si Si3 0.111697 0.385740 0.725291
Si Si4 0.359791 0.591801 0.123840
Si Si5 0.391545 0.624194 0.442775
Si Si6 0.150448 0.437140 0.395956
Si Si7 0.254769 0.322240 0.953178
Si Si8 0.198951 0.573701 0.951415
O O1 0.170715 0.002506 0.822560
O O2 0.494253 0.141628 0.691485
O O3 0.345091 0.806602 0.997450
O O4 0.281199 0.817744 0.810730
O O5 0.018055 0.210902 0.759235
O O6 0.069992 0.209250 0.577647
O O7 0.844117 0.888160 0.859503
O O8 0.291610 0.546682 0.587250
O O9 0.145796 0.292757 0.877814
O O10 0.996608 0.502051 0.675871
O O11 0.270624 0.450081 0.300258
O O12 0.555334 0.636585 0.095111
O O13 0.265003 0.481773 0.096511
O O14 0.500000 0.500000 0.500000
O O15 0.259539 0.591954 0.379265
O O16 0.257013 0.510245 0.895075
O O17 0.000000 0.500000 0.000000
#
# Coordination Sequence:
#
# PCOD8015768 Si02
#       8
#     2   2   2   2   2   2   2   2
#     4  10  22  39  65  88 124 160 208 243 320 357
#     4  11  22  40  65  93 127 163 202 253 315 365
#     4  11  24  38  63  93 130 163 204 248 314 371
#     4  10  25  39  64  92 122 161 216 249 305 362
#     4  11  20  38  62  93 131 157 198 260 310 361
#     4  11  23  40  61  93 132 163 198 255 313 369
#     4  12  23  42  65  90 124 166 210 256 298 366
#     4  10  21  43  65  85 124 163 209 254 304 365
#
# _framework density 19.380482000000001
#
# number of rings (size 3 to 8) (size 9 to 14) (size 15 to 20)
#    0.750    0.500    3.750    4.500    3.500    0.500 
#    0.000    1.250    0.000    0.000    0.000    0.000 
#    0.000    0.000    0.000    0.000    0.000    0.000 
#
# Total GULP energy -198375.725934 kJ/mol
# GULP energy per Si atom -12398.482871 kJ/mol
# Density = 1.933637 g / cm^3
# Si number density = 19.380482 Si / 1000 Ang^3
#
#
#
# Elastic Constant Matrix: (Units=GPa)
#
#
# Indices 1 2 3 4 5 6 
#
# 1 140.1672 16.6629 47.0889 5.5663 -4.8788 -0.9341
# 2 16.6629 63.0057 37.1529 -1.9335 -9.2883 3.5472
# 3 47.0889 37.1529 105.0158 2.4179 -15.5388 3.1895
# 4 5.5663 -1.9335 2.4179 19.3527 2.4537 -5.2779
# 5 -4.8788 -9.2883 -15.5388 2.4537 35.3079 0.8003
# 6 -0.9341 3.5472 3.1895 -5.2779 0.8003 30.8183
#
#
#
# Elastic Compliance Matrix: (Units=1/GPa)
#
#
# Indices 1 2 3 4 5 6 
#
# 1 0.008483 -0.000152 -0.003780 -0.001832 -0.000412 0.000363
# 2 -0.000152 0.020416 -0.006841 0.002301 0.002209 -0.001310
# 3 -0.003780 -0.006841 0.014348 -0.002276 0.004181 -0.001311
# 4 -0.001832 0.002301 -0.002276 0.055940 -0.004755 0.009619
# 5 -0.000412 0.002209 0.004181 -0.004755 0.031069 -0.002321
# 6 0.000363 -0.001310 -0.001311 0.009619 -0.002321 0.034453
#
#
# Mechanical properties :
#
#
# Convention : Reuss Voigt Hill
#
# Bulk Modulus (GPa) = 46.07999 56.66647 51.37323
# Shear Modulus (GPa) = 25.84132 30.91472 28.37802
#
# Velocity S-wave (km/s) = 3.65549 3.99826 3.83071
# Velocity P-wave (km/s) = 6.45329 7.11458 6.79199
#
# Compressibility (1/GPa) = 0.02170139
#
# Stress axis : x y z
#
# Youngs Moduli (GPa) = 117.88218 48.98196 69.69480
#
# Poissons Ratio (x) = 0.00745 0.26344
# Poissons Ratio (y) = 0.01792 0.47678
# Poissons Ratio (z) = 0.44558 0.33508
#
# Static dielectric constant tensor:
#      x y z
#    x 3.628940 0.045390 -0.052400 
#    y 0.045390 3.483510 -0.085810 
#    z -0.052400 -0.085810 3.619970 
# 
# 
# High freq. dielectric constant tensor:
#      x y z
#    x 1.771960 0.002540 -0.005150 
#    y 0.002540 1.735530 -0.002140 
#    z -0.005150 -0.002140 1.748280 
# 
# From -- ./inp_files/299339.got.cif
#   From: 2010.06.25/outbox.cif.g09.slc.cpg/sg2_150_cif.got.tgz:299339.got - 2010.06.27 13:26:56.
