data_PCOD8015628
_publ_section_title
;
Structure prediction by ZEFSAII (Michael W. Deem and Ramdas Pophale) SiO2 
 PCOD8015628
Probable space group: P -1
;
_chemical_formula_sum "Si O2"
_cell_formula_units_Z 16
_cell_length_a 14.434325
_cell_length_b 12.722561
_cell_length_c 9.689893
_cell_angle_alpha 134.442687
_cell_angle_beta 68.076366
_cell_angle_gamma 140.921814
_cell_volume 741.405738
_symmetry_space_group_name_H-M "P -1"
_symmetry_group_IT_number 2
_symmetry_cell_setting 'triclinic'
loop_
_space_group_symop_operation_xyz
x,y,z
-x,-y,-z
loop_
_atom_site_type_symbol
_atom_site_label
_atom_site_fract_x
_atom_site_fract_y
_atom_site_fract_z
Si Si1 0.579271 0.180892 0.781002
Si Si2 0.938145 0.608250 0.392624
Si Si3 0.073867 0.247413 0.187245
Si Si4 0.559602 0.286909 0.609012
Si Si5 0.417123 0.283498 0.437883
Si Si6 0.412902 0.755178 0.856963
Si Si7 0.066477 0.913779 0.364517
Si Si8 0.064127 0.432594 0.113239
O O1 0.512710 0.219260 0.736548
O O2 0.748851 0.313982 0.753034
O O3 0.465990 0.908665 0.616348
O O4 0.596369 0.288030 0.013523
O O5 0.975717 0.705563 0.614719
O O6 0.761586 0.457406 0.307639
O O7 0.071891 0.846085 0.449081
O O8 0.959266 0.458288 0.218742
O O9 0.262362 0.453080 0.266760
O O10 0.008173 0.253972 0.095720
O O11 0.000000 0.000000 0.000000
O O12 0.464309 0.301814 0.588621
O O13 0.500000 0.500000 0.500000
O O14 0.454343 0.188493 0.237612
O O15 0.235056 0.119810 0.388304
O O16 0.500000 0.000000 0.000000
O O17 0.000000 0.000000 0.500000
O O18 0.960917 0.678096 0.119364
#
# Coordination Sequence:
#
# PCOD8015628 Si02
#       8
#     2   2   2   2   2   2   2   2
#     4  10  21  42  72  99 138 182 235 291 342 416
#     4  12  23  42  70 104 139 179 244 289 344 421
#     4  11  24  44  69  99 146 188 229 290 356 427
#     4  10  22  43  69  98 139 185 228 288 349 411
#     4  12  26  43  68 100 140 182 229 286 346 424
#     4  12  22  41  70 101 137 177 233 286 349 404
#     4  12  26  44  69 101 144 186 230 290 356 418
#     4  11  24  40  72 104 137 185 238 290 353 412
#
# _framework density 21.580627
#
# number of rings (size 3 to 8) (size 9 to 14) (size 15 to 20)
#    0.000    0.750    3.750    3.750    1.750    0.000 
#    0.000    4.375    0.000    0.000    0.000    0.000 
#    0.000    0.000    0.000    0.000    0.000    0.000 
#
# Total GULP energy -198240.071682 kJ/mol
# GULP energy per Si atom -12390.004480 kJ/mol
# Density = 2.153151 g / cm^3
# Si number density = 21.580627 Si / 1000 Ang^3
#
#
#
# Elastic Constant Matrix: (Units=GPa)
#
#
# Indices 1 2 3 4 5 6 
#
# 1 114.6661 48.8494 41.7738 -3.9328 -16.0749 -9.8292
# 2 48.8494 127.8002 31.1093 8.5211 -4.1335 -7.1091
# 3 41.7738 31.1093 94.9643 -4.7411 -13.8146 5.9050
# 4 -3.9328 8.5211 -4.7411 48.4249 -5.7448 0.4038
# 5 -16.0749 -4.1335 -13.8146 -5.7448 40.3898 -5.2394
# 6 -9.8292 -7.1091 5.9050 0.4038 -5.2394 44.9033
#
#
#
# Elastic Compliance Matrix: (Units=1/GPa)
#
#
# Indices 1 2 3 4 5 6 
#
# 1 0.012578 -0.003682 -0.003858 0.001736 0.003962 0.003124
# 2 -0.003682 0.009882 -0.001990 -0.002402 -0.001362 0.000883
# 3 -0.003858 -0.001990 0.013535 0.001715 0.002793 -0.002629
# 4 0.001736 -0.002402 0.001715 0.021874 0.004151 0.000062
# 5 0.003962 -0.001362 0.002793 0.004151 0.028201 0.003537
# 6 0.003124 0.000883 -0.002629 0.000062 0.003537 0.023852
#
#
# Mechanical properties :
#
#
# Convention : Reuss Voigt Hill
#
# Bulk Modulus (GPa) = 59.05483 64.54396 61.79939
# Shear Modulus (GPa) = 37.13977 41.12349 39.13163
#
# Velocity S-wave (km/s) = 4.15297 4.37002 4.26288
# Velocity P-wave (km/s) = 7.10073 7.44554 7.27518
#
# Compressibility (1/GPa) = 0.01693342
#
# Stress axis : x y z
#
# Youngs Moduli (GPa) = 79.50443 101.19486 73.88390
#
# Poissons Ratio (x) = 0.37264 0.28503
# Poissons Ratio (y) = 0.29277 0.14705
# Poissons Ratio (z) = 0.30672 0.20141
#
# Static dielectric constant tensor:
#      x y z
#    x 3.838840 -0.337830 0.252210 
#    y -0.337830 4.176390 -0.207450 
#    z 0.252210 -0.207450 3.734970 
# 
# 
# High freq. dielectric constant tensor:
#      x y z
#    x 1.837000 -0.014890 0.008310 
#    y -0.014890 1.872420 -0.004050 
#    z 0.008310 -0.004050 1.846750 
# 
# From -- ./inp_files/188575.got.cif
#   From: 2010.06.25/outbox.cif.g09.slc.cpg/sg2_95_cif.got.tgz:188575.got - 2010.06.27 13:26:56.
