data_PCOD8015615
_publ_section_title
;
Structure prediction by ZEFSAII (Michael W. Deem and Ramdas Pophale) SiO2 
 PCOD8015615
Probable space group: P -1
;
_chemical_formula_sum "Si O2"
_cell_formula_units_Z 16
_cell_length_a 6.772230
_cell_length_b 16.341320
_cell_length_c 9.264443
_cell_angle_alpha 131.685287
_cell_angle_beta 93.411332
_cell_angle_gamma 99.721006
_cell_volume 733.844479
_symmetry_space_group_name_H-M "P -1"
_symmetry_group_IT_number 2
_symmetry_cell_setting 'triclinic'
loop_
_space_group_symop_operation_xyz
x,y,z
-x,-y,-z
loop_
_atom_site_type_symbol
_atom_site_label
_atom_site_fract_x
_atom_site_fract_y
_atom_site_fract_z
Si Si1 0.596252 0.037950 0.896572
Si Si2 0.954509 0.561129 0.711721
Si Si3 0.282009 0.658857 0.425129
Si Si4 0.088600 0.183554 0.656275
Si Si5 0.681556 0.976219 0.386189
Si Si6 0.036477 0.762968 0.763333
Si Si7 0.905142 0.378461 0.921992
Si Si8 0.720234 0.818589 0.628977
O O1 0.408362 0.053148 0.811527
O O2 0.690367 0.939952 0.723898
O O3 0.774025 0.154810 0.046954
O O4 0.500000 0.000000 0.000000
O O5 0.761560 0.475211 0.688503
O O6 0.000000 0.500000 0.500000
O O7 0.913130 0.674246 0.775032
O O8 0.143742 0.597675 0.883253
O O9 0.116845 0.706320 0.561794
O O10 0.269015 0.679758 0.273764
O O11 0.510193 0.727303 0.561897
O O12 0.250754 0.134712 0.693524
O O13 0.181070 0.226212 0.554957
O O14 0.059107 0.299040 0.859333
O O15 0.870845 0.088658 0.525013
O O16 0.500000 0.000000 0.500000
O O17 0.879461 0.832058 0.784203
O O18 0.000000 0.500000 0.000000
#
# Coordination Sequence:
#
# PCOD8015615 Si02
#       8
#     2   2   2   2   2   2   2   2
#     4  12  24  41  64  99 135 179 216 269 343 385
#     4   9  22  41  67  95 127 171 213 273 337 384
#     4  10  21  43  66  93 128 175 220 270 329 384
#     4  11  24  41  70 101 130 177 230 269 331 394
#     4  11  25  44  67  98 140 178 219 278 326 396
#     4  11  23  40  65  94 135 172 217 275 331 391
#     4  10  21  42  72  93 131 173 221 276 327 394
#     4  12  23  40  69  96 133 175 222 274 321 404
#
# _framework density 21.802985
#
# number of rings (size 3 to 8) (size 9 to 14) (size 15 to 20)
#    0.000    1.250    3.750    1.875    1.750    1.500 
#    0.000    2.500    5.500    0.000    0.000    0.000 
#    0.000    0.000    0.000    0.000    0.000    0.000 
#
# Total GULP energy -198211.993283 kJ/mol
# GULP energy per Si atom -12388.249580 kJ/mol
# Density = 2.175336 g / cm^3
# Si number density = 21.802985 Si / 1000 Ang^3
#
#
#
# Elastic Constant Matrix: (Units=GPa)
#
#
# Indices 1 2 3 4 5 6 
#
# 1 102.2663 52.9445 34.2541 -2.1033 14.9718 -15.7085
# 2 52.9445 135.8143 45.5676 2.6846 8.2615 -21.0614
# 3 34.2541 45.5676 114.9397 -13.9770 12.5018 -11.8788
# 4 -2.1033 2.6846 -13.9770 47.9930 -4.0481 0.5989
# 5 14.9718 8.2615 12.5018 -4.0481 26.9343 -10.5736
# 6 -15.7085 -21.0614 -11.8788 0.5989 -10.5736 32.5855
#
#
#
# Elastic Compliance Matrix: (Units=1/GPa)
#
#
# Indices 1 2 3 4 5 6 
#
# 1 0.013428 -0.004120 -0.001690 -0.000097 -0.004786 0.001643
# 2 -0.004120 0.010535 -0.002882 -0.001504 0.001905 0.004418
# 3 -0.001690 -0.002882 0.011056 0.003076 -0.002678 0.000427
# 4 -0.000097 -0.001504 0.003076 0.022026 0.002612 0.000545
# 5 -0.004786 0.001905 -0.002678 0.002612 0.045856 0.012780
# 6 0.001643 0.004418 0.000427 0.000545 0.012780 0.038629
#
#
# Mechanical properties :
#
#
# Convention : Reuss Voigt Hill
#
# Bulk Modulus (GPa) = 56.70491 68.72807 62.71649
# Shear Modulus (GPa) = 30.34117 36.18617 33.26367
#
# Velocity S-wave (km/s) = 3.73447 4.07835 3.91019
# Velocity P-wave (km/s) = 6.68277 7.33267 7.01525
#
# Compressibility (1/GPa) = 0.01763516
#
# Stress axis : x y z
#
# Youngs Moduli (GPa) = 74.46879 94.92084 90.44842
#
# Poissons Ratio (x) = 0.39106 0.15286
# Poissons Ratio (y) = 0.30680 0.26070
# Poissons Ratio (z) = 0.12586 0.27359
#
# Static dielectric constant tensor:
#      x y z
#    x 3.218780 -0.142860 -0.385700 
#    y -0.142860 4.629430 0.237410 
#    z -0.385700 0.237410 4.470560 
# 
# 
# High freq. dielectric constant tensor:
#      x y z
#    x 1.821330 -0.009210 0.008290 
#    y -0.009210 1.878420 -0.005450 
#    z 0.008290 -0.005450 1.870680 
# 
# From -- ./inp_files/139589.got.cif
#   From: 2010.06.25/outbox.cif.g09.slc.cpg/sg2_70_cif.got.tgz:139589.got - 2010.06.27 13:26:56.
