data_PCOD8015660
_publ_section_title
;
Structure prediction by ZEFSAII (Michael W. Deem and Ramdas Pophale) SiO2 
 PCOD8015660
Probable space group: P -1
;
_chemical_formula_sum "Si O2"
_cell_formula_units_Z 12
_cell_length_a 9.137267
_cell_length_b 14.936239
_cell_length_c 8.779791
_cell_angle_alpha 147.431351
_cell_angle_beta 76.224947
_cell_angle_gamma 90.029214
_cell_volume 578.742311
_symmetry_space_group_name_H-M "P -1"
_symmetry_group_IT_number 2
_symmetry_cell_setting 'triclinic'
loop_
_space_group_symop_operation_xyz
x,y,z
-x,-y,-z
loop_
_atom_site_type_symbol
_atom_site_label
_atom_site_fract_x
_atom_site_fract_y
_atom_site_fract_z
Si Si1 0.522397 0.314708 0.640816
Si Si2 0.902273 0.303997 0.801110
Si Si3 0.830031 0.661702 0.769613
Si Si4 0.206395 0.365435 0.920789
Si Si5 0.622558 0.542729 0.423029
Si Si6 0.125813 0.975576 0.796987
O O1 0.381201 0.247709 0.635918
O O2 0.499876 0.333666 0.493614
O O3 0.696462 0.162316 0.401127
O O4 0.500000 0.500000 0.000000
O O5 0.930038 0.104996 0.452289
O O6 0.073058 0.281374 0.802003
O O7 0.859739 0.434046 0.848978
O O8 0.758936 0.371504 0.059579
O O9 0.715478 0.648573 0.642431
O O10 0.000000 0.500000 0.500000
O O11 0.750811 0.645539 0.927018
O O12 0.865127 0.839459 0.991421
O O13 0.500000 0.500000 0.500000
O O14 0.000000 0.000000 0.000000
#
# Coordination Sequence:
#
# PCOD8015660 Si02
#       6
#     2   2   2   2   2   2
#     4  11  23  45  72  99 136 188 227 285 346 411
#     4  10  22  45  71 101 133 192 227 281 351 417
#     4  12  26  44  69 105 142 184 229 292 345 406
#     4  10  21  42  74  93 141 176 235 276 352 401
#     4  11  24  42  75 103 140 181 234 282 354 408
#     4  12  28  44  72 105 141 182 238 284 350 417
#
# _framework density 20.734617
#
# number of rings (size 3 to 8) (size 9 to 14) (size 15 to 20)
#    0.000    1.000    5.000    2.000    7.000    2.000 
#    0.000    0.000    0.000    0.000    0.000    0.000 
#    0.000    0.000    0.000    0.000    0.000    0.000 
#
# Total GULP energy -148747.365711 kJ/mol
# GULP energy per Si atom -12395.613809 kJ/mol
# Density = 2.068742 g / cm^3
# Si number density = 20.734617 Si / 1000 Ang^3
#
#
#
# Elastic Constant Matrix: (Units=GPa)
#
#
# Indices 1 2 3 4 5 6 
#
# 1 130.8054 42.9371 63.6040 0.7115 -7.9805 3.7674
# 2 42.9371 131.6081 60.7127 -20.9920 0.5160 7.6467
# 3 63.6040 60.7127 133.7214 0.1678 6.5992 8.3716
# 4 0.7115 -20.9920 0.1678 34.1938 -0.8500 -3.4293
# 5 -7.9805 0.5160 6.5992 -0.8500 48.0876 -8.9658
# 6 3.7674 7.6467 8.3716 -3.4293 -8.9658 45.8171
#
#
#
# Elastic Compliance Matrix: (Units=1/GPa)
#
#
# Indices 1 2 3 4 5 6 
#
# 1 0.010446 -0.001588 -0.004406 -0.001048 0.002451 0.000612
# 2 -0.001588 0.011249 -0.004350 0.006929 0.000264 -0.000382
# 3 -0.004406 -0.004350 0.011799 -0.002885 -0.002692 -0.001810
# 4 -0.001048 0.006929 -0.002885 0.033785 0.001157 0.002212
# 5 0.002451 0.000264 -0.002692 0.001157 0.022471 0.004730
# 6 0.000612 -0.000382 -0.001810 0.002212 0.004730 0.023261
#
#
# Mechanical properties :
#
#
# Convention : Reuss Voigt Hill
#
# Bulk Modulus (GPa) = 78.08345 81.18249 79.63297
# Shear Modulus (GPa) = 36.24034 40.87845 38.55940
#
# Velocity S-wave (km/s) = 4.18523 4.44498 4.31706
# Velocity P-wave (km/s) = 7.81633 8.09827 7.95855
#
# Compressibility (1/GPa) = 0.01280681
#
# Stress axis : x y z
#
# Youngs Moduli (GPa) = 95.73026 88.89323 84.75644
#
# Poissons Ratio (x) = 0.14117 0.37340
# Poissons Ratio (y) = 0.15203 0.36869
# Poissons Ratio (z) = 0.42174 0.38668
#
# Static dielectric constant tensor:
#      x y z
#    x 4.179320 -0.038810 -0.120350 
#    y -0.038810 3.985890 -0.250020 
#    z -0.120350 -0.250020 3.345180 
# 
# 
# High freq. dielectric constant tensor:
#      x y z
#    x 1.840620 0.001920 0.002190 
#    y 0.001920 1.815770 -0.023300 
#    z 0.002190 -0.023300 1.793390 
# 
# From -- ./inp_files/152983.got.cif
#   From: 2010.06.25/outbox.cif.g09.slc.cpg/sg2_77_cif.got.tgz:152983.got - 2010.06.27 13:26:56.
