data_PCOD8015427
_publ_section_title
;
Structure prediction by ZEFSAII (Michael W. Deem and Ramdas Pophale) SiO2 
 PCOD8015427
Probable space group: P -1
;
_chemical_formula_sum "Si O2"
_cell_formula_units_Z 14
_cell_length_a 11.274792
_cell_length_b 8.477739
_cell_length_c 8.682984
_cell_angle_alpha 94.779693
_cell_angle_beta 64.105583
_cell_angle_gamma 126.408457
_cell_volume 582.894498
_symmetry_space_group_name_H-M "P -1"
_symmetry_group_IT_number 2
_symmetry_cell_setting 'triclinic'
loop_
_space_group_symop_operation_xyz
x,y,z
-x,-y,-z
loop_
_atom_site_type_symbol
_atom_site_label
_atom_site_fract_x
_atom_site_fract_y
_atom_site_fract_z
Si Si1 0.046509 0.994776 0.147422
Si Si2 0.626730 0.940434 0.080784
Si Si3 0.654942 0.320520 0.017495
Si Si4 0.652507 0.995815 0.408007
Si Si5 0.452030 0.362968 0.368135
Si Si6 0.114151 0.231962 0.501859
Si Si7 0.022763 0.327132 0.290561
O O1 0.076161 0.185784 0.222371
O O2 0.212078 0.015060 0.086442
O O3 0.903583 0.782732 0.300846
O O4 0.000000 0.000000 0.000000
O O5 0.631034 0.134227 0.097638
O O6 0.634135 0.887033 0.249055
O O7 0.461421 0.754289 0.073900
O O8 0.606133 0.425620 0.173543
O O9 0.849087 0.471914 0.865120
O O10 0.831855 0.221856 0.337763
O O11 0.500000 0.000000 0.500000
O O12 0.642509 0.867441 0.543263
O O13 0.500000 0.500000 0.500000
O O14 0.310664 0.355672 0.355067
O O15 0.050940 0.350674 0.464543
O O16 0.000000 0.000000 0.500000
#
# Coordination Sequence:
#
# PCOD8015427 Si02
#       7
#     2   2   2   2   2   2   2
#     4  11  21  40  72 100 134 183 230 281 343 409
#     4  11  25  46  70 100 148 185 227 286 363 414
#     4  11  27  46  70 104 142 185 231 291 353 420
#     4  12  25  49  71  99 143 189 231 290 354 420
#     4  12  26  44  73 106 139 184 235 288 349 414
#     4  10  21  42  68  99 139 177 230 284 342 406
#     4  11  25  44  71 102 136 183 241 287 346 411
#
# _framework density 24.018069000000001
#
# number of rings (size 3 to 8) (size 9 to 14) (size 15 to 20)
#    0.000    0.857    5.714    1.714    6.000    1.714 
#    2.571    1.429    0.000    0.000    0.000    0.000 
#    0.000    0.000    0.000    0.000    0.000    0.000 
#
# Total GULP energy -173479.988126 kJ/mol
# GULP energy per Si atom -12391.427723 kJ/mol
# Density = 2.396340 g / cm^3
# Si number density = 24.018069 Si / 1000 Ang^3
#
#
#
# Elastic Constant Matrix: (Units=GPa)
#
#
# Indices 1 2 3 4 5 6 
#
# 1 131.5687 21.2861 35.9363 -3.5903 -17.7049 30.1565
# 2 21.2861 63.0113 26.4593 -8.0404 -9.1560 22.0909
# 3 35.9363 26.4593 116.5953 -15.3669 4.1490 15.0503
# 4 -3.5903 -8.0404 -15.3669 30.6233 2.8080 -4.5657
# 5 -17.7049 -9.1560 4.1490 2.8080 56.0405 -3.8471
# 6 30.1565 22.0909 15.0503 -4.5657 -3.8471 32.7931
#
#
#
# Elastic Compliance Matrix: (Units=1/GPa)
#
#
# Indices 1 2 3 4 5 6 
#
# 1 0.010621 0.000957 -0.002629 -0.001460 0.003159 -0.009038
# 2 0.000957 0.022578 -0.003491 0.001931 0.003203 -0.013843
# 3 -0.002629 -0.003491 0.010835 0.004454 -0.002417 0.000133
# 4 -0.001460 0.001931 0.004454 0.035825 -0.002082 0.002741
# 5 0.003159 0.003203 -0.002417 -0.002082 0.019515 -0.001954
# 6 -0.009038 -0.013843 0.000133 0.002741 -0.001954 0.048222
#
#
# Mechanical properties :
#
#
# Convention : Reuss Voigt Hill
#
# Bulk Modulus (GPa) = 29.66685 53.17095 41.41890
# Shear Modulus (GPa) = 29.55843 39.05762 34.30802
#
# Velocity S-wave (km/s) = 3.51190 4.03696 3.78355
# Velocity P-wave (km/s) = 5.36874 6.62687 6.03070
#
# Compressibility (1/GPa) = 0.03370766
#
# Stress axis : x y z
#
# Youngs Moduli (GPa) = 94.15716 44.29153 92.29329
#
# Poissons Ratio (x) = -0.04241 0.24263
# Poissons Ratio (y) = -0.09015 0.32223
# Poissons Ratio (z) = 0.24753 0.15464
#
# Static dielectric constant tensor:
#      x y z
#    x 3.917350 -0.224390 -1.947550 
#    y -0.224390 3.969510 -0.807380 
#    z -1.947550 -0.807380 -2.528530 
# 
# 
# High freq. dielectric constant tensor:
#      x y z
#    x 1.968760 0.010790 0.007790 
#    y 0.010790 1.918940 -0.004900 
#    z 0.007790 -0.004900 1.967910 
# 
# From -- ./inp_files/158585.got.cif
#   From: 2010.06.25/outbox.cif.g09.slc.cpg/sg2_80_cif.got.tgz:158585.got - 2010.06.27 13:26:56.
