data_PCOD8015492
_publ_section_title
;
Structure prediction by ZEFSAII (Michael W. Deem and Ramdas Pophale) SiO2 
 PCOD8015492
Probable space group: P -1
;
_chemical_formula_sum "Si O2"
_cell_formula_units_Z 12
_cell_length_a 21.367648
_cell_length_b 23.917069
_cell_length_c 7.158937
_cell_angle_alpha 143.315027
_cell_angle_beta 35.527915
_cell_angle_gamma 169.061832
_cell_volume 403.269849
_symmetry_space_group_name_H-M "P -1"
_symmetry_group_IT_number 2
_symmetry_cell_setting 'triclinic'
loop_
_space_group_symop_operation_xyz
x,y,z
-x,-y,-z
loop_
_atom_site_type_symbol
_atom_site_label
_atom_site_fract_x
_atom_site_fract_y
_atom_site_fract_z
Si Si1 0.679028 0.916997 0.814476
Si Si2 0.321764 0.442377 0.891286
Si Si3 0.334972 0.753553 0.528815
Si Si4 0.380534 0.468728 0.369214
Si Si5 0.695365 0.241983 0.906242
Si Si6 0.229622 0.011998 0.674882
O O1 0.577211 0.726060 0.551641
O O2 0.491649 0.810850 0.157796
O O3 0.526441 0.845587 0.811446
O O4 0.091322 0.265914 0.786802
O O5 0.487606 0.474239 0.605633
O O6 0.614660 0.761085 0.032847
O O7 0.078729 0.266128 0.182664
O O8 0.497790 0.849592 0.592501
O O9 0.919772 0.407222 0.611798
O O10 0.445876 0.951174 0.765919
O O11 0.500000 0.500000 0.000000
O O12 0.963127 0.134933 0.456691
O O13 0.000000 0.500000 0.000000
#
# Coordination Sequence:
#
# PCOD8015492 Si02
#       6
#     2   2   2   2   2   2
#     4  11  24  44  74 107 143 190 236 294 357 418
#     4  10  22  42  65  99 137 181 232 286 345 411
#     4  11  24  46  70 105 143 182 234 291 350 424
#     4  10  22  44  70 104 143 187 237 292 350 419
#     4  12  26  46  71 105 142 185 234 291 354 425
#     4  10  21  42  69  98 137 183 227 284 347 413
#
# _framework density 29.75675
#
# number of rings (size 3 to 8) (size 9 to 14) (size 15 to 20)
#    0.000    1.333    0.000    5.500    0.000    4.000 
#    0.000   30.000    0.000    0.000    0.000    0.000 
#    0.000    0.000    0.000    0.000    0.000    0.000 
#
# Total GULP energy -148922.020852 kJ/mol
# GULP energy per Si atom -12410.168404 kJ/mol
# Density = 2.968902 g / cm^3
# Si number density = 29.756750 Si / 1000 Ang^3
#
#
#
# Elastic Constant Matrix: (Units=GPa)
#
#
# Indices 1 2 3 4 5 6 
#
# 1 227.4459 71.6898 78.0938 9.3627 -13.3584 27.8373
# 2 71.6898 158.6959 58.4066 -12.8043 -8.7944 24.7850
# 3 78.0938 58.4066 142.4197 -2.0562 -29.2139 12.8572
# 4 9.3627 -12.8043 -2.0562 87.5478 2.2451 -12.0756
# 5 -13.3584 -8.7944 -29.2139 2.2451 59.9633 7.0418
# 6 27.8373 24.7850 12.8572 -12.0756 7.0418 55.1637
#
#
#
# Elastic Compliance Matrix: (Units=1/GPa)
#
#
# Indices 1 2 3 4 5 6 
#
# 1 0.006059 -0.001599 -0.002456 -0.001229 0.000207 -0.002062
# 2 -0.001599 0.008296 -0.002330 0.001036 -0.000062 -0.002143
# 3 -0.002456 -0.002330 0.010237 -0.000033 0.004175 -0.000640
# 4 -0.001229 0.001036 -0.000033 0.012134 -0.000937 0.002939
# 5 0.000207 -0.000062 0.004175 -0.000937 0.019219 -0.003708
# 6 -0.002062 -0.002143 -0.000640 0.002939 -0.003708 0.021397
#
#
# Mechanical properties :
#
#
# Convention : Reuss Voigt Hill
#
# Bulk Modulus (GPa) = 84.57722 104.99356 94.78539
# Shear Modulus (GPa) = 53.16227 61.89304 57.52765
#
# Velocity S-wave (km/s) = 4.23136 4.56561 4.40166
# Velocity P-wave (km/s) = 7.23582 7.94693 7.59970
#
# Compressibility (1/GPa) = 0.01182351
#
# Stress axis : x y z
#
# Youngs Moduli (GPa) = 165.04472 120.54165 97.68274
#
# Poissons Ratio (x) = 0.19274 0.23988
# Poissons Ratio (y) = 0.26389 0.22757
# Poissons Ratio (z) = 0.40530 0.28082
#
# Static dielectric constant tensor:
#      x y z
#    x 9.113990 -0.479960 0.711850 
#    y -0.479960 7.701490 -1.416250 
#    z 0.711850 -1.416250 6.220250 
# 
# 
# High freq. dielectric constant tensor:
#      x y z
#    x 2.298310 0.012540 0.040640 
#    y 0.012540 2.241210 -0.063290 
#    z 0.040640 -0.063290 2.265140 
# 
# From -- ./inp_files/355664.got.cif
#   From: 2010.06.25/outbox.cif.g09.slc.cpg/sg2_178_cif.got.tgz:355664.got - 2010.06.27 13:26:56.
