data_PCOD8015127
_publ_section_title
;
Structure prediction by ZEFSAII (Michael W. Deem and Ramdas Pophale) SiO2 
 PCOD8015127
Probable space group: P -1
;
_chemical_formula_sum "Si O2"
_cell_formula_units_Z 16
_cell_length_a 15.818514
_cell_length_b 24.596870
_cell_length_c 9.229094
_cell_angle_alpha 28.462943
_cell_angle_beta 45.172654
_cell_angle_gamma 27.271146
_cell_volume 734.558209
_symmetry_space_group_name_H-M "P -1"
_symmetry_group_IT_number 2
_symmetry_cell_setting 'triclinic'
loop_
_space_group_symop_operation_xyz
x,y,z
-x,-y,-z
loop_
_atom_site_type_symbol
_atom_site_label
_atom_site_fract_x
_atom_site_fract_y
_atom_site_fract_z
Si Si1 0.118693 0.959178 0.678811
Si Si2 0.092317 0.672623 0.845609
Si Si3 0.805006 0.057208 0.676804
Si Si4 0.033017 0.481523 0.223280
Si Si5 0.293291 0.691192 0.358246
Si Si6 0.864536 0.375059 0.774092
Si Si7 0.508154 0.295190 0.708501
Si Si8 0.672399 0.781401 0.757020
O O1 0.266388 0.849057 0.619148
O O2 0.166384 0.835786 0.039264
O O3 0.104728 0.098530 0.434314
O O4 0.906800 0.086548 0.566584
O O5 0.205645 0.642730 0.644100
O O6 0.060034 0.564672 0.107009
O O7 0.201977 0.595412 0.049206
O O8 0.615919 0.157919 0.759607
O O9 0.958994 0.837566 0.995395
O O10 0.243180 0.284552 0.356096
O O11 0.939088 0.447985 0.500661
O O12 0.870677 0.654513 0.903680
O O13 0.500000 0.500000 0.500000
O O14 0.323060 0.762128 0.280190
O O15 0.677008 0.490258 0.628668
O O16 0.421907 0.269459 0.983033
O O17 0.500000 0.000000 0.500000
#
# Coordination Sequence:
#
# PCOD8015127 Si02
#       8
#     2   2   2   2   2   2   2   2
#     4  10  23  41  61  94 126 173 209 252 324 377
#     4  11  23  41  64  89 128 171 204 266 323 372
#     4  10  21  42  66  88 131 169 211 259 308 381
#     4  10  22  42  63  91 127 163 216 263 309 383
#     4  12  25  38  60  97 129 163 208 267 319 376
#     4  10  23  42  65  93 122 170 218 258 318 372
#     4  11  23  39  64  93 126 165 210 261 313 380
#     4  10  22  39  63  93 122 170 211 258 320 367
#
# _framework density 21.781798999999999
#
# number of rings (size 3 to 8) (size 9 to 14) (size 15 to 20)
#    0.000    1.500    1.250    3.000    3.500    2.500 
#    0.000    0.000    0.000    6.000    0.000    0.000 
#    0.000    0.000    0.000    0.000    0.000    0.000 
#
# Total GULP energy -198227.794965 kJ/mol
# GULP energy per Si atom -12389.237185 kJ/mol
# Density = 2.173222 g / cm^3
# Si number density = 21.781799 Si / 1000 Ang^3
#
#
#
# Elastic Constant Matrix: (Units=GPa)
#
#
# Indices 1 2 3 4 5 6 
#
# 1 79.5715 19.7821 29.4765 2.8092 -7.4969 10.5401
# 2 19.7821 120.6881 29.7123 2.7748 9.5115 21.4834
# 3 29.4765 29.7123 100.1697 6.0021 8.5620 12.7187
# 4 2.8092 2.7748 6.0021 35.0138 10.7455 -1.4185
# 5 -7.4969 9.5115 8.5620 10.7455 29.6754 2.0015
# 6 10.5401 21.4834 12.7187 -1.4185 2.0015 27.6087
#
#
#
# Elastic Compliance Matrix: (Units=1/GPa)
#
#
# Indices 1 2 3 4 5 6 
#
# 1 0.015668 -0.001373 -0.004165 -0.002672 0.006812 -0.003626
# 2 -0.001373 0.010282 -0.001586 0.000163 -0.002803 -0.006534
# 3 -0.004165 -0.001586 0.012369 -0.000630 -0.003707 -0.002637
# 4 -0.002672 0.000163 -0.000630 0.032929 -0.012725 0.003798
# 5 0.006812 -0.002803 -0.003707 -0.012725 0.042158 -0.002422
# 6 -0.003626 -0.006534 -0.002637 0.003798 -0.002422 0.044275
#
#
# Mechanical properties :
#
#
# Convention : Reuss Voigt Hill
#
# Bulk Modulus (GPa) = 41.54597 50.93013 46.23805
# Shear Modulus (GPa) = 27.78536 33.22346 30.50441
#
# Velocity S-wave (km/s) = 3.57546 3.90973 3.74632
# Velocity P-wave (km/s) = 6.01335 6.61922 6.32354
#
# Compressibility (1/GPa) = 0.02406972
#
# Stress axis : x y z
#
# Youngs Moduli (GPa) = 63.82491 97.26073 80.84971
#
# Poissons Ratio (x) = 0.13352 0.33675
# Poissons Ratio (y) = 0.08762 0.12825
# Poissons Ratio (z) = 0.26584 0.15429
#
# Static dielectric constant tensor:
#      x y z
#    x 3.550230 0.226290 0.057610 
#    y 0.226290 4.106670 0.143140 
#    z 0.057610 0.143140 3.743090 
# 
# 
# High freq. dielectric constant tensor:
#      x y z
#    x 1.841780 0.022800 -0.005800 
#    y 0.022800 1.866360 0.011570 
#    z -0.005800 0.011570 1.857560 
# 
# From -- ./inp_files/320251.got.cif
#   From: 2010.06.25/outbox.cif.g09.slc.cpg/sg2_161_cif.got.tgz:320251.got - 2010.06.27 13:26:56.
