data_PCOD8015794
_publ_section_title
;
Structure prediction by ZEFSAII (Michael W. Deem and Ramdas Pophale) SiO2 
 PCOD8015794
Probable space group: P -1
;
_chemical_formula_sum "Si O2"
_cell_formula_units_Z 12
_cell_length_a 13.808196
_cell_length_b 14.109844
_cell_length_c 11.198774
_cell_angle_alpha 39.988360
_cell_angle_beta 148.959838
_cell_angle_gamma 150.869123
_cell_volume 546.315142
_symmetry_space_group_name_H-M "P -1"
_symmetry_group_IT_number 2
_symmetry_cell_setting 'triclinic'
loop_
_space_group_symop_operation_xyz
x,y,z
-x,-y,-z
loop_
_atom_site_type_symbol
_atom_site_label
_atom_site_fract_x
_atom_site_fract_y
_atom_site_fract_z
Si Si1 0.852379 0.711768 0.854587
Si Si2 0.720455 0.503243 0.524697
Si Si3 0.134589 0.102879 0.666512
Si Si4 0.182311 0.726629 0.017946
Si Si5 0.587248 0.146345 0.109190
Si Si6 0.028385 0.508429 0.661852
O O1 0.567289 0.611002 0.654676
O O2 0.920426 0.635410 0.108029
O O3 0.011932 0.946045 0.797682
O O4 0.924529 0.667591 0.848593
O O5 0.879811 0.734656 0.469083
O O6 0.820790 0.451514 0.790323
O O7 0.776376 0.440455 0.523026
O O8 0.420791 0.204820 0.850423
O O9 0.000000 0.000000 0.500000
O O10 0.408892 0.911736 0.159592
O O11 0.224949 0.784980 0.868348
O O12 0.747121 0.266328 0.279642
O O13 0.000000 0.500000 0.500000
#
# Coordination Sequence:
#
# PCOD8015794 Si02
#       6
#     2   2   2   2   2   2
#     4  10  23  44  63  99 134 165 220 268 328 391
#     4  11  24  42  69  96 134 172 213 271 334 392
#     4  11  24  39  67 106 137 165 210 266 342 405
#     4   9  22  39  67 101 129 173 206 270 344 394
#     4  10  21  43  65  95 143 168 216 271 324 392
#     4  11  26  46  67  92 130 183 230 266 314 378
#
# _framework density 21.965343000000001
#
# number of rings (size 3 to 8) (size 9 to 14) (size 15 to 20)
#    0.000    1.667    1.667    1.000   11.667    3.333 
#    0.000    8.333    0.000    0.000    0.000    0.000 
#    0.000    0.000    0.000    0.000    0.000    0.000 
#
# Total GULP energy -148753.333458 kJ/mol
# GULP energy per Si atom -12396.111121 kJ/mol
# Density = 2.191535 g / cm^3
# Si number density = 21.965343 Si / 1000 Ang^3
#
#
#
# Elastic Constant Matrix: (Units=GPa)
#
#
# Indices 1 2 3 4 5 6 
#
# 1 128.1550 36.8768 72.7211 15.0697 7.8794 4.9715
# 2 36.8768 116.8597 37.1368 -12.1389 12.6130 -1.4164
# 3 72.7211 37.1368 120.5425 -1.2525 26.1266 3.3610
# 4 15.0697 -12.1389 -1.2525 49.3197 -2.3680 6.2884
# 5 7.8794 12.6130 26.1266 -2.3680 44.8372 9.1542
# 6 4.9715 -1.4164 3.3610 6.2884 9.1542 30.7219
#
#
#
# Elastic Compliance Matrix: (Units=1/GPa)
#
#
# Indices 1 2 3 4 5 6 
#
# 1 0.013504 -0.002535 -0.008039 -0.004630 0.003063 -0.001388
# 2 -0.002535 0.010273 -0.001252 0.003072 -0.001738 0.000910
# 3 -0.008039 -0.001252 0.015072 0.002018 -0.007181 0.001321
# 4 -0.004630 0.003072 0.002018 0.023090 0.000875 -0.004317
# 5 0.003063 -0.001738 -0.007181 0.000875 0.028193 -0.008370
# 6 -0.001388 0.000910 0.001321 -0.004317 -0.008370 0.036050
#
#
# Mechanical properties :
#
#
# Convention : Reuss Voigt Hill
#
# Bulk Modulus (GPa) = 65.80625 73.22518 69.51571
# Shear Modulus (GPa) = 32.27877 39.56394 35.92135
#
# Velocity S-wave (km/s) = 3.83761 4.24866 4.04835
# Velocity P-wave (km/s) = 7.04702 7.58137 7.31907
#
# Compressibility (1/GPa) = 0.01519613
#
# Stress axis : x y z
#
# Youngs Moduli (GPa) = 74.05012 97.34323 66.34810
#
# Poissons Ratio (x) = 0.24678 0.53339
# Poissons Ratio (y) = 0.18773 0.08308
# Poissons Ratio (z) = 0.59531 0.12189
#
# Static dielectric constant tensor:
#      x y z
#    x 3.818920 0.179400 0.431690 
#    y 0.179400 4.538950 -0.284150 
#    z 0.431690 -0.284150 4.074890 
# 
# 
# High freq. dielectric constant tensor:
#      x y z
#    x 1.836520 0.012380 0.044900 
#    y 0.012380 1.889480 -0.009760 
#    z 0.044900 -0.009760 1.860970 
# 
# From -- ./inp_files/301119.got.cif
#   From: 2010.06.25/outbox.cif.g09.slc.cpg/sg2_151_cif.got.tgz:301119.got - 2010.06.27 13:26:56.
