data_PCOD8015677
_publ_section_title
;
Structure prediction by ZEFSAII (Michael W. Deem and Ramdas Pophale) SiO2 
 PCOD8015677
Probable space group: P -1
;
_chemical_formula_sum "Si O2"
_cell_formula_units_Z 16
_cell_length_a 14.551798
_cell_length_b 12.413704
_cell_length_c 11.333437
_cell_angle_alpha 136.292089
_cell_angle_beta 37.473297
_cell_angle_gamma 151.616604
_cell_volume 589.945610
_symmetry_space_group_name_H-M "P -1"
_symmetry_group_IT_number 2
_symmetry_cell_setting 'triclinic'
loop_
_space_group_symop_operation_xyz
x,y,z
-x,-y,-z
loop_
_atom_site_type_symbol
_atom_site_label
_atom_site_fract_x
_atom_site_fract_y
_atom_site_fract_z
Si Si1 0.799519 0.819594 0.474308
Si Si2 0.281638 0.819715 0.504867
Si Si3 0.878557 0.466786 0.951484
Si Si4 0.840165 0.519268 0.464308
Si Si5 0.400325 0.671951 0.080915
Si Si6 0.892177 0.058984 0.937530
Si Si7 0.910680 0.772840 0.804751
Si Si8 0.603512 0.355737 0.354928
O O1 0.652394 0.576008 0.490301
O O2 0.638149 0.843709 0.618079
O O3 0.000000 0.000000 0.500000
O O4 0.895834 0.824722 0.261085
O O5 0.128717 0.579312 0.538332
O O6 0.343425 0.795598 0.296063
O O7 0.148829 0.880930 0.680548
O O8 0.500000 0.000000 0.500000
O O9 0.665675 0.367336 0.018911
O O10 0.959289 0.356393 0.736977
O O11 0.797324 0.407067 0.124225
O O12 0.081408 0.734189 0.913176
O O13 0.858352 0.697438 0.656710
O O14 0.618280 0.321814 0.453267
O O15 0.283770 0.440201 0.083636
O O16 0.659920 0.841279 0.944991
O O17 0.915045 0.967453 0.960858
#
# Coordination Sequence:
#
# PCOD8015677 Si02
#       8
#     2   2   2   2   2   2   2   2
#     4  10  21  43  61  94 131 172 216 270 323 383
#     4  11  23  42  69  95 133 174 222 266 323 394
#     4  11  22  43  65  97 137 165 215 274 330 382
#     4  11  21  43  66  93 130 175 218 265 326 390
#     4  11  22  44  65  96 135 173 212 273 326 384
#     4  11  25  39  66  97 130 171 217 269 325 386
#     4  11  23  43  67  96 130 179 218 268 324 389
#     4  10  23  38  68  95 127 171 219 267 325 385
#
# _framework density 27.121144000000001
#
# number of rings (size 3 to 8) (size 9 to 14) (size 15 to 20)
#    0.000    1.250    2.500    3.750    1.750    2.500 
#    2.250    0.000    0.000    6.000    0.000    0.000 
#    0.000    0.000    0.000    0.000    0.000    0.000 
#
# Total GULP energy -198249.336465 kJ/mol
# GULP energy per Si atom -12390.583529 kJ/mol
# Density = 2.705941 g / cm^3
# Si number density = 27.121144 Si / 1000 Ang^3
#
#
#
# Elastic Constant Matrix: (Units=GPa)
#
#
# Indices 1 2 3 4 5 6 
#
# 1 85.1814 4.4154 -6.7580 -5.6139 13.6835 23.4300
# 2 4.4154 66.9144 -7.9091 -14.6426 -11.9629 13.8806
# 3 -6.7580 -7.9091 70.8563 -10.0056 4.2255 -1.0074
# 4 -5.6139 -14.6426 -10.0056 29.8965 6.8436 -13.6637
# 5 13.6835 -11.9629 4.2255 6.8436 39.0085 -3.5163
# 6 23.4300 13.8806 -1.0074 -13.6637 -3.5163 40.7873
#
#
#
# Elastic Compliance Matrix: (Units=1/GPa)
#
#
# Indices 1 2 3 4 5 6 
#
# 1 0.015529 0.000124 0.001889 0.000928 -0.006603 -0.009174
# 2 0.000124 0.018275 0.002855 0.007558 0.003622 -0.003376
# 3 0.001889 0.002855 0.015940 0.008112 -0.002864 0.000808
# 4 0.000928 0.007558 0.008112 0.047060 -0.006030 0.012341
# 5 -0.006603 0.003622 -0.002864 -0.006030 0.030712 0.003118
# 6 -0.009174 -0.003376 0.000808 0.012341 0.003118 0.035360
#
#
# Mechanical properties :
#
#
# Convention : Reuss Voigt Hill
#
# Bulk Modulus (GPa) = 16.81225 22.49431 19.65328
# Shear Modulus (GPa) = 28.90764 37.48537 33.19651
#
# Velocity S-wave (km/s) = 3.26831 3.72176 3.50238
# Velocity P-wave (km/s) = 4.52271 5.17500 4.85981
#
# Compressibility (1/GPa) = 0.05948044
#
# Stress axis : x y z
#
# Youngs Moduli (GPa) = 64.39767 54.71862 62.73609
#
# Poissons Ratio (x) = -0.00679 -0.11852
# Poissons Ratio (y) = -0.00800 -0.17911
# Poissons Ratio (z) = -0.12166 -0.15622
#
# Static dielectric constant tensor:
#      x y z
#    x 5.267800 0.086270 -0.168680 
#    y 0.086270 4.946800 0.120780 
#    z -0.168680 0.120780 5.117140 
# 
# 
# High freq. dielectric constant tensor:
#      x y z
#    x 2.107080 0.020090 0.001070 
#    y 0.020090 2.075510 -0.000100 
#    z 0.001070 -0.000100 2.087800 
# 
# From -- ./inp_files/455874.got.cif
#   From: 2010.06.25/outbox.cif.g09.slc.cpg/sg2_228_cif.got.tgz:455874.got - 2010.06.27 13:26:56.
