data_PCOD8015473
_publ_section_title
;
Structure prediction by ZEFSAII (Michael W. Deem and Ramdas Pophale) SiO2 
 PCOD8015473
Probable space group: P -1
;
_chemical_formula_sum "Si O2"
_cell_formula_units_Z 14
_cell_length_a 14.268215
_cell_length_b 10.658808
_cell_length_c 9.277389
_cell_angle_alpha 78.494895
_cell_angle_beta 58.842550
_cell_angle_gamma 37.737234
_cell_volume 677.154090
_symmetry_space_group_name_H-M "P -1"
_symmetry_group_IT_number 2
_symmetry_cell_setting 'triclinic'
loop_
_space_group_symop_operation_xyz
x,y,z
-x,-y,-z
loop_
_atom_site_type_symbol
_atom_site_label
_atom_site_fract_x
_atom_site_fract_y
_atom_site_fract_z
Si Si1 0.769500 0.318657 0.016423
Si Si2 0.225179 0.256501 0.214663
Si Si3 0.442660 0.229588 0.853675
Si Si4 0.979378 0.111871 0.625274
Si Si5 0.159035 0.492461 0.475577
Si Si6 0.192444 0.948627 0.760440
Si Si7 0.486392 0.162965 0.500324
O O1 0.607641 0.581980 0.089180
O O2 0.705887 0.261482 0.180809
O O3 0.801282 0.241856 0.842077
O O4 0.975392 0.179062 0.940692
O O5 0.261904 0.310331 0.312555
O O6 0.002261 0.437853 0.332414
O O7 0.349505 0.008286 0.195011
O O8 0.289324 0.270646 0.018097
O O9 0.436289 0.241765 0.685122
O O10 0.945995 0.287038 0.559949
O O11 0.173906 0.925475 0.610685
O O12 0.000000 0.000000 0.500000
O O13 0.316650 0.385594 0.489157
O O14 0.315015 0.960189 0.675242
O O15 0.500000 0.000000 0.500000
#
# Coordination Sequence:
#
# PCOD8015473 Si02
#       7
#     2   2   2   2   2   2   2
#     4   9  21  43  73  91 129 176 213 273 328 376
#     4  10  22  43  66  92 129 177 216 272 322 385
#     4  11  22  40  67  96 129 169 221 270 330 375
#     4  10  21  42  69  95 123 168 222 266 325 381
#     4  11  23  42  66  93 131 172 220 267 325 386
#     4   9  22  46  67  90 136 172 218 265 324 394
#     4  12  26  41  64 100 131 174 218 262 325 397
#
# _framework density 20.674764
#
# number of rings (size 3 to 8) (size 9 to 14) (size 15 to 20)
#    0.857    0.857    2.857    0.857    6.000    1.143 
#    5.143    2.143    0.000    0.000    0.000    0.000 
#    0.000    0.000    0.000    0.000    0.000    0.000 
#
# Total GULP energy -173555.854197 kJ/mol
# GULP energy per Si atom -12396.846728 kJ/mol
# Density = 2.062771 g / cm^3
# Si number density = 20.674764 Si / 1000 Ang^3
#
#
#
# Elastic Constant Matrix: (Units=GPa)
#
#
# Indices 1 2 3 4 5 6 
#
# 1 93.0865 31.5257 46.0339 -0.3466 -5.4284 8.5164
# 2 31.5257 100.9534 41.7247 -4.8574 6.4286 27.7053
# 3 46.0339 41.7247 105.0929 -7.3336 -2.4867 6.9658
# 4 -0.3466 -4.8574 -7.3336 34.9579 4.9560 3.2212
# 5 -5.4284 6.4286 -2.4867 4.9560 32.1990 4.4307
# 6 8.5164 27.7053 6.9658 3.2212 4.4307 30.2491
#
#
#
# Elastic Compliance Matrix: (Units=1/GPa)
#
#
# Indices 1 2 3 4 5 6 
#
# 1 0.014432 -0.002260 -0.005404 -0.001617 0.002853 -0.000995
# 2 -0.002260 0.016434 -0.004512 0.002913 -0.002629 -0.013302
# 3 -0.005404 -0.004512 0.013670 0.001918 0.000442 0.002237
# 4 -0.001617 0.002913 0.001918 0.030543 -0.004689 -0.005220
# 5 0.002853 -0.002629 0.000442 -0.004689 0.033212 -0.002863
# 6 -0.000995 -0.013302 0.002237 -0.005220 -0.002863 0.045982
#
#
# Mechanical properties :
#
#
# Convention : Reuss Voigt Hill
#
# Bulk Modulus (GPa) = 49.54340 59.74461 54.64401
# Shear Modulus (GPa) = 26.97552 31.47110 29.22331
#
# Velocity S-wave (km/s) = 3.61606 3.90577 3.76370
# Velocity P-wave (km/s) = 6.43815 7.02141 6.73609
#
# Compressibility (1/GPa) = 0.02018432
#
# Stress axis : x y z
#
# Youngs Moduli (GPa) = 69.29204 60.84823 73.15336
#
# Poissons Ratio (x) = 0.13751 0.39530
# Poissons Ratio (y) = 0.15659 0.33008
# Poissons Ratio (z) = 0.37444 0.27456
#
# Static dielectric constant tensor:
#      x y z
#    x 3.521770 0.052860 0.012110 
#    y 0.052860 3.840990 -0.090680 
#    z 0.012110 -0.090680 3.874390 
# 
# 
# High freq. dielectric constant tensor:
#      x y z
#    x 1.774980 0.004410 -0.006240 
#    y 0.004410 1.815960 -0.011960 
#    z -0.006240 -0.011960 1.817630 
# 
# From -- ./inp_files/303004.got.cif
#   From: 2010.06.25/outbox.cif.g09.slc.cpg/sg2_152_cif.got.tgz:303004.got - 2010.06.27 13:26:56.
