data_PCOD8015094
_publ_section_title
;
Structure prediction by ZEFSAII (Michael W. Deem and Ramdas Pophale) SiO2 
 PCOD8015094
Probable space group: P -1
;
_chemical_formula_sum "Si O2"
_cell_formula_units_Z 14
_cell_length_a 12.224799
_cell_length_b 7.932784
_cell_length_c 21.260061
_cell_angle_alpha 144.069861
_cell_angle_beta 28.130784
_cell_angle_gamma 142.851054
_cell_volume 544.148368
_symmetry_space_group_name_H-M "P -1"
_symmetry_group_IT_number 2
_symmetry_cell_setting 'triclinic'
loop_
_space_group_symop_operation_xyz
x,y,z
-x,-y,-z
loop_
_atom_site_type_symbol
_atom_site_label
_atom_site_fract_x
_atom_site_fract_y
_atom_site_fract_z
Si Si1 0.017860 0.884397 0.243451
Si Si2 0.150638 0.443177 0.964098
Si Si3 0.724900 0.915095 0.066631
Si Si4 0.485346 0.727157 0.470013
Si Si5 0.035257 0.518718 0.366232
Si Si6 0.491691 0.891787 0.307695
Si Si7 0.741310 0.298316 0.827871
O O1 0.200519 0.742493 0.070877
O O2 0.739930 0.651622 0.310821
O O3 0.107489 0.903532 0.276563
O O4 0.025346 0.196985 0.302845
O O5 0.990645 0.142852 0.990261
O O6 0.000000 0.500000 0.000000
O O7 0.402525 0.372920 0.797968
O O8 0.619672 0.007897 0.212270
O O9 0.533702 0.919453 0.108962
O O10 0.742731 0.574274 0.957361
O O11 0.241519 0.457392 0.492916
O O12 0.500000 0.000000 0.500000
O O13 0.457942 0.828573 0.586283
O O14 0.199745 0.761382 0.404737
O O15 0.149998 0.558888 0.250921
#
# Coordination Sequence:
#
# PCOD8015094 Si02
#       7
#     2   2   2   2   2   2   2
#     4  11  24  41  66  97 129 171 217 270 331 378
#     4  12  24  39  65 101 126 166 222 272 321 393
#     4  10  22  41  63  95 137 165 215 269 328 393
#     4  10  23  45  65  96 133 173 218 269 327 390
#     4  10  24  44  66  96 135 173 217 271 324 392
#     4  11  23  43  70  90 130 181 210 267 337 375
#     4  10  21  42  65  97 131 174 212 272 330 382
#
# _framework density 25.728278
#
# number of rings (size 3 to 8) (size 9 to 14) (size 15 to 20)
#    0.000    1.429    1.429    3.857    4.000    3.429 
#    2.571    1.429    0.000    0.000    0.000    0.000 
#    0.000    0.000    0.000    0.000    0.000    0.000 
#
# Total GULP energy -173507.145400 kJ/mol
# GULP energy per Si atom -12393.367529 kJ/mol
# Density = 2.566972 g / cm^3
# Si number density = 25.728278 Si / 1000 Ang^3
#
#
#
# Elastic Constant Matrix: (Units=GPa)
#
#
# Indices 1 2 3 4 5 6 
#
# 1 133.4798 24.1818 9.3447 -6.3154 -12.2010 5.8610
# 2 24.1818 54.4908 -7.3647 -16.5090 -3.1256 14.2699
# 3 9.3447 -7.3647 47.9689 -8.0474 -6.9024 4.6594
# 4 -6.3154 -16.5090 -8.0474 29.1228 6.5804 -12.1191
# 5 -12.2010 -3.1256 -6.9024 6.5804 38.8773 -11.8927
# 6 5.8610 14.2699 4.6594 -12.1191 -11.8927 47.3174
#
#
#
# Elastic Compliance Matrix: (Units=1/GPa)
#
#
# Indices 1 2 3 4 5 6 
#
# 1 0.008626 -0.004736 -0.002421 -0.001710 0.002421 0.000769
# 2 -0.004736 0.027243 0.007814 0.014911 -0.001986 -0.005079
# 3 -0.002421 0.007814 0.024582 0.009595 0.002157 -0.001478
# 4 -0.001710 0.014911 0.009595 0.048548 -0.003952 0.006211
# 5 0.002421 -0.001986 0.002157 -0.003952 0.029347 0.006451
# 6 0.000769 -0.005079 -0.001478 0.006211 0.006451 0.025928
#
#
# Mechanical properties :
#
#
# Convention : Reuss Voigt Hill
#
# Bulk Modulus (GPa) = 16.18996 32.02925 24.10960
# Shear Modulus (GPa) = 27.24103 37.04868 32.14485
#
# Velocity S-wave (km/s) = 3.25745 3.79885 3.53852
# Velocity P-wave (km/s) = 4.52264 5.63185 5.10745
#
# Compressibility (1/GPa) = 0.06176669
#
# Stress axis : x y z
#
# Youngs Moduli (GPa) = 115.93123 36.70657 40.68070
#
# Poissons Ratio (x) = 0.17383 0.09847
# Poissons Ratio (y) = 0.54900 -0.31789
# Poissons Ratio (z) = 0.28062 -0.28683
#
# Static dielectric constant tensor:
#      x y z
#    x 5.405620 0.440350 -0.371120 
#    y 0.440350 4.501560 -0.447930 
#    z -0.371120 -0.447930 4.744050 
# 
# 
# High freq. dielectric constant tensor:
#      x y z
#    x 2.064910 0.009290 -0.012900 
#    y 0.009290 2.002040 -0.015860 
#    z -0.012900 -0.015860 2.013930 
# 
# From -- ./inp_files/155305.got.cif
#   From: 2010.06.25/outbox.cif.g09.slc.cpg/sg2_78_cif.got.tgz:155305.got - 2010.06.27 13:26:56.
