data_PCOD8015087
_publ_section_title
;
Structure prediction by ZEFSAII (Michael W. Deem and Ramdas Pophale) SiO2 
 PCOD8015087
Probable space group: P -1
;
_chemical_formula_sum "Si O2"
_cell_formula_units_Z 16
_cell_length_a 9.018984
_cell_length_b 13.304315
_cell_length_c 14.651651
_cell_angle_alpha 39.484841
_cell_angle_beta 109.707385
_cell_angle_gamma 130.206681
_cell_volume 805.480898
_symmetry_space_group_name_H-M "P -1"
_symmetry_group_IT_number 2
_symmetry_cell_setting 'triclinic'
loop_
_space_group_symop_operation_xyz
x,y,z
-x,-y,-z
loop_
_atom_site_type_symbol
_atom_site_label
_atom_site_fract_x
_atom_site_fract_y
_atom_site_fract_z
Si Si1 0.531672 0.102286 0.528893
Si Si2 0.144310 0.438194 0.751485
Si Si3 0.482349 0.467092 0.910120
Si Si4 0.332460 0.464899 0.423980
Si Si5 0.038514 0.336493 0.610699
Si Si6 0.389157 0.048812 0.185542
Si Si7 0.661886 0.178098 0.843072
Si Si8 0.762225 0.799685 0.588451
O O1 0.759943 0.325816 0.412939
O O2 0.362435 0.121579 0.502840
O O3 0.500000 0.000000 0.500000
O O4 0.493651 0.944366 0.707571
O O5 0.277150 0.426069 0.861464
O O6 0.163431 0.363199 0.709142
O O7 0.904320 0.298102 0.830655
O O8 0.684216 0.661877 0.761873
O O9 0.500000 0.500000 0.000000
O O10 0.470606 0.274217 0.018256
O O11 0.500000 0.500000 0.500000
O O12 0.134122 0.361233 0.516956
O O13 0.398552 0.679854 0.255815
O O14 0.283198 0.332088 0.417890
O O15 0.000000 0.500000 0.500000
O O16 0.847555 0.095285 0.735586
O O17 0.404946 0.928753 0.194109
O O18 0.500000 0.000000 0.000000
O O19 0.000000 0.000000 0.500000
#
# Coordination Sequence:
#
# PCOD8015087 Si02
#       8
#     2   2   2   2   2   2   2   2
#     4  11  22  41  71  90 124 182 227 261 327 409
#     4  10  21  42  65  96 131 170 234 269 327 411
#     4  11  25  45  65  95 136 181 226 277 331 404
#     4  12  23  40  67  98 137 166 219 288 338 399
#     4  11  20  38  71  97 123 168 224 270 330 400
#     4  11  21  40  65  95 125 166 233 267 322 412
#     4  11  23  39  63  95 133 173 209 278 347 393
#     4  11  27  44  65 102 138 173 226 285 346 393
#
# _framework density 19.863911999999999
#
# number of rings (size 3 to 8) (size 9 to 14) (size 15 to 20)
#    0.000    1.000    3.750    4.500    5.250    3.000 
#    2.250    0.625    0.000    0.000    0.000    0.000 
#    0.000    0.000    0.000    0.000    0.000    0.000 
#
# Total GULP energy -198235.898389 kJ/mol
# GULP energy per Si atom -12389.743649 kJ/mol
# Density = 1.981870 g / cm^3
# Si number density = 19.863912 Si / 1000 Ang^3
#
#
#
# Elastic Constant Matrix: (Units=GPa)
#
#
# Indices 1 2 3 4 5 6 
#
# 1 103.0422 69.4940 62.9887 0.9282 -8.3136 -7.8912
# 2 69.4940 132.1637 54.1159 7.8526 0.8498 -8.5082
# 3 62.9887 54.1159 144.6599 -0.2489 -5.8398 11.9804
# 4 0.9282 7.8526 -0.2489 39.8324 -0.1606 -0.6338
# 5 -8.3136 0.8498 -5.8398 -0.1606 44.5962 -1.9657
# 6 -7.8912 -8.5082 11.9804 -0.6338 -1.9657 35.2155
#
#
#
# Elastic Compliance Matrix: (Units=1/GPa)
#
#
# Indices 1 2 3 4 5 6 
#
# 1 0.018659 -0.007290 -0.005647 0.001052 0.003081 0.004532
# 2 -0.007290 0.012340 -0.001663 -0.002252 -0.001742 0.001776
# 3 -0.005647 -0.001663 0.010430 0.000442 0.000117 -0.005201
# 4 0.001052 -0.002252 0.000442 0.025529 0.000390 0.000022
# 5 0.003081 -0.001742 0.000117 0.000390 0.023115 0.001527
# 6 0.004532 0.001776 -0.005201 0.000022 0.001527 0.031696
#
#
# Mechanical properties :
#
#
# Convention : Reuss Voigt Hill
#
# Bulk Modulus (GPa) = 81.77099 83.67367 82.72233
# Shear Modulus (GPa) = 32.24852 36.81330 34.53091
#
# Velocity S-wave (km/s) = 4.03361 4.30964 4.17390
# Velocity P-wave (km/s) = 7.93399 8.18406 8.06000
#
# Compressibility (1/GPa) = 0.01222928
#
# Stress axis : x y z
#
# Youngs Moduli (GPa) = 53.59297 81.03825 95.87723
#
# Poissons Ratio (x) = 0.59075 0.54140
# Poissons Ratio (y) = 0.39068 0.15948
# Poissons Ratio (z) = 0.30263 0.13480
#
# Static dielectric constant tensor:
#      x y z
#    x 0.000000 0.000000 0.000000 
#    y 0.000000 0.000000 0.000000 
#    z 0.000000 0.000000 0.000000 
# 
# 
# High freq. dielectric constant tensor:
#      x y z
#    x 1.769120 -0.004520 -0.002340 
#    y -0.004520 1.789130 0.003500 
#    z -0.002340 0.003500 1.785990 
# 
# From -- ./inp_files/499904.got.cif
#   From: 2010.06.25/outbox.cif.g09.slc.cpg/sg2_250_cif.got.tgz:499904.got - 2010.06.27 13:26:56.
