data_PCOD8015821
_publ_section_title
;
Structure prediction by ZEFSAII (Michael W. Deem and Ramdas Pophale) SiO2 
 PCOD8015821
Probable space group: P -1
;
_chemical_formula_sum "Si O2"
_cell_formula_units_Z 14
_cell_length_a 22.083759
_cell_length_b 7.001442
_cell_length_c 14.221172
_cell_angle_alpha 93.817197
_cell_angle_beta 158.661803
_cell_angle_gamma 97.942717
_cell_volume 665.998332
_symmetry_space_group_name_H-M "P -1"
_symmetry_group_IT_number 2
_symmetry_cell_setting 'triclinic'
loop_
_space_group_symop_operation_xyz
x,y,z
-x,-y,-z
loop_
_atom_site_type_symbol
_atom_site_label
_atom_site_fract_x
_atom_site_fract_y
_atom_site_fract_z
Si Si1 0.841066 0.733359 0.270246
Si Si2 0.974147 0.634525 0.640260
Si Si3 0.292333 0.549997 0.118419
Si Si4 0.887434 0.906158 0.664596
Si Si5 0.716591 0.681156 0.711354
Si Si6 0.394496 0.548729 0.647321
Si Si7 0.297260 0.815420 0.652334
O O1 0.928711 0.629337 0.464110
O O2 0.814849 0.630897 0.126172
O O3 0.631340 0.676858 0.006111
O O4 0.000000 0.000000 0.500000
O O5 0.941154 0.816964 0.647763
O O6 0.828347 0.380421 0.460065
O O7 0.201788 0.707518 0.990743
O O8 0.530138 0.708132 0.452880
O O9 0.241460 0.411728 0.137075
O O10 0.714545 0.696781 0.467207
O O11 0.816383 0.067655 0.536341
O O12 0.090390 0.065543 0.023773
O O13 0.672282 0.499105 0.559495
O O14 0.329993 0.709919 0.602600
O O15 0.500000 0.000000 0.000000
#
# Coordination Sequence:
#
# PCOD8015821 Si02
#       7
#     2   2   2   2   2   2   2
#     4  11  23  41  67  93 131 165 212 265 321 377
#     4  11  23  41  66  97 127 164 217 261 319 380
#     4  10  22  41  64  94 128 171 212 263 309 381
#     4  11  22  42  66  94 128 170 209 263 320 371
#     4  10  21  43  66  89 134 168 214 260 312 376
#     4  10  24  42  63 100 124 166 215 261 314 386
#     4  11  23  40  68  94 130 166 209 266 323 371
#
# _framework density 21.021073999999999
#
# number of rings (size 3 to 8) (size 9 to 14) (size 15 to 20)
#    0.000    1.429    1.429    3.429    2.000    3.429 
#    7.714    0.000    0.000    0.000    0.000    0.000 
#    0.000    0.000    0.000    0.000    0.000    0.000 
#
# Total GULP energy -173631.070308 kJ/mol
# GULP energy per Si atom -12402.219308 kJ/mol
# Density = 2.097323 g / cm^3
# Si number density = 21.021074 Si / 1000 Ang^3
#
#
#
# Elastic Constant Matrix: (Units=GPa)
#
#
# Indices 1 2 3 4 5 6 
#
# 1 124.5859 69.2725 61.4316 -11.9100 -4.7021 2.9008
# 2 69.2725 138.1868 74.7948 -11.0635 6.6257 -8.3789
# 3 61.4316 74.7948 164.8390 -0.4954 9.5695 4.7641
# 4 -11.9100 -11.0635 -0.4954 37.1622 6.8846 -0.6870
# 5 -4.7021 6.6257 9.5695 6.8846 35.9486 -2.9828
# 6 2.9008 -8.3789 4.7641 -0.6870 -2.9828 23.9411
#
#
#
# Elastic Compliance Matrix: (Units=1/GPa)
#
#
# Indices 1 2 3 4 5 6 
#
# 1 0.012325 -0.004995 -0.002404 0.001903 0.002610 -0.002383
# 2 -0.004995 0.012441 -0.003823 0.002516 -0.001950 0.005549
# 3 -0.002404 -0.003823 0.008896 -0.001486 -0.001951 -0.003103
# 4 0.001903 0.002516 -0.001486 0.029256 -0.005329 0.001121
# 5 0.002610 -0.001950 -0.001951 -0.005329 0.030308 0.003013
# 6 -0.002383 0.005549 -0.003103 0.001121 0.003013 0.045025
#
#
# Mechanical properties :
#
#
# Convention : Reuss Voigt Hill
#
# Bulk Modulus (GPa) = 89.14160 93.17885 91.16022
# Shear Modulus (GPa) = 30.40725 34.21790 32.31257
#
# Velocity S-wave (km/s) = 3.80743 4.03897 3.92491
# Velocity P-wave (km/s) = 7.86299 8.13472 8.00001
#
# Compressibility (1/GPa) = 0.01121811
#
# Stress axis : x y z
#
# Youngs Moduli (GPa) = 81.13589 80.37795 112.41394
#
# Poissons Ratio (x) = 0.40146 0.27023
# Poissons Ratio (y) = 0.40524 0.42980
# Poissons Ratio (z) = 0.19504 0.30732
#
# Static dielectric constant tensor:
#      x y z
#    x 4.048730 -0.065040 0.259390 
#    y -0.065040 3.666150 -0.048170 
#    z 0.259390 -0.048170 3.424870 
# 
# 
# High freq. dielectric constant tensor:
#      x y z
#    x 1.836460 -0.002780 0.004240 
#    y -0.002780 1.812020 -0.002370 
#    z 0.004240 -0.002370 1.843120 
# 
# From -- ./inp_files/78205.got.cif
#   From: 2010.06.25/outbox.cif.g09.slc.cpg/sg2_40_cif.got.tgz:78205.got - 2010.06.27 13:26:56.
