data_PCOD8015539
_publ_section_title
;
Structure prediction by ZEFSAII (Michael W. Deem and Ramdas Pophale) SiO2 
 PCOD8015539
Probable space group: P -1
;
_chemical_formula_sum "Si O2"
_cell_formula_units_Z 14
_cell_length_a 6.004555
_cell_length_b 4.963492
_cell_length_c 21.357295
_cell_angle_alpha 69.018107
_cell_angle_beta 96.437703
_cell_angle_gamma 99.406910
_cell_volume 585.332378
_symmetry_space_group_name_H-M "P -1"
_symmetry_group_IT_number 2
_symmetry_cell_setting 'triclinic'
loop_
_space_group_symop_operation_xyz
x,y,z
-x,-y,-z
loop_
_atom_site_type_symbol
_atom_site_label
_atom_site_fract_x
_atom_site_fract_y
_atom_site_fract_z
Si Si1 0.584245 0.399125 0.415326
Si Si2 0.682350 0.285569 0.033167
Si Si3 0.452908 0.586841 0.262861
Si Si4 0.228404 0.175966 0.517713
Si Si5 0.796331 0.856236 0.162061
Si Si6 0.897599 0.373150 0.912177
Si Si7 0.206671 0.149406 0.210118
O O1 0.553864 0.561922 0.336481
O O2 0.351806 0.372224 0.449683
O O3 0.786900 0.597230 0.443986
O O4 0.630621 0.071616 0.431363
O O5 0.900911 0.458139 0.056683
O O6 0.618596 0.014762 0.101440
O O7 0.500000 0.500000 0.000000
O O8 0.747374 0.166248 0.975661
O O9 0.652058 0.590821 0.216321
O O10 0.266776 0.307336 0.265977
O O11 0.351690 0.887556 0.228064
O O12 0.000000 0.000000 0.500000
O O13 0.000905 0.786352 0.129401
O O14 0.935030 0.051664 0.204724
O O15 0.733936 0.599674 0.861854
#
# Coordination Sequence:
#
# PCOD8015539 Si02
#       7
#     2   2   2   2   2   2   2
#     4  10  23  41  64 104 132 170 226 266 307 401
#     4  10  22  39  66  92 125 172 221 281 342 391
#     4  12  26  42  70  97 137 177 218 270 338 385
#     4  10  21  42  70  96 138 174 216 267 323 367
#     4  11  25  42  67  93 135 171 225 274 337 410
#     4  10  22  42  62  94 128 168 226 279 329 405
#     4  11  25  44  64  94 133 175 217 277 328 399
#
# _framework density 23.918033999999999
#
# number of rings (size 3 to 8) (size 9 to 14) (size 15 to 20)
#    0.000    1.429    1.429    2.571    6.000    2.857 
#    0.000    0.000    0.000    0.000    0.000    0.000 
#    0.000    0.000    0.000    0.000    0.000    0.000 
#
# Total GULP energy -173463.127100 kJ/mol
# GULP energy per Si atom -12390.223364 kJ/mol
# Density = 2.386360 g / cm^3
# Si number density = 23.918034 Si / 1000 Ang^3
#
#
#
# Elastic Constant Matrix: (Units=GPa)
#
#
# Indices 1 2 3 4 5 6 
#
# 1 58.3718 19.9416 59.6232 4.0676 2.9581 -6.6190
# 2 19.9416 112.4349 36.5693 13.4319 -0.2661 0.6677
# 3 59.6232 36.5693 154.5214 1.5029 0.8922 -0.2319
# 4 4.0676 13.4319 1.5029 36.2896 4.4185 12.2744
# 5 2.9581 -0.2661 0.8922 4.4185 23.8352 2.9730
# 6 -6.6190 0.6677 -0.2319 12.2744 2.9730 39.8263
#
#
#
# Elastic Compliance Matrix: (Units=1/GPa)
#
#
# Indices 1 2 3 4 5 6 
#
# 1 0.030366 -0.001227 -0.011355 -0.004292 -0.003382 0.006576
# 2 -0.001227 0.010199 -0.001907 -0.003932 0.000972 0.000753
# 3 -0.011355 -0.001907 0.011273 0.002270 0.000864 -0.002554
# 4 -0.004292 -0.003932 0.002270 0.033543 -0.004488 -0.010637
# 5 -0.003382 0.000972 0.000864 -0.004488 0.043489 -0.002437
# 6 0.006576 0.000753 -0.002554 -0.010637 -0.002437 0.029635
#
#
# Mechanical properties :
#
#
# Convention : Reuss Voigt Hill
#
# Bulk Modulus (GPa) = 43.74279 61.95513 52.84896
# Shear Modulus (GPa) = 25.62758 33.93648 29.78203
#
# Velocity S-wave (km/s) = 3.27689 3.77087 3.53253
# Velocity P-wave (km/s) = 5.71364 6.70214 6.22753
#
# Compressibility (1/GPa) = 0.02286091
#
# Stress axis : x y z
#
# Youngs Moduli (GPa) = 32.93196 98.04604 88.70367
#
# Poissons Ratio (x) = 0.12027 1.00726
# Poissons Ratio (y) = 0.04040 0.16913
# Poissons Ratio (z) = 0.37395 0.18694
#
# Static dielectric constant tensor:
#      x y z
#    x 4.370670 -0.017460 0.189900 
#    y -0.017460 4.550270 0.071530 
#    z 0.189900 0.071530 4.513460 
# 
# 
# High freq. dielectric constant tensor:
#      x y z
#    x 1.931530 0.011150 0.020800 
#    y 0.011150 1.958090 0.005390 
#    z 0.020800 0.005390 1.945580 
# 
# From -- ./inp_files/580943.got.cif
#   From: 2010.06.25/outbox.cif.g09.slc.cpg/sg2_291_cif.got.tgz:580943.got - 2010.06.27 13:26:56.
