data_PCOD8015778
_publ_section_title
;
Structure prediction by ZEFSAII (Michael W. Deem and Ramdas Pophale) SiO2 
 PCOD8015778
Probable space group: P -1
;
_chemical_formula_sum "Si O2"
_cell_formula_units_Z 16
_cell_length_a 18.709547
_cell_length_b 16.306966
_cell_length_c 11.101090
_cell_angle_alpha 157.054703
_cell_angle_beta 44.765115
_cell_angle_gamma 143.724090
_cell_volume 773.499443
_symmetry_space_group_name_H-M "P -1"
_symmetry_group_IT_number 2
_symmetry_cell_setting 'triclinic'
loop_
_space_group_symop_operation_xyz
x,y,z
-x,-y,-z
loop_
_atom_site_type_symbol
_atom_site_label
_atom_site_fract_x
_atom_site_fract_y
_atom_site_fract_z
Si Si1 0.875139 0.970950 0.258015
Si Si2 0.446317 0.034758 0.347321
Si Si3 0.466089 0.254452 0.275512
Si Si4 0.247668 0.929256 0.257800
Si Si5 0.294116 0.985387 0.674041
Si Si6 0.864092 0.515764 0.381777
Si Si7 0.123234 0.531511 0.433973
Si Si8 0.373824 0.493448 0.352853
O O1 0.822990 0.967485 0.447833
O O2 0.792263 0.976757 0.259914
O O3 0.881865 0.727421 0.913667
O O4 0.008930 0.217969 0.418577
O O5 0.332052 0.902547 0.214570
O O6 0.394452 0.971499 0.458975
O O7 0.537964 0.339043 0.637163
O O8 0.528530 0.926982 0.072796
O O9 0.500000 0.500000 0.500000
O O10 0.564053 0.332366 0.369103
O O11 0.330293 0.120109 0.310212
O O12 0.149520 0.658450 0.949757
O O13 0.227616 0.736414 0.497984
O O14 0.364009 0.229410 0.008143
O O15 0.854039 0.374616 0.328033
O O16 0.761115 0.573288 0.583461
O O17 0.000000 0.500000 0.500000
#
# Coordination Sequence:
#
# PCOD8015778 Si02
#       8
#     2   2   2   2   2   2   2   2
#     4  11  24  43  66  94 130 168 210 269 321 366
#     4  10  21  43  65  91 128 168 210 260 322 376
#     4  11  23  40  64  95 131 165 209 265 319 378
#     4  10  22  42  67  90 123 170 214 257 318 383
#     4  11  24  41  66  96 130 167 212 267 311 378
#     4  12  21  42  69  91 127 169 217 257 318 382
#     4  12  25  43  64  95 132 169 215 258 319 380
#     4  11  21  41  66  93 124 173 214 253 322 382
#
# _framework density 20.685212
#
# number of rings (size 3 to 8) (size 9 to 14) (size 15 to 20)
#    0.000    1.000    5.000    2.625    3.500    0.000 
#    0.000    1.875    0.000    0.000    0.000    0.000 
#    0.000    0.000    0.000    0.000    0.000    0.000 
#
# Total GULP energy -198388.346274 kJ/mol
# GULP energy per Si atom -12399.271642 kJ/mol
# Density = 2.063813 g / cm^3
# Si number density = 20.685212 Si / 1000 Ang^3
#
#
#
# Elastic Constant Matrix: (Units=GPa)
#
#
# Indices 1 2 3 4 5 6 
#
# 1 31.2520 20.1768 20.1802 -7.3975 -10.5025 1.1099
# 2 20.1768 138.4430 40.5084 0.5470 -8.7602 -3.2895
# 3 20.1802 40.5084 105.0564 0.8983 2.8655 -5.5344
# 4 -7.3975 0.5470 0.8983 38.4963 -4.0347 -2.6084
# 5 -10.5025 -8.7602 2.8655 -4.0347 26.6171 9.6669
# 6 1.1099 -3.2895 -5.5344 -2.6084 9.6669 22.6200
#
#
#
# Elastic Compliance Matrix: (Units=1/GPa)
#
#
# Indices 1 2 3 4 5 6 
#
# 1 0.055116 -0.003330 -0.011144 0.012880 0.030082 -0.017286
# 2 -0.003330 0.008620 -0.002731 -0.000518 0.001762 -0.000064
# 3 -0.011144 -0.002731 0.013390 -0.002952 -0.009832 0.007287
# 4 0.012880 -0.000518 -0.002952 0.029468 0.010631 -0.002575
# 5 0.030082 0.001762 -0.009832 0.010631 0.063401 -0.029494
# 6 -0.017286 -0.000064 0.007287 -0.002575 -0.029494 0.059138
#
#
# Mechanical properties :
#
#
# Convention : Reuss Voigt Hill
#
# Bulk Modulus (GPa) = 23.41123 48.49802 35.95463
# Shear Modulus (GPa) = 17.99983 30.47242 24.23613
#
# Velocity S-wave (km/s) = 2.95308 3.84233 3.42667
# Velocity P-wave (km/s) = 4.79270 6.57125 5.75114
#
# Compressibility (1/GPa) = 0.04271454
#
# Stress axis : x y z
#
# Youngs Moduli (GPa) = 18.14362 116.01518 74.68419
#
# Poissons Ratio (x) = 0.38632 0.83231
# Poissons Ratio (y) = 0.06042 0.20396
# Poissons Ratio (z) = 0.20220 0.31683
#
# Static dielectric constant tensor:
#      x y z
#    x 3.222520 0.177950 0.225730 
#    y 0.177950 3.922730 -0.163790 
#    z 0.225730 -0.163790 4.080850 
# 
# 
# High freq. dielectric constant tensor:
#      x y z
#    x 1.793050 0.001730 0.012990 
#    y 0.001730 1.826420 -0.001400 
#    z 0.012990 -0.001400 1.816090 
# 
# From -- ./inp_files/258704.got.cif
#   From: 2010.06.25/outbox.cif.g09.slc.cpg/sg2_130_cif.got.tgz:258704.got - 2010.06.27 13:26:56.
