data_PCOD8015999
_publ_section_title
;
Structure prediction by ZEFSAII (Michael W. Deem and Ramdas Pophale) SiO2 
 PCOD8015999
Probable space group: P -1
;
_chemical_formula_sum "Si O2"
_cell_formula_units_Z 14
_cell_length_a 11.754693
_cell_length_b 9.133694
_cell_length_c 12.461360
_cell_angle_alpha 79.824866
_cell_angle_beta 60.458524
_cell_angle_gamma 36.027428
_cell_volume 616.772110
_symmetry_space_group_name_H-M "P -1"
_symmetry_group_IT_number 2
_symmetry_cell_setting 'triclinic'
loop_
_space_group_symop_operation_xyz
x,y,z
-x,-y,-z
loop_
_atom_site_type_symbol
_atom_site_label
_atom_site_fract_x
_atom_site_fract_y
_atom_site_fract_z
Si Si1 0.947410 0.419797 0.889706
Si Si2 0.751525 0.260724 0.677704
Si Si3 0.529479 0.616769 0.037112
Si Si4 0.320336 0.067080 0.944967
Si Si5 0.268375 0.820903 0.536366
Si Si6 0.201758 0.203579 0.578898
Si Si7 0.700109 0.652522 0.645108
O O1 0.099481 0.240103 0.947437
O O2 0.119670 0.310976 0.726381
O O3 0.807921 0.403885 0.923467
O O4 0.733124 0.738703 0.981295
O O5 0.542179 0.359010 0.813069
O O6 0.787436 0.131008 0.570437
O O7 0.644126 0.530655 0.670061
O O8 0.993872 0.032124 0.672844
O O9 0.500000 0.500000 0.000000
O O10 0.342358 0.914558 0.038489
O O11 0.556867 0.859189 0.786609
O O12 0.500000 0.500000 0.500000
O O13 0.339997 0.913624 0.538890
O O14 0.357812 0.195115 0.458188
O O15 0.979579 0.399981 0.575350
#
# Coordination Sequence:
#
# PCOD8015999 Si02
#       7
#     2   2   2   2   2   2   2
#     4  11  26  44  67 101 133 176 225 275 330 400
#     4  10  23  42  63  97 133 169 220 270 333 394
#     4  12  23  43  70  96 135 179 215 276 334 395
#     4  11  25  44  67 101 133 176 228 269 334 395
#     4  10  23  42  64  97 133 172 218 272 334 396
#     4  10  22  41  71  94 129 175 222 274 331 391
#     4  10  21  43  68  96 129 174 223 272 329 393
#
# _framework density 22.698822
#
# number of rings (size 3 to 8) (size 9 to 14) (size 15 to 20)
#    0.000    1.429    2.857    1.286    4.000    5.714 
#    2.571    0.000    0.000    0.000    0.000    0.000 
#    0.000    0.000    0.000    0.000    0.000    0.000 
#
# Total GULP energy -173478.689534 kJ/mol
# GULP energy per Si atom -12391.334967 kJ/mol
# Density = 2.264716 g / cm^3
# Si number density = 22.698822 Si / 1000 Ang^3
#
#
#
# Elastic Constant Matrix: (Units=GPa)
#
#
# Indices 1 2 3 4 5 6 
#
# 1 82.3784 23.8662 37.9459 -0.4569 2.4380 18.5532
# 2 23.8662 108.4497 37.5841 -0.1501 -10.5272 16.6285
# 3 37.9459 37.5841 144.1180 -11.4238 -2.0744 26.2002
# 4 -0.4569 -0.1501 -11.4238 37.6079 5.9885 5.3201
# 5 2.4380 -10.5272 -2.0744 5.9885 35.0538 6.2913
# 6 18.5532 16.6285 26.2002 5.3201 6.2913 23.7810
#
#
#
# Elastic Compliance Matrix: (Units=1/GPa)
#
#
# Indices 1 2 3 4 5 6 
#
# 1 0.015514 -0.001327 -0.002011 0.000881 -0.000109 -0.009128
# 2 -0.001327 0.011466 -0.001378 -0.000192 0.004682 -0.006660
# 3 -0.002011 -0.001378 0.009940 0.004147 0.001347 -0.009703
# 4 0.000881 -0.000192 0.004147 0.029897 -0.003004 -0.011016
# 5 -0.000109 0.004682 0.001347 -0.003004 0.032810 -0.012681
# 6 -0.009128 -0.006660 -0.009703 -0.011016 -0.012681 0.070337
#
#
# Mechanical properties :
#
#
# Convention : Reuss Voigt Hill
#
# Bulk Modulus (GPa) = 36.37984 59.30428 47.84206
# Shear Modulus (GPa) = 26.51713 34.99186 30.75450
#
# Velocity S-wave (km/s) = 3.42163 3.93054 3.68488
# Velocity P-wave (km/s) = 5.62779 6.83975 6.26316
#
# Compressibility (1/GPa) = 0.02748776
#
# Stress axis : x y z
#
# Youngs Moduli (GPa) = 64.45872 87.21646 100.60735
#
# Poissons Ratio (x) = 0.11572 0.20232
# Poissons Ratio (y) = 0.08553 0.13863
# Poissons Ratio (z) = 0.12962 0.12018
#
# Static dielectric constant tensor:
#      x y z
#    x 4.097890 0.156510 0.096080 
#    y 0.156510 4.427710 0.136410 
#    z 0.096080 0.136410 4.162590 
# 
# 
# High freq. dielectric constant tensor:
#      x y z
#    x 1.899790 -0.001680 0.007770 
#    y -0.001680 1.899960 0.007850 
#    z 0.007770 0.007850 1.895210 
# 
# From -- ./inp_files/515319.got.cif
#   From: 2010.06.25/outbox.cif.g09.slc.cpg/sg2_258_cif.got.tgz:515319.got - 2010.06.27 13:26:56.
