data_PCOD8015007
_publ_section_title
;
Structure prediction by ZEFSAII (Michael W. Deem and Ramdas Pophale) SiO2 
 PCOD8015007
Probable space group: P -1
;
_chemical_formula_sum "Si O2"
_cell_formula_units_Z 14
_cell_length_a 20.477600
_cell_length_b 15.372408
_cell_length_c 20.368765
_cell_angle_alpha 26.180817
_cell_angle_beta 13.833229
_cell_angle_gamma 23.010058
_cell_volume 598.800635
_symmetry_space_group_name_H-M "P -1"
_symmetry_group_IT_number 2
_symmetry_cell_setting 'triclinic'
loop_
_space_group_symop_operation_xyz
x,y,z
-x,-y,-z
loop_
_atom_site_type_symbol
_atom_site_label
_atom_site_fract_x
_atom_site_fract_y
_atom_site_fract_z
Si Si1 0.468616 0.756652 0.434621
Si Si2 0.298247 0.224954 0.232575
Si Si3 0.179182 0.927799 0.941891
Si Si4 0.403218 0.951632 0.197317
Si Si5 0.915812 0.296452 0.264526
Si Si6 0.614999 0.517003 0.723657
Si Si7 0.570233 0.170648 0.429484
O O1 0.784946 0.557005 0.232522
O O2 0.460015 0.713239 0.549590
O O3 0.437875 0.002189 0.290949
O O4 0.189685 0.745715 0.675164
O O5 0.982137 0.423463 0.434811
O O6 0.229594 0.176422 0.257523
O O7 0.557879 0.303861 0.926463
O O8 0.454266 0.676952 0.835056
O O9 0.315650 0.090962 0.719553
O O10 0.000000 0.000000 0.000000
O O11 0.916038 0.959970 0.230015
O O12 0.195141 0.822564 0.489159
O O13 0.718534 0.800393 0.030918
O O14 0.500000 0.000000 0.000000
O O15 0.477348 0.645273 0.703271
#
# Coordination Sequence:
#
# PCOD8015007 Si02
#       7
#     2   2   2   2   2   2   2
#     4  10  25  44  66  96 134 175 220 255 327 388
#     4  11  24  40  61  95 130 170 201 271 322 376
#     4  10  21  42  64  97 128 164 211 277 324 372
#     4  11  24  40  66  95 131 163 225 266 318 375
#     4  10  24  44  65  89 135 181 204 268 319 380
#     4  11  22  41  66  91 129 165 211 267 328 366
#     4  11  23  39  71  95 123 169 227 260 309 403
#
# _framework density 23.380068999999999
#
# number of rings (size 3 to 8) (size 9 to 14) (size 15 to 20)
#    0.000    1.429    0.000    6.429    4.000   10.857 
#    0.000    4.286    0.000    0.000    0.000    0.000 
#    0.000    0.000    0.000    0.000    0.000    0.000 
#
# Total GULP energy -173582.271617 kJ/mol
# GULP energy per Si atom -12398.733687 kJ/mol
# Density = 2.332686 g / cm^3
# Si number density = 23.380069 Si / 1000 Ang^3
#
#
#
# Elastic Constant Matrix: (Units=GPa)
#
#
# Indices 1 2 3 4 5 6 
#
# 1 73.6942 22.3032 6.4721 -5.6435 4.3143 13.6823
# 2 22.3032 99.1090 10.0195 5.2348 -2.1896 6.6971
# 3 6.4721 10.0195 83.5177 -0.1542 0.1766 1.1753
# 4 -5.6435 5.2348 -0.1542 46.3903 -5.4154 4.6224
# 5 4.3143 -2.1896 0.1766 -5.4154 11.7997 -3.5547
# 6 13.6823 6.6971 1.1753 4.6224 -3.5547 27.6588
#
#
#
# Elastic Compliance Matrix: (Units=1/GPa)
#
#
# Indices 1 2 3 4 5 6 
#
# 1 0.017043 -0.003460 -0.000756 0.002371 -0.008500 -0.009049
# 2 -0.003460 0.011131 -0.001070 -0.001337 0.002619 -0.000378
# 3 -0.000756 -0.001070 0.012159 0.000053 -0.000049 0.000101
# 4 0.002371 -0.001337 0.000053 0.023353 0.008499 -0.003662
# 5 -0.008500 0.002619 -0.000049 0.008499 0.096633 0.014572
# 6 -0.009049 -0.000378 0.000101 -0.003662 0.014572 0.043203
#
#
# Mechanical properties :
#
#
# Convention : Reuss Voigt Hill
#
# Bulk Modulus (GPa) = 33.60169 37.10117 35.35143
# Shear Modulus (GPa) = 22.32005 31.67149 26.99577
#
# Velocity S-wave (km/s) = 3.09311 3.68453 3.40170
# Velocity P-wave (km/s) = 5.21149 5.83131 5.53009
#
# Compressibility (1/GPa) = 0.02976041
#
# Stress axis : x y z
#
# Youngs Moduli (GPa) = 58.67677 89.84092 82.24209
#
# Poissons Ratio (x) = 0.31088 0.06216
# Poissons Ratio (y) = 0.20304 0.08799
# Poissons Ratio (z) = 0.04435 0.09612
#
# Static dielectric constant tensor:
#      x y z
#    x 4.079940 -0.018610 0.002320 
#    y -0.018610 5.287610 0.751760 
#    z 0.002320 0.751760 4.554530 
# 
# 
# High freq. dielectric constant tensor:
#      x y z
#    x 1.901340 0.009910 0.005880 
#    y 0.009910 1.934150 0.009380 
#    z 0.005880 0.009380 1.937130 
# 
# From -- ./inp_files/621341.got.cif
#   From: 2010.06.25/outbox.cif.g09.slc.cpg/sg2_311_cif.got.tgz:621341.got - 2010.06.27 13:26:56.
