data_PCOD8015613
_publ_section_title
;
Structure prediction by ZEFSAII (Michael W. Deem and Ramdas Pophale) SiO2 
 PCOD8015613
Probable space group: P -1
;
_chemical_formula_sum "Si O2"
_cell_formula_units_Z 16
_cell_length_a 16.889281
_cell_length_b 9.788480
_cell_length_c 7.761223
_cell_angle_alpha 63.432911
_cell_angle_beta 118.058154
_cell_angle_gamma 67.354293
_cell_volume 664.831207
_symmetry_space_group_name_H-M "P -1"
_symmetry_group_IT_number 2
_symmetry_cell_setting 'triclinic'
loop_
_space_group_symop_operation_xyz
x,y,z
-x,-y,-z
loop_
_atom_site_type_symbol
_atom_site_label
_atom_site_fract_x
_atom_site_fract_y
_atom_site_fract_z
Si Si1 0.338785 0.737830 0.188561
Si Si2 0.102332 0.824358 0.854612
Si Si3 0.933481 0.392056 0.841015
Si Si4 0.401233 0.979457 0.612444
Si Si5 0.713379 0.881151 0.233845
Si Si6 0.869771 0.255269 0.561395
Si Si7 0.234893 0.928147 0.351055
Si Si8 0.688397 0.715166 0.961202
O O1 0.500000 0.500000 0.500000
O O2 0.284132 0.864036 0.242989
O O3 0.256119 0.691936 0.067521
O O4 0.304221 0.914634 0.916679
O O5 0.095829 0.649416 0.979147
O O6 0.000000 0.000000 0.500000
O O7 0.029080 0.003201 0.844307
O O8 0.864492 0.647093 0.600421
O O9 0.850675 0.383023 0.636882
O O10 0.091550 0.203532 0.061314
O O11 0.390832 0.045487 0.765100
O O12 0.310799 0.203026 0.267891
O O13 0.345324 0.878570 0.603541
O O14 0.554897 0.783449 0.813446
O O15 0.690390 0.835042 0.050826
O O16 0.774685 0.228352 0.491628
O O17 0.814743 0.432443 0.246887
#
# Coordination Sequence:
#
# PCOD8015613 Si02
#       8
#     2   2   2   2   2   2   2   2
#     4  12  27  45  69 104 146 186 232 291 357 423
#     4  11  24  42  67 104 139 180 238 285 346 419
#     4  10  22  45  73  93 132 187 232 288 344 413
#     4  11  25  42  65  99 143 176 239 286 347 430
#     4  11  26  45  69 102 136 187 237 286 354 416
#     4  10  21  42  72  92 127 186 230 277 349 405
#     4  11  22  45  66  99 136 177 232 287 347 413
#     4  10  24  45  67  96 136 194 223 290 353 415
#
# _framework density 24.066258999999999
#
# number of rings (size 3 to 8) (size 9 to 14) (size 15 to 20)
#    0.000    1.250    3.750    1.125    7.000    4.500 
#    0.000    0.000    0.000    0.000    0.000    0.000 
#    0.000    0.000    0.000    0.000    0.000    0.000 
#
# Total GULP energy -198343.994760 kJ/mol
# GULP energy per Si atom -12396.499673 kJ/mol
# Density = 2.401148 g / cm^3
# Si number density = 24.066259 Si / 1000 Ang^3
#
#
#
# Elastic Constant Matrix: (Units=GPa)
#
#
# Indices 1 2 3 4 5 6 
#
# 1 125.6383 28.9403 49.2905 -5.8827 0.4807 -4.7308
# 2 28.9403 34.0207 14.1181 -3.9433 -2.8503 -3.6804
# 3 49.2905 14.1181 106.6190 -13.1894 -11.3259 -1.3054
# 4 -5.8827 -3.9433 -13.1894 30.2365 4.4863 -3.4036
# 5 0.4807 -2.8503 -11.3259 4.4863 52.0988 8.3488
# 6 -4.7308 -3.6804 -1.3054 -3.4036 8.3488 31.7033
#
#
#
# Elastic Compliance Matrix: (Units=1/GPa)
#
#
# Indices 1 2 3 4 5 6 
#
# 1 0.011618 -0.008087 -0.004514 -0.000405 -0.001657 0.001002
# 2 -0.008087 0.037351 -0.000646 0.003190 0.001201 0.003129
# 3 -0.004514 -0.000646 0.012296 0.003993 0.002407 -0.000448
# 4 -0.000405 0.003190 0.003993 0.036156 -0.002887 0.005116
# 5 -0.001657 0.001201 0.002407 -0.002887 0.020984 -0.005844
# 6 0.001002 0.003129 -0.000448 0.005116 -0.005844 0.034125
#
#
# Mechanical properties :
#
#
# Convention : Reuss Voigt Hill
#
# Bulk Modulus (GPa) = 28.76129 50.10841 39.43485
# Shear Modulus (GPa) = 26.23082 34.40299 30.31691
#
# Velocity S-wave (km/s) = 3.30501 3.78499 3.55311
# Velocity P-wave (km/s) = 5.15179 6.32201 5.76666
#
# Compressibility (1/GPa) = 0.03476896
#
# Stress axis : x y z
#
# Youngs Moduli (GPa) = 86.07075 26.77328 81.32774
#
# Poissons Ratio (x) = 0.21653 0.36712
# Poissons Ratio (y) = 0.69609 0.05258
# Poissons Ratio (z) = 0.38853 0.01731
#
# Static dielectric constant tensor:
#      x y z
#    x 4.453890 -0.154600 -0.201450 
#    y -0.154600 4.351810 -0.038260 
#    z -0.201450 -0.038260 4.469480 
# 
# 
# High freq. dielectric constant tensor:
#      x y z
#    x 1.956310 -0.009230 -0.015130 
#    y -0.009230 1.948830 0.003530 
#    z -0.015130 0.003530 1.959030 
# 
# From -- ./inp_files/306530.got.cif
#   From: 2010.06.25/outbox.cif.g09.slc.cpg/sg2_154_cif.got.tgz:306530.got - 2010.06.27 13:26:56.
