data_PCOD8015741
_publ_section_title
;
Structure prediction by ZEFSAII (Michael W. Deem and Ramdas Pophale) SiO2 
 PCOD8015741
Probable space group: P -1
;
_chemical_formula_sum "Si O2"
_cell_formula_units_Z 12
_cell_length_a 17.362027
_cell_length_b 20.505737
_cell_length_c 5.337401
_cell_angle_alpha 55.466104
_cell_angle_beta 56.443085
_cell_angle_gamma 18.813469
_cell_volume 503.885314
_symmetry_space_group_name_H-M "P -1"
_symmetry_group_IT_number 2
_symmetry_cell_setting 'triclinic'
loop_
_space_group_symop_operation_xyz
x,y,z
-x,-y,-z
loop_
_atom_site_type_symbol
_atom_site_label
_atom_site_fract_x
_atom_site_fract_y
_atom_site_fract_z
Si Si1 0.520564 0.726431 0.360370
Si Si2 0.219411 0.248417 0.719739
Si Si3 0.648208 0.797758 0.917620
Si Si4 0.220996 0.825089 0.797749
Si Si5 0.797226 0.465245 0.934533
Si Si6 0.334984 0.595188 0.798411
O O1 0.268112 0.878269 0.507982
O O2 0.681151 0.588577 0.618990
O O3 0.484272 0.849211 0.128666
O O4 0.634916 0.604827 0.164881
O O5 0.201275 0.324152 0.351168
O O6 0.046202 0.311295 0.864787
O O7 0.487988 0.002886 0.762394
O O8 0.174158 0.331762 0.880162
O O9 0.162697 0.804228 0.739608
O O10 0.481225 0.589569 0.934318
O O11 0.000000 0.000000 0.000000
O O12 0.842075 0.335017 0.122565
O O13 0.500000 0.500000 0.500000
#
# Coordination Sequence:
#
# PCOD8015741 Si02
#       6
#     2   2   2   2   2   2
#     4  11  23  41  63  95 127 162 218 265 312 390
#     4  10  22  41  61  90 125 168 206 257 327 376
#     4  10  22  41  61  90 128 160 212 264 308 390
#     4  10  23  43  64  96 129 173 217 266 328 384
#     4  11  23  40  65  93 127 169 210 260 329 375
#     4  10  21  43  64  91 135 167 214 273 316 393
#
# _framework density 23.814941000000001
#
# number of rings (size 3 to 8) (size 9 to 14) (size 15 to 20)
#    0.000    1.667    1.667    2.000    0.000    6.000 
#   15.000    0.000    0.000    0.000    0.000    0.000 
#    0.000    0.000    0.000    0.000    0.000    0.000 
#
# Total GULP energy -148702.262130 kJ/mol
# GULP energy per Si atom -12391.855177 kJ/mol
# Density = 2.376074 g / cm^3
# Si number density = 23.814941 Si / 1000 Ang^3
#
#
#
# Elastic Constant Matrix: (Units=GPa)
#
#
# Indices 1 2 3 4 5 6 
#
# 1 184.9413 34.9664 90.4813 24.5118 -15.6189 11.6009
# 2 34.9664 48.1517 31.0210 22.9821 3.6019 1.7534
# 3 90.4813 31.0210 167.9448 41.1245 -2.7811 5.8535
# 4 24.5118 22.9821 41.1245 44.2359 10.1682 -5.6050
# 5 -15.6189 3.6019 -2.7811 10.1682 73.3158 7.7934
# 6 11.6009 1.7534 5.8535 -5.6050 7.7934 36.3802
#
#
#
# Elastic Compliance Matrix: (Units=1/GPa)
#
#
# Indices 1 2 3 4 5 6 
#
# 1 0.008189 -0.003674 -0.003612 -0.000029 0.002036 -0.002293
# 2 -0.003674 0.030208 -0.000139 -0.013804 -0.000106 -0.002366
# 3 -0.003612 -0.000139 0.009833 -0.007482 0.000835 -0.001755
# 4 -0.000029 -0.013804 -0.007482 0.039308 -0.006045 0.009229
# 5 0.002036 -0.000106 0.000835 -0.006045 0.015483 -0.005026
# 6 -0.002293 -0.002366 -0.001755 0.009229 -0.005026 0.031114
#
#
# Mechanical properties :
#
#
# Convention : Reuss Voigt Hill
#
# Bulk Modulus (GPa) = 29.95953 79.33059 54.64506
# Shear Modulus (GPa) = 31.22798 47.09100 39.15949
#
# Velocity S-wave (km/s) = 3.62508 4.45159 4.05943
# Velocity P-wave (km/s) = 5.48900 7.73342 6.70578
#
# Compressibility (1/GPa) = 0.03337836
#
# Stress axis : x y z
#
# Youngs Moduli (GPa) = 122.11900 33.10371 101.69536
#
# Poissons Ratio (x) = 0.12163 0.36736
# Poissons Ratio (y) = 0.44869 0.01417
# Poissons Ratio (z) = 0.44114 0.00461
#
# Static dielectric constant tensor:
#      x y z
#    x 4.588810 -0.022400 0.105740 
#    y -0.022400 3.562990 0.183670 
#    z 0.105740 0.183670 4.542040 
# 
# 
# High freq. dielectric constant tensor:
#      x y z
#    x 1.966970 0.008310 -0.003750 
#    y 0.008310 1.921050 0.003760 
#    z -0.003750 0.003760 1.962760 
# 
# From -- ./inp_files/29360.got.cif
#   From: 2010.06.25/outbox.cif.g09.slc.cpg/sg2_15_cif.got.tgz:29360.got - 2010.06.27 13:26:56.
