data_PCOD8015446
_publ_section_title
;
Structure prediction by ZEFSAII (Michael W. Deem and Ramdas Pophale) SiO2 
 PCOD8015446
Probable space group: P -1
;
_chemical_formula_sum "Si O2"
_cell_formula_units_Z 12
_cell_length_a 5.046095
_cell_length_b 20.150636
_cell_length_c 5.455701
_cell_angle_alpha 107.915306
_cell_angle_beta 92.433693
_cell_angle_gamma 59.184860
_cell_volume 448.808530
_symmetry_space_group_name_H-M "P -1"
_symmetry_group_IT_number 2
_symmetry_cell_setting 'triclinic'
loop_
_space_group_symop_operation_xyz
x,y,z
-x,-y,-z
loop_
_atom_site_type_symbol
_atom_site_label
_atom_site_fract_x
_atom_site_fract_y
_atom_site_fract_z
Si Si1 0.676046 0.498440 0.757350
Si Si2 0.244517 0.261680 0.133230
Si Si3 0.764464 0.258832 0.420900
Si Si4 0.746852 0.633575 0.125350
Si Si5 0.474087 0.912135 0.252486
Si Si6 0.014780 0.086727 0.430726
O O1 0.500000 0.500000 0.500000
O O2 0.021713 0.416940 0.696742
O O3 0.500000 0.500000 0.000000
O O4 0.725146 0.574970 0.855480
O O5 0.497503 0.283685 0.241540
O O6 0.979950 0.291232 0.363969
O O7 0.118346 0.313410 0.934358
O O8 0.406477 0.164292 0.007916
O O9 0.604092 0.304047 0.719589
O O10 0.957028 0.160342 0.338387
O O11 0.774607 0.916350 0.337248
O O12 0.312847 0.898483 0.468520
O O13 0.216753 0.997307 0.204812
#
# Coordination Sequence:
#
# PCOD8015446 Si02
#       6
#     2   2   2   2   2   2
#     4  11  30  55  89 118 164 218 266 340 426 508
#     4  12  28  45  78 115 155 210 266 331 406 477
#     4  12  28  45  78 115 155 210 266 331 406 477
#     4  11  30  52  77 120 166 196 277 332 416 495
#     4  10  21  42  69 103 154 209 264 327 395 468
#     4  10  21  42  69 103 154 209 264 327 395 468
#
# _framework density 26.737461
#
# number of rings (size 3 to 8) (size 9 to 14) (size 15 to 20)
#    0.000    1.000    1.667    2.000    9.333    2.667 
#    0.000    2.500    0.000    0.000    0.000    0.000 
#    0.000    0.000    0.000    0.000    0.000    0.000 
#
# Total GULP energy -148765.147674 kJ/mol
# GULP energy per Si atom -12397.095639 kJ/mol
# Density = 2.667661 g / cm^3
# Si number density = 26.737461 Si / 1000 Ang^3
#
#
#
# Elastic Constant Matrix: (Units=GPa)
#
#
# Indices 1 2 3 4 5 6 
#
# 1 113.2762 61.7905 34.4239 -8.7737 -14.3916 3.6286
# 2 61.7905 180.5892 60.1658 8.4730 -15.1269 6.8957
# 3 34.4239 60.1658 104.8704 -6.8358 -0.3962 2.5324
# 4 -8.7737 8.4730 -6.8358 34.7894 4.0038 3.8534
# 5 -14.3916 -15.1269 -0.3962 4.0038 50.6947 -11.3529
# 6 3.6286 6.8957 2.5324 3.8534 -11.3529 25.8971
#
#
#
# Elastic Compliance Matrix: (Units=1/GPa)
#
#
# Indices 1 2 3 4 5 6 
#
# 1 0.011716 -0.003439 -0.001649 0.003259 0.001990 -0.000177
# 2 -0.003439 0.008347 -0.003906 -0.003874 0.001790 0.000003
# 3 -0.001649 -0.003906 0.012565 0.003402 -0.002116 -0.001391
# 4 0.003259 -0.003874 0.003402 0.032372 -0.004197 -0.006415
# 5 0.001990 0.001790 -0.002116 -0.004197 0.023460 0.010361
# 6 -0.000177 0.000003 -0.001391 -0.006415 0.010361 0.044271
#
#
# Mechanical properties :
#
#
# Convention : Reuss Voigt Hill
#
# Bulk Modulus (GPa) = 68.30057 79.05514 73.67785
# Shear Modulus (GPa) = 32.13421 38.43329 35.28375
#
# Velocity S-wave (km/s) = 3.47052 3.79546 3.63662
# Velocity P-wave (km/s) = 6.45443 6.98847 6.72675
#
# Compressibility (1/GPa) = 0.01464117
#
# Stress axis : x y z
#
# Youngs Moduli (GPa) = 85.35539 119.80369 79.58684
#
# Poissons Ratio (x) = 0.41199 0.13120
# Poissons Ratio (y) = 0.29353 0.31085
# Poissons Ratio (z) = 0.14071 0.46793
#
# Static dielectric constant tensor:
#      x y z
#    x 5.037430 -0.114760 0.076960 
#    y -0.114760 5.245680 0.340080 
#    z 0.076960 0.340080 4.345210 
# 
# 
# High freq. dielectric constant tensor:
#      x y z
#    x 2.086410 0.001040 0.003120 
#    y 0.001040 2.097050 0.016370 
#    z 0.003120 0.016370 2.045670 
# 
# From -- ./inp_files/8560.got.cif
#   From: 2010.06.25/outbox.cif.g09.slc.cpg/sg2_5_cif.got.tgz:8560.got - 2010.06.27 13:26:56.
