data_PCOD8015703
_publ_section_title
;
Structure prediction by ZEFSAII (Michael W. Deem and Ramdas Pophale) SiO2 
 PCOD8015703
Probable space group: P -1
;
_chemical_formula_sum "Si O2"
_cell_formula_units_Z 14
_cell_length_a 9.175610
_cell_length_b 28.268286
_cell_length_c 12.770546
_cell_angle_alpha 159.738169
_cell_angle_beta 35.609501
_cell_angle_gamma 142.445987
_cell_volume 660.445797
_symmetry_space_group_name_H-M "P -1"
_symmetry_group_IT_number 2
_symmetry_cell_setting 'triclinic'
loop_
_space_group_symop_operation_xyz
x,y,z
-x,-y,-z
loop_
_atom_site_type_symbol
_atom_site_label
_atom_site_fract_x
_atom_site_fract_y
_atom_site_fract_z
Si Si1 0.681989 0.427948 0.317696
Si Si2 0.646544 0.031333 0.259190
Si Si3 0.454435 0.292070 0.376075
Si Si4 0.225670 0.988349 0.085899
Si Si5 0.950856 0.389575 0.388916
Si Si6 0.022706 0.788843 0.402307
Si Si7 0.122201 0.117515 0.750649
O O1 0.500000 0.500000 0.500000
O O2 0.529512 0.386902 0.428458
O O3 0.940841 0.534682 0.409920
O O4 0.761713 0.291220 0.935433
O O5 0.412324 0.109178 0.585199
O O6 0.859484 0.082937 0.327131
O O7 0.755864 0.076269 0.174140
O O8 0.554086 0.868078 0.981941
O O9 0.651871 0.329788 0.435867
O O10 0.179428 0.315537 0.628481
O O11 0.027695 0.888192 0.063588
O O12 0.129145 0.138828 0.448367
O O13 0.500000 0.000000 0.000000
O O14 0.000000 0.500000 0.500000
O O15 0.107540 0.265207 0.014035
O O16 0.000000 0.000000 0.500000
#
# Coordination Sequence:
#
# PCOD8015703 Si02
#       7
#     2   2   2   2   2   2   2
#     4  11  25  43  63  91 131 176 222 259 317 399
#     4  11  23  40  65  99 132 164 214 279 325 380
#     4  10  21  43  63  90 130 166 216 276 321 375
#     4  11  22  38  65  99 126 160 216 274 322 384
#     4  10  23  41  64  92 131 171 213 268 320 387
#     4  11  25  41  65  96 131 174 214 268 332 385
#     4  12  21  39  69  95 125 169 216 272 327 371
#
# _framework density 21.197803
#
# number of rings (size 3 to 8) (size 9 to 14) (size 15 to 20)
#    0.000    1.143    2.857    4.286    2.000    6.857 
#    0.000    2.857    0.000    0.000    0.000    0.000 
#    0.000    0.000    0.000    0.000    0.000    0.000 
#
# Total GULP energy -173568.604545 kJ/mol
# GULP energy per Si atom -12397.757467 kJ/mol
# Density = 2.114956 g / cm^3
# Si number density = 21.197803 Si / 1000 Ang^3
#
#
#
# Elastic Constant Matrix: (Units=GPa)
#
#
# Indices 1 2 3 4 5 6 
#
# 1 144.9406 44.3417 46.8182 6.2651 -3.7770 8.4895
# 2 44.3417 108.7394 29.9300 -5.4027 -7.6299 0.2447
# 3 46.8182 29.9300 91.6263 6.9418 -8.5057 -6.3530
# 4 6.2651 -5.4027 6.9418 36.4292 8.5400 1.6123
# 5 -3.7770 -7.6299 -8.5057 8.5400 45.1386 6.9068
# 6 8.4895 0.2447 -6.3530 1.6123 6.9068 34.4498
#
#
#
# Elastic Compliance Matrix: (Units=1/GPa)
#
#
# Indices 1 2 3 4 5 6 
#
# 1 0.009229 -0.002718 -0.003922 -0.001170 0.000250 -0.002974
# 2 -0.002718 0.011128 -0.002364 0.002392 0.000773 -0.000112
# 3 -0.003922 -0.002364 0.014342 -0.003035 0.002034 0.003362
# 4 -0.001170 0.002392 -0.003035 0.029981 -0.005859 -0.000517
# 5 0.000250 0.000773 0.002034 -0.005859 0.024459 -0.004321
# 6 -0.002974 -0.000112 0.003362 -0.000517 -0.004321 0.031272
#
#
# Mechanical properties :
#
#
# Convention : Reuss Voigt Hill
#
# Bulk Modulus (GPa) = 59.90872 65.27624 62.59248
# Shear Modulus (GPa) = 34.72636 38.15128 36.43882
#
# Velocity S-wave (km/s) = 4.05187 4.24698 4.15057
# Velocity P-wave (km/s) = 7.08613 7.41012 7.24993
#
# Compressibility (1/GPa) = 0.01669206
#
# Stress axis : x y z
#
# Youngs Moduli (GPa) = 108.35355 89.85974 69.72463
#
# Poissons Ratio (x) = 0.24421 0.27348
# Poissons Ratio (y) = 0.29447 0.16481
# Poissons Ratio (z) = 0.42500 0.21241
#
# Static dielectric constant tensor:
#      x y z
#    x 4.365110 0.306830 0.122320 
#    y 0.306830 4.124510 0.042620 
#    z 0.122320 0.042620 3.861370 
# 
# 
# High freq. dielectric constant tensor:
#      x y z
#    x 1.847910 0.011120 -0.008620 
#    y 0.011120 1.828610 0.000760 
#    z -0.008620 0.000760 1.819450 
# 
# From -- ./inp_files/174160.got.cif
#   From: 2010.06.25/outbox.cif.g09.slc.cpg/sg2_88_cif.got.tgz:174160.got - 2010.06.27 13:26:56.
