data_PCOD8015621
_publ_section_title
;
Structure prediction by ZEFSAII (Michael W. Deem and Ramdas Pophale) SiO2 
 PCOD8015621
Probable space group: P -1
;
_chemical_formula_sum "Si O2"
_cell_formula_units_Z 12
_cell_length_a 4.941957
_cell_length_b 19.135451
_cell_length_c 6.202824
_cell_angle_alpha 102.357772
_cell_angle_beta 80.726766
_cell_angle_gamma 70.175533
_cell_volume 521.305087
_symmetry_space_group_name_H-M "P -1"
_symmetry_group_IT_number 2
_symmetry_cell_setting 'triclinic'
loop_
_space_group_symop_operation_xyz
x,y,z
-x,-y,-z
loop_
_atom_site_type_symbol
_atom_site_label
_atom_site_fract_x
_atom_site_fract_y
_atom_site_fract_z
Si Si1 0.742704 0.833705 0.007424
Si Si2 0.368397 0.403366 0.516291
Si Si3 0.159530 0.025067 0.805412
Si Si4 0.361406 0.775062 0.720939
Si Si5 0.695944 0.119742 0.571663
Si Si6 0.723602 0.481116 0.759306
O O1 0.587098 0.809641 0.813663
O O2 0.095248 0.782335 0.923692
O O3 0.661086 0.927604 0.073893
O O4 0.613507 0.820624 0.245191
O O5 0.457775 0.312487 0.427578
O O6 0.641574 0.421758 0.582858
O O7 0.304204 0.440502 0.309884
O O8 0.077342 0.437859 0.734537
O O9 0.927998 0.086383 0.712987
O O10 0.361236 0.949667 0.593030
O O11 0.000000 0.000000 0.000000
O O12 0.201854 0.828630 0.571632
O O13 0.500000 0.500000 0.000000
#
# Coordination Sequence:
#
# PCOD8015621 Si02
#       6
#     2   2   2   2   2   2
#     4  12  25  45  63  97 128 176 219 275 329 392
#     4  10  23  42  65 102 132 170 211 268 311 389
#     4  11  23  47  67  93 128 174 230 280 322 393
#     4  12  27  43  67  97 141 167 218 272 334 387
#     4  11  25  42  69  93 129 176 224 278 332 387
#     4  10  21  42  72  97 131 171 218 252 319 384
#
# _framework density 23.01915
#
# number of rings (size 3 to 8) (size 9 to 14) (size 15 to 20)
#    0.000    1.000    3.333    2.000    2.333    5.333 
#    0.000    0.000    0.000    0.000    0.000    0.000 
#    0.000    0.000    0.000    0.000    0.000    0.000 
#
# Total GULP energy -148755.410110 kJ/mol
# GULP energy per Si atom -12396.284176 kJ/mol
# Density = 2.296676 g / cm^3
# Si number density = 23.019150 Si / 1000 Ang^3
#
#
#
# Elastic Constant Matrix: (Units=GPa)
#
#
# Indices 1 2 3 4 5 6 
#
# 1 96.4271 32.8723 18.0043 4.9753 -8.6533 6.1751
# 2 32.8723 131.5703 52.8788 16.4442 6.6051 2.8428
# 3 18.0043 52.8788 93.5437 8.8564 -16.1803 1.2662
# 4 4.9753 16.4442 8.8564 22.6769 -0.9795 -3.0799
# 5 -8.6533 6.6051 -16.1803 -0.9795 45.0989 10.5368
# 6 6.1751 2.8428 1.2662 -3.0799 10.5368 27.2328
#
#
#
# Elastic Compliance Matrix: (Units=1/GPa)
#
#
# Indices 1 2 3 4 5 6 
#
# 1 0.012015 -0.003081 0.000211 -0.000860 0.003738 -0.003956
# 2 -0.003081 0.011897 -0.006499 -0.005483 -0.005039 0.001088
# 3 0.000211 -0.006499 0.015790 -0.001608 0.007354 -0.003131
# 4 -0.000860 -0.005483 -0.001608 0.049773 -0.000406 0.006628
# 5 0.003738 -0.005039 0.007354 -0.000406 0.029050 -0.011949
# 6 -0.003956 0.001088 -0.003131 0.006628 -0.011949 0.043022
#
#
# Mechanical properties :
#
#
# Convention : Reuss Voigt Hill
#
# Bulk Modulus (GPa) = 47.70465 58.78354 53.24410
# Shear Modulus (GPa) = 26.69875 33.52077 30.10976
#
# Velocity S-wave (km/s) = 3.40935 3.82017 3.62059
# Velocity P-wave (km/s) = 6.02222 6.71197 6.37643
#
# Compressibility (1/GPa) = 0.02096232
#
# Stress axis : x y z
#
# Youngs Moduli (GPa) = 83.23130 84.05335 63.33014
#
# Poissons Ratio (x) = 0.25899 -0.01335
# Poissons Ratio (y) = 0.25646 0.41161
# Poissons Ratio (z) = -0.01755 0.54630
#
# Static dielectric constant tensor:
#      x y z
#    x 4.242240 0.167340 -0.070390 
#    y 0.167340 3.973250 0.062720 
#    z -0.070390 0.062720 4.316520 
# 
# 
# High freq. dielectric constant tensor:
#      x y z
#    x 1.914380 0.014940 -0.010930 
#    y 0.014940 1.887150 0.008130 
#    z -0.010930 0.008130 1.920410 
# 
# From -- ./inp_files/6456.got.cif
#   From: 2010.06.25/outbox.cif.g09.slc.cpg/sg2_4_cif.got.tgz:6456.got - 2010.06.27 13:26:56.
