data_PCOD8015679
_publ_section_title
;
Structure prediction by ZEFSAII (Michael W. Deem and Ramdas Pophale) SiO2 
 PCOD8015679
Probable space group: P -1
;
_chemical_formula_sum "Si O2"
_cell_formula_units_Z 16
_cell_length_a 11.547475
_cell_length_b 23.625957
_cell_length_c 8.107829
_cell_angle_alpha 132.120434
_cell_angle_beta 63.214710
_cell_angle_gamma 152.818468
_cell_volume 676.373100
_symmetry_space_group_name_H-M "P -1"
_symmetry_group_IT_number 2
_symmetry_cell_setting 'triclinic'
loop_
_space_group_symop_operation_xyz
x,y,z
-x,-y,-z
loop_
_atom_site_type_symbol
_atom_site_label
_atom_site_fract_x
_atom_site_fract_y
_atom_site_fract_z
Si Si1 0.112295 0.487696 0.300220
Si Si2 0.669096 0.834311 0.709392
Si Si3 0.305385 0.405310 0.783590
Si Si4 0.005511 0.135406 0.917688
Si Si5 0.627614 0.272795 0.977854
Si Si6 0.639095 0.431888 0.138766
Si Si7 0.188575 0.394672 0.318631
Si Si8 0.086717 0.926891 0.525513
O O1 0.439927 0.678040 0.423401
O O2 0.089732 0.396029 0.233082
O O3 0.000000 0.500000 0.500000
O O4 0.912421 0.377789 0.052532
O O5 0.524106 0.762943 0.841750
O O6 0.931923 0.913737 0.700041
O O7 0.763681 0.967937 0.852224
O O8 0.255517 0.469718 0.904256
O O9 0.488067 0.465418 0.634294
O O10 0.017375 0.209891 0.611504
O O11 0.500000 0.500000 0.000000
O O12 0.971312 0.091370 0.665095
O O13 0.305058 0.265493 0.048779
O O14 0.975888 0.211527 0.102089
O O15 0.707747 0.377972 0.993616
O O16 0.416806 0.102146 0.696776
O O17 0.822657 0.565719 0.427531
#
# Coordination Sequence:
#
# PCOD8015679 Si02
#       8
#     2   2   2   2   2   2   2   2
#     4  10  21  43  62  86 123 166 206 251 302 361
#     4  11  22  38  65  89 124 162 207 251 306 357
#     4  11  21  36  61  94 125 158 194 252 313 359
#     4  11  24  36  60  98 127 154 201 262 311 354
#     4  11  24  40  64  92 125 159 210 252 302 363
#     4  11  21  37  61  92 126 152 204 252 309 353
#     4  11  21  39  63  87 129 159 205 250 307 361
#     4  12  22  39  62  95 126 158 202 256 306 361
#
# _framework density 23.655584000000001
#
# number of rings (size 3 to 8) (size 9 to 14) (size 15 to 20)
#    0.000    1.000    7.500    2.250    3.500    0.000 
#    0.000    5.000    0.000    0.000    0.000    0.000 
#    0.000    0.000    0.000    0.000    0.000    0.000 
#
# Total GULP energy -198385.892264 kJ/mol
# GULP energy per Si atom -12399.118267 kJ/mol
# Density = 2.360174 g / cm^3
# Si number density = 23.655584 Si / 1000 Ang^3
#
#
#
# Elastic Constant Matrix: (Units=GPa)
#
#
# Indices 1 2 3 4 5 6 
#
# 1 150.2519 41.9926 54.1199 44.4495 4.0577 -35.9122
# 2 41.9926 49.9824 20.7036 20.5057 -5.7137 -26.8408
# 3 54.1199 20.7036 124.8239 42.2164 7.6407 -17.0662
# 4 44.4495 20.5057 42.2164 39.1040 -9.8867 -10.7349
# 5 4.0577 -5.7137 7.6407 -9.8867 40.8553 6.0422
# 6 -35.9122 -26.8408 -17.0662 -10.7349 6.0422 45.7643
#
#
#
# Elastic Compliance Matrix: (Units=1/GPa)
#
#
# Indices 1 2 3 4 5 6 
#
# 1 0.012957 -0.002774 0.000808 -0.013948 -0.006145 0.006382
# 2 -0.002774 0.035842 0.002216 -0.013711 -0.000895 0.016573
# 3 0.000808 0.002216 0.014636 -0.018710 -0.007628 0.004010
# 4 -0.013948 -0.013711 -0.018710 0.071018 0.021958 -0.012205
# 5 -0.006145 -0.000895 -0.007628 0.021958 0.032792 -0.007371
# 6 0.006382 0.016573 0.004010 -0.012205 -0.007371 0.036185
#
#
# Mechanical properties :
#
#
# Convention : Reuss Voigt Hill
#
# Bulk Modulus (GPa) = 15.64057 62.07671 38.85864
# Shear Modulus (GPa) = 22.29727 39.02753 30.66240
#
# Velocity S-wave (km/s) = 3.07348 4.06621 3.60419
# Velocity P-wave (km/s) = 4.38419 6.95300 5.81229
#
# Compressibility (1/GPa) = 0.06393629
#
# Stress axis : x y z
#
# Youngs Moduli (GPa) = 77.17668 27.90016 68.32282
#
# Poissons Ratio (x) = 0.07739 -0.05523
# Poissons Ratio (y) = 0.21407 -0.15138
# Poissons Ratio (z) = -0.06239 -0.06182
#
# Static dielectric constant tensor:
#      x y z
#    x 4.565950 0.072530 0.073100 
#    y 0.072530 4.795330 0.334520 
#    z 0.073100 0.334520 4.627520 
# 
# 
# High freq. dielectric constant tensor:
#      x y z
#    x 1.935090 -0.025780 -0.001550 
#    y -0.025780 1.912520 0.006910 
#    z -0.001550 0.006910 1.949100 
# 
# From -- ./inp_files/284922.got.cif
#   From: 2010.06.25/outbox.cif.g09.slc.cpg/sg2_143_cif.got.tgz:284922.got - 2010.06.27 13:26:56.
