data_PCOD8015223
_publ_section_title
;
Structure prediction by ZEFSAII (Michael W. Deem and Ramdas Pophale) SiO2 
 PCOD8015223
Probable space group: P -1
;
_chemical_formula_sum "Si O2"
_cell_formula_units_Z 16
_cell_length_a 13.709645
_cell_length_b 17.085925
_cell_length_c 8.690985
_cell_angle_alpha 90.450249
_cell_angle_beta 66.757032
_cell_angle_gamma 147.732981
_cell_volume 746.505062
_symmetry_space_group_name_H-M "P -1"
_symmetry_group_IT_number 2
_symmetry_cell_setting 'triclinic'
loop_
_space_group_symop_operation_xyz
x,y,z
-x,-y,-z
loop_
_atom_site_type_symbol
_atom_site_label
_atom_site_fract_x
_atom_site_fract_y
_atom_site_fract_z
Si Si1 0.612590 0.654628 0.003679
Si Si2 0.876605 0.372691 0.218436
Si Si3 0.493596 0.158260 0.707121
Si Si4 0.543960 0.449452 0.557157
Si Si5 0.147065 0.052018 0.777418
Si Si6 0.933953 0.276757 0.681246
Si Si7 0.270290 0.571786 0.208118
Si Si8 0.411174 0.922523 0.834506
O O1 0.589686 0.628981 0.198078
O O2 0.443304 0.614101 0.052184
O O3 0.500000 0.500000 0.000000
O O4 0.928897 0.883854 0.777100
O O5 0.738399 0.331517 0.435835
O O6 0.650677 0.162831 0.287186
O O7 0.113022 0.484036 0.150477
O O8 0.000000 0.500000 0.000000
O O9 0.249128 0.038448 0.780073
O O10 0.550362 0.235510 0.839763
O O11 0.427568 0.024810 0.785078
O O12 0.500000 0.500000 0.500000
O O13 0.393594 0.273261 0.566584
O O14 0.860614 0.649051 0.380889
O O15 0.000000 0.000000 0.000000
O O16 0.080960 0.431092 0.470724
O O17 0.682567 0.070759 0.741159
O O18 0.822487 0.249934 0.896665
#
# Coordination Sequence:
#
# PCOD8015223 Si02
#       8
#     2   2   2   2   2   2   2   2
#     4  10  23  42  67  97 130 173 219 275 330 392
#     4  12  28  43  63  99 137 169 223 276 337 388
#     4  12  23  42  73  91 131 178 217 278 328 407
#     4  10  22  40  68  93 130 173 223 268 321 400
#     4  10  21  42  66  98 127 170 227 263 330 398
#     4  10  22  42  65  94 134 168 226 260 332 397
#     4  11  23  44  67  91 135 176 218 267 337 399
#     4  11  26  40  67 100 130 172 222 275 331 395
#
# _framework density 21.433209999999999
#
# number of rings (size 3 to 8) (size 9 to 14) (size 15 to 20)
#    0.000    1.250    5.000    1.500    8.750    1.000 
#    0.000    0.625    0.000    0.000    0.000    0.000 
#    0.000    0.000    0.000    0.000    0.000    0.000 
#
# Total GULP energy -198296.187217 kJ/mol
# GULP energy per Si atom -12393.511701 kJ/mol
# Density = 2.138443 g / cm^3
# Si number density = 21.433210 Si / 1000 Ang^3
#
#
#
# Elastic Constant Matrix: (Units=GPa)
#
#
# Indices 1 2 3 4 5 6 
#
# 1 159.7481 63.4494 42.9476 -16.9035 -16.9059 25.1575
# 2 63.4494 160.9553 23.3948 -8.6101 -27.3323 11.0251
# 3 42.9476 23.3948 53.6255 -14.5197 -15.5042 12.8807
# 4 -16.9035 -8.6101 -14.5197 30.6648 2.6165 -3.5177
# 5 -16.9059 -27.3323 -15.5042 2.6165 28.0568 -0.6423
# 6 25.1575 11.0251 12.8807 -3.5177 -0.6423 37.1821
#
#
#
# Elastic Compliance Matrix: (Units=1/GPa)
#
#
# Indices 1 2 3 4 5 6 
#
# 1 0.009423 -0.002625 -0.005043 0.001638 0.000097 -0.003694
# 2 -0.002625 0.008403 0.000816 0.000609 0.006980 -0.000820
# 3 -0.005043 0.000816 0.030426 0.009994 0.013496 -0.006191
# 4 0.001638 0.000609 0.009994 0.037989 0.003535 -0.001096
# 5 0.000097 0.006980 0.013496 0.003535 0.049500 -0.005621
# 6 -0.003694 -0.000820 -0.006191 -0.001096 -0.005621 0.031581
#
#
# Mechanical properties :
#
#
# Convention : Reuss Voigt Hill
#
# Bulk Modulus (GPa) = 28.94450 70.43471 49.68961
# Shear Modulus (GPa) = 25.96832 35.48322 30.72577
#
# Velocity S-wave (km/s) = 3.48457 4.07323 3.79034
# Velocity P-wave (km/s) = 5.45192 7.41993 6.51071
#
# Compressibility (1/GPa) = 0.03454887
#
# Stress axis : x y z
#
# Youngs Moduli (GPa) = 106.11792 119.00535 32.86678
#
# Poissons Ratio (x) = 0.31234 0.16576
# Poissons Ratio (y) = 0.27852 -0.02683
# Poissons Ratio (z) = 0.53518 -0.09713
#
# Static dielectric constant tensor:
#      x y z
#    x 3.836200 0.355570 -0.235550 
#    y 0.355570 3.621610 0.231540 
#    z -0.235550 0.231540 3.555780 
# 
# 
# High freq. dielectric constant tensor:
#      x y z
#    x 1.845100 0.008550 -0.009010 
#    y 0.008550 1.849670 -0.016200 
#    z -0.009010 -0.016200 1.826350 
# 
# From -- ./inp_files/317719.got.cif
#   From: 2010.06.25/outbox.cif.g09.slc.cpg/sg2_159_cif.got.tgz:317719.got - 2010.06.27 13:26:56.
