data_PCOD8015114
_publ_section_title
;
Structure prediction by ZEFSAII (Michael W. Deem and Ramdas Pophale) SiO2 
 PCOD8015114
Probable space group: P -1
;
_chemical_formula_sum "Si O2"
_cell_formula_units_Z 16
_cell_length_a 14.486346
_cell_length_b 19.864218
_cell_length_c 9.414245
_cell_angle_alpha 115.943306
_cell_angle_beta 105.872687
_cell_angle_gamma 19.071020
_cell_volume 699.829786
_symmetry_space_group_name_H-M "P -1"
_symmetry_group_IT_number 2
_symmetry_cell_setting 'triclinic'
loop_
_space_group_symop_operation_xyz
x,y,z
-x,-y,-z
loop_
_atom_site_type_symbol
_atom_site_label
_atom_site_fract_x
_atom_site_fract_y
_atom_site_fract_z
Si Si1 0.842367 0.329991 0.565195
Si Si2 0.188484 0.911613 0.825727
Si Si3 0.681419 0.920442 0.897891
Si Si4 0.808975 0.794478 0.519138
Si Si5 0.774796 0.653315 0.758544
Si Si6 0.276203 0.958331 0.648033
Si Si7 0.718239 0.589542 0.250661
Si Si8 0.146201 0.985072 0.189585
O O1 0.505762 0.622995 0.700368
O O2 0.112923 0.180197 0.469091
O O3 0.959050 0.224298 0.677739
O O4 0.858440 0.246380 0.387830
O O5 0.176660 0.977505 0.751377
O O6 0.134078 0.000793 0.028258
O O7 0.895959 0.070501 0.834106
O O8 0.728514 0.848328 0.699649
O O9 0.040986 0.661594 0.876295
O O10 0.500000 0.000000 0.000000
O O11 0.449041 0.166311 0.027566
O O12 0.102355 0.522700 0.346235
O O13 0.500000 0.000000 0.500000
O O14 0.506978 0.854813 0.704116
O O15 0.067391 0.493868 0.720063
O O16 0.482005 0.756252 0.437829
O O17 0.501477 0.749474 0.166497
#
# Coordination Sequence:
#
# PCOD8015114 Si02
#       8
#     2   2   2   2   2   2   2   2
#     4  11  25  42  69 101 133 175 226 275 338 400
#     4  11  24  49  70  97 132 175 227 284 343 389
#     4  10  24  38  64  97 133 184 225 274 325 397
#     4  12  25  41  63  98 141 183 222 270 335 398
#     4  11  23  42  67  94 144 175 220 269 329 400
#     4  11  23  43  71  98 132 183 216 274 336 407
#     4  10  21  42  66 101 136 176 223 275 333 395
#     4  10  25  45  70  96 135 170 225 290 330 399
#
# _framework density 22.862701999999999
#
# number of rings (size 3 to 8) (size 9 to 14) (size 15 to 20)
#    0.000    1.250    2.500    2.250    8.750    3.500 
#    0.000    3.750    0.000    0.000    0.000    0.000 
#    0.000    0.000    0.000    0.000    0.000    0.000 
#
# Total GULP energy -198217.432292 kJ/mol
# GULP energy per Si atom -12388.589518 kJ/mol
# Density = 2.281067 g / cm^3
# Si number density = 22.862702 Si / 1000 Ang^3
#
#
#
# Elastic Constant Matrix: (Units=GPa)
#
#
# Indices 1 2 3 4 5 6 
#
# 1 104.2996 24.7199 38.7906 -24.5856 -14.0136 6.8865
# 2 24.7199 86.7700 50.4814 -3.9698 1.2698 19.0424
# 3 38.7906 50.4814 110.2012 4.2494 15.3971 14.2778
# 4 -24.5856 -3.9698 4.2494 33.7086 0.4348 5.1993
# 5 -14.0136 1.2698 15.3971 0.4348 32.2993 -3.1220
# 6 6.8865 19.0424 14.2778 5.1993 -3.1220 29.4231
#
#
#
# Elastic Compliance Matrix: (Units=1/GPa)
#
#
# Indices 1 2 3 4 5 6 
#
# 1 0.017424 0.000766 -0.008346 0.013987 0.011144 -0.001813
# 2 0.000766 0.018006 -0.007949 0.004974 0.002517 -0.008587
# 3 -0.008346 -0.007949 0.017802 -0.008928 -0.011792 -0.001215
# 4 0.013987 0.004974 -0.008928 0.042824 0.008701 -0.008804
# 5 0.011144 0.002517 -0.011792 0.008701 0.041623 0.004364
# 6 -0.001813 -0.008587 -0.001215 -0.008804 0.004364 0.042577
#
#
# Mechanical properties :
#
#
# Convention : Reuss Voigt Hill
#
# Bulk Modulus (GPa) = 45.09394 58.80608 51.95001
# Shear Modulus (GPa) = 22.86180 31.57148 27.21664
#
# Velocity S-wave (km/s) = 3.16565 3.72010 3.45402
# Velocity P-wave (km/s) = 5.75573 6.65052 6.21924
#
# Compressibility (1/GPa) = 0.02217593
#
# Stress axis : x y z
#
# Youngs Moduli (GPa) = 57.39193 55.53613 56.17213
#
# Poissons Ratio (x) = -0.04255 0.46879
# Poissons Ratio (y) = -0.04397 0.44651
# Poissons Ratio (z) = 0.47897 0.44145
#
# Static dielectric constant tensor:
#      x y z
#    x 3.976130 -0.112310 0.463470 
#    y -0.112310 4.246320 0.248180 
#    z 0.463470 0.248180 4.977140 
# 
# 
# High freq. dielectric constant tensor:
#      x y z
#    x 1.889040 -0.005810 0.006690 
#    y -0.005810 1.903010 0.007570 
#    z 0.006690 0.007570 1.918370 
# 
# From -- ./inp_files/319440.got.cif
#   From: 2010.06.25/outbox.cif.g09.slc.cpg/sg2_160_cif.got.tgz:319440.got - 2010.06.27 13:26:56.
