data_PCOD8015366
_publ_section_title
;
Structure prediction by ZEFSAII (Michael W. Deem and Ramdas Pophale) SiO2 
 PCOD8015366
Probable space group: P -1
;
_chemical_formula_sum "Si O2"
_cell_formula_units_Z 12
_cell_length_a 14.457454
_cell_length_b 6.204752
_cell_length_c 8.620342
_cell_angle_alpha 119.461989
_cell_angle_beta 53.706133
_cell_angle_gamma 103.874267
_cell_volume 541.209471
_symmetry_space_group_name_H-M "P -1"
_symmetry_group_IT_number 2
_symmetry_cell_setting 'triclinic'
loop_
_space_group_symop_operation_xyz
x,y,z
-x,-y,-z
loop_
_atom_site_type_symbol
_atom_site_label
_atom_site_fract_x
_atom_site_fract_y
_atom_site_fract_z
Si Si1 0.495500 0.722707 0.703593
Si Si2 0.295410 0.047353 0.943021
Si Si3 0.681427 0.568475 0.704654
Si Si4 0.330218 0.991035 0.537773
Si Si5 0.060809 0.867650 0.040768
Si Si6 0.147439 0.322869 0.675311
O O1 0.500000 0.500000 0.500000
O O2 0.557781 0.632435 0.768461
O O3 0.363976 0.833168 0.905820
O O4 0.557647 0.951624 0.648646
O O5 0.353185 0.000582 0.701260
O O6 0.320128 0.318901 0.080747
O O7 0.158076 0.029678 0.072739
O O8 0.708917 0.273848 0.574969
O O9 0.784133 0.704176 0.564129
O O10 0.228007 0.202518 0.687513
O O11 0.970800 0.816527 0.250014
O O12 0.125160 0.612447 0.831583
O O13 0.000000 0.000000 0.000000
#
# Coordination Sequence:
#
# PCOD8015366 Si02
#       6
#     2   2   2   2   2   2
#     4  11  23  44  68  91 132 172 208 262 319 378
#     4  12  23  41  67  95 128 171 213 261 320 373
#     4  11  24  42  64  98 131 163 215 263 316 381
#     4  11  22  45  64  93 134 166 208 266 318 378
#     4  11  21  42  71  91 126 173 216 257 320 378
#     4  10  21  42  68  92 130 169 211 266 314 376
#
# _framework density 22.172560000000001
#
# number of rings (size 3 to 8) (size 9 to 14) (size 15 to 20)
#    0.000    1.000    5.000    2.000    0.000    1.333 
#   12.000    3.333    0.000    0.000    0.000    0.000 
#    0.000    0.000    0.000    0.000    0.000    0.000 
#
# Total GULP energy -148773.211130 kJ/mol
# GULP energy per Si atom -12397.767594 kJ/mol
# Density = 2.212209 g / cm^3
# Si number density = 22.172560 Si / 1000 Ang^3
#
#
#
# Elastic Constant Matrix: (Units=GPa)
#
#
# Indices 1 2 3 4 5 6 
#
# 1 132.2605 47.6713 43.1128 26.8404 -8.9224 7.9563
# 2 47.6713 101.8411 28.5645 24.8009 1.7648 0.1882
# 3 43.1128 28.5645 73.3002 28.9019 4.7180 3.8432
# 4 26.8404 24.8009 28.9019 35.7132 8.4175 -11.0826
# 5 -8.9224 1.7648 4.7180 8.4175 45.2079 13.9004
# 6 7.9563 0.1882 3.8432 -11.0826 13.9004 29.6774
#
#
#
# Elastic Compliance Matrix: (Units=1/GPa)
#
#
# Indices 1 2 3 4 5 6 
#
# 1 0.012845 -0.002719 -0.001636 -0.012173 0.008721 -0.011845
# 2 -0.002719 0.013127 -0.000226 -0.008174 0.001434 -0.003049
# 3 -0.001636 -0.000226 0.024918 -0.024967 0.006376 -0.015097
# 4 -0.012173 -0.008174 -0.024967 0.087624 -0.032556 0.054520
# 5 0.008721 0.001434 0.006376 -0.032556 0.039598 -0.033878
# 6 -0.011845 -0.003049 -0.015097 0.054520 -0.033878 0.075073
#
#
# Mechanical properties :
#
#
# Convention : Reuss Voigt Hill
#
# Bulk Modulus (GPa) = 23.96400 60.67770 42.32085
# Shear Modulus (GPa) = 18.09913 34.65658 26.37786
#
# Velocity S-wave (km/s) = 2.86017 3.95782 3.45289
# Velocity P-wave (km/s) = 4.66249 6.95063 5.91820
#
# Compressibility (1/GPa) = 0.04172926
#
# Stress axis : x y z
#
# Youngs Moduli (GPa) = 77.84918 76.18169 40.13086
#
# Poissons Ratio (x) = 0.20711 0.06566
# Poissons Ratio (y) = 0.21165 0.00906
# Poissons Ratio (z) = 0.12738 0.01719
#
# Static dielectric constant tensor:
#      x y z
#    x 4.096400 0.057330 -0.344980 
#    y 0.057330 4.113090 -0.060190 
#    z -0.344980 -0.060190 3.887260 
# 
# 
# High freq. dielectric constant tensor:
#      x y z
#    x 1.871500 -0.000070 -0.023580 
#    y -0.000070 1.875340 0.007390 
#    z -0.023580 0.007390 1.863160 
# 
# From -- ./inp_files/21256.got.cif
#   From: 2010.06.25/outbox.cif.g09.slc.cpg/sg2_11_cif.got.tgz:21256.got - 2010.06.27 13:26:56.
