data_PCOD8015209
_publ_section_title
;
Structure prediction by ZEFSAII (Michael W. Deem and Ramdas Pophale) SiO2 
 PCOD8015209
Probable space group: P -1
;
_chemical_formula_sum "Si O2"
_cell_formula_units_Z 14
_cell_length_a 14.102884
_cell_length_b 9.215906
_cell_length_c 11.188442
_cell_angle_alpha 54.704030
_cell_angle_beta 147.603473
_cell_angle_gamma 129.641105
_cell_volume 597.254986
_symmetry_space_group_name_H-M "P -1"
_symmetry_group_IT_number 2
_symmetry_cell_setting 'triclinic'
loop_
_space_group_symop_operation_xyz
x,y,z
-x,-y,-z
loop_
_atom_site_type_symbol
_atom_site_label
_atom_site_fract_x
_atom_site_fract_y
_atom_site_fract_z
Si Si1 0.067480 0.226430 0.191039
Si Si2 0.825210 0.399793 0.013097
Si Si3 0.418208 0.317595 0.663806
Si Si4 0.374432 0.305196 0.893874
Si Si5 0.073220 0.467863 0.464375
Si Si6 0.389580 0.703226 0.511933
Si Si7 0.705328 0.973817 0.860952
O O1 0.136647 0.385541 0.088660
O O2 0.235307 0.182845 0.461539
O O3 0.936385 0.287749 0.114814
O O4 0.933657 0.030262 0.079527
O O5 0.601702 0.296133 0.809178
O O6 0.888979 0.403778 0.216499
O O7 0.440949 0.277190 0.846044
O O8 0.397239 0.524333 0.530937
O O9 0.160451 0.302582 0.655596
O O10 0.500000 0.500000 0.000000
O O11 0.379319 0.122263 0.057648
O O12 0.240963 0.642354 0.494155
O O13 0.000000 0.500000 0.500000
O O14 0.603480 0.820279 0.724946
O O15 0.329498 0.829279 0.291758
#
# Coordination Sequence:
#
# PCOD8015209 Si02
#       7
#     2   2   2   2   2   2   2
#     4  11  22  42  65  97 133 170 214 265 326 384
#     4  11  22  41  70  94 129 176 215 264 316 396
#     4  11  22  42  70  94 125 174 226 255 322 395
#     4  11  21  41  65  91 126 174 213 265 329 382
#     4  11  21  39  67  97 124 169 223 262 315 388
#     4  10  21  42  66  97 128 172 216 266 323 382
#     4  11  22  39  67  93 134 170 209 276 328 373
#
# _framework density 23.440572
#
# number of rings (size 3 to 8) (size 9 to 14) (size 15 to 20)
#    0.000    1.143    7.143    2.143    0.000    0.571 
#    0.000    6.429    0.000    0.000    0.000    0.000 
#    0.000    0.000    0.000    0.000    0.000    0.000 
#
# Total GULP energy -173465.784169 kJ/mol
# GULP energy per Si atom -12390.413155 kJ/mol
# Density = 2.338722 g / cm^3
# Si number density = 23.440572 Si / 1000 Ang^3
#
#
#
# Elastic Constant Matrix: (Units=GPa)
#
#
# Indices 1 2 3 4 5 6 
#
# 1 69.1489 2.5111 41.5461 -5.5431 7.3923 17.5163
# 2 2.5111 77.2682 45.9896 -4.3983 -4.6604 20.4805
# 3 41.5461 45.9896 183.9298 30.2316 -9.0553 20.7543
# 4 -5.5431 -4.3983 30.2316 58.8054 9.3142 -10.3983
# 5 7.3923 -4.6604 -9.0553 9.3142 40.8751 2.7402
# 6 17.5163 20.4805 20.7543 -10.3983 2.7402 17.8594
#
#
#
# Elastic Compliance Matrix: (Units=1/GPa)
#
#
# Indices 1 2 3 4 5 6 
#
# 1 0.024758 0.009633 -0.005153 0.001173 -0.002897 -0.028213
# 2 0.009633 0.024009 -0.003956 -0.001674 0.002765 -0.033783
# 3 -0.005153 -0.003956 0.010007 -0.008049 0.005035 -0.007498
# 4 0.001173 -0.001674 -0.008049 0.027692 -0.010363 0.027836
# 5 -0.002897 0.002765 0.005035 -0.010363 0.029907 -0.016803
# 6 -0.028213 -0.033783 -0.007498 0.027836 -0.016803 0.149903
#
#
# Mechanical properties :
#
#
# Convention : Reuss Voigt Hill
#
# Bulk Modulus (GPa) = 16.71621 56.71561 36.71591
# Shear Modulus (GPa) = 17.53343 39.52797 28.53070
#
# Velocity S-wave (km/s) = 2.73792 4.11092 3.49255
# Velocity P-wave (km/s) = 4.14026 6.83966 5.65343
#
# Compressibility (1/GPa) = 0.05982216
#
# Stress axis : x y z
#
# Youngs Moduli (GPa) = 40.39056 41.65077 99.93260
#
# Poissons Ratio (x) = -0.40120 0.51494
# Poissons Ratio (y) = -0.38907 0.39531
# Poissons Ratio (z) = 0.20813 0.16476
#
# Static dielectric constant tensor:
#      x y z
#    x 3.874940 0.313620 -0.243310 
#    y 0.313620 4.286100 0.250880 
#    z -0.243310 0.250880 4.916260 
# 
# 
# High freq. dielectric constant tensor:
#      x y z
#    x 1.900860 0.023480 -0.021550 
#    y 0.023480 1.902810 0.006900 
#    z -0.021550 0.006900 1.962720 
# 
# From -- ./inp_files/417203.got.cif
#   From: 2010.06.25/outbox.cif.g09.slc.cpg/sg2_209_cif.got.tgz:417203.got - 2010.06.27 13:26:56.
