data_PCOD8015825
_publ_section_title
;
Structure prediction by ZEFSAII (Michael W. Deem and Ramdas Pophale) SiO2 
 PCOD8015825
Probable space group: P -1
;
_chemical_formula_sum "Si O2"
_cell_formula_units_Z 14
_cell_length_a 7.111932
_cell_length_b 9.056992
_cell_length_c 16.627848
_cell_angle_alpha 63.174085
_cell_angle_beta 81.970183
_cell_angle_gamma 123.328458
_cell_volume 682.179564
_symmetry_space_group_name_H-M "P -1"
_symmetry_group_IT_number 2
_symmetry_cell_setting 'triclinic'
loop_
_space_group_symop_operation_xyz
x,y,z
-x,-y,-z
loop_
_atom_site_type_symbol
_atom_site_label
_atom_site_fract_x
_atom_site_fract_y
_atom_site_fract_z
Si Si1 0.313319 0.961015 0.828068
Si Si2 0.211991 0.279174 0.490812
Si Si3 0.756774 0.357264 0.218143
Si Si4 0.948710 0.162068 0.959467
Si Si5 0.123159 0.727427 0.218471
Si Si6 0.242111 0.247121 0.673524
Si Si7 0.656853 0.964075 0.551652
O O1 0.631834 0.166423 0.764639
O O2 0.188780 0.052445 0.776961
O O3 0.209529 0.749781 0.830592
O O4 0.207447 0.869160 0.946227
O O5 0.124403 0.159125 0.613056
O O6 0.443248 0.552683 0.408864
O O7 0.327282 0.199221 0.453142
O O8 0.953714 0.210019 0.485976
O O9 0.477005 0.149327 0.326134
O O10 0.782655 0.562484 0.131516
O O11 0.987522 0.483378 0.243174
O O12 0.780512 0.093763 0.904490
O O13 0.000000 0.000000 0.000000
O O14 0.890451 0.675373 0.295390
O O15 0.500000 0.000000 0.500000
#
# Coordination Sequence:
#
# PCOD8015825 Si02
#       7
#     2   2   2   2   2   2   2
#     4  12  22  41  67  93 124 172 207 260 323 373
#     4  10  23  38  63  90 127 165 212 262 306 382
#     4  10  23  40  63  94 129 157 217 263 301 386
#     4  10  21  43  66  90 128 166 206 266 319 373
#     4  10  23  41  64  90 131 159 211 264 308 379
#     4  11  22  41  62  93 126 169 212 256 321 372
#     4  11  22  41  62  93 127 166 210 259 318 369
#
# _framework density 20.522456999999999
#
# number of rings (size 3 to 8) (size 9 to 14) (size 15 to 20)
#    0.857    0.571    2.857    2.571    2.000    0.000 
#    0.000    5.714    0.000    0.000    0.000    0.000 
#    0.000    0.000    0.000    0.000    0.000    0.000 
#
# Total GULP energy -173453.898177 kJ/mol
# GULP energy per Si atom -12389.564156 kJ/mol
# Density = 2.047575 g / cm^3
# Si number density = 20.522457 Si / 1000 Ang^3
#
#
#
# Elastic Constant Matrix: (Units=GPa)
#
#
# Indices 1 2 3 4 5 6 
#
# 1 103.5752 31.7639 28.8060 -0.6320 -4.7090 6.6886
# 2 31.7639 81.2816 6.3475 3.6372 -13.4454 1.2616
# 3 28.8060 6.3475 101.6862 10.3115 -12.1425 -4.7210
# 4 -0.6320 3.6372 10.3115 35.4012 -2.5204 -3.0022
# 5 -4.7090 -13.4454 -12.1425 -2.5204 23.2412 5.6683
# 6 6.6886 1.2616 -4.7210 -3.0022 5.6683 20.5973
#
#
#
# Elastic Compliance Matrix: (Units=1/GPa)
#
#
# Indices 1 2 3 4 5 6 
#
# 1 0.012336 -0.004695 -0.003645 0.001348 -0.000977 -0.004088
# 2 -0.004695 0.015636 0.001529 -0.001640 0.009165 -0.001844
# 3 -0.003645 0.001529 0.011834 -0.003120 0.005547 0.001821
# 4 0.001348 -0.001640 -0.003120 0.029632 0.000119 0.003234
# 5 -0.000977 0.009165 0.005547 0.000119 0.054441 -0.013937
# 6 -0.004088 -0.001844 0.001821 0.003234 -0.013937 0.054715
#
#
# Mechanical properties :
#
#
# Convention : Reuss Voigt Hill
#
# Bulk Modulus (GPa) = 38.18861 46.70865 42.44863
# Shear Modulus (GPa) = 24.88252 30.48965 27.68608
#
# Velocity S-wave (km/s) = 3.48581 3.85862 3.67694
# Velocity P-wave (km/s) = 5.90337 6.53155 6.22539
#
# Compressibility (1/GPa) = 0.02618582
#
# Stress axis : x y z
#
# Youngs Moduli (GPa) = 81.06344 63.95394 84.49883
#
# Poissons Ratio (x) = 0.30024 0.30798
# Poissons Ratio (y) = 0.38057 -0.12920
# Poissons Ratio (z) = 0.29546 -0.09778
#
# Static dielectric constant tensor:
#      x y z
#    x 3.430690 0.131700 -0.069640 
#    y 0.131700 3.733730 0.165490 
#    z -0.069640 0.165490 3.852690 
# 
# 
# High freq. dielectric constant tensor:
#      x y z
#    x 1.777800 0.000530 -0.005330 
#    y 0.000530 1.803890 0.015860 
#    z -0.005330 0.015860 1.815550 
# 
# From -- ./inp_files/196416.got.cif
#   From: 2010.06.25/outbox.cif.g09.slc.cpg/sg2_99_cif.got.tgz:196416.got - 2010.06.27 13:26:56.
