data_PCOD8015603
_publ_section_title
;
Structure prediction by ZEFSAII (Michael W. Deem and Ramdas Pophale) SiO2 
 PCOD8015603
Probable space group: P -1
;
_chemical_formula_sum "Si O2"
_cell_formula_units_Z 14
_cell_length_a 5.225300
_cell_length_b 6.609600
_cell_length_c 20.029570
_cell_angle_alpha 59.972398
_cell_angle_beta 103.671094
_cell_angle_gamma 97.566084
_cell_volume 581.876534
_symmetry_space_group_name_H-M "P -1"
_symmetry_group_IT_number 2
_symmetry_cell_setting 'triclinic'
loop_
_space_group_symop_operation_xyz
x,y,z
-x,-y,-z
loop_
_atom_site_type_symbol
_atom_site_label
_atom_site_fract_x
_atom_site_fract_y
_atom_site_fract_z
Si Si1 0.393772 0.532038 0.735505
Si Si2 0.080497 0.217872 0.262041
Si Si3 0.775475 0.242450 0.590089
Si Si4 0.868018 0.159063 0.018310
Si Si5 0.675674 0.491665 0.411679
Si Si6 0.282423 0.995104 0.828909
Si Si7 0.355611 0.398843 0.072266
O O1 0.672847 0.614612 0.771425
O O2 0.388014 0.629443 0.643224
O O3 0.381468 0.251487 0.772861
O O4 0.149971 0.624132 0.748076
O O5 0.177395 0.032706 0.353452
O O6 0.991425 0.072971 0.214054
O O7 0.684459 0.287262 0.501119
O O8 0.548098 0.322797 0.613625
O O9 0.043955 0.380281 0.599582
O O10 0.078915 0.283184 0.057709
O O11 0.704614 0.009998 0.088077
O O12 0.703107 0.354266 0.934168
O O13 0.000000 0.000000 0.000000
O O14 0.474250 0.791007 0.846710
O O15 0.500000 0.500000 0.000000
#
# Coordination Sequence:
#
# PCOD8015603 Si02
#       7
#     2   2   2   2   2   2   2
#     4  12  28  44  73 108 144 196 248 289 362 439
#     4  12  28  45  71 107 146 195 242 297 365 425
#     4  10  21  42  73 100 146 193 237 307 354 416
#     4  10  23  45  76 102 133 179 235 293 352 436
#     4  10  21  42  72 103 140 195 245 294 363 413
#     4  11  27  47  69 101 150 183 231 305 359 430
#     4   9  22  44  68  99 134 176 222 288 354 424
#
# _framework density 24.060088
#
# number of rings (size 3 to 8) (size 9 to 14) (size 15 to 20)
#    0.000    1.429    1.429    1.714    4.000    8.000 
#    0.000    0.000    0.000    0.000    0.000    0.000 
#    0.000    0.000    0.000    0.000    0.000    0.000 
#
# Total GULP energy -173501.758405 kJ/mol
# GULP energy per Si atom -12392.982743 kJ/mol
# Density = 2.400533 g / cm^3
# Si number density = 24.060088 Si / 1000 Ang^3
#
#
#
# Elastic Constant Matrix: (Units=GPa)
#
#
# Indices 1 2 3 4 5 6 
#
# 1 111.1917 43.6090 31.1434 -15.0174 15.0209 -10.0646
# 2 43.6090 124.4652 57.7560 -19.0347 7.0782 -9.0169
# 3 31.1434 57.7560 99.3943 -24.3445 7.0422 -12.6895
# 4 -15.0174 -19.0347 -24.3445 35.3666 -12.5617 3.6221
# 5 15.0209 7.0782 7.0422 -12.5617 30.4585 0.8352
# 6 -10.0646 -9.0169 -12.6895 3.6221 0.8352 49.6736
#
#
#
# Elastic Compliance Matrix: (Units=1/GPa)
#
#
# Indices 1 2 3 4 5 6 
#
# 1 0.011296 -0.002962 -0.001146 0.000712 -0.004364 0.001480
# 2 -0.002962 0.011890 -0.005668 0.001457 0.000609 -0.000006
# 3 -0.001146 -0.005668 0.015748 0.007536 0.001289 0.002191
# 4 0.000712 0.001457 0.007536 0.039570 0.013909 -0.000785
# 5 -0.004364 0.000609 0.001289 0.013909 0.040339 -0.002137
# 6 0.001480 -0.000006 0.002191 -0.000785 -0.002137 0.021083
#
#
# Mechanical properties :
#
#
# Convention : Reuss Voigt Hill
#
# Bulk Modulus (GPa) = 51.59370 66.67425 59.13397
# Shear Modulus (GPa) = 30.13182 36.60258 33.36720
#
# Velocity S-wave (km/s) = 3.54270 3.90461 3.72805
# Velocity P-wave (km/s) = 6.18260 6.93540 6.56979
#
# Compressibility (1/GPa) = 0.01938221
#
# Stress axis : x y z
#
# Youngs Moduli (GPa) = 88.52973 84.10419 63.50112
#
# Poissons Ratio (x) = 0.24909 0.07276
# Poissons Ratio (y) = 0.26220 0.35993
# Poissons Ratio (z) = 0.10143 0.47671
#
# Static dielectric constant tensor:
#      x y z
#    x 4.677520 -0.047350 0.088040 
#    y -0.047350 4.175090 -0.306900 
#    z 0.088040 -0.306900 4.842880 
# 
# 
# High freq. dielectric constant tensor:
#      x y z
#    x 1.969490 -0.003230 0.002610 
#    y -0.003230 1.944040 -0.008420 
#    z 0.002610 -0.008420 1.965300 
# 
# From -- ./inp_files/114497.got.cif
#   From: 2010.06.25/outbox.cif.g09.slc.cpg/sg2_58_cif.got.tgz:114497.got - 2010.06.27 13:26:56.
