data_PCOD8015960
_publ_section_title
;
Structure prediction by ZEFSAII (Michael W. Deem and Ramdas Pophale) SiO2 
 PCOD8015960
Probable space group: P -1
;
_chemical_formula_sum "Si O2"
_cell_formula_units_Z 14
_cell_length_a 8.566923
_cell_length_b 16.712083
_cell_length_c 10.580460
_cell_angle_alpha 33.765876
_cell_angle_beta 119.850573
_cell_angle_gamma 130.861357
_cell_volume 632.905425
_symmetry_space_group_name_H-M "P -1"
_symmetry_group_IT_number 2
_symmetry_cell_setting 'triclinic'
loop_
_space_group_symop_operation_xyz
x,y,z
-x,-y,-z
loop_
_atom_site_type_symbol
_atom_site_label
_atom_site_fract_x
_atom_site_fract_y
_atom_site_fract_z
Si Si1 0.735009 0.652964 0.093492
Si Si2 0.027446 0.011239 0.645393
Si Si3 0.091294 0.724320 0.709679
Si Si4 0.264549 0.528103 0.429442
Si Si5 0.806784 0.386349 0.363899
Si Si6 0.505640 0.847830 0.264514
Si Si7 0.683755 0.420084 0.899869
O O1 0.755128 0.616381 0.296775
O O2 0.712773 0.510044 0.175097
O O3 0.521444 0.657114 0.996111
O O4 0.926801 0.829604 0.902750
O O5 0.267725 0.108828 0.652555
O O6 0.000000 0.000000 0.500000
O O7 0.901558 0.100786 0.528678
O O8 0.177551 0.676253 0.684738
O O9 0.853992 0.585468 0.823566
O O10 0.233325 0.714139 0.894060
O O11 0.432124 0.705844 0.316656
O O12 0.344256 0.523512 0.326020
O O13 0.032629 0.498685 0.369416
O O14 0.658407 0.217931 0.600873
O O15 0.500000 0.000000 0.000000
#
# Coordination Sequence:
#
# PCOD8015960 Si02
#       7
#     2   2   2   2   2   2   2
#     4  11  23  42  67  96 133 176 222 275 333 391
#     4  12  29  44  65 100 143 178 222 276 335 397
#     4  10  24  44  66  99 133 173 225 273 341 394
#     4  10  21  43  68 101 131 171 226 281 333 394
#     4  10  22  42  72  97 132 171 227 276 334 400
#     4  11  23  42  70 101 135 179 224 275 335 393
#     4  10  23  41  72  95 131 175 225 278 329 405
#
# _framework density 22.120208999999999
#
# number of rings (size 3 to 8) (size 9 to 14) (size 15 to 20)
#    0.000    1.429    0.000    5.571   10.000    3.429 
#    0.000    4.286    0.000    0.000    0.000    0.000 
#    0.000    0.000    0.000    0.000    0.000    0.000 
#
# Total GULP energy -173533.919905 kJ/mol
# GULP energy per Si atom -12395.279993 kJ/mol
# Density = 2.206986 g / cm^3
# Si number density = 22.120209 Si / 1000 Ang^3
#
#
#
# Elastic Constant Matrix: (Units=GPa)
#
#
# Indices 1 2 3 4 5 6 
#
# 1 123.4902 55.3623 44.4428 -5.6311 -5.8128 4.8379
# 2 55.3623 107.1327 53.5227 5.8832 -2.7052 5.8842
# 3 44.4428 53.5227 144.6972 -12.1183 1.8840 0.5769
# 4 -5.6311 5.8832 -12.1183 29.2695 8.0353 -4.0129
# 5 -5.8128 -2.7052 1.8840 8.0353 37.0398 -5.1258
# 6 4.8379 5.8842 0.5769 -4.0129 -5.1258 33.4583
#
#
#
# Elastic Compliance Matrix: (Units=1/GPa)
#
#
# Indices 1 2 3 4 5 6 
#
# 1 0.011029 -0.005143 -0.001300 0.002342 0.000878 -0.000252
# 2 -0.005143 0.014730 -0.004428 -0.006538 0.001592 -0.002311
# 3 -0.001300 -0.004428 0.009408 0.005235 -0.001985 0.001128
# 4 0.002342 -0.006538 0.005235 0.041074 -0.008690 0.004316
# 5 0.000878 0.001592 -0.001985 -0.008690 0.029671 0.003131
# 6 -0.000252 -0.002311 0.001128 0.004316 0.003131 0.031309
#
#
# Mechanical properties :
#
#
# Convention : Reuss Voigt Hill
#
# Bulk Modulus (GPa) = 74.48051 75.77509 75.12780
# Shear Modulus (GPa) = 30.59266 34.75299 32.67283
#
# Velocity S-wave (km/s) = 3.72293 3.96801 3.84742
# Velocity P-wave (km/s) = 7.22663 7.43800 7.33308
#
# Compressibility (1/GPa) = 0.01342633
#
# Stress axis : x y z
#
# Youngs Moduli (GPa) = 90.66932 67.88786 106.29454
#
# Poissons Ratio (x) = 0.34913 0.13813
# Poissons Ratio (y) = 0.46629 0.47068
# Poissons Ratio (z) = 0.11783 0.30061
#
# Static dielectric constant tensor:
#      x y z
#    x 4.111270 0.252960 -0.035300 
#    y 0.252960 3.987620 0.130640 
#    z -0.035300 0.130640 4.271070 
# 
# 
# High freq. dielectric constant tensor:
#      x y z
#    x 1.883160 0.013760 -0.003130 
#    y 0.013760 1.862670 0.013900 
#    z -0.003130 0.013900 1.875160 
# 
# From -- ./inp_files/402687.got.cif
#   From: 2010.06.25/outbox.cif.g09.slc.cpg/sg2_202_cif.got.tgz:402687.got - 2010.06.27 13:26:56.
