data_PCOD8015852
_publ_section_title
;
Structure prediction by ZEFSAII (Michael W. Deem and Ramdas Pophale) SiO2 
 PCOD8015852
Probable space group: P -1
;
_chemical_formula_sum "Si O2"
_cell_formula_units_Z 16
_cell_length_a 17.347919
_cell_length_b 7.586350
_cell_length_c 7.664370
_cell_angle_alpha 55.024771
_cell_angle_beta 50.479264
_cell_angle_gamma 69.188277
_cell_volume 637.500141
_symmetry_space_group_name_H-M "P -1"
_symmetry_group_IT_number 2
_symmetry_cell_setting 'triclinic'
loop_
_space_group_symop_operation_xyz
x,y,z
-x,-y,-z
loop_
_atom_site_type_symbol
_atom_site_label
_atom_site_fract_x
_atom_site_fract_y
_atom_site_fract_z
Si Si1 0.937850 0.201099 0.358061
Si Si2 0.071182 0.935356 0.088297
Si Si3 0.221235 0.127932 0.204630
Si Si4 0.747622 0.850694 0.452439
Si Si5 0.440590 0.175618 0.878556
Si Si6 0.393299 0.491278 0.068009
Si Si7 0.420974 0.858222 0.593767
Si Si8 0.089995 0.520739 0.099355
O O1 0.987721 0.376130 0.318684
O O2 0.843599 0.078777 0.654587
O O3 0.899945 0.328180 0.170241
O O4 0.016527 0.007833 0.305103
O O5 0.090400 0.678074 0.181427
O O6 0.171285 0.086828 0.846291
O O7 0.000000 0.000000 0.000000
O O8 0.204203 0.129215 0.437931
O O9 0.183451 0.359736 0.059580
O O10 0.334806 0.084077 0.003952
O O11 0.656514 0.012912 0.482043
O O12 0.697053 0.611865 0.627278
O O13 0.403081 0.356759 0.955772
O O14 0.511554 0.272105 0.569287
O O15 0.500000 0.000000 0.000000
O O16 0.363796 0.721167 0.902871
O O17 0.500000 0.500000 0.000000
O O18 0.500000 0.000000 0.500000
#
# Coordination Sequence:
#
# PCOD8015852 Si02
#       8
#     2   2   2   2   2   2   2   2
#     4  10  22  45  65  96 142 172 224 285 339 410
#     4  10  21  43  66  94 138 175 218 280 338 405
#     4  11  22  40  68  96 134 174 233 277 334 420
#     4  11  23  41  67  96 136 174 225 283 339 408
#     4  11  23  43  68  99 135 184 226 283 348 403
#     4  11  23  44  66  97 135 175 225 279 339 412
#     4  12  24  46  69  95 138 178 224 295 347 404
#     4  10  22  40  67  95 129 180 219 277 342 397
#
# _framework density 25.098037000000001
#
# number of rings (size 3 to 8) (size 9 to 14) (size 15 to 20)
#    0.000    1.250    6.250    0.750    3.500    1.500 
#    2.250    6.250    0.000    0.000    0.000    0.000 
#    0.000    0.000    0.000    0.000    0.000    0.000 
#
# Total GULP energy -198270.159599 kJ/mol
# GULP energy per Si atom -12391.884975 kJ/mol
# Density = 2.504091 g / cm^3
# Si number density = 25.098037 Si / 1000 Ang^3
#
#
#
# Elastic Constant Matrix: (Units=GPa)
#
#
# Indices 1 2 3 4 5 6 
#
# 1 98.3824 22.3103 36.6074 -14.9470 -21.5676 -17.6523
# 2 22.3103 84.4921 46.3293 -21.4861 -9.0012 -8.0863
# 3 36.6074 46.3293 146.8355 -19.1529 -36.3438 -3.7998
# 4 -14.9470 -21.4861 -19.1529 47.3314 -1.1576 1.3321
# 5 -21.5676 -9.0012 -36.3438 -1.1576 45.0011 -6.5453
# 6 -17.6523 -8.0863 -3.7998 1.3321 -6.5453 41.3208
#
#
#
# Elastic Compliance Matrix: (Units=1/GPa)
#
#
# Indices 1 2 3 4 5 6 
#
# 1 0.013943 -0.000932 -0.000832 0.003624 0.006888 0.006672
# 2 -0.000932 0.015815 -0.004054 0.005181 -0.000113 0.002139
# 3 -0.000832 -0.004054 0.010457 0.002284 0.007428 0.000916
# 4 0.003624 0.005181 0.002284 0.025608 0.005691 0.002848
# 5 0.006888 -0.000113 0.007428 0.005691 0.032901 0.008631
# 6 0.006672 0.002139 0.000916 0.002848 0.008631 0.028829
#
#
# Mechanical properties :
#
#
# Convention : Reuss Voigt Hill
#
# Bulk Modulus (GPa) = 34.99083 60.02267 47.50675
# Shear Modulus (GPa) = 33.62150 41.69488 37.65819
#
# Velocity S-wave (km/s) = 3.66403 4.08030 3.87776
# Velocity P-wave (km/s) = 5.64554 6.79453 6.24651
#
# Compressibility (1/GPa) = 0.02857892
#
# Stress axis : x y z
#
# Youngs Moduli (GPa) = 71.72106 63.23185 95.62912
#
# Poissons Ratio (x) = 0.05890 0.07956
# Poissons Ratio (y) = 0.06681 0.38772
# Poissons Ratio (z) = 0.05967 0.25637
#
# Static dielectric constant tensor:
#      x y z
#    x 5.660790 0.056330 -2.219410 
#    y 0.056330 4.881990 0.052340 
#    z -2.219410 0.052340 9.791360 
# 
# 
# High freq. dielectric constant tensor:
#      x y z
#    x 2.019010 -0.002700 -0.001310 
#    y -0.002700 1.977850 -0.018630 
#    z -0.001310 -0.018630 2.006610 
# 
# From -- ./inp_files/328360.got.cif
#   From: 2010.06.25/outbox.cif.g09.slc.cpg/sg2_165_cif.got.tgz:328360.got - 2010.06.27 13:26:56.
