data_PCOD8015047
_publ_section_title
;
Structure prediction by ZEFSAII (Michael W. Deem and Ramdas Pophale) SiO2 
 PCOD8015047
Probable space group: P -1
;
_chemical_formula_sum "Si O2"
_cell_formula_units_Z 16
_cell_length_a 6.955704
_cell_length_b 24.800918
_cell_length_c 11.634586
_cell_angle_alpha 28.483790
_cell_angle_beta 66.194951
_cell_angle_gamma 55.189268
_cell_volume 760.806013
_symmetry_space_group_name_H-M "P -1"
_symmetry_group_IT_number 2
_symmetry_cell_setting 'triclinic'
loop_
_space_group_symop_operation_xyz
x,y,z
-x,-y,-z
loop_
_atom_site_type_symbol
_atom_site_label
_atom_site_fract_x
_atom_site_fract_y
_atom_site_fract_z
Si Si1 0.722544 0.495612 0.674750
Si Si2 0.283979 0.054557 0.361952
Si Si3 0.206587 0.887406 0.509944
Si Si4 0.609617 0.590178 0.986330
Si Si5 0.197511 0.978024 0.087983
Si Si6 0.163880 0.295018 0.806271
Si Si7 0.887595 0.510186 0.854457
Si Si8 0.737626 0.790564 0.298419
O O1 0.482129 0.484572 0.765571
O O2 0.669466 0.637728 0.379754
O O3 0.845987 0.463380 0.830470
O O4 0.897155 0.394371 0.728750
O O5 0.031858 0.101036 0.398684
O O6 0.500000 0.000000 0.500000
O O7 0.318630 0.955523 0.436086
O O8 0.298698 0.177386 0.080746
O O9 0.134169 0.955124 0.275608
O O10 0.402672 0.736165 0.735622
O O11 0.834545 0.590676 0.993563
O O12 0.707079 0.506851 0.000669
O O13 0.450979 0.853569 0.224823
O O14 0.214377 0.109097 0.830073
O O15 0.000000 0.000000 0.000000
O O16 0.122881 0.241942 0.795420
O O17 0.837610 0.658132 0.593950
#
# Coordination Sequence:
#
# PCOD8015047 Si02
#       8
#     2   2   2   2   2   2   2   2
#     4  10  22  42  64  90 129 173 215 268 316 396
#     4  11  25  43  69  97 134 175 214 277 336 394
#     4  11  24  44  67  99 132 171 225 275 327 401
#     4  11  22  42  64  96 131 168 216 271 332 391
#     4  11  24  41  67  95 127 179 219 268 334 385
#     4  10  21  42  65  90 129 170 215 268 325 382
#     4  10  23  41  66  95 127 176 213 272 334 383
#     4  10  22  43  61  92 137 160 218 282 314 390
#
# _framework density 21.030328000000001
#
# number of rings (size 3 to 8) (size 9 to 14) (size 15 to 20)
#    0.000    1.500    3.750    0.375    3.500    2.000 
#    4.500    6.875    0.000    0.000    0.000    0.000 
#    0.000    0.000    0.000    0.000    0.000    0.000 
#
# Total GULP energy -198381.828138 kJ/mol
# GULP energy per Si atom -12398.864259 kJ/mol
# Density = 2.098246 g / cm^3
# Si number density = 21.030328 Si / 1000 Ang^3
#
#
#
# Elastic Constant Matrix: (Units=GPa)
#
#
# Indices 1 2 3 4 5 6 
#
# 1 110.4307 46.5592 34.5983 0.2347 13.9391 1.8582
# 2 46.5592 125.3465 22.7166 13.7854 0.6909 -1.1583
# 3 34.5983 22.7166 91.1450 8.4899 0.1934 -6.8208
# 4 0.2347 13.7854 8.4899 31.8449 -1.8495 0.0990
# 5 13.9391 0.6909 0.1934 -1.8495 26.9292 6.9616
# 6 1.8582 -1.1583 -6.8208 0.0990 6.9616 29.7118
#
#
#
# Elastic Compliance Matrix: (Units=1/GPa)
#
#
# Indices 1 2 3 4 5 6 
#
# 1 0.012951 -0.004313 -0.004095 0.002500 -0.006274 -0.000456
# 2 -0.004313 0.010115 -0.000490 -0.004121 0.001647 0.000179
# 3 -0.004095 -0.000490 0.013172 -0.003219 0.001033 0.003030
# 4 0.002500 -0.004121 -0.003219 0.034122 0.001576 -0.001539
# 5 -0.006274 0.001647 0.001033 0.001576 0.042859 -0.009353
# 6 -0.000456 0.000179 0.003030 -0.001539 -0.009353 0.036584
#
#
# Mechanical properties :
#
#
# Convention : Reuss Voigt Hill
#
# Bulk Modulus (GPa) = 54.22352 59.40782 56.81567
# Shear Modulus (GPa) = 28.77750 32.56704 30.67227
#
# Velocity S-wave (km/s) = 3.70318 3.93946 3.82315
# Velocity P-wave (km/s) = 6.64260 7.00018 6.82373
#
# Compressibility (1/GPa) = 0.01844218
#
# Stress axis : x y z
#
# Youngs Moduli (GPa) = 77.21280 98.86740 75.91612
#
# Poissons Ratio (x) = 0.42643 0.31088
# Poissons Ratio (y) = 0.33303 0.03719
# Poissons Ratio (z) = 0.31619 0.04843
#
# Static dielectric constant tensor:
#      x y z
#    x 3.665730 -0.112910 -0.245840 
#    y -0.112910 4.093780 0.133480 
#    z -0.245840 0.133480 4.046420 
# 
# 
# High freq. dielectric constant tensor:
#      x y z
#    x 1.800900 -0.003450 -0.005670 
#    y -0.003450 1.844940 0.006500 
#    z -0.005670 0.006500 1.833790 
# 
# From -- ./inp_files/370966.got.cif
#   From: 2010.06.25/outbox.cif.g09.slc.cpg/sg2_186_cif.got.tgz:370966.got - 2010.06.27 13:26:56.
