data_PCOD8015667
_publ_section_title
;
Structure prediction by ZEFSAII (Michael W. Deem and Ramdas Pophale) SiO2 
 PCOD8015667
Probable space group: P -1
;
_chemical_formula_sum "Si O2"
_cell_formula_units_Z 12
_cell_length_a 8.639832
_cell_length_b 14.158307
_cell_length_c 9.518111
_cell_angle_alpha 121.063258
_cell_angle_beta 57.739712
_cell_angle_gamma 150.545914
_cell_volume 480.455965
_symmetry_space_group_name_H-M "P -1"
_symmetry_group_IT_number 2
_symmetry_cell_setting 'triclinic'
loop_
_space_group_symop_operation_xyz
x,y,z
-x,-y,-z
loop_
_atom_site_type_symbol
_atom_site_label
_atom_site_fract_x
_atom_site_fract_y
_atom_site_fract_z
Si Si1 0.346467 0.831681 0.850649
Si Si2 0.252185 0.806391 0.559057
Si Si3 0.422591 0.231881 0.741271
Si Si4 0.769726 0.472458 0.015757
Si Si5 0.812180 0.865105 0.623102
Si Si6 0.509981 0.463323 0.654509
O O1 0.360020 0.878178 0.721045
O O2 0.530063 0.807000 0.763541
O O3 0.977380 0.639729 0.927383
O O4 0.500000 0.000000 0.000000
O O5 0.290019 0.697144 0.412773
O O6 0.888096 0.660843 0.598157
O O7 0.500000 0.000000 0.500000
O O8 0.416992 0.343705 0.743729
O O9 0.482301 0.276293 0.913176
O O10 0.083319 0.996819 0.714654
O O11 0.623030 0.479577 0.210816
O O12 0.000000 0.500000 0.000000
O O13 0.656922 0.669160 0.508216
O O14 0.000000 0.000000 0.500000
#
# Coordination Sequence:
#
# PCOD8015667 Si02
#       6
#     2   2   2   2   2   2
#     4  12  25  46  74 110 160 196 249 311 379 445
#     4  12  27  45  77 115 152 201 255 310 373 453
#     4  11  23  47  77 108 152 198 249 305 384 450
#     4  12  29  47  75 115 151 194 256 321 379 443
#     4  10  21  42  79 106 143 199 246 300 378 451
#     4  11  23  49  77 107 152 199 253 310 384 451
#
# _framework density 24.976275000000001
#
# number of rings (size 3 to 8) (size 9 to 14) (size 15 to 20)
#    0.000    0.667    5.000    4.000    4.667    1.333 
#    0.000    4.167    0.000    0.000    0.000    0.000 
#    0.000    0.000    0.000    0.000    0.000    0.000 
#
# Total GULP energy -148854.980818 kJ/mol
# GULP energy per Si atom -12404.581735 kJ/mol
# Density = 2.491943 g / cm^3
# Si number density = 24.976275 Si / 1000 Ang^3
#
#
#
# Elastic Constant Matrix: (Units=GPa)
#
#
# Indices 1 2 3 4 5 6 
#
# 1 133.6987 53.2944 77.0816 23.3163 -11.7862 29.6525
# 2 53.2944 148.1035 73.6530 25.9862 -3.0275 31.3374
# 3 77.0816 73.6530 197.6860 38.8540 -11.8040 25.9440
# 4 23.3163 25.9862 38.8540 53.8877 9.3774 1.2789
# 5 -11.7862 -3.0275 -11.8040 9.3774 56.0313 -2.6149
# 6 29.6525 31.3374 25.9440 1.2789 -2.6149 40.5728
#
#
#
# Elastic Compliance Matrix: (Units=1/GPa)
#
#
# Indices 1 2 3 4 5 6 
#
# 1 0.011291 -0.001074 -0.002634 -0.002677 0.001952 -0.005528
# 2 -0.001074 0.009730 -0.001964 -0.002698 0.000086 -0.005383
# 3 -0.002634 -0.001964 0.007835 -0.003802 0.001564 -0.001347
# 4 -0.002677 -0.002698 -0.003802 0.024566 -0.005371 0.005351
# 5 0.001952 0.000086 0.001564 -0.005371 0.019441 -0.001071
# 6 -0.005528 -0.005383 -0.001347 0.005351 -0.001071 0.033469
#
#
# Mechanical properties :
#
#
# Convention : Reuss Voigt Hill
#
# Bulk Modulus (GPa) = 57.10733 98.61625 77.86179
# Shear Modulus (GPa) = 40.48143 48.46232 44.47187
#
# Velocity S-wave (km/s) = 4.03028 4.40970 4.22425
# Velocity P-wave (km/s) = 6.67621 8.09302 7.41852
#
# Compressibility (1/GPa) = 0.01751089
#
# Stress axis : x y z
#
# Youngs Moduli (GPa) = 88.56341 102.77931 127.63132
#
# Poissons Ratio (x) = 0.11035 0.33624
# Poissons Ratio (y) = 0.09509 0.25071
# Poissons Ratio (z) = 0.23332 0.20189
#
# Static dielectric constant tensor:
#      x y z
#    x 4.555510 0.357020 -0.097690 
#    y 0.357020 5.839450 0.444750 
#    z -0.097690 0.444750 4.876610 
# 
# 
# High freq. dielectric constant tensor:
#      x y z
#    x 1.997720 0.008900 -0.001010 
#    y 0.008900 2.005390 0.005060 
#    z -0.001010 0.005060 2.006720 
# 
# From -- ./inp_files/155952.got.cif
#   From: 2010.06.25/outbox.cif.g09.slc.cpg/sg2_78_cif.got.tgz:155952.got - 2010.06.27 13:26:56.
