data_PCOD8015749
_publ_section_title
;
Structure prediction by ZEFSAII (Michael W. Deem and Ramdas Pophale) SiO2 
 PCOD8015749
Probable space group: P -1
;
_chemical_formula_sum "Si O2"
_cell_formula_units_Z 16
_cell_length_a 9.833538
_cell_length_b 11.577995
_cell_length_c 19.826111
_cell_angle_alpha 30.479273
_cell_angle_beta 51.338067
_cell_angle_gamma 42.321272
_cell_volume 770.358077
_symmetry_space_group_name_H-M "P -1"
_symmetry_group_IT_number 2
_symmetry_cell_setting 'triclinic'
loop_
_space_group_symop_operation_xyz
x,y,z
-x,-y,-z
loop_
_atom_site_type_symbol
_atom_site_label
_atom_site_fract_x
_atom_site_fract_y
_atom_site_fract_z
Si Si1 0.198573 0.514694 0.769162
Si Si2 0.833341 0.766709 0.952739
Si Si3 0.961824 0.886295 0.272184
Si Si4 0.425331 0.794288 0.856607
Si Si5 0.372671 0.855400 0.537584
Si Si6 0.490176 0.085760 0.798142
Si Si7 0.202273 0.305567 0.465892
Si Si8 0.738536 0.939408 0.670656
O O1 0.208755 0.300027 0.926134
O O2 0.303712 0.670113 0.690557
O O3 0.323796 0.366606 0.737763
O O4 0.970096 0.723557 0.716650
O O5 0.000000 0.500000 0.000000
O O6 0.897985 0.986967 0.825941
O O7 0.626020 0.888009 0.914698
O O8 0.068774 0.614709 0.332557
O O9 0.918807 0.805918 0.399104
O O10 0.761154 0.098342 0.190046
O O11 0.370001 0.963641 0.858014
O O12 0.612964 0.795830 0.761245
O O13 0.500000 0.500000 0.000000
O O14 0.613094 0.723794 0.531091
O O15 0.291753 0.872052 0.477926
O O16 0.273238 0.145191 0.455297
O O17 0.641834 0.107657 0.685315
#
# Coordination Sequence:
#
# PCOD8015749 Si02
#       8
#     2   2   2   2   2   2   2   2
#     4  12  24  42  67  97 131 172 222 272 329 394
#     4  12  22  43  67  98 131 173 221 275 333 387
#     4  11  22  42  68  95 134 174 221 273 327 402
#     4  10  21  43  64  93 133 176 215 270 331 389
#     4  11  23  43  63  95 133 171 220 273 329 392
#     4  10  24  41  65  97 129 170 221 269 330 389
#     4  10  23  40  65  97 129 176 221 266 334 394
#     4  10  23  43  60  97 130 170 220 265 336 384
#
# _framework density 20.769560999999999
#
# number of rings (size 3 to 8) (size 9 to 14) (size 15 to 20)
#    0.750    0.500    2.500    3.750    1.750    0.500 
#    2.250    1.250    0.000    0.000    0.000    0.000 
#    0.000    0.000    0.000    0.000    0.000    0.000 
#
# Total GULP energy -198354.514611 kJ/mol
# GULP energy per Si atom -12397.157163 kJ/mol
# Density = 2.072229 g / cm^3
# Si number density = 20.769561 Si / 1000 Ang^3
#
#
#
# Elastic Constant Matrix: (Units=GPa)
#
#
# Indices 1 2 3 4 5 6 
#
# 1 57.6193 20.1688 25.1563 9.5539 1.5059 6.5557
# 2 20.1688 131.3760 32.1407 -7.2288 5.6846 0.1090
# 3 25.1563 32.1407 112.6913 2.4154 -9.0241 3.1427
# 4 9.5539 -7.2288 2.4154 27.0713 3.3874 -5.1547
# 5 1.5059 5.6846 -9.0241 3.3874 30.5459 -0.1047
# 6 6.5557 0.1090 3.1427 -5.1547 -0.1047 24.9746
#
#
#
# Elastic Compliance Matrix: (Units=1/GPa)
#
#
# Indices 1 2 3 4 5 6 
#
# 1 0.022564 -0.003039 -0.003802 -0.009778 -0.000611 -0.007452
# 2 -0.003039 0.008982 -0.002244 0.004372 -0.002663 0.001932
# 3 -0.003802 -0.002244 0.010701 -0.000787 0.003852 -0.000485
# 4 -0.009778 0.004372 -0.000787 0.044563 -0.005465 0.011821
# 5 -0.000611 -0.002663 0.003852 -0.005465 0.035003 -0.001294
# 6 -0.007452 0.001932 -0.000485 0.011821 -0.001294 0.044484
#
#
# Mechanical properties :
#
#
# Convention : Reuss Voigt Hill
#
# Bulk Modulus (GPa) = 41.53360 50.73536 46.13448
# Shear Modulus (GPa) = 25.97503 31.46640 28.72072
#
# Velocity S-wave (km/s) = 3.54026 3.89655 3.72267
# Velocity P-wave (km/s) = 6.06234 6.68767 6.38267
#
# Compressibility (1/GPa) = 0.02407689
#
# Stress axis : x y z
#
# Youngs Moduli (GPa) = 44.31804 111.33966 93.44633
#
# Poissons Ratio (x) = 0.33840 0.35526
# Poissons Ratio (y) = 0.13470 0.20969
# Poissons Ratio (z) = 0.16848 0.24984
#
# Static dielectric constant tensor:
#      x y z
#    x 3.877120 -0.246440 -0.095340 
#    y -0.246440 4.026360 0.090760 
#    z -0.095340 0.090760 3.760690 
# 
# 
# High freq. dielectric constant tensor:
#      x y z
#    x 1.813070 -0.007570 0.000480 
#    y -0.007570 1.813370 -0.003100 
#    z 0.000480 -0.003100 1.813520 
# 
# From -- ./inp_files/588841.got.cif
#   From: 2010.06.25/outbox.cif.g09.slc.cpg/sg2_295_cif.got.tgz:588841.got - 2010.06.27 13:26:56.
