data_PCOD8015809
_publ_section_title
;
Structure prediction by ZEFSAII (Michael W. Deem and Ramdas Pophale) SiO2 
 PCOD8015809
Probable space group: P -1
;
_chemical_formula_sum "Si O2"
_cell_formula_units_Z 14
_cell_length_a 17.535792
_cell_length_b 10.724220
_cell_length_c 6.536913
_cell_angle_alpha 70.298565
_cell_angle_beta 119.706250
_cell_angle_gamma 148.165357
_cell_volume 553.686995
_symmetry_space_group_name_H-M "P -1"
_symmetry_group_IT_number 2
_symmetry_cell_setting 'triclinic'
loop_
_space_group_symop_operation_xyz
x,y,z
-x,-y,-z
loop_
_atom_site_type_symbol
_atom_site_label
_atom_site_fract_x
_atom_site_fract_y
_atom_site_fract_z
Si Si1 0.667064 0.608426 0.819733
Si Si2 0.689774 0.855333 0.393590
Si Si3 0.107220 0.012713 0.768583
Si Si4 0.758093 0.550955 0.592150
Si Si5 0.735970 0.203885 0.212288
Si Si6 0.467758 0.872736 0.722406
Si Si7 0.046391 0.420748 0.011138
O O1 0.680255 0.768932 0.644838
O O2 0.700531 0.537267 0.737462
O O3 0.490852 0.360818 0.813421
O O4 0.793900 0.757401 0.091749
O O5 0.796495 0.903223 0.353956
O O6 0.766166 0.096070 0.408225
O O7 0.922375 0.831319 0.575306
O O8 0.091643 0.862574 0.980165
O O9 0.619871 0.374229 0.333878
O O10 0.797684 0.445557 0.744241
O O11 0.652038 0.198373 0.253589
O O12 0.902660 0.482604 0.209604
O O13 0.628257 0.036453 0.961866
O O14 0.500000 0.000000 0.500000
O O15 0.000000 0.500000 0.000000
#
# Coordination Sequence:
#
# PCOD8015809 Si02
#       7
#     2   2   2   2   2   2   2
#     4  11  25  45  64  98 135 180 234 265 330 399
#     4  11  25  43  66  99 132 180 224 279 328 400
#     4  10  23  44  69  92 136 178 219 283 333 391
#     4  10  23  43  68  95 135 172 223 280 323 400
#     4  11  23  41  72  98 134 176 217 275 353 389
#     4  11  22  40  66 102 134 171 221 276 334 408
#     4  10  21  43  66 101 131 167 220 277 343 396
#
# _framework density 25.285046000000001
#
# number of rings (size 3 to 8) (size 9 to 14) (size 15 to 20)
#    0.857    0.571    2.857    1.714    2.000    7.429 
#    0.000    2.143    0.000    0.000    0.000    0.000 
#    0.000    0.000    0.000    0.000    0.000    0.000 
#
# Total GULP energy -173504.541957 kJ/mol
# GULP energy per Si atom -12393.181568 kJ/mol
# Density = 2.522750 g / cm^3
# Si number density = 25.285046 Si / 1000 Ang^3
#
#
#
# Elastic Constant Matrix: (Units=GPa)
#
#
# Indices 1 2 3 4 5 6 
#
# 1 89.8371 1.0090 -15.5043 11.2043 -15.1131 21.8193
# 2 1.0090 110.7191 23.4241 -7.5498 -12.7555 22.7988
# 3 -15.5043 23.4241 29.6436 16.5324 -7.7566 6.9447
# 4 11.2043 -7.5498 16.5324 58.0126 -1.3969 -7.4060
# 5 -15.1131 -12.7555 -7.7566 -1.3969 31.5788 -6.1484
# 6 21.8193 22.7988 6.9447 -7.4060 -6.1484 41.1928
#
#
#
# Elastic Compliance Matrix: (Units=1/GPa)
#
#
# Indices 1 2 3 4 5 6 
#
# 1 0.026464 -0.003016 0.034381 -0.017350 0.015433 -0.018961
# 2 -0.003016 0.013058 -0.014922 0.006283 0.000059 -0.001976
# 3 0.034381 -0.014922 0.100184 -0.040302 0.027411 -0.029997
# 4 -0.017350 0.006283 -0.040302 0.034822 -0.010784 0.017158
# 5 0.015433 0.000059 0.027411 -0.010784 0.043728 -0.008241
# 6 -0.018961 -0.001976 -0.029997 0.017158 -0.008241 0.042325
#
#
# Mechanical properties :
#
#
# Convention : Reuss Voigt Hill
#
# Bulk Modulus (GPa) = 5.79401 27.56192 16.67797
# Shear Modulus (GPa) = 17.53000 40.90824 29.21912
#
# Velocity S-wave (km/s) = 2.63591 4.02666 3.40308
# Velocity P-wave (km/s) = 3.40007 5.70463 4.69591
#
# Compressibility (1/GPa) = 0.17259192
#
# Stress axis : x y z
#
# Youngs Moduli (GPa) = 37.78745 76.57899 9.98168
#
# Poissons Ratio (x) = 0.23094 -0.34318
# Poissons Ratio (y) = 0.11396 0.14895
# Poissons Ratio (z) = -1.29916 1.14270
#
# Static dielectric constant tensor:
#      x y z
#    x 4.310120 0.110380 0.202000 
#    y 0.110380 5.135060 -0.190960 
#    z 0.202000 -0.190960 4.386030 
# 
# 
# High freq. dielectric constant tensor:
#      x y z
#    x 2.004870 0.002120 0.005910 
#    y 0.002120 2.037550 -0.021770 
#    z 0.005910 -0.021770 1.997940 
# 
# From -- ./inp_files/108601.got.cif
#   From: 2010.06.25/outbox.cif.g09.slc.cpg/sg2_55_cif.got.tgz:108601.got - 2010.06.27 13:26:56.
