data_PCOD8015341
_publ_section_title
;
Structure prediction by ZEFSAII (Michael W. Deem and Ramdas Pophale) SiO2 
 PCOD8015341
Probable space group: P -1
;
_chemical_formula_sum "Si O2"
_cell_formula_units_Z 16
_cell_length_a 8.722532
_cell_length_b 12.143526
_cell_length_c 18.115622
_cell_angle_alpha 32.273490
_cell_angle_beta 49.770435
_cell_angle_gamma 48.371385
_cell_volume 748.618622
_symmetry_space_group_name_H-M "P -1"
_symmetry_group_IT_number 2
_symmetry_cell_setting 'triclinic'
loop_
_space_group_symop_operation_xyz
x,y,z
-x,-y,-z
loop_
_atom_site_type_symbol
_atom_site_label
_atom_site_fract_x
_atom_site_fract_y
_atom_site_fract_z
Si Si1 0.024403 0.534372 0.129855
Si Si2 0.419332 0.136073 0.621760
Si Si3 0.971333 0.532473 0.403544
Si Si4 0.818794 0.161505 0.419736
Si Si5 0.157168 0.060938 0.607490
Si Si6 0.131591 0.750560 0.107898
Si Si7 0.103641 0.249639 0.087962
Si Si8 0.565888 0.748962 0.906219
O O1 0.019468 0.609445 0.172835
O O2 0.264300 0.457985 0.065999
O O3 0.909455 0.351534 0.258239
O O4 0.883340 0.740751 0.010555
O O5 0.262466 0.311112 0.623643
O O6 0.611632 0.235683 0.492046
O O7 0.323525 0.089763 0.599684
O O8 0.492282 0.915836 0.768624
O O9 0.000000 0.500000 0.500000
O O10 0.007294 0.294083 0.495070
O O11 0.125528 0.656035 0.246229
O O12 0.740234 0.052743 0.435168
O O13 0.000000 0.000000 0.500000
O O14 0.027323 0.914339 0.764455
O O15 0.368929 0.696595 0.035514
O O16 0.000000 0.000000 0.000000
O O17 0.323461 0.158157 0.114048
O O18 0.000000 0.500000 0.000000
#
# Coordination Sequence:
#
# PCOD8015341 Si02
#       8
#     2   2   2   2   2   2   2   2
#     4  11  24  44  68 100 138 174 223 285 336 405
#     4  11  23  42  69  98 137 181 225 278 337 400
#     4  10  25  45  65  99 135 178 226 282 330 398
#     4  12  22  42  66 101 136 171 227 283 341 400
#     4  11  22  43  69  97 135 176 230 281 334 401
#     4  12  25  45  72  98 137 181 230 274 338 411
#     4  10  21  42  67  99 139 169 217 285 341 393
#     4  11  22  44  71  99 134 177 224 276 343 396
#
# _framework density 21.372699000000001
#
# number of rings (size 3 to 8) (size 9 to 14) (size 15 to 20)
#    0.000    1.000    5.000    2.250    1.750    3.000 
#    2.250    2.500    0.000    0.000    0.000    0.000 
#    0.000    0.000    0.000    0.000    0.000    0.000 
#
# Total GULP energy -198252.243235 kJ/mol
# GULP energy per Si atom -12390.765202 kJ/mol
# Density = 2.132405 g / cm^3
# Si number density = 21.372699 Si / 1000 Ang^3
#
#
#
# Elastic Constant Matrix: (Units=GPa)
#
#
# Indices 1 2 3 4 5 6 
#
# 1 99.2584 33.0873 34.9094 5.0374 6.3531 -6.7805
# 2 33.0873 90.0816 51.7815 9.3921 -11.1350 -6.6097
# 3 34.9094 51.7815 153.8121 10.4536 0.5451 -6.3699
# 4 5.0374 9.3921 10.4536 39.2314 -0.3942 -0.9844
# 5 6.3531 -11.1350 0.5451 -0.3942 41.6499 6.2620
# 6 -6.7805 -6.6097 -6.3699 -0.9844 6.2620 20.5540
#
#
#
# Elastic Compliance Matrix: (Units=1/GPa)
#
#
# Indices 1 2 3 4 5 6 
#
# 1 0.012304 -0.003917 -0.001303 -0.000243 -0.003424 0.003427
# 2 -0.003917 0.015879 -0.004293 -0.002083 0.004738 0.000941
# 3 -0.001303 -0.004293 0.008362 -0.001018 -0.001235 0.001108
# 4 -0.000243 -0.002083 -0.001018 0.026295 -0.000301 0.000285
# 5 -0.003424 0.004738 -0.001235 -0.000301 0.027052 -0.008245
# 6 0.003427 0.000941 0.001108 0.000285 -0.008245 0.052954
#
#
# Mechanical properties :
#
#
# Convention : Reuss Voigt Hill
#
# Bulk Modulus (GPa) = 57.08004 64.74538 60.91271
# Shear Modulus (GPa) = 29.81283 35.17867 32.49575
#
# Velocity S-wave (km/s) = 3.73889 4.06145 3.90350
# Velocity P-wave (km/s) = 6.73825 7.23554 6.99132
#
# Compressibility (1/GPa) = 0.01751926
#
# Stress axis : x y z
#
# Youngs Moduli (GPa) = 81.27184 62.97477 119.58828
#
# Poissons Ratio (x) = 0.24665 0.15588
# Poissons Ratio (y) = 0.31831 0.51341
# Poissons Ratio (z) = 0.10593 0.27036
#
# Static dielectric constant tensor:
#      x y z
#    x 4.241410 0.029570 0.191470 
#    y 0.029570 4.176450 0.004570 
#    z 0.191470 0.004570 4.492440 
# 
# 
# High freq. dielectric constant tensor:
#      x y z
#    x 1.839140 0.005450 0.014000 
#    y 0.005450 1.823880 0.008040 
#    z 0.014000 0.008040 1.857880 
# 
# From -- ./inp_files/295491.got.cif
#   From: 2010.06.25/outbox.cif.g09.slc.cpg/sg2_148_cif.got.tgz:295491.got - 2010.06.27 13:26:56.
