data_PCOD8015654
_publ_section_title
;
Structure prediction by ZEFSAII (Michael W. Deem and Ramdas Pophale) SiO2 
 PCOD8015654
Probable space group: P -1
;
_chemical_formula_sum "Si O2"
_cell_formula_units_Z 16
_cell_length_a 16.146069
_cell_length_b 8.859867
_cell_length_c 5.442907
_cell_angle_alpha 78.260126
_cell_angle_beta 97.588462
_cell_angle_gamma 63.395008
_cell_volume 659.089380
_symmetry_space_group_name_H-M "P -1"
_symmetry_group_IT_number 2
_symmetry_cell_setting 'triclinic'
loop_
_space_group_symop_operation_xyz
x,y,z
-x,-y,-z
loop_
_atom_site_type_symbol
_atom_site_label
_atom_site_fract_x
_atom_site_fract_y
_atom_site_fract_z
Si Si1 0.266890 0.105189 0.044468
Si Si2 0.202629 0.674085 0.502886
Si Si3 0.356116 0.316059 0.808626
Si Si4 0.991834 0.323357 0.553152
Si Si5 0.526877 0.128651 0.611961
Si Si6 0.755083 0.203774 0.002392
Si Si7 0.432714 0.466208 0.163583
Si Si8 0.933485 0.710366 0.906081
O O1 0.179186 0.231951 0.147528
O O2 0.359626 0.976121 0.280612
O O3 0.235564 0.988392 0.905321
O O4 0.290960 0.223738 0.834963
O O5 0.299607 0.486469 0.552975
O O6 0.117167 0.631102 0.517522
O O7 0.183453 0.796027 0.213392
O O8 0.211366 0.759898 0.734132
O O9 0.463560 0.175871 0.817172
O O10 0.369501 0.384464 0.052823
O O11 0.000000 0.500000 0.500000
O O12 0.045854 0.213045 0.363274
O O13 0.040413 0.215862 0.859853
O O14 0.501070 0.321340 0.433622
O O15 0.500000 0.000000 0.500000
O O16 0.645350 0.341242 0.836373
O O17 0.500000 0.500000 0.000000
O O18 0.000000 0.500000 0.000000
#
# Coordination Sequence:
#
# PCOD8015654 Si02
#       8
#     2   2   2   2   2   2   2   2
#     4  12  27  45  71 106 145 189 247 308 356 433
#     4  11  24  48  76 106 146 191 242 297 365 443
#     4  11  24  45  66 104 143 191 244 294 356 433
#     4  10  21  42  74 104 134 180 242 297 357 426
#     4  12  26  42  71 108 144 189 250 300 355 424
#     4  11  27  46  70 109 148 193 239 294 373 430
#     4  11  25  45  68 100 150 197 236 292 361 434
#     4  10  23  44  70 106 137 186 240 298 363 422
#
# _framework density 24.275918999999998
#
# number of rings (size 3 to 8) (size 9 to 14) (size 15 to 20)
#    0.000    1.000    2.500    3.375    5.250    8.000 
#    0.000    3.750    0.000    0.000    0.000    0.000 
#    0.000    0.000    0.000    0.000    0.000    0.000 
#
# Total GULP energy -198281.738663 kJ/mol
# GULP energy per Si atom -12392.608666 kJ/mol
# Density = 2.422067 g / cm^3
# Si number density = 24.275919 Si / 1000 Ang^3
#
#
#
# Elastic Constant Matrix: (Units=GPa)
#
#
# Indices 1 2 3 4 5 6 
#
# 1 150.1067 50.1624 33.8437 7.1082 0.7668 -15.4961
# 2 50.1624 94.5341 25.0852 5.8535 -3.1439 1.9054
# 3 33.8437 25.0852 122.9008 25.5871 -11.5431 -3.2227
# 4 7.1082 5.8535 25.5871 25.2859 -1.9709 -5.1939
# 5 0.7668 -3.1439 -11.5431 -1.9709 41.1300 -2.9849
# 6 -15.4961 1.9054 -3.2227 -5.1939 -2.9849 52.0964
#
#
#
# Elastic Compliance Matrix: (Units=1/GPa)
#
#
# Indices 1 2 3 4 5 6 
#
# 1 0.008725 -0.004309 -0.001674 0.000732 -0.000732 0.002680
# 2 -0.004309 0.013334 -0.001357 -0.000852 0.000540 -0.001907
# 3 -0.001674 -0.001357 0.011300 -0.010587 0.002544 -0.000659
# 4 0.000732 -0.000852 -0.010587 0.051195 -0.000257 0.004683
# 5 -0.000732 0.000540 0.002544 -0.000257 0.025167 0.001336
# 6 0.002680 -0.001907 -0.000659 0.004683 0.001336 0.020565
#
#
# Mechanical properties :
#
#
# Convention : Reuss Voigt Hill
#
# Bulk Modulus (GPa) = 53.53564 65.08047 59.30806
# Shear Modulus (GPa) = 33.07033 40.93248 37.00140
#
# Velocity S-wave (km/s) = 3.69490 4.11071 3.90834
# Velocity P-wave (km/s) = 6.34853 7.02833 6.69706
#
# Compressibility (1/GPa) = 0.01867915
#
# Stress axis : x y z
#
# Youngs Moduli (GPa) = 114.60993 74.99589 88.49186
#
# Poissons Ratio (x) = 0.32318 0.14814
# Poissons Ratio (y) = 0.49390 0.12007
# Poissons Ratio (z) = 0.19187 0.10176
#
# Static dielectric constant tensor:
#      x y z
#    x 4.517100 -0.228260 -0.092740 
#    y -0.228260 4.681620 0.223700 
#    z -0.092740 0.223700 4.911070 
# 
# 
# High freq. dielectric constant tensor:
#      x y z
#    x 1.971900 -0.006930 -0.001800 
#    y -0.006930 1.964530 0.000170 
#    z -0.001800 0.000170 1.960340 
# 
# From -- ./inp_files/90154.got.cif
#   From: 2010.06.25/outbox.cif.g09.slc.cpg/sg2_46_cif.got.tgz:90154.got - 2010.06.27 13:26:56.
