data_PCOD8015142
_publ_section_title
;
Structure prediction by ZEFSAII (Michael W. Deem and Ramdas Pophale) SiO2 
 PCOD8015142
Probable space group: P -1
;
_chemical_formula_sum "Si O2"
_cell_formula_units_Z 12
_cell_length_a 9.514341
_cell_length_b 16.261610
_cell_length_c 9.847787
_cell_angle_alpha 144.698728
_cell_angle_beta 119.191024
_cell_angle_gamma 43.495915
_cell_volume 584.819085
_symmetry_space_group_name_H-M "P -1"
_symmetry_group_IT_number 2
_symmetry_cell_setting 'triclinic'
loop_
_space_group_symop_operation_xyz
x,y,z
-x,-y,-z
loop_
_atom_site_type_symbol
_atom_site_label
_atom_site_fract_x
_atom_site_fract_y
_atom_site_fract_z
Si Si1 0.847559 0.149257 0.018536
Si Si2 0.852540 0.008519 0.548494
Si Si3 0.425328 0.384485 0.776053
Si Si4 0.903399 0.410067 0.876624
Si Si5 0.190634 0.495945 0.543416
Si Si6 0.593032 0.584166 0.726772
O O1 0.883813 0.298439 0.231443
O O2 0.610712 0.226174 0.044089
O O3 0.912537 0.047105 0.769089
O O4 0.000000 0.000000 0.000000
O O5 0.908191 0.809990 0.308679
O O6 0.606071 0.168248 0.610471
O O7 0.000000 0.000000 0.500000
O O8 0.372682 0.389166 0.599870
O O9 0.500000 0.500000 0.000000
O O10 0.213886 0.485187 0.897962
O O11 0.748908 0.444422 0.731412
O O12 0.000000 0.500000 0.000000
O O13 0.291032 0.388804 0.300330
O O14 0.000000 0.500000 0.500000
O O15 0.500000 0.500000 0.500000
#
# Coordination Sequence:
#
# PCOD8015142 Si02
#       6
#     2   2   2   2   2   2
#     4  11  23  41  66  96 126 172 228 255 313 402
#     4  12  24  40  72  97 125 177 222 262 322 393
#     4  12  22  44  68  98 130 170 224 263 318 400
#     4  12  25  44  67  98 133 165 217 280 326 373
#     4  11  23  42  66  95 135 169 207 278 329 367
#     4  10  21  42  66  90 129 173 213 261 318 388
#
# _framework density 20.519166999999999
#
# number of rings (size 3 to 8) (size 9 to 14) (size 15 to 20)
#    0.000    0.667    5.000    4.000    2.333    0.667 
#    3.000    0.833    0.000    0.000    0.000    0.000 
#    0.000    0.000    0.000    0.000    0.000    0.000 
#
# Total GULP energy -148779.524689 kJ/mol
# GULP energy per Si atom -12398.293724 kJ/mol
# Density = 2.047246 g / cm^3
# Si number density = 20.519167 Si / 1000 Ang^3
#
#
#
# Elastic Constant Matrix: (Units=GPa)
#
#
# Indices 1 2 3 4 5 6 
#
# 1 133.1117 23.9895 45.0506 21.0231 -9.3933 16.0316
# 2 23.9895 167.9302 53.6729 19.5008 -1.0978 6.9983
# 3 45.0506 53.6729 99.8117 20.2732 -18.3247 11.8224
# 4 21.0231 19.5008 20.2732 45.7638 7.8236 -4.5842
# 5 -9.3933 -1.0978 -18.3247 7.8236 40.8146 -4.4850
# 6 16.0316 6.9983 11.8224 -4.5842 -4.4850 32.4013
#
#
#
# Elastic Compliance Matrix: (Units=1/GPa)
#
#
# Indices 1 2 3 4 5 6 
#
# 1 0.009670 0.000198 -0.002996 -0.003810 0.001164 -0.004112
# 2 0.000198 0.007360 -0.003957 -0.001305 -0.001351 -0.000615
# 3 -0.002996 -0.003957 0.016435 -0.005816 0.007316 -0.003470
# 4 -0.003810 -0.001305 -0.005816 0.028871 -0.008263 0.007230
# 5 0.001164 -0.001351 0.007316 -0.008263 0.029599 -0.000026
# 6 -0.004112 -0.000615 -0.003470 0.007230 -0.000026 0.035316
#
#
# Mechanical properties :
#
#
# Convention : Reuss Voigt Hill
#
# Bulk Modulus (GPa) = 50.11722 71.80885 60.96303
# Shear Modulus (GPa) = 33.91867 42.33865 38.12866
#
# Velocity S-wave (km/s) = 4.07015 4.54736 4.31536
# Velocity P-wave (km/s) = 6.82391 7.91475 7.38949
#
# Compressibility (1/GPa) = 0.01995322
#
# Stress axis : x y z
#
# Youngs Moduli (GPa) = 103.41215 135.87677 60.84737
#
# Poissons Ratio (x) = -0.02686 0.18232
# Poissons Ratio (y) = -0.02044 0.24076
# Poissons Ratio (z) = 0.30985 0.53765
#
# Static dielectric constant tensor:
#      x y z
#    x 4.588260 0.204240 -0.745560 
#    y 0.204240 3.186170 -0.297280 
#    z -0.745560 -0.297280 4.127150 
# 
# 
# High freq. dielectric constant tensor:
#      x y z
#    x 1.806530 0.006410 -0.024040 
#    y 0.006410 1.818090 -0.012600 
#    z -0.024040 -0.012600 1.798500 
# 
# From -- ./inp_files/106640.got.cif
#   From: 2010.06.25/outbox.cif.g09.slc.cpg/sg2_54_cif.got.tgz:106640.got - 2010.06.27 13:26:56.
