data_PCOD8015026
_publ_section_title
;
Structure prediction by ZEFSAII (Michael W. Deem and Ramdas Pophale) SiO2 
 PCOD8015026
Probable space group: P -1
;
_chemical_formula_sum "Si O2"
_cell_formula_units_Z 16
_cell_length_a 20.768635
_cell_length_b 11.765311
_cell_length_c 18.061993
_cell_angle_alpha 138.733730
_cell_angle_beta 19.258541
_cell_angle_gamma 149.740023
_cell_volume 677.437287
_symmetry_space_group_name_H-M "P -1"
_symmetry_group_IT_number 2
_symmetry_cell_setting 'triclinic'
loop_
_space_group_symop_operation_xyz
x,y,z
-x,-y,-z
loop_
_atom_site_type_symbol
_atom_site_label
_atom_site_fract_x
_atom_site_fract_y
_atom_site_fract_z
Si Si1 0.056843 0.401261 0.739823
Si Si2 0.142360 0.091083 0.311262
Si Si3 0.125426 0.760055 0.410379
Si Si4 0.453066 0.764929 0.730695
Si Si5 0.871784 0.032431 0.282759
Si Si6 0.595506 0.572098 0.284932
Si Si7 0.316132 0.449272 0.107180
Si Si8 0.916086 0.527503 0.813719
O O1 0.376642 0.580989 0.502026
O O2 0.047742 0.475575 0.703244
O O3 0.921362 0.130199 0.764684
O O4 0.880532 0.415010 0.993023
O O5 0.010895 0.161782 0.442205
O O6 0.477631 0.323986 0.062558
O O7 0.000000 0.000000 0.500000
O O8 0.182281 0.639185 0.233479
O O9 0.916671 0.573895 0.613434
O O10 0.419929 0.006078 0.242391
O O11 0.522091 0.616031 0.612243
O O12 0.580034 0.857267 0.556960
O O13 0.141905 0.198865 0.125491
O O14 0.864397 0.194183 0.316589
O O15 0.867005 0.851625 0.152181
O O16 0.663954 0.479334 0.099492
O O17 0.500000 0.500000 0.000000
#
# Coordination Sequence:
#
# PCOD8015026 Si02
#       8
#     2   2   2   2   2   2   2   2
#     4  11  25  41  67 103 138 183 232 280 343 409
#     4  11  21  38  67 102 138 177 224 286 344 410
#     4  10  21  42  65 103 140 173 226 291 351 397
#     4  10  24  44  71 102 134 181 235 291 340 408
#     4  11  25  46  71  98 143 187 226 287 343 411
#     4  11  25  48  69  99 140 188 237 276 340 410
#     4   9  23  41  68 103 135 176 225 284 349 407
#     4  11  26  43  69 103 139 184 228 288 341 409
#
# _framework density 23.618421999999999
#
# number of rings (size 3 to 8) (size 9 to 14) (size 15 to 20)
#    0.000    1.500    2.500    0.750    5.250    4.000 
#    0.000    6.250    0.000    0.000    0.000    0.000 
#    0.000    0.000    0.000    0.000    0.000    0.000 
#
# Total GULP energy -198243.077101 kJ/mol
# GULP energy per Si atom -12390.192319 kJ/mol
# Density = 2.356467 g / cm^3
# Si number density = 23.618422 Si / 1000 Ang^3
#
#
#
# Elastic Constant Matrix: (Units=GPa)
#
#
# Indices 1 2 3 4 5 6 
#
# 1 32.1057 21.6417 103.7259 -14.3221 20.9325 10.5278
# 2 21.6417 123.3982 53.7503 -3.6809 9.2902 11.1048
# 3 103.7259 53.7503 80.0009 0.4429 -13.2725 -21.2014
# 4 -14.3221 -3.6809 0.4429 32.0374 -4.2971 5.7924
# 5 20.9325 9.2902 -13.2725 -4.2971 37.2066 -13.3496
# 6 10.5278 11.1048 -21.2014 5.7924 -13.3496 35.3736
#
#
#
# Elastic Compliance Matrix: (Units=1/GPa)
#
#
# Indices 1 2 3 4 5 6 
#
# 1 -0.000666 -0.004918 0.008069 -0.001700 0.007802 0.009801
# 2 -0.004918 0.009239 -0.000301 -0.000888 -0.000322 -0.001593
# 3 0.008069 -0.000301 -0.000175 0.003727 -0.005992 -0.005283
# 4 -0.001700 -0.000888 0.003727 0.031083 0.006193 0.000266
# 5 0.007802 -0.000322 -0.005992 0.006193 0.021625 0.001335
# 6 0.009801 -0.001593 -0.005283 0.000266 0.001335 0.023146
#
#
# Mechanical properties :
#
#
# Convention : Reuss Voigt Hill
#
# Bulk Modulus (GPa) = 70.93502 65.97117 68.45309
# Shear Modulus (GPa) = 60.05924 24.68263 42.37093
#
# Velocity S-wave (km/s) = 5.04819 3.23624 4.24013
# Velocity P-wave (km/s) = 8.00487 6.47743 7.28131
#
# Compressibility (1/GPa) = 0.01409741
#
# Stress axis : x y z
#
# Youngs Moduli (GPa) = -1501.10685 108.23991 -5723.22251
#
# Poissons Ratio (x) = 0.53233 46.18180
# Poissons Ratio (y) = -7.38254 -1.72467
# Poissons Ratio (z) = 12.11272 0.03262
#
# Static dielectric constant tensor:
#      x y z
#    x 4.248680 -0.118230 -0.074720 
#    y -0.118230 4.390780 0.038690 
#    z -0.074720 0.038690 4.087810 
# 
# 
# High freq. dielectric constant tensor:
#      x y z
#    x 1.937750 -0.016630 0.010370 
#    y -0.016630 1.936150 -0.001710 
#    z 0.010370 -0.001710 1.936760 
# 
# From -- ./inp_files/577984.got.cif
#   From: 2010.06.25/outbox.cif.g09.slc.cpg/sg2_289_cif.got.tgz:577984.got - 2010.06.27 13:26:56.
