data_PCOD8015119
_publ_section_title
;
Structure prediction by ZEFSAII (Michael W. Deem and Ramdas Pophale) SiO2 
 PCOD8015119
Probable space group: P -1
;
_chemical_formula_sum "Si O2"
_cell_formula_units_Z 16
_cell_length_a 5.132636
_cell_length_b 22.849527
_cell_length_c 11.716331
_cell_angle_alpha 147.568284
_cell_angle_beta 104.738573
_cell_angle_gamma 69.289038
_cell_volume 686.617808
_symmetry_space_group_name_H-M "P -1"
_symmetry_group_IT_number 2
_symmetry_cell_setting 'triclinic'
loop_
_space_group_symop_operation_xyz
x,y,z
-x,-y,-z
loop_
_atom_site_type_symbol
_atom_site_label
_atom_site_fract_x
_atom_site_fract_y
_atom_site_fract_z
Si Si1 0.146115 0.698342 0.071650
Si Si2 0.912642 0.526218 0.231438
Si Si3 0.182921 0.234110 0.291168
Si Si4 0.831540 0.124815 0.227752
Si Si5 0.882589 0.810940 0.434327
Si Si6 0.483269 0.025359 0.671973
Si Si7 0.320666 0.398225 0.892731
Si Si8 0.085057 0.836534 0.074746
O O1 0.069611 0.579069 0.855167
O O2 0.392448 0.679269 0.158864
O O3 0.918950 0.794524 0.273247
O O4 0.213473 0.739659 0.023538
O O5 0.852486 0.632571 0.483041
O O6 0.662990 0.547400 0.142340
O O7 0.191849 0.496067 0.133518
O O8 0.501329 0.155679 0.212352
O O9 0.981181 0.208799 0.322127
O O10 0.062558 0.216999 0.127232
O O11 0.875177 0.145118 0.400928
O O12 0.000000 0.000000 0.000000
O O13 0.864872 0.692298 0.292297
O O14 0.601273 0.914142 0.579861
O O15 0.158993 0.066676 0.736044
O O16 0.664017 0.116017 0.867570
O O17 0.500000 0.000000 0.500000
#
# Coordination Sequence:
#
# PCOD8015119 Si02
#       8
#     2   2   2   2   2   2   2   2
#     4  11  24  40  69 100 133 180 233 286 342 402
#     4  10  23  41  68  98 136 178 227 288 345 395
#     4  12  26  47  69  98 144 183 222 280 344 407
#     4  12  26  46  69 102 136 182 230 277 341 412
#     4  11  23  39  71 101 134 177 228 290 344 402
#     4  12  25  46  70 104 141 181 227 281 341 405
#     4  10  21  42  66 102 134 168 238 287 347 394
#     4  12  27  46  68 103 142 183 230 276 339 419
#
# _framework density 23.302627000000001
#
# number of rings (size 3 to 8) (size 9 to 14) (size 15 to 20)
#    0.000    0.750    2.500    4.875    5.250    0.500 
#    0.000    0.625    0.000    0.000    0.000    0.000 
#    0.000    0.000    0.000    0.000    0.000    0.000 
#
# Total GULP energy -198286.399437 kJ/mol
# GULP energy per Si atom -12392.899965 kJ/mol
# Density = 2.324959 g / cm^3
# Si number density = 23.302627 Si / 1000 Ang^3
#
#
#
# Elastic Constant Matrix: (Units=GPa)
#
#
# Indices 1 2 3 4 5 6 
#
# 1 45.6478 2.3679 -18.8648 4.4053 -2.6430 -3.9422
# 2 2.3679 87.7786 17.4483 14.4113 -2.6295 -4.6353
# 3 -18.8648 17.4483 104.7440 0.0198 0.8236 2.1915
# 4 4.4053 14.4113 0.0198 38.5478 -6.7652 3.3217
# 5 -2.6430 -2.6295 0.8236 -6.7652 14.2467 -6.7887
# 6 -3.9422 -4.6353 2.1915 3.3217 -6.7887 27.7300
#
#
#
# Elastic Compliance Matrix: (Units=1/GPa)
#
#
# Indices 1 2 3 4 5 6 
#
# 1 0.024685 -0.000823 0.004445 -0.001958 0.005424 0.004583
# 2 -0.000823 0.012876 -0.002372 -0.004704 0.001647 0.003189
# 3 0.004445 -0.002372 0.010762 0.000364 -0.000426 -0.000763
# 4 -0.001958 -0.004704 0.000364 0.030228 0.012288 -0.001706
# 5 0.005424 0.001647 -0.000426 0.012288 0.087367 0.020997
# 6 0.004583 0.003189 -0.000763 -0.001706 0.020997 0.042652
#
#
# Mechanical properties :
#
#
# Convention : Reuss Voigt Hill
#
# Bulk Modulus (GPa) = 19.67630 26.67479 23.17555
# Shear Modulus (GPa) = 22.42038 31.91951 27.16994
#
# Velocity S-wave (km/s) = 3.10520 3.70507 3.41832
# Velocity P-wave (km/s) = 4.61720 5.45668 5.05440
#
# Compressibility (1/GPa) = 0.05082256
#
# Stress axis : x y z
#
# Youngs Moduli (GPa) = 40.50980 77.66330 92.91950
#
# Poissons Ratio (x) = 0.06395 -0.41302
# Poissons Ratio (y) = 0.03336 0.22040
# Poissons Ratio (z) = -0.18006 0.18422
#
# Static dielectric constant tensor:
#      x y z
#    x 4.327590 0.028180 0.017870 
#    y 0.028180 4.392090 0.035470 
#    z 0.017870 0.035470 4.312100 
# 
# 
# High freq. dielectric constant tensor:
#      x y z
#    x 1.913610 -0.006200 0.002520 
#    y -0.006200 1.925600 0.011770 
#    z 0.002520 0.011770 1.927580 
# 
# From -- ./inp_files/78800.got.cif
#   From: 2010.06.25/outbox.cif.g09.slc.cpg/sg2_40_cif.got.tgz:78800.got - 2010.06.27 13:26:56.
