data_PCOD8015787
_publ_section_title
;
Structure prediction by ZEFSAII (Michael W. Deem and Ramdas Pophale) SiO2 
 PCOD8015787
Probable space group: P -1
;
_chemical_formula_sum "Si O2"
_cell_formula_units_Z 16
_cell_length_a 11.128943
_cell_length_b 12.097720
_cell_length_c 8.707940
_cell_angle_alpha 132.544807
_cell_angle_beta 120.799822
_cell_angle_gamma 77.986908
_cell_volume 724.056603
_symmetry_space_group_name_H-M "P -1"
_symmetry_group_IT_number 2
_symmetry_cell_setting 'triclinic'
loop_
_space_group_symop_operation_xyz
x,y,z
-x,-y,-z
loop_
_atom_site_type_symbol
_atom_site_label
_atom_site_fract_x
_atom_site_fract_y
_atom_site_fract_z
Si Si1 0.924216 0.211334 0.593619
Si Si2 0.665097 0.306086 0.591499
Si Si3 0.966787 0.346457 0.430737
Si Si4 0.433794 0.055785 0.358273
Si Si5 0.647055 0.239786 0.154111
Si Si6 0.427533 0.403274 0.216400
Si Si7 0.862671 0.866693 0.797385
Si Si8 0.822722 0.863551 0.116370
O O1 0.818284 0.267538 0.700131
O O2 0.966203 0.344214 0.614960
O O3 0.063696 0.190616 0.752016
O O4 0.839658 0.047962 0.310490
O O5 0.535005 0.211979 0.515509
O O6 0.649377 0.261488 0.359463
O O7 0.668556 0.483787 0.808307
O O8 0.803089 0.267994 0.202810
O O9 0.000000 0.500000 0.500000
O O10 0.097008 0.268237 0.400613
O O11 0.277466 0.087856 0.323401
O O12 0.500000 0.000000 0.500000
O O13 0.428735 0.932533 0.103758
O O14 0.553104 0.363291 0.151110
O O15 0.500000 0.500000 0.500000
O O16 0.333582 0.233051 0.031238
O O17 0.841500 0.813836 0.908825
O O18 0.000000 0.000000 0.000000
#
# Coordination Sequence:
#
# PCOD8015787 Si02
#       8
#     2   2   2   2   2   2   2   2
#     4  10  23  43  67 100 129 176 230 279 329 395
#     4  10  22  40  66  93 132 170 227 269 331 396
#     4  11  25  41  66  96 137 176 216 269 338 401
#     4  12  26  42  69  99 135 175 224 282 333 399
#     4  10  21  43  65  94 126 179 220 267 329 398
#     4  10  22  39  66  95 127 170 224 273 331 389
#     4  12  23  43  66  94 132 177 222 267 340 402
#     4  11  23  41  72  95 131 174 228 282 330 403
#
# _framework density 22.097719000000001
#
# number of rings (size 3 to 8) (size 9 to 14) (size 15 to 20)
#    0.000    1.250    2.500    3.375    8.750    1.500 
#    2.250    0.625    0.000    0.000    0.000    0.000 
#    0.000    0.000    0.000    0.000    0.000    0.000 
#
# Total GULP energy -198220.421741 kJ/mol
# GULP energy per Si atom -12388.776359 kJ/mol
# Density = 2.204742 g / cm^3
# Si number density = 22.097719 Si / 1000 Ang^3
#
#
#
# Elastic Constant Matrix: (Units=GPa)
#
#
# Indices 1 2 3 4 5 6 
#
# 1 154.0073 61.6659 24.2529 4.1125 5.2988 -29.3331
# 2 61.6659 123.1828 26.3600 7.3020 11.2471 -3.2297
# 3 24.2529 26.3600 44.2414 -0.4229 12.5048 -0.7234
# 4 4.1125 7.3020 -0.4229 29.0051 -3.0447 -3.1337
# 5 5.2988 11.2471 12.5048 -3.0447 25.5629 12.5149
# 6 -29.3331 -3.2297 -0.7234 -3.1337 12.5149 43.0176
#
#
#
# Elastic Compliance Matrix: (Units=1/GPa)
#
#
# Indices 1 2 3 4 5 6 
#
# 1 0.009933 -0.004083 -0.002112 0.000081 -0.002765 0.007241
# 2 -0.004083 0.011297 -0.004098 -0.002679 -0.001588 -0.001738
# 3 -0.002112 -0.004098 0.030162 0.000625 -0.013823 0.002827
# 4 0.000081 -0.002679 0.000625 0.035750 0.004554 0.001144
# 5 -0.002765 -0.001588 -0.013823 0.004554 0.056704 -0.018402
# 6 0.007241 -0.001738 0.002827 0.001144 -0.018402 0.033538
#
#
# Mechanical properties :
#
#
# Convention : Reuss Voigt Hill
#
# Bulk Modulus (GPa) = 32.46089 60.66546 46.56318
# Shear Modulus (GPa) = 24.01087 33.46065 28.73576
#
# Velocity S-wave (km/s) = 3.29990 3.89551 3.61001
# Velocity P-wave (km/s) = 5.40747 6.90986 6.20431
#
# Compressibility (1/GPa) = 0.03080630
#
# Stress axis : x y z
#
# Youngs Moduli (GPa) = 100.67648 88.51777 33.15445
#
# Poissons Ratio (x) = 0.36142 0.07001
# Poissons Ratio (y) = 0.41106 0.13587
# Poissons Ratio (z) = 0.21259 0.36276
#
# Static dielectric constant tensor:
#      x y z
#    x 4.726720 -0.904310 0.101440 
#    y -0.904310 4.389310 0.183490 
#    z 0.101440 0.183490 3.791470 
# 
# 
# High freq. dielectric constant tensor:
#      x y z
#    x 1.890590 -0.024150 0.013420 
#    y -0.024150 1.872290 0.012480 
#    z 0.013420 0.012480 1.842390 
# 
# From -- ./inp_files/260768.got.cif
#   From: 2010.06.25/outbox.cif.g09.slc.cpg/sg2_131_cif.got.tgz:260768.got - 2010.06.27 13:26:56.
