data_PCOD8015729
_publ_section_title
;
Structure prediction by ZEFSAII (Michael W. Deem and Ramdas Pophale) SiO2 
 PCOD8015729
Probable space group: P -1
;
_chemical_formula_sum "Si O2"
_cell_formula_units_Z 14
_cell_length_a 8.881106
_cell_length_b 5.282826
_cell_length_c 20.846240
_cell_angle_alpha 114.834962
_cell_angle_beta 142.986096
_cell_angle_gamma 72.021084
_cell_volume 533.705179
_symmetry_space_group_name_H-M "P -1"
_symmetry_group_IT_number 2
_symmetry_cell_setting 'triclinic'
loop_
_space_group_symop_operation_xyz
x,y,z
-x,-y,-z
loop_
_atom_site_type_symbol
_atom_site_label
_atom_site_fract_x
_atom_site_fract_y
_atom_site_fract_z
Si Si1 0.263145 0.817966 0.134898
Si Si2 0.273336 0.786810 0.654571
Si Si3 0.428391 0.648009 0.827464
Si Si4 0.256035 0.103784 0.359060
Si Si5 0.790000 0.095110 0.023490
Si Si6 0.949400 0.531967 0.222030
Si Si7 0.281232 0.221066 0.525060
O O1 0.321017 0.492679 0.130260
O O2 0.027024 0.912229 0.105353
O O3 0.514596 0.978507 0.263615
O O4 0.210674 0.861103 0.047479
O O5 0.254432 0.723510 0.717447
O O6 0.347524 0.519199 0.610874
O O7 0.994287 0.887181 0.554783
O O8 0.270544 0.433061 0.796740
O O9 0.528089 0.920643 0.931344
O O10 0.065722 0.833295 0.274985
O O11 0.517347 0.000913 0.407860
O O12 0.150787 0.326958 0.298002
O O13 0.303872 0.254867 0.459483
O O14 0.815869 0.390172 0.099419
#
# Coordination Sequence:
#
# PCOD8015729 Si02
#       7
#     2   2   2   2   2   2   2
#     4  10  22  42  66  97 134 170 225 276 332 404
#     4  10  21  43  64 101 128 177 220 280 333 396
#     4  11  23  40  66  99 133 173 223 277 327 409
#     4  11  26  46  68 101 135 177 227 276 328 401
#     4  10  24  41  67  97 133 177 219 273 340 397
#     4  12  26  45  70 100 138 177 223 274 334 399
#     4  10  22  44  69  92 138 174 227 276 339 385
#
# _framework density 26.231712000000002
#
# number of rings (size 3 to 8) (size 9 to 14) (size 15 to 20)
#    0.000    1.429    1.429    2.571    6.000    2.857 
#    5.143    2.143    0.000    0.000    0.000    0.000 
#    0.000    0.000    0.000    0.000    0.000    0.000 
#
# Total GULP energy -173572.302724 kJ/mol
# GULP energy per Si atom -12398.021623 kJ/mol
# Density = 2.617201 g / cm^3
# Si number density = 26.231712 Si / 1000 Ang^3
#
#
#
# Elastic Constant Matrix: (Units=GPa)
#
#
# Indices 1 2 3 4 5 6 
#
# 1 50.3160 7.6697 29.6998 3.8379 10.3492 -21.5145
# 2 7.6697 51.9455 18.4628 5.9974 2.5900 -11.5965
# 3 29.6998 18.4628 119.5494 33.8596 2.3676 -10.0631
# 4 3.8379 5.9974 33.8596 37.5657 -13.6998 4.1574
# 5 10.3492 2.5900 2.3676 -13.6998 25.8436 3.2511
# 6 -21.5145 -11.5965 -10.0631 4.1574 3.2511 40.1870
#
#
#
# Elastic Compliance Matrix: (Units=1/GPa)
#
#
# Indices 1 2 3 4 5 6 
#
# 1 0.037787 0.003785 -0.003925 -0.012588 -0.024799 0.023647
# 2 0.003785 0.022562 -0.001564 -0.006686 -0.008374 0.009514
# 3 -0.003925 -0.001564 0.014553 -0.015940 -0.008486 0.003427
# 4 -0.012588 -0.006686 -0.015940 0.061325 0.042503 -0.022442
# 5 -0.024799 -0.008374 -0.008486 0.042503 0.076345 -0.028391
# 6 0.023647 0.009514 0.003427 -0.022442 -0.028391 0.045765
#
#
# Mechanical properties :
#
#
# Convention : Reuss Voigt Hill
#
# Bulk Modulus (GPa) = 13.98765 37.05284 25.52025
# Shear Modulus (GPa) = 17.50855 31.78450 24.64652
#
# Velocity S-wave (km/s) = 2.58632 3.48470 3.06857
# Velocity P-wave (km/s) = 3.77660 5.50878 4.72278
#
# Compressibility (1/GPa) = 0.07149163
#
# Stress axis : x y z
#
# Youngs Moduli (GPa) = 26.46447 44.32323 68.71667
#
# Poissons Ratio (x) = -0.16776 0.26971
# Poissons Ratio (y) = -0.10016 0.10750
# Poissons Ratio (z) = 0.10387 0.06934
#
# Static dielectric constant tensor:
#      x y z
#    x 4.550770 -0.445020 0.171770 
#    y -0.445020 4.645280 -0.029450 
#    z 0.171770 -0.029450 5.108210 
# 
# 
# High freq. dielectric constant tensor:
#      x y z
#    x 2.038520 -0.025220 0.004480 
#    y -0.025220 2.042080 0.002970 
#    z 0.004480 0.002970 2.075350 
# 
# From -- ./inp_files/27247.got.cif
#   From: 2010.06.25/outbox.cif.g09.slc.cpg/sg2_14_cif.got.tgz:27247.got - 2010.06.27 13:26:56.
