data_PCOD8015662
_publ_section_title
;
Structure prediction by ZEFSAII (Michael W. Deem and Ramdas Pophale) SiO2 
 PCOD8015662
Probable space group: P -1
;
_chemical_formula_sum "Si O2"
_cell_formula_units_Z 14
_cell_length_a 6.796176
_cell_length_b 7.705587
_cell_length_c 15.002374
_cell_angle_alpha 68.205532
_cell_angle_beta 129.008111
_cell_angle_gamma 96.504868
_cell_volume 558.910251
_symmetry_space_group_name_H-M "P -1"
_symmetry_group_IT_number 2
_symmetry_cell_setting 'triclinic'
loop_
_space_group_symop_operation_xyz
x,y,z
-x,-y,-z
loop_
_atom_site_type_symbol
_atom_site_label
_atom_site_fract_x
_atom_site_fract_y
_atom_site_fract_z
Si Si1 0.083763 0.478589 0.396002
Si Si2 0.325694 0.301419 0.053534
Si Si3 0.874379 0.089438 0.246196
Si Si4 0.787189 0.339653 0.942941
Si Si5 0.832076 0.232552 0.490980
Si Si6 0.697206 0.783573 0.140941
Si Si7 0.727427 0.642907 0.711970
O O1 0.212503 0.595601 0.483439
O O2 0.270811 0.433805 0.374135
O O3 0.014319 0.283805 0.453548
O O4 0.815200 0.600513 0.265552
O O5 0.311471 0.527153 0.024635
O O6 0.598645 0.190037 0.186759
O O7 0.263269 0.258088 0.943102
O O8 0.088019 0.245037 0.055492
O O9 0.822847 0.964471 0.169727
O O10 0.028656 0.965429 0.391566
O O11 0.039187 0.241890 0.228261
O O12 0.605628 0.178393 0.923722
O O13 0.756679 0.465334 0.820434
O O14 0.545784 0.218611 0.377252
#
# Coordination Sequence:
#
# PCOD8015662 Si02
#       7
#     2   2   2   2   2   2   2
#     4  10  21  42  74  96 129 178 227 272 322 393
#     4  11  25  46  68 101 135 175 224 279 325 403
#     4  11  27  43  66 101 144 173 210 279 350 383
#     4  11  25  42  75  97 127 181 234 265 328 395
#     4  10  23  45  67  99 133 176 223 271 333 396
#     4  11  22  47  68  99 136 177 220 277 329 398
#     4  12  23  44  67 104 130 173 228 277 322 399
#
# _framework density 25.048743000000002
#
# number of rings (size 3 to 8) (size 9 to 14) (size 15 to 20)
#    0.000    1.143    2.857    2.571    4.000    1.143 
#    5.143    0.000    0.000    0.000    0.000    0.000 
#    0.000    0.000    0.000    0.000    0.000    0.000 
#
# Total GULP energy -173574.510596 kJ/mol
# GULP energy per Si atom -12398.179328 kJ/mol
# Density = 2.499173 g / cm^3
# Si number density = 25.048743 Si / 1000 Ang^3
#
#
#
# Elastic Constant Matrix: (Units=GPa)
#
#
# Indices 1 2 3 4 5 6 
#
# 1 97.9417 30.6600 46.2534 -1.2029 22.1718 -18.8481
# 2 30.6600 60.1498 15.8314 9.8765 0.1173 -8.7254
# 3 46.2534 15.8314 88.6281 -11.6587 17.5839 -12.3386
# 4 -1.2029 9.8765 -11.6587 27.5864 -1.3990 5.8728
# 5 22.1718 0.1173 17.5839 -1.3990 55.5143 5.3782
# 6 -18.8481 -8.7254 -12.3386 5.8728 5.3782 21.6608
#
#
#
# Elastic Compliance Matrix: (Units=1/GPa)
#
#
# Indices 1 2 3 4 5 6 
#
# 1 0.018922 -0.005652 -0.006004 -0.002872 -0.007003 0.013285
# 2 -0.005652 0.022477 -0.002105 -0.010176 0.002119 0.005170
# 3 -0.006004 -0.002105 0.016581 0.006879 -0.002892 0.002226
# 4 -0.002872 -0.010176 0.006879 0.046077 0.001661 -0.015585
# 5 -0.007003 0.002119 -0.002892 0.001661 0.023028 -0.013055
# 6 0.013285 0.005170 0.002226 -0.015585 -0.013055 0.068544
#
#
# Mechanical properties :
#
#
# Convention : Reuss Voigt Hill
#
# Bulk Modulus (GPa) = 32.83250 48.02327 40.42788
# Shear Modulus (GPa) = 21.43138 31.21730 26.32434
#
# Velocity S-wave (km/s) = 2.92822 3.53407 3.24531
# Velocity P-wave (km/s) = 4.95666 5.98886 5.49704
#
# Compressibility (1/GPa) = 0.03045763
#
# Stress axis : x y z
#
# Youngs Moduli (GPa) = 52.84954 44.49016 60.31004
#
# Poissons Ratio (x) = 0.25147 0.36211
# Poissons Ratio (y) = 0.29871 0.12693
# Poissons Ratio (z) = 0.31732 0.09363
#
# Static dielectric constant tensor:
#      x y z
#    x 4.538940 -0.068060 0.173100 
#    y -0.068060 4.382000 0.161500 
#    z 0.173100 0.161500 4.701200 
# 
# 
# High freq. dielectric constant tensor:
#      x y z
#    x 2.005450 0.000560 0.004350 
#    y 0.000560 1.983610 0.012690 
#    z 0.004350 0.012690 2.014390 
# 
# From -- ./inp_files/480373.got.cif
#   From: 2010.06.25/outbox.cif.g09.slc.cpg/sg2_241_cif.got.tgz:480373.got - 2010.06.27 13:26:56.
