data_PCOD8015500
_publ_section_title
;
Structure prediction by ZEFSAII (Michael W. Deem and Ramdas Pophale) SiO2 
 PCOD8015500
Probable space group: P -1
;
_chemical_formula_sum "Si O2"
_cell_formula_units_Z 10
_cell_length_a 16.721264
_cell_length_b 11.606476
_cell_length_c 5.281205
_cell_angle_alpha 85.502018
_cell_angle_beta 99.345786
_cell_angle_gamma 159.388236
_cell_volume 347.949880
_symmetry_space_group_name_H-M "P -1"
_symmetry_group_IT_number 2
_symmetry_cell_setting 'triclinic'
loop_
_space_group_symop_operation_xyz
x,y,z
-x,-y,-z
loop_
_atom_site_type_symbol
_atom_site_label
_atom_site_fract_x
_atom_site_fract_y
_atom_site_fract_z
Si Si1 0.788692 0.711423 0.242074
Si Si2 0.002561 0.808761 0.007337
Si Si3 0.276950 0.872555 0.779962
Si Si4 0.616030 0.778530 0.545816
Si Si5 0.782645 0.307878 0.718976
O O1 0.541028 0.360717 0.311495
O O2 0.813026 0.639510 0.068209
O O3 0.000000 0.000000 0.500000
O O4 0.793942 0.841601 0.077014
O O5 0.122060 0.885190 0.264298
O O6 0.868701 0.553727 0.772543
O O7 0.355317 0.888503 0.587961
O O8 0.996176 0.503893 0.741863
O O9 0.372472 0.130817 0.722865
O O10 0.373269 0.948316 0.080065
O O11 0.500000 0.500000 0.500000
#
# Coordination Sequence:
#
# PCOD8015500 Si02
#       5
#     2   2   2   2   2
#     4  11  25  44  64 103 138 174 232 285 336 411
#     4  11  24  43  71  97 135 186 224 282 345 402
#     4  10  22  39  68 105 133 175 236 276 332 419
#     4  12  23  42  72 101 133 181 229 280 346 404
#     4  10  21  42  69  99 138 180 224 282 341 401
#
# _framework density 28.739771000000001
#
# number of rings (size 3 to 8) (size 9 to 14) (size 15 to 20)
#    0.000    1.200    2.000    5.400    2.800    1.600 
#    0.000    2.000    0.000    0.000    0.000    0.000 
#    0.000    0.000    0.000    0.000    0.000    0.000 
#
# Total GULP energy -124002.957432 kJ/mol
# GULP energy per Si atom -12400.295743 kJ/mol
# Density = 2.867436 g / cm^3
# Si number density = 28.739771 Si / 1000 Ang^3
#
#
#
# Elastic Constant Matrix: (Units=GPa)
#
#
# Indices 1 2 3 4 5 6 
#
# 1 119.4676 44.6077 65.4036 0.2286 -18.5033 -41.2915
# 2 44.6077 73.0498 45.0018 -25.4067 1.1709 -27.4677
# 3 65.4036 45.0018 180.7626 -33.3571 -26.2080 -22.3539
# 4 0.2286 -25.4067 -33.3571 59.1209 -15.5772 -3.5706
# 5 -18.5033 1.1709 -26.2080 -15.5772 47.1866 17.1859
# 6 -41.2915 -27.4677 -22.3539 -3.5706 17.1859 44.7316
#
#
#
# Elastic Compliance Matrix: (Units=1/GPa)
#
#
# Indices 1 2 3 4 5 6 
#
# 1 0.015551 -0.004888 -0.004154 -0.004166 -0.000838 0.009267
# 2 -0.004888 0.026559 -0.002219 0.009522 -0.005621 0.013608
# 3 -0.004154 -0.002219 0.009283 0.005844 0.006446 -0.002568
# 4 -0.004166 0.009522 0.005844 0.026892 0.008928 0.003638
# 5 -0.000838 -0.005621 0.006446 0.008928 0.032133 -0.012637
# 6 0.009267 0.013608 -0.002568 0.003638 -0.012637 0.043128
#
#
# Mechanical properties :
#
#
# Convention : Reuss Voigt Hill
#
# Bulk Modulus (GPa) = 34.63557 75.92290 55.27924
# Shear Modulus (GPa) = 26.92653 44.75896 35.84274
#
# Velocity S-wave (km/s) = 3.06422 3.95066 3.53533
# Velocity P-wave (km/s) = 4.95952 6.87641 5.99507
#
# Compressibility (1/GPa) = 0.02887205
#
# Stress axis : x y z
#
# Youngs Moduli (GPa) = 64.30556 37.65182 107.72582
#
# Poissons Ratio (x) = 0.18403 0.44749
# Poissons Ratio (y) = 0.31431 0.23900
# Poissons Ratio (z) = 0.26712 0.08353
#
# Static dielectric constant tensor:
#      x y z
#    x 6.767870 2.403340 0.516290 
#    y 2.403340 8.422530 0.702180 
#    z 0.516290 0.702180 6.211230 
# 
# 
# High freq. dielectric constant tensor:
#      x y z
#    x 2.165710 -0.016560 -0.013930 
#    y -0.016560 2.154790 -0.014070 
#    z -0.013930 -0.014070 2.177380 
# 
# From -- ./inp_files/26282.got.cif
#   From: 2010.06.25/outbox.cif.g09.slc.cpg/sg2_14_cif.got.tgz:26282.got - 2010.06.27 13:26:56.
