data_PCOD8015261
_publ_section_title
;
Structure prediction by ZEFSAII (Michael W. Deem and Ramdas Pophale) SiO2 
 PCOD8015261
Probable space group: P -1
;
_chemical_formula_sum "Si O2"
_cell_formula_units_Z 16
_cell_length_a 12.375002
_cell_length_b 9.014298
_cell_length_c 9.696950
_cell_angle_alpha 62.366573
_cell_angle_beta 53.394980
_cell_angle_gamma 67.120197
_cell_volume 759.671694
_symmetry_space_group_name_H-M "P -1"
_symmetry_group_IT_number 2
_symmetry_cell_setting 'triclinic'
loop_
_space_group_symop_operation_xyz
x,y,z
-x,-y,-z
loop_
_atom_site_type_symbol
_atom_site_label
_atom_site_fract_x
_atom_site_fract_y
_atom_site_fract_z
Si Si1 0.968216 0.879832 0.458189
Si Si2 0.376134 0.065381 0.668785
Si Si3 0.745738 0.661837 0.745732
Si Si4 0.113065 0.949299 0.824986
Si Si5 0.573994 0.252087 0.061408
Si Si6 0.736703 0.416454 0.084536
Si Si7 0.234595 0.611781 0.363433
Si Si8 0.355481 0.450595 0.612367
O O1 0.085570 0.719850 0.420804
O O2 0.822314 0.822833 0.622725
O O3 0.960613 0.002470 0.281862
O O4 0.000000 0.000000 0.500000
O O5 0.237158 0.054732 0.699089
O O6 0.373587 0.256520 0.635707
O O7 0.500000 0.000000 0.500000
O O8 0.384874 0.946452 0.848985
O O9 0.584485 0.713895 0.869560
O O10 0.773408 0.571488 0.616235
O O11 0.806720 0.532988 0.876221
O O12 0.158934 0.749163 0.885802
O O13 0.000000 0.000000 0.000000
O O14 0.605342 0.362225 0.125802
O O15 0.658189 0.296205 0.844572
O O16 0.710524 0.523745 0.197760
O O17 0.276233 0.579710 0.504868
O O18 0.500000 0.500000 0.500000
#
# Coordination Sequence:
#
# PCOD8015261 Si02
#       8
#     2   2   2   2   2   2   2   2
#     4  12  26  42  60  91 128 163 204 256 306 358
#     4  11  23  40  65  94 123 164 209 251 306 373
#     4  11  22  42  66  90 123 166 206 248 305 373
#     4  11  23  44  66  88 123 169 209 249 305 375
#     4  10  21  42  67  91 121 162 208 251 303 374
#     4  10  22  39  64  96 124 156 206 263 308 356
#     4  11  23  42  65  91 123 164 205 248 306 373
#     4  12  23  39  64  97 128 158 202 262 311 356
#
# _framework density 21.061730000000001
#
# number of rings (size 3 to 8) (size 9 to 14) (size 15 to 20)
#    0.000    1.000    0.000   10.125    0.000    4.000 
#    0.000    3.750    0.000    0.000    0.000    0.000 
#    0.000    0.000    0.000    0.000    0.000    0.000 
#
# Total GULP energy -198396.689533 kJ/mol
# GULP energy per Si atom -12399.793096 kJ/mol
# Density = 2.101379 g / cm^3
# Si number density = 21.061730 Si / 1000 Ang^3
#
#
#
# Elastic Constant Matrix: (Units=GPa)
#
#
# Indices 1 2 3 4 5 6 
#
# 1 109.8976 37.2191 57.2384 2.0886 8.0533 -5.6294
# 2 37.2191 102.9317 39.8967 -0.1998 0.0008 1.9574
# 3 57.2384 39.8967 118.6303 -3.1710 12.1108 9.6567
# 4 2.0886 -0.1998 -3.1710 39.1466 -10.6220 4.8090
# 5 8.0533 0.0008 12.1108 -10.6220 42.2534 2.7613
# 6 -5.6294 1.9574 9.6567 4.8090 2.7613 28.1027
#
#
#
# Elastic Compliance Matrix: (Units=1/GPa)
#
#
# Indices 1 2 3 4 5 6 
#
# 1 0.013596 -0.002710 -0.005977 -0.002407 -0.001847 0.005559
# 2 -0.002710 0.011768 -0.002734 0.000458 0.001457 -0.000644
# 3 -0.005977 -0.002734 0.012909 0.001538 -0.001813 -0.005528
# 4 -0.002407 0.000458 0.001538 0.028706 0.007673 -0.006709
# 5 -0.001847 0.001457 -0.001813 0.007673 0.026715 -0.003786
# 6 0.005559 -0.000644 -0.005528 -0.006709 -0.003786 0.040162
#
#
# Mechanical properties :
#
#
# Convention : Reuss Voigt Hill
#
# Bulk Modulus (GPa) = 64.80527 66.68532 65.74529
# Shear Modulus (GPa) = 30.89434 35.04089 32.96762
#
# Velocity S-wave (km/s) = 3.83410 4.08330 3.96066
# Velocity P-wave (km/s) = 7.10186 7.34586 7.22489
#
# Compressibility (1/GPa) = 0.01543084
#
# Stress axis : x y z
#
# Youngs Moduli (GPa) = 73.55098 84.97629 77.46445
#
# Poissons Ratio (x) = 0.23027 0.46301
# Poissons Ratio (y) = 0.19931 0.21181
# Poissons Ratio (z) = 0.43962 0.23235
#
# Static dielectric constant tensor:
#      x y z
#    x 4.060910 -0.116220 0.185800 
#    y -0.116220 3.587220 -0.299500 
#    z 0.185800 -0.299500 3.981210 
# 
# 
# High freq. dielectric constant tensor:
#      x y z
#    x 1.829440 -0.011080 0.010360 
#    y -0.011080 1.826040 -0.011400 
#    z 0.010360 -0.011400 1.839630 
# 
# From -- ./inp_files/226186.got.cif
#   From: 2010.06.25/outbox.cif.g09.slc.cpg/sg2_114_cif.got.tgz:226186.got - 2010.06.27 13:26:56.
