data_PCOD8015300
_publ_section_title
;
Structure prediction by ZEFSAII (Michael W. Deem and Ramdas Pophale) SiO2 
 PCOD8015300
Probable space group: P -1
;
_chemical_formula_sum "Si O2"
_cell_formula_units_Z 14
_cell_length_a 14.715615
_cell_length_b 14.273288
_cell_length_c 14.707883
_cell_angle_alpha 38.304433
_cell_angle_beta 19.868275
_cell_angle_gamma 45.925281
_cell_volume 637.442087
_symmetry_space_group_name_H-M "P -1"
_symmetry_group_IT_number 2
_symmetry_cell_setting 'triclinic'
loop_
_space_group_symop_operation_xyz
x,y,z
-x,-y,-z
loop_
_atom_site_type_symbol
_atom_site_label
_atom_site_fract_x
_atom_site_fract_y
_atom_site_fract_z
Si Si1 0.609476 0.590102 0.537794
Si Si2 0.053330 0.391512 0.270603
Si Si3 0.697647 0.903727 0.124417
Si Si4 0.205173 0.956109 0.268594
Si Si5 0.294877 0.006993 0.550604
Si Si6 0.213329 0.499857 0.223014
Si Si7 0.489932 0.226302 0.346886
O O1 0.858205 0.509828 0.341653
O O2 0.581421 0.720007 0.388730
O O3 0.674387 0.674099 0.510761
O O4 0.332354 0.457876 0.902570
O O5 0.896203 0.224828 0.514433
O O6 0.117698 0.369810 0.334383
O O7 0.472070 0.004063 0.293154
O O8 0.975248 0.946333 0.888185
O O9 0.781094 0.943371 0.912361
O O10 0.000000 0.000000 0.500000
O O11 0.500000 0.000000 0.000000
O O12 0.431657 0.907202 0.566796
O O13 0.327128 0.171081 0.447862
O O14 0.000000 0.500000 0.500000
O O15 0.500000 0.500000 0.000000
O O16 0.230656 0.660077 0.030659
#
# Coordination Sequence:
#
# PCOD8015300 Si02
#       7
#     2   2   2   2   2   2   2
#     4  10  21  42  67  95 131 175 214 264 321 388
#     4  11  24  44  67  93 134 175 211 272 337 376
#     4  11  23  42  68  94 128 170 225 270 325 384
#     4  12  28  49  71  96 130 168 221 284 346 389
#     4  10  22  36  64  92 130 176 215 266 307 377
#     4  11  23  34  57  89 131 170 211 245 305 393
#     4   9  21  37  57  94 136 171 218 253 309 373
#
# _framework density 21.962779000000001
#
# number of rings (size 3 to 8) (size 9 to 14) (size 15 to 20)
#    0.000    1.429    0.000    6.000    4.000    8.571 
#    0.000    4.286    0.000    0.000    0.000    0.000 
#    0.000    0.000    0.000    0.000    0.000    0.000 
#
# Total GULP energy -173486.723434 kJ/mol
# GULP energy per Si atom -12391.908817 kJ/mol
# Density = 2.191279 g / cm^3
# Si number density = 21.962779 Si / 1000 Ang^3
#
#
#
# Elastic Constant Matrix: (Units=GPa)
#
#
# Indices 1 2 3 4 5 6 
#
# 1 84.9305 32.1748 50.7026 -17.3205 4.8051 15.6984
# 2 32.1748 87.7930 44.7955 -5.7811 -4.2358 19.0002
# 3 50.7026 44.7955 139.6109 5.7660 -2.5547 11.4577
# 4 -17.3205 -5.7811 5.7660 37.7111 2.1136 -6.6565
# 5 4.8051 -4.2358 -2.5547 2.1136 52.9571 0.5541
# 6 15.6984 19.0002 11.4577 -6.6565 0.5541 22.2893
#
#
#
# Elastic Compliance Matrix: (Units=1/GPa)
#
#
# Indices 1 2 3 4 5 6 
#
# 1 0.019299 -0.002171 -0.006227 0.008579 -0.002506 -0.005916
# 2 -0.002171 0.016381 -0.003576 0.000109 0.001441 -0.010600
# 3 -0.006227 -0.003576 0.010768 -0.005046 0.000996 0.000367
# 4 0.008579 0.000109 -0.005046 0.032476 -0.002374 0.006216
# 5 -0.002506 0.001441 0.000996 -0.002374 0.019381 -0.001167
# 6 -0.005916 -0.010600 0.000367 0.006216 -0.001167 0.059764
#
#
# Mechanical properties :
#
#
# Convention : Reuss Voigt Hill
#
# Bulk Modulus (GPa) = 44.44263 63.07558 53.75911
# Shear Modulus (GPa) = 26.38265 34.90224 30.64245
#
# Velocity S-wave (km/s) = 3.46966 3.99074 3.73929
# Velocity P-wave (km/s) = 6.02750 7.07223 6.57066
#
# Compressibility (1/GPa) = 0.02250092
#
# Stress axis : x y z
#
# Youngs Moduli (GPa) = 51.81550 61.04456 92.86745
#
# Poissons Ratio (x) = 0.13254 0.57828
# Poissons Ratio (y) = 0.11250 0.33208
# Poissons Ratio (z) = 0.32265 0.21829
#
# Static dielectric constant tensor:
#      x y z
#    x 4.301120 -0.034090 -0.100770 
#    y -0.034090 4.319350 -0.170890 
#    z -0.100770 -0.170890 4.149340 
# 
# 
# High freq. dielectric constant tensor:
#      x y z
#    x 1.849550 -0.003270 0.004880 
#    y -0.003270 1.861400 -0.001100 
#    z 0.004880 -0.001100 1.885160 
# 
# From -- ./inp_files/533645.got.cif
#   From: 2010.06.25/outbox.cif.g09.slc.cpg/sg2_267_cif.got.tgz:533645.got - 2010.06.27 13:26:56.
