data_PCOD8015595
_publ_section_title
;
Structure prediction by ZEFSAII (Michael W. Deem and Ramdas Pophale) SiO2 
 PCOD8015595
Probable space group: P -1
;
_chemical_formula_sum "Si O2"
_cell_formula_units_Z 16
_cell_length_a 9.520657
_cell_length_b 12.057273
_cell_length_c 21.847966
_cell_angle_alpha 35.146813
_cell_angle_beta 28.390245
_cell_angle_gamma 44.972883
_cell_volume 685.835461
_symmetry_space_group_name_H-M "P -1"
_symmetry_group_IT_number 2
_symmetry_cell_setting 'triclinic'
loop_
_space_group_symop_operation_xyz
x,y,z
-x,-y,-z
loop_
_atom_site_type_symbol
_atom_site_label
_atom_site_fract_x
_atom_site_fract_y
_atom_site_fract_z
Si Si1 0.851973 0.194989 0.589461
Si Si2 0.743387 0.650303 0.034693
Si Si3 0.616465 0.237508 0.415701
Si Si4 0.860268 0.034316 0.311029
Si Si5 0.363580 0.342734 0.789279
Si Si6 0.768303 0.822618 0.729581
Si Si7 0.869060 0.211770 0.959946
Si Si8 0.195196 0.478763 0.250730
O O1 0.547879 0.201261 0.740829
O O2 0.073364 0.104162 0.594234
O O3 0.976891 0.401735 0.423402
O O4 0.795544 0.057495 0.612666
O O5 0.605010 0.686446 0.137636
O O6 0.491688 0.575210 0.119863
O O7 0.000000 0.500000 0.000000
O O8 0.855021 0.867085 0.874816
O O9 0.349722 0.081470 0.606232
O O10 0.495640 0.447409 0.376054
O O11 0.922795 0.239052 0.333713
O O12 0.678084 0.205822 0.333804
O O13 0.019184 0.310149 0.918114
O O14 0.719347 0.711477 0.734851
O O15 0.484430 0.776239 0.902947
O O16 0.959942 0.353232 0.804154
O O17 0.000000 0.000000 0.000000
#
# Coordination Sequence:
#
# PCOD8015595 Si02
#       8
#     2   2   2   2   2   2   2   2
#     4  11  26  46  71 110 150 191 243 303 369 431
#     4  12  26  44  76 111 141 192 248 297 366 439
#     4  10  21  42  72 100 142 191 237 302 359 421
#     4  10  23  45  68 104 150 186 247 302 356 437
#     4  12  25  48  72 106 152 193 241 301 373 432
#     4  11  23  46  74 105 145 191 242 303 355 432
#     4  12  26  50  72 109 152 193 241 306 367 433
#     4  12  26  47  78 108 145 197 248 296 367 438
#
# _framework density 23.32921
#
# number of rings (size 3 to 8) (size 9 to 14) (size 15 to 20)
#    0.000    0.750    3.750    3.750    3.500    3.000 
#    4.500    0.000    0.000    0.000    0.000    0.000 
#    0.000    0.000    0.000    0.000    0.000    0.000 
#
# Total GULP energy -198235.540667 kJ/mol
# GULP energy per Si atom -12389.721292 kJ/mol
# Density = 2.327611 g / cm^3
# Si number density = 23.329210 Si / 1000 Ang^3
#
#
#
# Elastic Constant Matrix: (Units=GPa)
#
#
# Indices 1 2 3 4 5 6 
#
# 1 114.0433 47.8669 57.8481 -3.7498 -21.5194 11.1732
# 2 47.8669 93.8969 44.2144 -14.0689 5.7734 7.0038
# 3 57.8481 44.2144 155.6377 -14.0862 -11.0281 3.2956
# 4 -3.7498 -14.0689 -14.0862 29.7862 4.2690 -2.5724
# 5 -21.5194 5.7734 -11.0281 4.2690 44.5322 -9.9370
# 6 11.1732 7.0038 3.2956 -2.5724 -9.9370 28.3587
#
#
#
# Elastic Compliance Matrix: (Units=1/GPa)
#
#
# Indices 1 2 3 4 5 6 
#
# 1 0.014742 -0.006888 -0.003353 -0.004155 0.007237 -0.001559
# 2 -0.006888 0.016858 -0.002061 0.006906 -0.007395 -0.003175
# 3 -0.003353 -0.002061 0.008524 0.002637 0.000809 0.001362
# 4 -0.004155 0.006906 0.002637 0.038471 -0.005688 0.001122
# 5 0.007237 -0.007395 0.000809 -0.005688 0.029607 0.008740
# 6 -0.001559 -0.003175 0.001362 0.001122 0.008740 0.039667
#
#
# Mechanical properties :
#
#
# Convention : Reuss Voigt Hill
#
# Bulk Modulus (GPa) = 64.42760 73.71519 69.07140
# Shear Modulus (GPa) = 28.14610 34.77864 31.46237
#
# Velocity S-wave (km/s) = 3.47720 3.86525 3.67635
# Velocity P-wave (km/s) = 6.61800 7.18238 6.90596
#
# Compressibility (1/GPa) = 0.01552130
#
# Stress axis : x y z
#
# Youngs Moduli (GPa) = 67.83392 59.31975 117.31576
#
# Poissons Ratio (x) = 0.40857 0.39335
# Poissons Ratio (y) = 0.46721 0.24175
# Poissons Ratio (z) = 0.22744 0.12224
#
# Static dielectric constant tensor:
#      x y z
#    x 4.122900 0.123610 -0.268490 
#    y 0.123610 4.297770 -0.301350 
#    z -0.268490 -0.301350 4.339640 
# 
# 
# High freq. dielectric constant tensor:
#      x y z
#    x 1.914700 0.008660 -0.023000 
#    y 0.008660 1.916890 -0.017360 
#    z -0.023000 -0.017360 1.932290 
# 
# From -- ./inp_files/589427.got.cif
#   From: 2010.06.25/outbox.cif.g09.slc.cpg/sg2_295_cif.got.tgz:589427.got - 2010.06.27 13:26:56.
