data_PCOD8015339
_publ_section_title
;
Structure prediction by ZEFSAII (Michael W. Deem and Ramdas Pophale) SiO2 
 PCOD8015339
Probable space group: P -1
;
_chemical_formula_sum "Si O2"
_cell_formula_units_Z 14
_cell_length_a 16.734591
_cell_length_b 12.022636
_cell_length_c 13.751394
_cell_angle_alpha 142.198452
_cell_angle_beta 21.763264
_cell_angle_gamma 141.896808
_cell_volume 611.359864
_symmetry_space_group_name_H-M "P -1"
_symmetry_group_IT_number 2
_symmetry_cell_setting 'triclinic'
loop_
_space_group_symop_operation_xyz
x,y,z
-x,-y,-z
loop_
_atom_site_type_symbol
_atom_site_label
_atom_site_fract_x
_atom_site_fract_y
_atom_site_fract_z
Si Si1 0.613607 0.484250 0.591754
Si Si2 0.021545 0.252328 0.554364
Si Si3 0.925019 0.209543 0.410641
Si Si4 0.146568 0.346176 0.739404
Si Si5 0.377679 0.174447 0.515145
Si Si6 0.233468 0.931287 0.110508
Si Si7 0.332352 0.488567 0.094907
O O1 0.854075 0.531290 0.409376
O O2 0.656232 0.612401 0.534824
O O3 0.525822 0.270270 0.505471
O O4 0.431641 0.525730 0.900310
O O5 0.933948 0.227819 0.528984
O O6 0.811712 0.173153 0.806619
O O7 0.222826 0.147523 0.276607
O O8 0.782858 0.349228 0.630656
O O9 0.168703 0.281390 0.138489
O O10 0.816058 0.000383 0.352616
O O11 0.266407 0.328751 0.694910
O O12 0.974244 0.149979 0.782244
O O13 0.000000 0.500000 0.000000
O O14 0.532783 0.093371 0.209485
O O15 0.500000 0.500000 0.000000
#
# Coordination Sequence:
#
# PCOD8015339 Si02
#       7
#     2   2   2   2   2   2   2
#     4  11  24  41  70  96 135 182 213 276 343 393
#     4  10  21  42  67  99 135 180 221 272 333 405
#     4  11  25  44  72  97 129 178 231 283 326 398
#     4  11  23  42  64 103 143 173 213 270 340 411
#     4  12  25  41  70 104 135 178 216 277 344 408
#     4  10  22  40  64 100 142 175 218 270 333 411
#     4  11  25  49  70  93 131 177 235 285 332 387
#
# _framework density 22.899768999999999
#
# number of rings (size 3 to 8) (size 9 to 14) (size 15 to 20)
#    0.000    1.143    4.286    1.286    2.000    2.286 
#    0.000    0.714    0.000    0.000    0.000    0.000 
#    0.000    0.000    0.000    0.000    0.000    0.000 
#
# Total GULP energy -173449.843315 kJ/mol
# GULP energy per Si atom -12389.274522 kJ/mol
# Density = 2.284765 g / cm^3
# Si number density = 22.899769 Si / 1000 Ang^3
#
#
#
# Elastic Constant Matrix: (Units=GPa)
#
#
# Indices 1 2 3 4 5 6 
#
# 1 74.2991 42.2115 13.8268 -2.2187 -5.0804 10.2546
# 2 42.2115 136.6590 32.8716 -23.6532 -10.1674 21.3149
# 3 13.8268 32.8716 99.1641 -11.0437 0.3097 -12.5378
# 4 -2.2187 -23.6532 -11.0437 36.9570 -3.6927 -0.0352
# 5 -5.0804 -10.1674 0.3097 -3.6927 28.2567 -1.8935
# 6 10.2546 21.3149 -12.5378 -0.0352 -1.8935 31.9571
#
#
#
# Elastic Compliance Matrix: (Units=1/GPa)
#
#
# Indices 1 2 3 4 5 6 
#
# 1 0.016790 -0.004794 -0.001359 -0.002387 0.000817 -0.002677
# 2 -0.004794 0.012433 -0.003697 0.006960 0.004029 -0.007958
# 3 -0.001359 -0.003697 0.012625 0.001230 -0.001030 0.007795
# 4 -0.002387 0.006960 0.001230 0.032343 0.006087 -0.002997
# 5 0.000817 0.004029 -0.001030 0.006087 0.037719 -0.001112
# 6 -0.002677 -0.007958 0.007795 -0.002997 -0.001112 0.040448
#
#
# Mechanical properties :
#
#
# Convention : Reuss Voigt Hill
#
# Bulk Modulus (GPa) = 45.14927 54.21579 49.68253
# Shear Modulus (GPa) = 27.86464 34.18164 31.02314
#
# Velocity S-wave (km/s) = 3.49206 3.86769 3.68467
# Velocity P-wave (km/s) = 6.00151 6.60848 6.31230
#
# Compressibility (1/GPa) = 0.02214875
#
# Stress axis : x y z
#
# Youngs Moduli (GPa) = 59.56033 80.43078 79.20867
#
# Poissons Ratio (x) = 0.38558 0.10763
# Poissons Ratio (y) = 0.28553 0.29280
# Poissons Ratio (z) = 0.08093 0.29732
#
# Static dielectric constant tensor:
#      x y z
#    x 4.051500 0.228830 0.118990 
#    y 0.228830 4.503740 -0.226550 
#    z 0.118990 -0.226550 4.009830 
# 
# 
# High freq. dielectric constant tensor:
#      x y z
#    x 1.893060 0.016880 -0.001480 
#    y 0.016880 1.911080 -0.023040 
#    z -0.001480 -0.023040 1.887930 
# 
# From -- ./inp_files/67725.got.cif
#   From: 2010.06.25/outbox.cif.g09.slc.cpg/sg2_34_cif.got.tgz:67725.got - 2010.06.27 13:26:56.
