data_PCOD8015962
_publ_section_title
;
Structure prediction by ZEFSAII (Michael W. Deem and Ramdas Pophale) SiO2 
 PCOD8015962
Probable space group: P -1
;
_chemical_formula_sum "Si O2"
_cell_formula_units_Z 14
_cell_length_a 21.513004
_cell_length_b 10.016607
_cell_length_c 9.280360
_cell_angle_alpha 124.439429
_cell_angle_beta 152.822041
_cell_angle_gamma 45.501411
_cell_volume 641.114966
_symmetry_space_group_name_H-M "P -1"
_symmetry_group_IT_number 2
_symmetry_cell_setting 'triclinic'
loop_
_space_group_symop_operation_xyz
x,y,z
-x,-y,-z
loop_
_atom_site_type_symbol
_atom_site_label
_atom_site_fract_x
_atom_site_fract_y
_atom_site_fract_z
Si Si1 0.652731 0.377989 0.635670
Si Si2 0.271846 0.935169 0.203446
Si Si3 0.393313 0.702246 0.831864
Si Si4 0.161095 0.814112 0.661017
Si Si5 0.028289 0.352002 0.851886
Si Si6 0.842581 0.593709 0.135635
Si Si7 0.453998 0.014558 0.244502
O O1 0.500000 0.500000 0.500000
O O2 0.765344 0.167123 0.807030
O O3 0.607575 0.336530 0.361755
O O4 0.754584 0.477544 0.893975
O O5 0.429021 0.937376 0.568908
O O6 0.302353 0.803472 0.043208
O O7 0.128774 0.147773 0.010886
O O8 0.215226 0.811948 0.605482
O O9 0.500000 0.500000 0.000000
O O10 0.477027 0.821980 0.110103
O O11 0.135953 0.636575 0.528460
O O12 0.000000 0.000000 0.500000
O O13 0.111252 0.400335 0.928547
O O14 0.000000 0.500000 0.000000
O O15 0.000000 0.500000 0.500000
O O16 0.723500 0.815873 0.061040
O O17 0.500000 0.000000 0.500000
#
# Coordination Sequence:
#
# PCOD8015962 Si02
#       7
#     2   2   2   2   2   2   2
#     4  12  26  47  69 110 152 193 247 308 371 441
#     4  11  23  44  72  98 145 191 239 304 363 438
#     4  12  26  42  76 110 145 196 249 308 375 446
#     4  10  21  43  68 101 141 191 239 298 371 435
#     4  11  24  42  69 103 141 189 243 301 364 441
#     4  12  26  47  74 105 147 194 242 308 369 434
#     4  12  22  46  76 105 142 193 251 297 369 446
#
# _framework density 21.836957999999999
#
# number of rings (size 3 to 8) (size 9 to 14) (size 15 to 20)
#    0.000    0.571    4.286    4.286    2.000    2.857 
#    0.000    4.286    0.000    0.000    0.000    0.000 
#    0.000    0.000    0.000    0.000    0.000    0.000 
#
# Total GULP energy -173456.638753 kJ/mol
# GULP energy per Si atom -12389.759911 kJ/mol
# Density = 2.178726 g / cm^3
# Si number density = 21.836958 Si / 1000 Ang^3
#
#
#
# Elastic Constant Matrix: (Units=GPa)
#
#
# Indices 1 2 3 4 5 6 
#
# 1 138.8356 77.7328 51.5087 22.3139 -3.8578 4.1342
# 2 77.7328 172.2332 87.2079 23.3862 -13.3314 14.2427
# 3 51.5087 87.2079 130.5328 27.1170 -2.6971 -1.7599
# 4 22.3139 23.3862 27.1170 56.0109 10.8033 -1.4750
# 5 -3.8578 -13.3314 -2.6971 10.8033 43.0669 5.8786
# 6 4.1342 14.2427 -1.7599 -1.4750 5.8786 43.8376
#
#
#
# Elastic Compliance Matrix: (Units=1/GPa)
#
#
# Indices 1 2 3 4 5 6 
#
# 1 0.009982 -0.003707 -0.001053 -0.001944 0.000150 0.000135
# 2 -0.003707 0.011150 -0.005714 -0.001216 0.003617 -0.004028
# 3 -0.001053 -0.005714 0.012555 -0.003086 -0.000636 0.002441
# 4 -0.001944 -0.001216 -0.003086 0.021944 -0.006531 0.002069
# 5 0.000150 0.003617 -0.000636 -0.006531 0.026634 -0.005006
# 6 0.000135 -0.004028 0.002441 0.002069 -0.005006 0.024946
#
#
# Mechanical properties :
#
#
# Convention : Reuss Voigt Hill
#
# Bulk Modulus (GPa) = 78.50137 97.16672 87.83405
# Shear Modulus (GPa) = 37.76252 43.59323 40.67788
#
# Velocity S-wave (km/s) = 4.16299 4.47285 4.32070
# Velocity P-wave (km/s) = 7.68988 8.44205 8.07473
#
# Compressibility (1/GPa) = 0.01273863
#
# Stress axis : x y z
#
# Youngs Moduli (GPa) = 100.18209 89.68223 79.65245
#
# Poissons Ratio (x) = 0.33249 0.08389
# Poissons Ratio (y) = 0.37141 0.45510
# Poissons Ratio (z) = 0.10551 0.51240
#
# Static dielectric constant tensor:
#      x y z
#    x 4.484110 0.720380 0.445040 
#    y 0.720380 4.826720 0.700960 
#    z 0.445040 0.700960 4.826240 
# 
# 
# High freq. dielectric constant tensor:
#      x y z
#    x 1.857220 0.009250 0.010740 
#    y 0.009250 1.873830 0.019870 
#    z 0.010740 0.019870 1.862930 
# 
# From -- ./inp_files/343809.got.cif
#   From: 2010.06.25/outbox.cif.g09.slc.cpg/sg2_172_cif.got.tgz:343809.got - 2010.06.27 13:26:56.
