data_PCOD8015987
_publ_section_title
;
Structure prediction by ZEFSAII (Michael W. Deem and Ramdas Pophale) SiO2 
 PCOD8015987
Probable space group: P -1
;
_chemical_formula_sum "Si O2"
_cell_formula_units_Z 16
_cell_length_a 24.780237
_cell_length_b 21.824091
_cell_length_c 9.126062
_cell_angle_alpha 152.388667
_cell_angle_beta 29.428123
_cell_angle_gamma 160.425528
_cell_volume 745.396240
_symmetry_space_group_name_H-M "P -1"
_symmetry_group_IT_number 2
_symmetry_cell_setting 'triclinic'
loop_
_space_group_symop_operation_xyz
x,y,z
-x,-y,-z
loop_
_atom_site_type_symbol
_atom_site_label
_atom_site_fract_x
_atom_site_fract_y
_atom_site_fract_z
Si Si1 0.148941 0.042595 0.290671
Si Si2 0.124005 0.678895 0.973149
Si Si3 0.422593 0.821252 0.410200
Si Si4 0.612949 0.354481 0.156232
Si Si5 0.574270 0.943162 0.789257
Si Si6 0.396804 0.381753 0.636699
Si Si7 0.444576 0.244409 0.828475
Si Si8 0.985055 0.630258 0.896169
O O1 0.221411 0.162924 0.531160
O O2 0.281523 0.172830 0.120795
O O3 0.000000 0.000000 0.500000
O O4 0.103167 0.846030 0.999646
O O5 0.247139 0.691918 0.624863
O O6 0.024692 0.659722 0.037492
O O7 0.000000 0.500000 0.000000
O O8 0.234509 0.873259 0.226121
O O9 0.546449 0.887180 0.384358
O O10 0.500000 0.000000 0.500000
O O11 0.395491 0.671939 0.053933
O O12 0.533394 0.163502 0.033752
O O13 0.498661 0.380008 0.506086
O O14 0.805023 0.534511 0.121893
O O15 0.562895 0.798309 0.415389
O O16 0.500000 0.000000 0.000000
O O17 0.500000 0.500000 0.500000
O O18 0.390779 0.516351 0.024734
O O19 0.000000 0.500000 0.500000
#
# Coordination Sequence:
#
# PCOD8015987 Si02
#       8
#     2   2   2   2   2   2   2   2
#     4  11  24  43  70 103 140 176 230 292 347 408
#     4  12  26  41  62 103 151 176 216 293 361 397
#     4  12  21  40  71  98 128 183 231 276 334 413
#     4  12  23  41  70  93 130 179 235 276 333 411
#     4  12  25  43  66  97 139 179 226 281 349 413
#     4  10  21  43  68  93 127 178 235 278 331 412
#     4  11  24  42  71  96 132 182 236 275 339 421
#     4  12  26  39  67 105 137 176 230 285 344 404
#
# _framework density 21.465094000000001
#
# number of rings (size 3 to 8) (size 9 to 14) (size 15 to 20)
#    0.000    0.500    6.250    3.750    3.500    0.500 
#    0.000    0.000    0.000    3.000    0.000    0.000 
#    0.000    0.000    0.000    0.000    0.000    0.000 
#
# Total GULP energy -198213.739657 kJ/mol
# GULP energy per Si atom -12388.358729 kJ/mol
# Density = 2.141624 g / cm^3
# Si number density = 21.465094 Si / 1000 Ang^3
#
#
#
# Elastic Constant Matrix: (Units=GPa)
#
#
# Indices 1 2 3 4 5 6 
#
# 1 128.0010 38.4787 43.8655 4.2646 0.7397 16.5600
# 2 38.4787 115.6397 34.8763 9.5033 9.1956 6.1304
# 3 43.8655 34.8763 95.6575 19.0916 18.8476 2.3779
# 4 4.2646 9.5033 19.0916 41.8470 4.3890 5.8936
# 5 0.7397 9.1956 18.8476 4.3890 43.9312 2.1880
# 6 16.5600 6.1304 2.3779 5.8936 2.1880 43.1326
#
#
#
# Elastic Compliance Matrix: (Units=1/GPa)
#
#
# Indices 1 2 3 4 5 6 
#
# 1 0.010529 -0.002203 -0.004768 0.001900 0.002331 -0.003844
# 2 -0.002203 0.010258 -0.002348 -0.000885 -0.000999 -0.000311
# 3 -0.004768 -0.002348 0.015740 -0.005900 -0.005711 0.002392
# 4 0.001900 -0.000885 -0.005900 0.027140 0.000172 -0.003995
# 5 0.002331 -0.000999 -0.005711 0.000172 0.025453 -0.001753
# 6 -0.003844 -0.000311 0.002392 -0.003995 -0.001753 0.025207
#
#
# Mechanical properties :
#
#
# Convention : Reuss Voigt Hill
#
# Bulk Modulus (GPa) = 55.90523 63.74877 59.82700
# Shear Modulus (GPa) = 35.98961 40.58733 38.28847
#
# Velocity S-wave (km/s) = 4.09914 4.35311 4.22803
# Velocity P-wave (km/s) = 6.96457 7.41818 7.19495
#
# Compressibility (1/GPa) = 0.01788741
#
# Stress axis : x y z
#
# Youngs Moduli (GPa) = 94.97265 97.48901 63.53315
#
# Poissons Ratio (x) = 0.21480 0.30292
# Poissons Ratio (y) = 0.20925 0.14920
# Poissons Ratio (z) = 0.45283 0.22894
#
# Static dielectric constant tensor:
#      x y z
#    x 4.263280 0.258970 0.155060 
#    y 0.258970 3.826460 0.231090 
#    z 0.155060 0.231090 4.163580 
# 
# 
# High freq. dielectric constant tensor:
#      x y z
#    x 1.857270 0.008650 -0.000630 
#    y 0.008650 1.835730 0.014940 
#    z -0.000630 0.014940 1.835070 
# 
# From -- ./inp_files/355310.got.cif
#   From: 2010.06.25/outbox.cif.g09.slc.cpg/sg2_178_cif.got.tgz:355310.got - 2010.06.27 13:26:56.
