data_PCOD8015497
_publ_section_title
;
Structure prediction by ZEFSAII (Michael W. Deem and Ramdas Pophale) SiO2 
 PCOD8015497
Probable space group: P -1
;
_chemical_formula_sum "Si O2"
_cell_formula_units_Z 16
_cell_length_a 8.225071
_cell_length_b 4.984540
_cell_length_c 22.574979
_cell_angle_alpha 75.256584
_cell_angle_beta 126.422145
_cell_angle_gamma 119.764701
_cell_volume 645.416073
_symmetry_space_group_name_H-M "P -1"
_symmetry_group_IT_number 2
_symmetry_cell_setting 'triclinic'
loop_
_space_group_symop_operation_xyz
x,y,z
-x,-y,-z
loop_
_atom_site_type_symbol
_atom_site_label
_atom_site_fract_x
_atom_site_fract_y
_atom_site_fract_z
Si Si1 0.683485 0.788357 0.763405
Si Si2 0.584416 0.412990 0.463673
Si Si3 0.029004 0.662058 0.902672
Si Si4 0.291302 0.677616 0.842333
Si Si5 0.823415 0.235433 0.609774
Si Si6 0.645269 0.368659 0.676340
Si Si7 0.209823 0.926308 0.045459
Si Si8 0.244092 0.252830 0.753139
O O1 0.752844 0.671923 0.724238
O O2 0.468771 0.512618 0.760037
O O3 0.901680 0.875838 0.847788
O O4 0.620450 0.070860 0.724598
O O5 0.500000 0.500000 0.500000
O O6 0.816478 0.399742 0.535428
O O7 0.596118 0.658464 0.400864
O O8 0.403239 0.084193 0.417828
O O9 0.151045 0.598853 0.876694
O O10 0.827812 0.341940 0.900576
O O11 0.216165 0.816956 0.985412
O O12 0.194320 0.364283 0.800027
O O13 0.554647 0.779424 0.907001
O O14 0.267998 0.941534 0.784429
O O15 0.815012 0.435159 0.653928
O O16 0.048626 0.192291 0.665968
O O17 0.000000 0.000000 0.000000
#
# Coordination Sequence:
#
# PCOD8015497 Si02
#       8
#     2   2   2   2   2   2   2   2
#     4  12  24  43  67  97 142 176 232 293 345 405
#     4   9  20  39  70  98 137 172 239 280 342 419
#     4  11  26  45  71 104 137 190 230 290 349 420
#     4  12  27  48  72 103 142 184 238 285 349 414
#     4  10  21  42  69  99 135 182 229 290 341 417
#     4  11  22  41  67  98 128 182 227 279 345 414
#     4  11  26  47  73 102 144 182 235 288 353 413
#     4  12  27  45  67 104 139 181 234 291 344 412
#
# _framework density 24.790206999999999
#
# number of rings (size 3 to 8) (size 9 to 14) (size 15 to 20)
#    0.000    1.000    2.500    3.375    8.750    0.500 
#    0.000    1.250    0.000    0.000    0.000    0.000 
#    0.000    0.000    0.000    0.000    0.000    0.000 
#
# Total GULP energy -198291.525278 kJ/mol
# GULP energy per Si atom -12393.220330 kJ/mol
# Density = 2.473378 g / cm^3
# Si number density = 24.790207 Si / 1000 Ang^3
#
#
#
# Elastic Constant Matrix: (Units=GPa)
#
#
# Indices 1 2 3 4 5 6 
#
# 1 57.8623 -3.0537 45.1942 -3.8198 16.5156 -0.8387
# 2 -3.0537 48.6783 35.3214 -10.2773 2.4056 -16.8054
# 3 45.1942 35.3214 161.9536 -19.7291 25.9462 2.7555
# 4 -3.8198 -10.2773 -19.7291 43.9873 -1.5843 3.1540
# 5 16.5156 2.4056 25.9462 -1.5843 28.1997 0.6154
# 6 -0.8387 -16.8054 2.7555 3.1540 0.6154 32.8629
#
#
#
# Elastic Compliance Matrix: (Units=1/GPa)
#
#
# Indices 1 2 3 4 5 6 
#
# 1 0.027350 0.010977 -0.008660 0.000211 -0.009132 0.007188
# 2 0.010977 0.036713 -0.011081 0.003164 0.000383 0.019672
# 3 -0.008660 -0.011081 0.012219 0.002468 -0.004933 -0.007056
# 4 0.000211 0.003164 0.002468 0.024619 -0.001261 -0.000923
# 5 -0.009132 0.000383 -0.004933 -0.001261 0.045252 -0.000350
# 6 0.007188 0.019672 -0.007056 -0.000923 -0.000350 0.041360
#
#
# Mechanical properties :
#
#
# Convention : Reuss Voigt Hill
#
# Bulk Modulus (GPa) = 17.02005 47.04647 32.03326
# Shear Modulus (GPa) = 22.25938 33.74545 28.00241
#
# Velocity S-wave (km/s) = 2.99977 3.69350 3.36456
# Velocity P-wave (km/s) = 4.34496 6.09986 5.29561
#
# Compressibility (1/GPa) = 0.05875423
#
# Stress axis : x y z
#
# Youngs Moduli (GPa) = 36.56282 27.23867 81.84136
#
# Poissons Ratio (x) = -0.29899 0.70873
# Poissons Ratio (y) = -0.40134 0.90685
# Poissons Ratio (z) = 0.31663 0.30182
#
# Static dielectric constant tensor:
#      x y z
#    x 4.440170 -0.586050 -0.021660 
#    y -0.586050 4.742750 -0.120490 
#    z -0.021660 -0.120490 5.607850 
# 
# 
# High freq. dielectric constant tensor:
#      x y z
#    x 1.962280 -0.028540 0.002250 
#    y -0.028540 1.971850 -0.009460 
#    z 0.002250 -0.009460 2.025850 
# 
# From -- ./inp_files/585621.got.cif
#   From: 2010.06.25/outbox.cif.g09.slc.cpg/sg2_293_cif.got.tgz:585621.got - 2010.06.27 13:26:56.
