data_PCOD8015064
_publ_section_title
;
Structure prediction by ZEFSAII (Michael W. Deem and Ramdas Pophale) SiO2 
 PCOD8015064
Probable space group: P -1
;
_chemical_formula_sum "Si O2"
_cell_formula_units_Z 16
_cell_length_a 9.394459
_cell_length_b 16.179724
_cell_length_c 9.931144
_cell_angle_alpha 119.541266
_cell_angle_beta 113.307844
_cell_angle_gamma 35.845410
_cell_volume 769.041472
_symmetry_space_group_name_H-M "P -1"
_symmetry_group_IT_number 2
_symmetry_cell_setting 'triclinic'
loop_
_space_group_symop_operation_xyz
x,y,z
-x,-y,-z
loop_
_atom_site_type_symbol
_atom_site_label
_atom_site_fract_x
_atom_site_fract_y
_atom_site_fract_z
Si Si1 0.564768 0.822920 0.392491
Si Si2 0.334182 0.574881 0.624345
Si Si3 0.728442 0.653141 0.064729
Si Si4 0.595794 0.803612 0.860579
Si Si5 0.591582 0.374300 0.029018
Si Si6 0.153440 0.124314 0.027885
Si Si7 0.192645 0.111134 0.340468
Si Si8 0.282893 0.381015 0.492195
O O1 0.737920 0.725499 0.247951
O O2 0.661577 0.862386 0.551482
O O3 0.561297 0.733427 0.416568
O O4 0.293723 0.976317 0.360703
O O5 0.500000 0.500000 0.500000
O O6 0.445329 0.580908 0.793516
O O7 0.313012 0.478208 0.587396
O O8 0.087205 0.739662 0.613811
O O9 0.592038 0.757093 0.967367
O O10 0.572728 0.641253 0.063612
O O11 0.000000 0.500000 0.000000
O O12 0.812981 0.778872 0.912392
O O13 0.626487 0.707563 0.684166
O O14 0.333686 0.978600 0.882699
O O15 0.876269 0.222778 0.979063
O O16 0.500000 0.500000 0.000000
O O17 0.233364 0.067194 0.164844
O O18 0.000000 0.500000 0.500000
#
# Coordination Sequence:
#
# PCOD8015064 Si02
#       8
#     2   2   2   2   2   2   2   2
#     4  11  22  40  67  94 127 166 214 260 318 379
#     4  11  24  43  65  93 129 168 210 263 322 380
#     4  12  25  39  66  98 123 161 222 270 308 382
#     4  11  22  39  65 101 123 165 216 260 310 379
#     4  11  24  45  64  90 131 172 205 264 332 374
#     4  10  21  43  65  93 133 168 209 258 328 379
#     4  10  21  42  65  93 129 170 207 258 328 377
#     4  12  21  40  66  95 127 167 216 258 313 380
#
# _framework density 20.805119999999999
#
# number of rings (size 3 to 8) (size 9 to 14) (size 15 to 20)
#    0.000    1.000    3.750    3.750    1.750    0.500 
#    4.500    0.625    0.000    0.000    0.000    0.000 
#    0.000    0.000    0.000    0.000    0.000    0.000 
#
# Total GULP energy -198403.471345 kJ/mol
# GULP energy per Si atom -12400.216959 kJ/mol
# Density = 2.075777 g / cm^3
# Si number density = 20.805120 Si / 1000 Ang^3
#
#
#
# Elastic Constant Matrix: (Units=GPa)
#
#
# Indices 1 2 3 4 5 6 
#
# 1 89.7204 39.9182 2.1896 -7.4769 -7.5897 -6.7353
# 2 39.9182 135.8579 42.5280 -7.2388 -10.6666 -1.5191
# 3 2.1896 42.5280 59.8004 1.4028 -10.7097 -11.0615
# 4 -7.4769 -7.2388 1.4028 40.6885 2.9697 -11.4133
# 5 -7.5897 -10.6666 -10.7097 2.9697 31.4633 -1.7519
# 6 -6.7353 -1.5191 -11.0615 -11.4133 -1.7519 34.7569
#
#
#
# Elastic Compliance Matrix: (Units=1/GPa)
#
#
# Indices 1 2 3 4 5 6 
#
# 1 0.014211 -0.005159 0.004605 0.002712 0.003272 0.005049
# 2 -0.005159 0.011559 -0.008712 0.000576 -0.000518 -0.003104
# 3 0.004605 -0.008712 0.025773 0.000459 0.007401 0.009238
# 4 0.002712 0.000576 0.000459 0.028001 -0.001090 0.009837
# 5 0.003272 -0.000518 0.007401 -0.001090 0.035263 0.004386
# 6 0.005049 -0.003104 0.009238 0.009837 0.004386 0.036005
#
#
# Mechanical properties :
#
#
# Convention : Reuss Voigt Hill
#
# Bulk Modulus (GPa) = 30.29384 50.51671 40.40528
# Shear Modulus (GPa) = 27.72444 34.76460 31.24452
#
# Velocity S-wave (km/s) = 3.65441 4.09218 3.87947
# Velocity P-wave (km/s) = 5.69198 6.83092 6.28729
#
# Compressibility (1/GPa) = 0.03301001
#
# Stress axis : x y z
#
# Youngs Moduli (GPa) = 70.37029 86.51365 38.80067
#
# Poissons Ratio (x) = 0.44633 -0.17867
# Poissons Ratio (y) = 0.36304 0.33803
# Poissons Ratio (z) = -0.32405 0.75370
#
# Static dielectric constant tensor:
#      x y z
#    x 3.616280 0.008090 -0.152900 
#    y 0.008090 4.227590 0.186830 
#    z -0.152900 0.186830 3.967410 
# 
# 
# High freq. dielectric constant tensor:
#      x y z
#    x 1.796500 0.009400 -0.009000 
#    y 0.009400 1.831420 0.006150 
#    z -0.009000 0.006150 1.825560 
# 
# From -- ./inp_files/208458.got.cif
#   From: 2010.06.25/outbox.cif.g09.slc.cpg/sg2_105_cif.got.tgz:208458.got - 2010.06.27 13:26:56.
