data_PCOD8015221
_publ_section_title
;
Structure prediction by ZEFSAII (Michael W. Deem and Ramdas Pophale) SiO2 
 PCOD8015221
Probable space group: P -1
;
_chemical_formula_sum "Si O2"
_cell_formula_units_Z 16
_cell_length_a 16.816501
_cell_length_b 9.617315
_cell_length_c 6.336527
_cell_angle_alpha 131.941881
_cell_angle_beta 78.699334
_cell_angle_gamma 109.757617
_cell_volume 716.740455
_symmetry_space_group_name_H-M "P -1"
_symmetry_group_IT_number 2
_symmetry_cell_setting 'triclinic'
loop_
_space_group_symop_operation_xyz
x,y,z
-x,-y,-z
loop_
_atom_site_type_symbol
_atom_site_label
_atom_site_fract_x
_atom_site_fract_y
_atom_site_fract_z
Si Si1 0.538963 0.416795 0.093255
Si Si2 0.986092 0.359519 0.166768
Si Si3 0.873407 0.944172 0.791628
Si Si4 0.729995 0.977389 0.588439
Si Si5 0.739998 0.714821 0.932036
Si Si6 0.602590 0.750819 0.727229
Si Si7 0.885777 0.582731 0.190822
Si Si8 0.279439 0.619044 0.121655
O O1 0.558797 0.589552 0.421510
O O2 0.469654 0.229371 0.047884
O O3 0.621609 0.350429 0.935033
O O4 0.500000 0.500000 0.000000
O O5 0.919534 0.415423 0.104865
O O6 0.000000 0.500000 0.500000
O O7 0.075243 0.378661 0.025260
O O8 0.946629 0.133270 0.018087
O O9 0.825880 0.859641 0.946722
O O10 0.914148 0.781344 0.512159
O O11 0.815131 0.997700 0.695488
O O12 0.651953 0.943050 0.762864
O O13 0.736502 0.170135 0.643239
O O14 0.713161 0.799492 0.250584
O O15 0.670062 0.678625 0.752643
O O16 0.748054 0.499346 0.765083
O O17 0.783083 0.506106 0.154061
#
# Coordination Sequence:
#
# PCOD8015221 Si02
#       8
#     2   2   2   2   2   2   2   2
#     4  11  21  42  71  96 139 179 228 277 344 400
#     4  11  27  46  69 105 139 173 231 287 340 409
#     4  11  24  44  73  97 138 186 224 280 343 412
#     4  11  23  42  67 100 136 177 232 279 337 406
#     4  11  23  42  68 100 137 173 233 276 341 402
#     4  10  21  42  66  97 136 180 222 284 336 404
#     4  11  25  46  70  99 138 178 232 280 344 409
#     4  12  23  43  71  96 134 182 222 287 337 398
#
# _framework density 22.323284999999998
#
# number of rings (size 3 to 8) (size 9 to 14) (size 15 to 20)
#    0.000    1.000    5.000    1.125    3.500    1.000 
#    4.500    2.500    0.000    0.000    0.000    0.000 
#    0.000    0.000    0.000    0.000    0.000    0.000 
#
# Total GULP energy -198323.233211 kJ/mol
# GULP energy per Si atom -12395.202076 kJ/mol
# Density = 2.227248 g / cm^3
# Si number density = 22.323285 Si / 1000 Ang^3
#
#
#
# Elastic Constant Matrix: (Units=GPa)
#
#
# Indices 1 2 3 4 5 6 
#
# 1 79.0176 34.3047 16.1211 -3.6691 -6.7225 10.9737
# 2 34.3047 147.4593 31.6167 1.5076 -5.0835 4.8174
# 3 16.1211 31.6167 82.4994 -3.4271 0.4629 12.0821
# 4 -3.6691 1.5076 -3.4271 37.0367 -0.2243 -3.7274
# 5 -6.7225 -5.0835 0.4629 -0.2243 34.1891 -2.6179
# 6 10.9737 4.8174 12.0821 -3.7274 -2.6179 35.6923
#
#
#
# Elastic Compliance Matrix: (Units=1/GPa)
#
#
# Indices 1 2 3 4 5 6 
#
# 1 0.014951 -0.003039 -0.001210 0.001155 0.002245 -0.003492
# 2 -0.003039 0.008063 -0.002636 -0.000798 0.000686 0.000706
# 3 -0.001210 -0.002636 0.013997 0.000873 -0.001120 -0.004001
# 4 0.001155 -0.000798 0.000873 0.027468 0.000458 0.002359
# 5 0.002245 0.000686 -0.001120 0.000458 0.029952 0.001841
# 6 -0.003492 0.000706 -0.004001 0.002359 0.001841 0.030731
#
#
# Mechanical properties :
#
#
# Convention : Reuss Voigt Hill
#
# Bulk Modulus (GPa) = 43.03072 52.56239 47.79655
# Shear Modulus (GPa) = 34.08804 36.51252 35.30028
#
# Velocity S-wave (km/s) = 3.91195 4.04867 3.98090
# Velocity P-wave (km/s) = 6.30257 6.74187 6.52592
#
# Compressibility (1/GPa) = 0.02323921
#
# Stress axis : x y z
#
# Youngs Moduli (GPa) = 66.88418 124.03026 71.44586
#
# Poissons Ratio (x) = 0.37694 0.08646
# Poissons Ratio (y) = 0.20327 0.18835
# Poissons Ratio (z) = 0.08094 0.32698
#
# Static dielectric constant tensor:
#      x y z
#    x 4.257710 0.263120 -0.020710 
#    y 0.263120 4.464940 -0.220510 
#    z -0.020710 -0.220510 3.736560 
# 
# 
# High freq. dielectric constant tensor:
#      x y z
#    x 1.886970 0.007290 0.012940 
#    y 0.007290 1.893780 -0.011680 
#    z 0.012940 -0.011680 1.856910 
# 
# From -- ./inp_files/107801.got.cif
#   From: 2010.06.25/outbox.cif.g09.slc.cpg/sg2_54_cif.got.tgz:107801.got - 2010.06.27 13:26:56.
