data_PCOD8015430
_publ_section_title
;
Structure prediction by ZEFSAII (Michael W. Deem and Ramdas Pophale) SiO2 
 PCOD8015430
Probable space group: P -1
;
_chemical_formula_sum "Si O2"
_cell_formula_units_Z 16
_cell_length_a 15.472957
_cell_length_b 5.434571
_cell_length_c 8.669205
_cell_angle_alpha 95.168310
_cell_angle_beta 74.775888
_cell_angle_gamma 101.916339
_cell_volume 687.746029
_symmetry_space_group_name_H-M "P -1"
_symmetry_group_IT_number 2
_symmetry_cell_setting 'triclinic'
loop_
_space_group_symop_operation_xyz
x,y,z
-x,-y,-z
loop_
_atom_site_type_symbol
_atom_site_label
_atom_site_fract_x
_atom_site_fract_y
_atom_site_fract_z
Si Si1 0.971159 0.454230 0.335081
Si Si2 0.310509 0.006690 0.132493
Si Si3 0.728377 0.737766 0.114610
Si Si4 0.138252 0.112674 0.681341
Si Si5 0.570733 0.717045 0.401753
Si Si6 0.169585 0.556890 0.185090
Si Si7 0.596852 0.144883 0.644457
Si Si8 0.264864 0.378347 0.394947
O O1 0.918539 0.663728 0.303594
O O2 0.000000 0.500000 0.500000
O O3 0.063108 0.483675 0.188964
O O4 0.917415 0.168320 0.330352
O O5 0.322770 0.265468 0.233756
O O6 0.205562 0.857130 0.189337
O O7 0.380669 0.859614 0.180813
O O8 0.322086 0.069509 0.948962
O O9 0.818768 0.880301 0.167701
O O10 0.649758 0.612370 0.264858
O O11 0.763385 0.540055 0.975177
O O12 0.223112 0.170462 0.527881
O O13 0.500000 0.500000 0.500000
O O14 0.510312 0.853275 0.321586
O O15 0.617983 0.904818 0.525267
O O16 0.180761 0.464046 0.350000
O O17 0.664056 0.387656 0.551179
#
# Coordination Sequence:
#
# PCOD8015430 Si02
#       8
#     2   2   2   2   2   2   2   2
#     4  12  26  45  73 108 140 187 247 301 347 420
#     4  10  22  43  67  95 140 184 232 280 356 425
#     4  11  27  43  66 100 140 187 225 289 360 425
#     4  12  27  42  74 104 144 186 244 296 358 409
#     4  11  24  44  70 102 139 169 240 290 354 418
#     4  10  24  43  68  96 141 185 231 285 357 419
#     4  10  22  41  72 100 130 184 223 302 342 423
#     4  10  21  42  69 100 135 181 235 290 350 418
#
# _framework density 23.264403999999999
#
# number of rings (size 3 to 8) (size 9 to 14) (size 15 to 20)
#    0.000    1.250    1.250    3.375    8.750    3.500 
#    0.000    8.750    0.000    0.000    0.000    0.000 
#    0.000    0.000    0.000    0.000    0.000    0.000 
#
# Total GULP energy -198221.966342 kJ/mol
# GULP energy per Si atom -12388.872896 kJ/mol
# Density = 2.321145 g / cm^3
# Si number density = 23.264404 Si / 1000 Ang^3
#
#
#
# Elastic Constant Matrix: (Units=GPa)
#
#
# Indices 1 2 3 4 5 6 
#
# 1 136.2270 41.7459 64.4890 1.2299 8.3595 11.3031
# 2 41.7459 154.9853 42.1591 3.4829 1.1354 24.6835
# 3 64.4890 42.1591 107.7028 -2.3442 12.7371 8.2925
# 4 1.2299 3.4829 -2.3442 24.9489 -0.8560 3.5828
# 5 8.3595 1.1354 12.7371 -0.8560 45.1251 0.4486
# 6 11.3031 24.6835 8.2925 3.5828 0.4486 35.6628
#
#
#
# Elastic Compliance Matrix: (Units=1/GPa)
#
#
# Indices 1 2 3 4 5 6 
#
# 1 0.010522 -0.001055 -0.005778 -0.000755 -0.000294 -0.001182
# 2 -0.001055 0.008112 -0.002274 -0.000596 0.000669 -0.004700
# 3 -0.005778 -0.002274 0.014004 0.001822 -0.002791 0.000001
# 4 -0.000755 -0.000596 0.001822 0.040948 0.000456 -0.003891
# 5 -0.000294 0.000669 -0.002791 0.000456 0.022995 -0.000056
# 6 -0.001182 -0.004700 0.000001 -0.003891 -0.000056 0.032059
#
#
# Mechanical properties :
#
#
# Convention : Reuss Voigt Hill
#
# Bulk Modulus (GPa) = 69.32602 77.30036 73.31319
# Shear Modulus (GPa) = 32.96784 37.84876 35.40830
#
# Velocity S-wave (km/s) = 3.76851 4.03786 3.90551
# Velocity P-wave (km/s) = 6.98566 7.41876 7.20547
#
# Compressibility (1/GPa) = 0.01442460
#
# Stress axis : x y z
#
# Youngs Moduli (GPa) = 95.03700 123.27462 71.40753
#
# Poissons Ratio (x) = 0.13008 0.41259
# Poissons Ratio (y) = 0.10028 0.16236
# Poissons Ratio (z) = 0.54912 0.28029
#
# Static dielectric constant tensor:
#      x y z
#    x 4.651710 -0.029140 0.401550 
#    y -0.029140 4.184600 -0.072180 
#    z 0.401550 -0.072180 4.141530 
# 
# 
# High freq. dielectric constant tensor:
#      x y z
#    x 1.935160 0.002580 0.023490 
#    y 0.002580 1.920190 -0.002900 
#    z 0.023490 -0.002900 1.907420 
# 
# From -- ./inp_files/288830.got.cif
#   From: 2010.06.25/outbox.cif.g09.slc.cpg/sg2_145_cif.got.tgz:288830.got - 2010.06.27 13:26:56.
