data_PCOD8015241
_publ_section_title
;
Structure prediction by ZEFSAII (Michael W. Deem and Ramdas Pophale) SiO2 
 PCOD8015241
Probable space group: P -1
;
_chemical_formula_sum "Si O2"
_cell_formula_units_Z 12
_cell_length_a 8.045841
_cell_length_b 4.998299
_cell_length_c 14.882116
_cell_angle_alpha 77.198353
_cell_angle_beta 43.900026
_cell_angle_gamma 88.080543
_cell_volume 397.573433
_symmetry_space_group_name_H-M "P -1"
_symmetry_group_IT_number 2
_symmetry_cell_setting 'triclinic'
loop_
_space_group_symop_operation_xyz
x,y,z
-x,-y,-z
loop_
_atom_site_type_symbol
_atom_site_label
_atom_site_fract_x
_atom_site_fract_y
_atom_site_fract_z
Si Si1 0.727719 0.743779 0.530096
Si Si2 0.079603 0.345151 0.887898
Si Si3 0.428013 0.209666 0.626572
Si Si4 0.990891 0.199743 0.249632
Si Si5 0.197653 0.581791 0.300495
Si Si6 0.702480 0.859623 0.020871
O O1 0.647282 0.038385 0.560006
O O2 0.694030 0.563926 0.648500
O O3 0.018557 0.789543 0.387344
O O4 0.549966 0.540384 0.544202
O O5 0.159566 0.367126 0.961558
O O6 0.134653 0.623555 0.786567
O O7 0.262007 0.156592 0.785323
O O8 0.804398 0.168621 0.997051
O O9 0.230133 0.078937 0.632252
O O10 0.048728 0.351226 0.309458
O O11 0.234478 0.140151 0.110090
O O12 0.413761 0.778468 0.148146
#
# Coordination Sequence:
#
# PCOD8015241 Si02
#       6
#     2   2   2   2   2   2
#     4  11  26  49  72 100 139 196 228 278 348 422
#     4  10  21  42  72 103 133 188 231 284 344 420
#     4  11  22  49  73  99 137 185 242 273 341 421
#     4  11  23  42  73 107 139 177 235 298 344 398
#     4  11  25  45  66 108 143 182 229 294 347 410
#     4  10  21  42  67 103 139 188 225 286 347 421
#
# _framework density 30.183107
#
# number of rings (size 3 to 8) (size 9 to 14) (size 15 to 20)
#    0.000    1.333    3.333    1.000    0.000    7.333 
#   15.000    0.000    0.000    0.000    0.000    0.000 
#    0.000    0.000    0.000    0.000    0.000    0.000 
#
# Total GULP energy -148843.989252 kJ/mol
# GULP energy per Si atom -12403.665771 kJ/mol
# Density = 3.011441 g / cm^3
# Si number density = 30.183107 Si / 1000 Ang^3
#
#
#
# Elastic Constant Matrix: (Units=GPa)
#
#
# Indices 1 2 3 4 5 6 
#
# 1 103.0314 40.2326 26.2898 -2.9442 20.6093 7.1571
# 2 40.2326 159.9842 64.7808 -28.9934 -8.5018 4.2627
# 3 26.2898 64.7808 211.1201 -20.9782 -32.6270 15.1560
# 4 -2.9442 -28.9934 -20.9782 48.2380 15.8921 2.0932
# 5 20.6093 -8.5018 -32.6270 15.8921 35.2536 -5.7328
# 6 7.1571 4.2627 15.1560 2.0932 -5.7328 48.0097
#
#
#
# Elastic Compliance Matrix: (Units=1/GPa)
#
#
# Indices 1 2 3 4 5 6 
#
# 1 0.014236 -0.002735 -0.002473 0.002500 -0.012843 -0.002741
# 2 -0.002735 0.008417 -0.001825 0.004054 0.000124 0.000075
# 3 -0.002473 -0.001825 0.006732 -0.000751 0.007465 -0.000670
# 4 0.002500 0.004054 -0.000751 0.027849 -0.014288 -0.003416
# 5 -0.012843 0.000124 0.007465 -0.014288 0.050258 0.006171
# 6 -0.002741 0.000075 -0.000670 -0.003416 0.006171 0.022329
#
#
# Mechanical properties :
#
#
# Convention : Reuss Voigt Hill
#
# Bulk Modulus (GPa) = 65.28562 81.86024 73.57293
# Shear Modulus (GPa) = 33.55876 49.15577 41.35727
#
# Velocity S-wave (km/s) = 3.33804 4.03995 3.70565
# Velocity P-wave (km/s) = 6.04430 6.99583 6.53740
#
# Compressibility (1/GPa) = 0.01531731
#
# Stress axis : x y z
#
# Youngs Moduli (GPa) = 70.24589 118.80875 148.54484
#
# Poissons Ratio (x) = 0.32494 0.36737
# Poissons Ratio (y) = 0.19212 0.27116
# Poissons Ratio (z) = 0.17373 0.21688
#
# Static dielectric constant tensor:
#      x y z
#    x 5.621030 -0.033570 0.380070 
#    y -0.033570 5.787950 0.147820 
#    z 0.380070 0.147820 6.265240 
# 
# 
# High freq. dielectric constant tensor:
#      x y z
#    x 2.244630 -0.007190 0.018330 
#    y -0.007190 2.242050 -0.008520 
#    z 0.018330 -0.008520 2.282660 
# 
# From -- ./inp_files/552652.got.cif
#   From: 2010.06.25/outbox.cif.g09.slc.cpg/sg2_277_cif.got.tgz:552652.got - 2010.06.27 13:26:56.
