data_PCOD8015163
_publ_section_title
;
Structure prediction by ZEFSAII (Michael W. Deem and Ramdas Pophale) SiO2 
 PCOD8015163
Probable space group: P -1
;
_chemical_formula_sum "Si O2"
_cell_formula_units_Z 16
_cell_length_a 15.402561
_cell_length_b 9.159442
_cell_length_c 13.027104
_cell_angle_alpha 32.702629
_cell_angle_beta 52.929551
_cell_angle_gamma 65.602914
_cell_volume 773.129258
_symmetry_space_group_name_H-M "P -1"
_symmetry_group_IT_number 2
_symmetry_cell_setting 'triclinic'
loop_
_space_group_symop_operation_xyz
x,y,z
-x,-y,-z
loop_
_atom_site_type_symbol
_atom_site_label
_atom_site_fract_x
_atom_site_fract_y
_atom_site_fract_z
Si Si1 0.493949 0.444740 0.915871
Si Si2 0.997728 0.821815 0.905684
Si Si3 0.707797 0.523084 0.581788
Si Si4 0.708605 0.482432 0.093840
Si Si5 0.835697 0.132415 0.076862
Si Si6 0.114199 0.713278 0.280796
Si Si7 0.679764 0.040913 0.733334
Si Si8 0.826822 0.276411 0.304556
O O1 0.614273 0.535370 0.725390
O O2 0.414116 0.620127 0.810215
O O3 0.500000 0.500000 0.000000
O O4 0.441811 0.115110 0.131750
O O5 0.042525 0.881720 0.955511
O O6 0.110592 0.904283 0.707112
O O7 0.909384 0.999909 0.830348
O O8 0.929749 0.510448 0.131516
O O9 0.800051 0.394281 0.646167
O O10 0.662394 0.312092 0.645730
O O11 0.752889 0.829866 0.323500
O O12 0.795960 0.376074 0.022235
O O13 0.725168 0.370476 0.261860
O O14 0.730524 0.816746 0.894602
O O15 0.841540 0.237147 0.895175
O O16 0.000000 0.500000 0.500000
O O17 0.770111 0.106840 0.540508
#
# Coordination Sequence:
#
# PCOD8015163 Si02
#       8
#     2   2   2   2   2   2   2   2
#     4  10  24  45  72  96 127 171 222 271 329 389
#     4  10  22  40  62  97 132 173 219 263 320 390
#     4  12  25  45  67  97 137 172 213 278 324 386
#     4   9  23  42  66  96 128 165 227 263 323 397
#     4  11  24  41  65  99 133 172 222 266 323 390
#     4  12  25  38  64  94 135 173 219 261 323 382
#     4  10  24  43  69  94 133 169 218 269 332 380
#     4  10  21  42  66  92 135 169 214 272 321 385
#
# _framework density 20.695115000000001
#
# number of rings (size 3 to 8) (size 9 to 14) (size 15 to 20)
#    0.750    0.750    1.250    3.000    7.000    0.500 
#    2.250    3.125    0.000    0.000    0.000    0.000 
#    0.000    0.000    0.000    0.000    0.000    0.000 
#
# Total GULP energy -198243.741501 kJ/mol
# GULP energy per Si atom -12390.233844 kJ/mol
# Density = 2.064801 g / cm^3
# Si number density = 20.695115 Si / 1000 Ang^3
#
#
#
# Elastic Constant Matrix: (Units=GPa)
#
#
# Indices 1 2 3 4 5 6 
#
# 1 78.5167 5.2024 4.5350 3.7736 -15.1471 1.7420
# 2 5.2024 69.8822 16.7951 -1.9950 1.9265 8.8408
# 3 4.5350 16.7951 80.3787 9.9873 -10.6635 4.1543
# 4 3.7736 -1.9950 9.9873 31.4533 0.3202 -1.3790
# 5 -15.1471 1.9265 -10.6635 0.3202 23.4057 -5.5632
# 6 1.7420 8.8408 4.1543 -1.3790 -5.5632 35.4096
#
#
#
# Elastic Compliance Matrix: (Units=1/GPa)
#
#
# Indices 1 2 3 4 5 6 
#
# 1 0.014943 -0.001915 0.001207 -0.002354 0.010693 0.001190
# 2 -0.001915 0.016189 -0.004083 0.002423 -0.005471 -0.004234
# 3 0.001207 -0.004083 0.014928 -0.005214 0.008054 0.000271
# 4 -0.002354 0.002423 -0.005214 0.033963 -0.004383 0.000757
# 5 0.010693 -0.005471 0.008054 -0.004383 0.055844 0.008498
# 6 0.001190 -0.004234 0.000271 0.000757 0.008498 0.030572
#
#
# Mechanical properties :
#
#
# Convention : Reuss Voigt Hill
#
# Bulk Modulus (GPa) = 27.41346 31.31583 29.36465
# Shear Modulus (GPa) = 26.57013 31.53674 29.05343
#
# Velocity S-wave (km/s) = 3.58702 3.90792 3.75090
# Velocity P-wave (km/s) = 5.51640 5.96048 5.74273
#
# Compressibility (1/GPa) = 0.03647842
#
# Stress axis : x y z
#
# Youngs Moduli (GPa) = 66.92161 61.76940 66.98597
#
# Poissons Ratio (x) = 0.11828 -0.08083
# Poissons Ratio (y) = 0.12815 0.27349
# Poissons Ratio (z) = -0.08075 0.25219
#
# Static dielectric constant tensor:
#      x y z
#    x 2.907010 -1.177050 -0.182640 
#    y -1.177050 1.632650 -0.311390 
#    z -0.182640 -0.311390 3.636560 
# 
# 
# High freq. dielectric constant tensor:
#      x y z
#    x 1.810950 0.002210 -0.001240 
#    y 0.002210 1.817000 -0.001490 
#    z -0.001240 -0.001490 1.803820 
# 
# From -- ./inp_files/445455.got.cif
#   From: 2010.06.25/outbox.cif.g09.slc.cpg/sg2_223_cif.got.tgz:445455.got - 2010.06.27 13:26:56.
