data_PCOD8015900
_publ_section_title
;
Structure prediction by ZEFSAII (Michael W. Deem and Ramdas Pophale) SiO2 
 PCOD8015900
Probable space group: P -1
;
_chemical_formula_sum "Si O2"
_cell_formula_units_Z 16
_cell_length_a 11.930700
_cell_length_b 20.979894
_cell_length_c 10.197841
_cell_angle_alpha 32.216767
_cell_angle_beta 142.238995
_cell_angle_gamma 147.776944
_cell_volume 700.020077
_symmetry_space_group_name_H-M "P -1"
_symmetry_group_IT_number 2
_symmetry_cell_setting 'triclinic'
loop_
_space_group_symop_operation_xyz
x,y,z
-x,-y,-z
loop_
_atom_site_type_symbol
_atom_site_label
_atom_site_fract_x
_atom_site_fract_y
_atom_site_fract_z
Si Si1 0.160627 0.587845 0.611740
Si Si2 0.243629 0.559521 0.078340
Si Si3 0.004891 0.862930 0.764047
Si Si4 0.213708 0.865542 0.204459
Si Si5 0.646597 0.564688 0.836472
Si Si6 0.704904 0.158457 0.402516
Si Si7 0.669297 0.144310 0.103249
Si Si8 0.265921 0.564105 0.374761
O O1 0.997397 0.543105 0.665267
O O2 0.000000 0.500000 0.500000
O O3 0.283780 0.756525 0.412231
O O4 0.339578 0.545484 0.862599
O O5 0.264656 0.453198 0.188896
O O6 0.353138 0.562163 0.313832
O O7 0.353109 0.720382 0.839617
O O8 0.000000 0.500000 0.000000
O O9 0.224381 0.901505 0.826836
O O10 0.798461 0.724759 0.750098
O O11 0.019146 0.840708 0.972687
O O12 0.000000 0.000000 0.500000
O O13 0.139409 0.831575 0.349671
O O14 0.418008 0.023944 0.100593
O O15 0.399904 0.526194 0.664963
O O16 0.796802 0.179272 0.302048
O O17 0.500000 0.000000 0.500000
O O18 0.677602 0.278966 0.816312
#
# Coordination Sequence:
#
# PCOD8015900 Si02
#       8
#     2   2   2   2   2   2   2   2
#     4  12  23  42  62  93 132 173 210 269 327 381
#     4  11  19  39  68  94 131 170 211 266 323 386
#     4  12  25  42  63  94 129 173 224 269 317 396
#     4  11  21  40  65  92 129 168 212 265 330 381
#     4  12  23  40  66  97 130 167 223 264 321 390
#     4   9  19  35  64  94 123 167 207 257 328 384
#     4  10  21  43  67  92 127 174 215 267 327 384
#     4  11  23  41  68  97 128 172 217 266 326 385
#
# _framework density 22.856486
#
# number of rings (size 3 to 8) (size 9 to 14) (size 15 to 20)
#    0.000    1.000    5.000    2.250    0.000    1.500 
#    2.250    0.625    0.000    0.000    0.000    0.000 
#    0.000    0.000    0.000    0.000    0.000    0.000 
#
# Total GULP energy -198233.442394 kJ/mol
# GULP energy per Si atom -12389.590150 kJ/mol
# Density = 2.280446 g / cm^3
# Si number density = 22.856486 Si / 1000 Ang^3
#
#
#
# Elastic Constant Matrix: (Units=GPa)
#
#
# Indices 1 2 3 4 5 6 
#
# 1 52.9097 4.4216 21.9792 7.9944 -10.0381 -22.1828
# 2 4.4216 98.6387 38.2900 -17.9570 3.2700 -15.2380
# 3 21.9792 38.2900 158.6521 1.8682 -1.4783 -14.9280
# 4 7.9944 -17.9570 1.8682 40.6375 -7.5371 -4.6996
# 5 -10.0381 3.2700 -1.4783 -7.5371 34.6454 5.7848
# 6 -22.1828 -15.2380 -14.9280 -4.6996 5.7848 39.1546
#
#
#
# Elastic Compliance Matrix: (Units=1/GPa)
#
#
# Indices 1 2 3 4 5 6 
#
# 1 0.026921 0.001451 -0.002710 -0.002042 0.004794 0.013830
# 2 0.001451 0.013253 -0.002943 0.006263 -0.000543 0.005690
# 3 -0.002710 -0.002943 0.007405 -0.001185 -0.000461 0.000068
# 4 -0.002042 0.006263 -0.001185 0.029086 0.004484 0.003658
# 5 0.004794 -0.000543 -0.000461 0.004484 0.031560 -0.001796
# 6 0.013830 0.005690 0.000068 0.003658 -0.001796 0.036320
#
#
# Mechanical properties :
#
#
# Convention : Reuss Voigt Hill
#
# Bulk Modulus (GPa) = 25.52648 48.84247 37.18447
# Shear Modulus (GPa) = 30.11947 39.25480 34.68713
#
# Velocity S-wave (km/s) = 3.63404 4.14870 3.89987
# Velocity P-wave (km/s) = 5.36663 6.66067 6.04836
#
# Compressibility (1/GPa) = 0.03917500
#
# Stress axis : x y z
#
# Youngs Moduli (GPa) = 37.14589 75.45738 135.04637
#
# Poissons Ratio (x) = -0.10949 0.36594
# Poissons Ratio (y) = -0.05390 0.39743
# Poissons Ratio (z) = 0.10065 0.22206
#
# Static dielectric constant tensor:
#      x y z
#    x 4.520620 -0.437710 -0.622310 
#    y -0.437710 4.420030 0.024260 
#    z -0.622310 0.024260 4.459620 
# 
# 
# High freq. dielectric constant tensor:
#      x y z
#    x 1.880300 -0.034980 -0.037410 
#    y -0.034980 1.915990 -0.007790 
#    z -0.037410 -0.007790 1.906210 
# 
# From -- ./inp_files/457934.got.cif
#   From: 2010.06.25/outbox.cif.g09.slc.cpg/sg2_229_cif.got.tgz:457934.got - 2010.06.27 13:26:56.
