data_PCOD8015232
_publ_section_title
;
Structure prediction by ZEFSAII (Michael W. Deem and Ramdas Pophale) SiO2 
 PCOD8015232
Probable space group: P -1
;
_chemical_formula_sum "Si O2"
_cell_formula_units_Z 14
_cell_length_a 12.707140
_cell_length_b 15.624146
_cell_length_c 8.722975
_cell_angle_alpha 123.949810
_cell_angle_beta 47.706289
_cell_angle_gamma 150.903176
_cell_volume 620.855356
_symmetry_space_group_name_H-M "P -1"
_symmetry_group_IT_number 2
_symmetry_cell_setting 'triclinic'
loop_
_space_group_symop_operation_xyz
x,y,z
-x,-y,-z
loop_
_atom_site_type_symbol
_atom_site_label
_atom_site_fract_x
_atom_site_fract_y
_atom_site_fract_z
Si Si1 0.476131 0.380134 0.729646
Si Si2 0.381302 0.313525 0.103213
Si Si3 0.412650 0.770659 0.077807
Si Si4 0.305925 0.892531 0.717030
Si Si5 0.900193 0.985134 0.427188
Si Si6 0.504699 0.108257 0.194737
Si Si7 0.010862 0.401450 0.481585
O O1 0.518420 0.519798 0.759791
O O2 0.293245 0.213368 0.633705
O O3 0.729549 0.467313 0.568023
O O4 0.355242 0.311891 0.946361
O O5 0.575340 0.337819 0.976573
O O6 0.115680 0.129529 0.241225
O O7 0.185621 0.704098 0.294425
O O8 0.660122 0.978104 0.098258
O O9 0.393266 0.750298 0.890551
O O10 0.333743 0.813378 0.732170
O O11 0.050702 0.726715 0.710360
O O12 0.500000 0.000000 0.500000
O O13 0.764321 0.014389 0.612343
O O14 0.000000 0.000000 0.500000
O O15 0.500000 0.000000 0.000000
O O16 0.000000 0.500000 0.500000
#
# Coordination Sequence:
#
# PCOD8015232 Si02
#       7
#     2   2   2   2   2   2   2
#     4  11  27  46  71 107 139 186 238 289 352 411
#     4  11  25  47  70 104 143 182 240 285 351 418
#     4  10  21  42  67 100 138 182 233 283 352 415
#     4   9  21  37  70  97 129 177 232 286 340 408
#     4  12  26  48  73  99 142 190 229 288 355 423
#     4  10  22  43  66 104 134 179 237 280 350 414
#     4  11  21  41  67  98 137 174 234 298 337 402
#
# _framework density 22.549536
#
# number of rings (size 3 to 8) (size 9 to 14) (size 15 to 20)
#    0.000    1.429    2.857    1.286    8.000    2.857 
#    0.000    4.286    0.000    0.000    0.000    0.000 
#    0.000    0.000    0.000    0.000    0.000    0.000 
#
# Total GULP energy -173534.296711 kJ/mol
# GULP energy per Si atom -12395.306908 kJ/mol
# Density = 2.249821 g / cm^3
# Si number density = 22.549536 Si / 1000 Ang^3
#
#
#
# Elastic Constant Matrix: (Units=GPa)
#
#
# Indices 1 2 3 4 5 6 
#
# 1 123.7220 59.5043 39.4145 8.7202 1.9794 -3.1440
# 2 59.5043 137.3010 47.7330 5.9975 -4.0139 7.9247
# 3 39.4145 47.7330 103.8161 -3.1879 -9.6544 9.4321
# 4 8.7202 5.9975 -3.1879 29.1794 -4.3251 -6.0428
# 5 1.9794 -4.0139 -9.6544 -4.3251 43.4134 5.2330
# 6 -3.1440 7.9247 9.4321 -6.0428 5.2330 35.4952
#
#
#
# Elastic Compliance Matrix: (Units=1/GPa)
#
#
# Indices 1 2 3 4 5 6 
#
# 1 0.011190 -0.003913 -0.002953 -0.002654 -0.002095 0.002507
# 2 -0.003913 0.010245 -0.003025 -0.001638 0.000554 -0.002191
# 3 -0.002953 -0.003025 0.012814 0.002776 0.003344 -0.003012
# 4 -0.002654 -0.001638 0.002776 0.037327 0.003678 0.005205
# 5 -0.002095 0.000554 0.003344 0.003678 0.024801 -0.004228
# 6 0.002507 -0.002191 -0.003012 0.005205 -0.004228 0.031194
#
#
# Mechanical properties :
#
#
# Convention : Reuss Voigt Hill
#
# Bulk Modulus (GPa) = 69.12157 73.12696 71.12426
# Shear Modulus (GPa) = 32.85714 36.16342 34.51028
#
# Velocity S-wave (km/s) = 3.82135 4.00901 3.91630
# Velocity P-wave (km/s) = 7.08449 7.34366 7.21524
#
# Compressibility (1/GPa) = 0.01446726
#
# Stress axis : x y z
#
# Youngs Moduli (GPa) = 89.36915 97.61153 78.03823
#
# Poissons Ratio (x) = 0.38192 0.23047
# Poissons Ratio (y) = 0.34967 0.23604
# Poissons Ratio (z) = 0.26393 0.29524
#
# Static dielectric constant tensor:
#      x y z
#    x 4.946280 -0.064550 0.282460 
#    y -0.064550 4.450570 0.025220 
#    z 0.282460 0.025220 4.472640 
# 
# 
# High freq. dielectric constant tensor:
#      x y z
#    x 1.892720 -0.013330 0.005890 
#    y -0.013330 1.878290 0.001230 
#    z 0.005890 0.001230 1.896490 
# 
# From -- ./inp_files/274001.got.cif
#   From: 2010.06.25/outbox.cif.g09.slc.cpg/sg2_138_cif.got.tgz:274001.got - 2010.06.27 13:26:56.
