data_PCOD8015526
_publ_section_title
;
Structure prediction by ZEFSAII (Michael W. Deem and Ramdas Pophale) SiO2 
 PCOD8015526
Probable space group: P -1
;
_chemical_formula_sum "Si O2"
_cell_formula_units_Z 16
_cell_length_a 18.763312
_cell_length_b 8.065355
_cell_length_c 16.626171
_cell_angle_alpha 41.758978
_cell_angle_beta 147.438577
_cell_angle_gamma 147.080867
_cell_volume 729.537188
_symmetry_space_group_name_H-M "P -1"
_symmetry_group_IT_number 2
_symmetry_cell_setting 'triclinic'
loop_
_space_group_symop_operation_xyz
x,y,z
-x,-y,-z
loop_
_atom_site_type_symbol
_atom_site_label
_atom_site_fract_x
_atom_site_fract_y
_atom_site_fract_z
Si Si1 0.236563 0.442861 0.605032
Si Si2 0.759266 0.488517 0.085974
Si Si3 0.421061 0.684941 0.857036
Si Si4 0.019387 0.175499 0.079021
Si Si5 0.892741 0.531491 0.778230
Si Si6 0.947468 0.255897 0.306454
Si Si7 0.418860 0.642989 0.549320
Si Si8 0.369381 0.593496 0.173610
O O1 0.317241 0.619512 0.700947
O O2 0.372845 0.516895 0.642476
O O3 0.115382 0.511075 0.422926
O O4 0.104547 0.085121 0.623126
O O5 0.694479 0.459854 0.123449
O O6 0.796500 0.237815 0.206453
O O7 0.630273 0.413339 0.920782
O O8 0.929699 0.816166 0.109386
O O9 0.548262 0.055117 0.847206
O O10 0.500000 0.500000 0.000000
O O11 0.057046 0.230178 0.189138
O O12 0.186642 0.376996 0.114143
O O13 0.881273 0.235055 0.907023
O O14 0.733607 0.487646 0.607076
O O15 0.033012 0.656783 0.799939
O O16 0.529808 0.542306 0.654390
O O17 0.500000 0.000000 0.500000
#
# Coordination Sequence:
#
# PCOD8015526 Si02
#       8
#     2   2   2   2   2   2   2   2
#     4  10  23  42  66  95 130 178 221 268 339 398
#     4  12  24  42  69  96 130 177 230 273 335 393
#     4  12  27  43  68  97 140 176 222 279 340 394
#     4  11  25  40  72  99 133 171 233 276 325 406
#     4  10  23  43  65  96 133 176 217 272 337 388
#     4  10  21  42  70  93 130 173 228 275 325 400
#     4  11  25  43  69  93 141 176 216 271 347 396
#     4  12  26  43  68 103 136 174 227 279 332 406
#
# _framework density 21.931712999999998
#
# number of rings (size 3 to 8) (size 9 to 14) (size 15 to 20)
#    0.000    1.000    1.250    4.500    8.750    2.000 
#    0.000    0.000    0.000    0.000    0.000    0.000 
#    0.000    0.000    0.000    0.000    0.000    0.000 
#
# Total GULP energy -198266.809177 kJ/mol
# GULP energy per Si atom -12391.675574 kJ/mol
# Density = 2.188180 g / cm^3
# Si number density = 21.931713 Si / 1000 Ang^3
#
#
#
# Elastic Constant Matrix: (Units=GPa)
#
#
# Indices 1 2 3 4 5 6 
#
# 1 122.1895 25.2356 65.9405 12.0837 -10.6584 -8.6268
# 2 25.2356 109.9049 26.1418 4.3816 -5.1129 -7.0703
# 3 65.9405 26.1418 117.4624 6.2441 -5.2035 -9.2795
# 4 12.0837 4.3816 6.2441 26.6179 -10.4622 3.4042
# 5 -10.6584 -5.1129 -5.2035 -10.4622 51.4686 0.7891
# 6 -8.6268 -7.0703 -9.2795 3.4042 0.7891 28.1461
#
#
#
# Elastic Compliance Matrix: (Units=1/GPa)
#
#
# Indices 1 2 3 4 5 6 
#
# 1 0.012421 -0.001021 -0.006348 -0.003821 0.001023 0.001891
# 2 -0.001021 0.009838 -0.001409 -0.000891 0.000415 0.001790
# 3 -0.006348 -0.001409 0.012535 -0.000162 -0.000249 0.001860
# 4 -0.003821 -0.000891 -0.000162 0.043545 0.008062 -0.006941
# 5 0.001023 0.000415 -0.000249 0.008062 0.021315 -0.001237
# 6 0.001891 0.001790 0.001860 -0.006941 -0.001237 0.038046
#
#
# Mechanical properties :
#
#
# Convention : Reuss Voigt Hill
#
# Bulk Modulus (GPa) = 58.00870 64.91029 61.45950
# Shear Modulus (GPa) = 31.05549 36.72910 33.89230
#
# Velocity S-wave (km/s) = 3.76707 4.09675 3.93537
# Velocity P-wave (km/s) = 6.74004 7.21378 6.98093
#
# Compressibility (1/GPa) = 0.01723879
#
# Stress axis : x y z
#
# Youngs Moduli (GPa) = 80.50749 101.64290 79.77568
#
# Poissons Ratio (x) = 0.10373 0.50641
# Poissons Ratio (y) = 0.08216 0.11244
# Poissons Ratio (z) = 0.51106 0.14327
#
# Static dielectric constant tensor:
#      x y z
#    x 3.975520 -0.002770 -0.142630 
#    y -0.002770 3.923950 -0.063150 
#    z -0.142630 -0.063150 3.634580 
# 
# 
# High freq. dielectric constant tensor:
#      x y z
#    x 1.867310 0.001110 -0.006440 
#    y 0.001110 1.861420 -0.000620 
#    z -0.006440 -0.000620 1.878660 
# 
# From -- ./inp_files/577555.got.cif
#   From: 2010.06.25/outbox.cif.g09.slc.cpg/sg2_289_cif.got.tgz:577555.got - 2010.06.27 13:26:56.
