data_PCOD8015545
_publ_section_title
;
Structure prediction by ZEFSAII (Michael W. Deem and Ramdas Pophale) SiO2 
 PCOD8015545
Probable space group: P -1
;
_chemical_formula_sum "Si O2"
_cell_formula_units_Z 16
_cell_length_a 11.630312
_cell_length_b 21.364727
_cell_length_c 7.515898
_cell_angle_alpha 71.025169
_cell_angle_beta 98.138463
_cell_angle_gamma 156.820786
_cell_volume 629.978367
_symmetry_space_group_name_H-M "P -1"
_symmetry_group_IT_number 2
_symmetry_cell_setting 'triclinic'
loop_
_space_group_symop_operation_xyz
x,y,z
-x,-y,-z
loop_
_atom_site_type_symbol
_atom_site_label
_atom_site_fract_x
_atom_site_fract_y
_atom_site_fract_z
Si Si1 0.465226 0.611894 0.352886
Si Si2 0.547896 0.636438 0.843119
Si Si3 0.803070 0.003859 0.749226
Si Si4 0.735557 0.378341 0.908949
Si Si5 0.722726 0.056293 0.988959
Si Si6 0.535508 0.529050 0.231832
Si Si7 0.243323 0.581411 0.622971
Si Si8 0.735015 0.958869 0.368879
O O1 0.363695 0.597146 0.161174
O O2 0.427033 0.511411 0.406570
O O3 0.218026 0.509840 0.536997
O O4 0.829666 0.822310 0.295136
O O5 0.597390 0.617219 0.685156
O O6 0.317219 0.577662 0.822442
O O7 0.396115 0.503448 0.070252
O O8 0.889024 0.849389 0.777684
O O9 0.711244 0.970172 0.556811
O O10 0.597837 0.833983 0.933763
O O11 0.698406 0.012507 0.828187
O O12 0.906884 0.442696 0.701011
O O13 0.000000 0.500000 0.000000
O O14 0.592889 0.937769 0.223073
O O15 0.500000 0.000000 0.000000
O O16 0.085562 0.271649 0.902602
O O17 0.547846 0.790635 0.457151
#
# Coordination Sequence:
#
# PCOD8015545 Si02
#       8
#     2   2   2   2   2   2   2   2
#     4  11  24  44  69 101 138 189 239 287 347 431
#     4  10  21  42  70  98 135 181 236 288 343 423
#     4  11  24  46  71 101 141 194 236 286 355 430
#     4  12  25  43  65 104 146 182 230 294 360 412
#     4  10  24  45  70  99 145 184 234 299 353 424
#     4   9  22  43  67  98 132 187 237 278 353 422
#     4  12  24  41  72 103 144 178 232 301 352 408
#     4  11  23  45  69 107 134 187 243 283 358 427
#
# _framework density 25.397698999999999
#
# number of rings (size 3 to 8) (size 9 to 14) (size 15 to 20)
#    0.000    1.250    2.500    2.625    1.750    2.000 
#    2.250    0.000    0.000    0.000    0.000    0.000 
#    0.000    0.000    0.000    0.000    0.000    0.000 
#
# Total GULP energy -198338.520156 kJ/mol
# GULP energy per Si atom -12396.157510 kJ/mol
# Density = 2.533989 g / cm^3
# Si number density = 25.397699 Si / 1000 Ang^3
#
#
#
# Elastic Constant Matrix: (Units=GPa)
#
#
# Indices 1 2 3 4 5 6 
#
# 1 165.9999 37.4175 26.4054 -1.4500 7.3273 23.8559
# 2 37.4175 62.4149 9.7325 4.5951 4.6141 -1.4324
# 3 26.4054 9.7325 62.7510 -2.1119 -1.2378 3.9116
# 4 -1.4500 4.5951 -2.1119 30.4363 -10.1685 2.6064
# 5 7.3273 4.6141 -1.2378 -10.1685 43.8562 1.2742
# 6 23.8559 -1.4324 3.9116 2.6064 1.2742 35.9731
#
#
#
# Elastic Compliance Matrix: (Units=1/GPa)
#
#
# Indices 1 2 3 4 5 6 
#
# 1 0.008308 -0.004793 -0.002376 0.001260 -0.000498 -0.005516
# 2 -0.004793 0.019759 -0.001534 -0.004545 -0.002507 0.004550
# 3 -0.002376 -0.001534 0.017301 0.001866 0.001495 -0.000555
# 4 0.001260 -0.004545 0.001866 0.037117 0.009049 -0.004229
# 5 -0.000498 -0.002507 0.001495 0.009049 0.025332 -0.001485
# 6 -0.005516 0.004550 -0.000555 -0.004229 -0.001485 0.032057
#
#
# Mechanical properties :
#
#
# Convention : Reuss Voigt Hill
#
# Bulk Modulus (GPa) = 35.76305 48.69742 42.23023
# Shear Modulus (GPa) = 30.01218 36.56049 33.28633
#
# Velocity S-wave (km/s) = 3.44130 3.79822 3.62415
# Velocity P-wave (km/s) = 5.46826 6.20087 5.84605
#
# Compressibility (1/GPa) = 0.02796182
#
# Stress axis : x y z
#
# Youngs Moduli (GPa) = 120.36521 50.61104 57.80118
#
# Poissons Ratio (x) = 0.24256 0.13735
# Poissons Ratio (y) = 0.57686 0.08866
# Poissons Ratio (z) = 0.28602 0.07763
#
# Static dielectric constant tensor:
#      x y z
#    x 4.816450 -0.046910 -0.141540 
#    y -0.046910 4.795250 0.475250 
#    z -0.141540 0.475250 5.155590 
# 
# 
# High freq. dielectric constant tensor:
#      x y z
#    x 2.028770 -0.000250 0.001350 
#    y -0.000250 2.008660 0.032090 
#    z 0.001350 0.032090 2.027560 
# 
# From -- ./inp_files/285162.got.cif
#   From: 2010.06.25/outbox.cif.g09.slc.cpg/sg2_143_cif.got.tgz:285162.got - 2010.06.27 13:26:56.
