data_PCOD8015161
_publ_section_title
;
Structure prediction by ZEFSAII (Michael W. Deem and Ramdas Pophale) SiO2 
 PCOD8015161
Probable space group: P -1
;
_chemical_formula_sum "Si O2"
_cell_formula_units_Z 16
_cell_length_a 8.483646
_cell_length_b 12.705703
_cell_length_c 15.007692
_cell_angle_alpha 60.408181
_cell_angle_beta 37.857852
_cell_angle_gamma 80.155892
_cell_volume 787.307419
_symmetry_space_group_name_H-M "P -1"
_symmetry_group_IT_number 2
_symmetry_cell_setting 'triclinic'
loop_
_space_group_symop_operation_xyz
x,y,z
-x,-y,-z
loop_
_atom_site_type_symbol
_atom_site_label
_atom_site_fract_x
_atom_site_fract_y
_atom_site_fract_z
Si Si1 0.335697 0.880590 0.188570
Si Si2 0.773982 0.250019 0.000309
Si Si3 0.180109 0.194555 0.950181
Si Si4 0.566518 0.480089 0.708006
Si Si5 0.743824 0.362512 0.157592
Si Si6 0.938699 0.380485 0.690596
Si Si7 0.152416 0.047922 0.319601
Si Si8 0.802946 0.118905 0.310231
O O1 0.556317 0.843908 0.165133
O O2 0.140777 0.757033 0.268481
O O3 0.134285 0.918370 0.327712
O O4 0.500000 0.000000 0.000000
O O5 0.714031 0.314468 0.089086
O O6 0.480039 0.142902 0.140629
O O7 0.920185 0.360318 0.813484
O O8 0.987789 0.178657 0.954803
O O9 0.281356 0.349521 0.869794
O O10 0.977328 0.100621 0.156061
O O11 0.523275 0.608310 0.707607
O O12 0.727229 0.445910 0.731059
O O13 0.747615 0.518999 0.519632
O O14 0.761908 0.254476 0.263098
O O15 0.000000 0.500000 0.000000
O O16 0.985708 0.123770 0.313761
O O17 0.000000 0.000000 0.500000
O O18 0.500000 0.000000 0.500000
#
# Coordination Sequence:
#
# PCOD8015161 Si02
#       8
#     2   2   2   2   2   2   2   2
#     4  11  21  42  68  87 128 177 207 260 342 391
#     4  11  23  40  64  96 132 162 223 279 311 385
#     4  10  21  42  66  92 130 171 218 269 328 391
#     4  10  21  43  65  88 132 168 220 261 332 394
#     4  11  23  43  67  94 129 183 211 262 341 387
#     4  10  23  40  65  96 120 172 216 274 318 387
#     4  12  25  43  62  99 135 166 224 276 321 394
#     4  11  23  42  67  95 135 175 215 270 329 392
#
# _framework density 20.322429
#
# number of rings (size 3 to 8) (size 9 to 14) (size 15 to 20)
#    0.000    1.250    5.000    2.250    3.500    1.500 
#    2.250    0.000    0.000    0.000    0.000    0.000 
#    0.000    0.000    0.000    0.000    0.000    0.000 
#
# Total GULP energy -198392.732159 kJ/mol
# GULP energy per Si atom -12399.545760 kJ/mol
# Density = 2.027617 g / cm^3
# Si number density = 20.322429 Si / 1000 Ang^3
#
#
#
# Elastic Constant Matrix: (Units=GPa)
#
#
# Indices 1 2 3 4 5 6 
#
# 1 138.6675 40.2850 51.5602 -1.7716 18.2912 -15.7041
# 2 40.2850 115.7244 20.0805 0.2868 9.4547 -19.2368
# 3 51.5602 20.0805 113.1924 -7.0445 15.7444 -6.7238
# 4 -1.7716 0.2868 -7.0445 31.3811 6.1247 1.7173
# 5 18.2912 9.4547 15.7444 6.1247 40.3543 -9.4268
# 6 -15.7041 -19.2368 -6.7238 1.7173 -9.4268 23.1959
#
#
#
# Elastic Compliance Matrix: (Units=1/GPa)
#
#
# Indices 1 2 3 4 5 6 
#
# 1 0.009763 -0.002107 -0.003647 -0.000071 -0.001776 0.003088
# 2 -0.002107 0.010695 -0.000626 -0.000888 0.000597 0.007570
# 3 -0.003647 -0.000626 0.011180 0.003033 -0.003332 -0.001326
# 4 -0.000071 -0.000888 0.003033 0.034299 -0.007425 -0.005462
# 5 -0.001776 0.000597 -0.003332 -0.007425 0.030506 0.011274
# 6 0.003088 0.007570 -0.001326 -0.005462 0.011274 0.056081
#
#
# Mechanical properties :
#
#
# Convention : Reuss Voigt Hill
#
# Bulk Modulus (GPa) = 52.97246 65.71507 59.34376
# Shear Modulus (GPa) = 29.14118 36.03016 32.58567
#
# Velocity S-wave (km/s) = 3.79085 4.21518 4.00863
# Velocity P-wave (km/s) = 6.72929 7.48978 7.11969
#
# Compressibility (1/GPa) = 0.01887773
#
# Stress axis : x y z
#
# Youngs Moduli (GPa) = 102.42856 93.50033 89.44264
#
# Poissons Ratio (x) = 0.19701 0.32621
# Poissons Ratio (y) = 0.21582 0.05600
# Poissons Ratio (z) = 0.37357 0.05854
#
# Static dielectric constant tensor:
#      x y z
#    x 3.754720 -0.256100 -0.072270 
#    y -0.256100 4.169430 -0.005390 
#    z -0.072270 -0.005390 3.890090 
# 
# 
# High freq. dielectric constant tensor:
#      x y z
#    x 1.796550 -0.020980 -0.005620 
#    y -0.020980 1.784670 -0.002620 
#    z -0.005620 -0.002620 1.806040 
# 
# From -- ./inp_files/498919.got.cif
#   From: 2010.06.25/outbox.cif.g09.slc.cpg/sg2_250_cif.got.tgz:498919.got - 2010.06.27 13:26:56.
