data_PCOD8015666
_publ_section_title
;
Structure prediction by ZEFSAII (Michael W. Deem and Ramdas Pophale) SiO2 
 PCOD8015666
Probable space group: P -1
;
_chemical_formula_sum "Si O2"
_cell_formula_units_Z 16
_cell_length_a 9.348459
_cell_length_b 8.213704
_cell_length_c 13.788843
_cell_angle_alpha 123.823178
_cell_angle_beta 113.276996
_cell_angle_gamma 101.614741
_cell_volume 673.714180
_symmetry_space_group_name_H-M "P -1"
_symmetry_group_IT_number 2
_symmetry_cell_setting 'triclinic'
loop_
_space_group_symop_operation_xyz
x,y,z
-x,-y,-z
loop_
_atom_site_type_symbol
_atom_site_label
_atom_site_fract_x
_atom_site_fract_y
_atom_site_fract_z
Si Si1 0.312005 0.662413 0.426638
Si Si2 0.760337 0.197281 0.352274
Si Si3 0.718193 0.019677 0.611954
Si Si4 0.198753 0.250263 0.132953
Si Si5 0.573809 0.334065 0.201300
Si Si6 0.477059 0.708828 0.049016
Si Si7 0.094924 0.179470 0.497318
Si Si8 0.790436 0.399821 0.899998
O O1 0.300945 0.681550 0.545328
O O2 0.228585 0.805373 0.407252
O O3 0.200380 0.388431 0.275338
O O4 0.516810 0.776828 0.473188
O O5 0.703349 0.251591 0.252329
O O6 0.976746 0.281720 0.455253
O O7 0.641702 0.915573 0.227498
O O8 0.704296 0.145948 0.744391
O O9 0.869830 0.949486 0.625139
O O10 0.374758 0.222048 0.167312
O O11 0.232901 0.414158 0.103499
O O12 0.000000 0.000000 0.000000
O O13 0.529600 0.238738 0.047909
O O14 0.703801 0.616317 0.338343
O O15 0.500000 0.500000 0.000000
O O16 0.284370 0.637403 0.023658
O O17 0.000000 0.000000 0.500000
O O18 0.000000 0.500000 0.000000
#
# Coordination Sequence:
#
# PCOD8015666 Si02
#       8
#     2   2   2   2   2   2   2   2
#     4  10  21  45  76 104 144 193 248 314 368 445
#     4  12  27  48  72 113 155 199 250 312 392 452
#     4  10  21  42  77 107 141 185 257 318 361 436
#     4  11  26  49  75 113 155 200 249 310 395 464
#     4  12  28  50  72 112 159 202 248 322 387 455
#     4  12  26  49  79 104 150 204 259 315 376 449
#     4  12  25  46  79 111 147 200 258 314 376 456
#     4  11  26  45  75 112 143 193 263 315 374 451
#
# _framework density 23.748944999999999
#
# number of rings (size 3 to 8) (size 9 to 14) (size 15 to 20)
#    0.000    0.750    5.000    1.500    5.250    0.500 
#    6.750    0.000    0.000    0.000    0.000    0.000 
#    0.000    0.000    0.000    0.000    0.000    0.000 
#
# Total GULP energy -198309.381922 kJ/mol
# GULP energy per Si atom -12394.336370 kJ/mol
# Density = 2.369489 g / cm^3
# Si number density = 23.748945 Si / 1000 Ang^3
#
#
#
# Elastic Constant Matrix: (Units=GPa)
#
#
# Indices 1 2 3 4 5 6 
#
# 1 149.0345 40.5757 61.9664 -1.8082 -4.3704 -4.5204
# 2 40.5757 63.9958 39.6228 -5.6885 -11.1388 -6.2534
# 3 61.9664 39.6228 150.0155 11.4164 -5.0587 11.8572
# 4 -1.8082 -5.6885 11.4164 46.2618 4.4184 6.2222
# 5 -4.3704 -11.1388 -5.0587 4.4184 46.6508 -3.8264
# 6 -4.5204 -6.2534 11.8572 6.2222 -3.8264 32.3618
#
#
#
# Elastic Compliance Matrix: (Units=1/GPa)
#
#
# Indices 1 2 3 4 5 6 
#
# 1 0.008972 -0.003788 -0.002863 0.000424 -0.000295 0.001454
# 2 -0.003788 0.022694 -0.004921 0.002635 0.004749 0.005714
# 3 -0.002863 -0.004921 0.009671 -0.002450 -0.000530 -0.004486
# 4 0.000424 0.002635 -0.002450 0.023193 -0.002059 -0.003237
# 5 -0.000295 0.004749 -0.000530 -0.002059 0.023023 0.004189
# 6 0.001454 0.005714 -0.004486 -0.003237 0.004189 0.034969
#
#
# Mechanical properties :
#
#
# Convention : Reuss Voigt Hill
#
# Bulk Modulus (GPa) = 54.96465 71.93063 63.44764
# Shear Modulus (GPa) = 32.95300 39.78028 36.36664
#
# Velocity S-wave (km/s) = 3.72903 4.09716 3.91742
# Velocity P-wave (km/s) = 6.46028 7.26195 6.87281
#
# Compressibility (1/GPa) = 0.01819351
#
# Stress axis : x y z
#
# Youngs Moduli (GPa) = 111.45843 44.06473 103.39704
#
# Poissons Ratio (x) = 0.16691 0.29600
# Poissons Ratio (y) = 0.42218 0.50886
# Poissons Ratio (z) = 0.31907 0.21686
#
# Static dielectric constant tensor:
#      x y z
#    x 4.158850 -0.116560 0.056430 
#    y -0.116560 3.951700 0.181570 
#    z 0.056430 0.181570 4.487930 
# 
# 
# High freq. dielectric constant tensor:
#      x y z
#    x 1.947580 -0.004490 -0.006080 
#    y -0.004490 1.931710 0.011990 
#    z -0.006080 0.011990 1.951990 
# 
# From -- ./inp_files/495769.got.cif
#   From: 2010.06.25/outbox.cif.g09.slc.cpg/sg2_248_cif.got.tgz:495769.got - 2010.06.27 13:26:56.
