data_PCOD8015053
_publ_section_title
;
Structure prediction by ZEFSAII (Michael W. Deem and Ramdas Pophale) SiO2 
 PCOD8015053
Probable space group: P -1
;
_chemical_formula_sum "Si O2"
_cell_formula_units_Z 16
_cell_length_a 9.695279
_cell_length_b 14.685610
_cell_length_c 19.352553
_cell_angle_alpha 21.116705
_cell_angle_beta 119.181588
_cell_angle_gamma 128.165380
_cell_volume 741.089954
_symmetry_space_group_name_H-M "P -1"
_symmetry_group_IT_number 2
_symmetry_cell_setting 'triclinic'
loop_
_space_group_symop_operation_xyz
x,y,z
-x,-y,-z
loop_
_atom_site_type_symbol
_atom_site_label
_atom_site_fract_x
_atom_site_fract_y
_atom_site_fract_z
Si Si1 0.420223 0.688500 0.232783
Si Si2 0.834188 0.358876 0.674225
Si Si3 0.683633 0.784941 0.817923
Si Si4 0.009800 0.772061 0.849293
Si Si5 0.813329 0.843387 0.250114
Si Si6 0.810989 0.319846 0.378048
Si Si7 0.936393 0.809389 0.551363
Si Si8 0.162817 0.133793 0.056073
O O1 0.324651 0.668252 0.296085
O O2 0.596431 0.654252 0.312298
O O3 0.269782 0.473925 0.290582
O O4 0.500000 0.000000 0.000000
O O5 0.864435 0.598963 0.454786
O O6 0.028150 0.476143 0.674882
O O7 0.777174 0.038614 0.858254
O O8 0.789593 0.933384 0.809030
O O9 0.798727 0.672833 0.882785
O O10 0.663441 0.020280 0.596882
O O11 0.500000 0.500000 0.000000
O O12 0.135714 0.904366 0.855909
O O13 0.098662 0.039851 0.628673
O O14 0.000000 0.500000 0.000000
O O15 0.940849 0.009819 0.095544
O O16 0.900064 0.252296 0.381607
O O17 0.729341 0.519428 0.187845
O O18 0.000000 0.000000 0.500000
#
# Coordination Sequence:
#
# PCOD8015053 Si02
#       8
#     2   2   2   2   2   2   2   2
#     4  11  24  41  63 101 133 167 220 282 324 386
#     4  11  21  42  64  95 129 168 215 265 333 397
#     4  10  23  44  60  92 131 167 218 268 318 386
#     4  10  22  39  66  92 120 176 217 261 332 395
#     4  11  21  41  67  94 135 165 219 279 330 384
#     4  10  21  42  65  91 129 167 218 268 322 393
#     4  10  22  41  63  93 131 173 213 263 332 394
#     4  11  23  40  70  93 124 179 210 265 336 392
#
# _framework density 21.589822000000002
#
# number of rings (size 3 to 8) (size 9 to 14) (size 15 to 20)
#    0.000    1.500    5.000    2.625    5.250    1.500 
#    2.250    0.000    0.000    0.000    0.000    0.000 
#    0.000    0.000    0.000    0.000    0.000    0.000 
#
# Total GULP energy -198222.884998 kJ/mol
# GULP energy per Si atom -12388.930312 kJ/mol
# Density = 2.154068 g / cm^3
# Si number density = 21.589822 Si / 1000 Ang^3
#
#
#
# Elastic Constant Matrix: (Units=GPa)
#
#
# Indices 1 2 3 4 5 6 
#
# 1 71.0505 37.9043 48.4078 -18.7298 -1.7807 -6.7269
# 2 37.9043 79.2255 36.9488 -13.6407 3.7591 -10.4739
# 3 48.4078 36.9488 142.3429 -8.0376 -4.4885 -8.2985
# 4 -18.7298 -13.6407 -8.0376 36.1596 -2.6756 1.2351
# 5 -1.7807 3.7591 -4.4885 -2.6756 46.5408 -13.6702
# 6 -6.7269 -10.4739 -8.2985 1.2351 -13.6702 20.8925
#
#
#
# Elastic Compliance Matrix: (Units=1/GPa)
#
#
# Indices 1 2 3 4 5 6 
#
# 1 0.024480 -0.007265 -0.005696 0.008745 0.002359 0.003004
# 2 -0.007265 0.018121 -0.001752 0.002480 -0.000042 0.005875
# 3 -0.005696 -0.001752 0.009495 -0.001470 0.001351 0.002030
# 4 0.008745 0.002480 -0.001470 0.032890 0.002888 0.003420
# 5 0.002359 -0.000042 0.001351 0.002888 0.027483 0.019087
# 6 0.003004 0.005875 0.002030 0.003420 0.019087 0.064869
#
#
# Mechanical properties :
#
#
# Convention : Reuss Voigt Hill
#
# Bulk Modulus (GPa) = 44.11045 59.90452 52.00749
# Shear Modulus (GPa) = 23.32965 32.00911 27.66938
#
# Velocity S-wave (km/s) = 3.29079 3.85463 3.58382
# Velocity P-wave (km/s) = 5.90886 6.90057 6.42388
#
# Compressibility (1/GPa) = 0.02267036
#
# Stress axis : x y z
#
# Youngs Moduli (GPa) = 40.85028 55.18609 105.31770
#
# Poissons Ratio (x) = 0.40090 0.59988
# Poissons Ratio (y) = 0.29676 0.18451
# Poissons Ratio (z) = 0.23268 0.09668
#
# Static dielectric constant tensor:
#      x y z
#    x 3.566810 0.079200 -0.341090 
#    y 0.079200 3.801550 0.112040 
#    z -0.341090 0.112040 4.100030 
# 
# 
# High freq. dielectric constant tensor:
#      x y z
#    x 1.831780 -0.008890 -0.007220 
#    y -0.008890 1.835580 0.007430 
#    z -0.007220 0.007430 1.865030 
# 
# From -- ./inp_files/455491.got.cif
#   From: 2010.06.25/outbox.cif.g09.slc.cpg/sg2_228_cif.got.tgz:455491.got - 2010.06.27 13:26:56.
