data_PCOD8015712
_publ_section_title
;
Structure prediction by ZEFSAII (Michael W. Deem and Ramdas Pophale) SiO2 
 PCOD8015712
Probable space group: P -1
;
_chemical_formula_sum "Si O2"
_cell_formula_units_Z 16
_cell_length_a 8.911060
_cell_length_b 11.520457
_cell_length_c 14.563954
_cell_angle_alpha 140.969500
_cell_angle_beta 85.677645
_cell_angle_gamma 73.304047
_cell_volume 783.634536
_symmetry_space_group_name_H-M "P -1"
_symmetry_group_IT_number 2
_symmetry_cell_setting 'triclinic'
loop_
_space_group_symop_operation_xyz
x,y,z
-x,-y,-z
loop_
_atom_site_type_symbol
_atom_site_label
_atom_site_fract_x
_atom_site_fract_y
_atom_site_fract_z
Si Si1 0.436286 0.102934 0.910567
Si Si2 0.499492 0.712463 0.158556
Si Si3 0.425978 0.434899 0.241430
Si Si4 0.883435 0.403599 0.969076
Si Si5 0.815307 0.200073 0.672688
Si Si6 0.079097 0.147949 0.974847
Si Si7 0.626225 0.585544 0.574203
Si Si8 0.212327 0.675980 0.755869
O O1 0.502099 0.155917 0.847993
O O2 0.525915 0.845044 0.747243
O O3 0.492068 0.192270 0.049496
O O4 0.221223 0.217476 0.997668
O O5 0.319081 0.870320 0.325097
O O6 0.500000 0.500000 0.000000
O O7 0.688807 0.610839 0.141393
O O8 0.302383 0.618666 0.286829
O O9 0.301469 0.499258 0.378070
O O10 0.607293 0.424692 0.252927
O O11 0.865802 0.305242 0.815143
O O12 0.000000 0.500000 0.000000
O O13 0.967499 0.212309 0.924614
O O14 0.000000 0.000000 0.500000
O O15 0.948389 0.286304 0.150049
O O16 0.173081 0.891735 0.835890
O O17 0.500000 0.500000 0.500000
O O18 0.773489 0.489814 0.426996
#
# Coordination Sequence:
#
# PCOD8015712 Si02
#       8
#     2   2   2   2   2   2   2   2
#     4  12  21  41  70  94 128 174 222 264 320 396
#     4  10  21  43  63  93 129 172 218 256 325 387
#     4  11  21  42  69  92 131 172 218 265 327 394
#     4  11  21  40  67  94 129 171 217 262 317 398
#     4  11  25  42  66  96 131 171 215 272 332 382
#     4  11  22  39  68  96 131 167 216 261 330 384
#     4  10  22  40  64  94 127 171 213 267 326 375
#     4  10  24  42  65  96 131 170 216 267 326 387
#
# _framework density 20.417681000000002
#
# number of rings (size 3 to 8) (size 9 to 14) (size 15 to 20)
#    0.000    1.250    6.250    1.125    3.500    0.000 
#    4.500    1.250    0.000    0.000    0.000    0.000 
#    0.000    0.000    0.000    0.000    0.000    0.000 
#
# Total GULP energy -198235.904634 kJ/mol
# GULP energy per Si atom -12389.744040 kJ/mol
# Density = 2.037121 g / cm^3
# Si number density = 20.417681 Si / 1000 Ang^3
#
#
#
# Elastic Constant Matrix: (Units=GPa)
#
#
# Indices 1 2 3 4 5 6 
#
# 1 113.8132 47.5687 54.3157 -14.7766 -26.9527 13.4891
# 2 47.5687 141.8822 53.2630 -26.2327 -2.9481 2.8451
# 3 54.3157 53.2630 134.7041 -23.9079 -20.3199 4.5997
# 4 -14.7766 -26.2327 -23.9079 26.6928 3.3404 -1.1242
# 5 -26.9527 -2.9481 -20.3199 3.3404 35.0915 -2.8834
# 6 13.4891 2.8451 4.5997 -1.1242 -2.8834 30.1239
#
#
#
# Elastic Compliance Matrix: (Units=1/GPa)
#
#
# Indices 1 2 3 4 5 6 
#
# 1 0.014196 -0.003267 -0.002836 0.000842 0.008515 -0.004769
# 2 -0.003267 0.010055 -0.002002 0.006738 -0.003404 0.000744
# 3 -0.002836 -0.002002 0.010896 0.005807 0.003439 0.000341
# 4 0.000842 0.006738 0.005807 0.049770 -0.000167 -0.000059
# 5 0.008515 -0.003404 0.003439 -0.000167 0.036716 -0.000508
# 6 -0.004769 0.000744 0.000341 -0.000059 -0.000508 0.035158
#
#
# Mechanical properties :
#
#
# Convention : Reuss Voigt Hill
#
# Bulk Modulus (GPa) = 52.80104 77.85491 65.32798
# Shear Modulus (GPa) = 27.88423 34.06511 30.97467
#
# Velocity S-wave (km/s) = 3.69953 4.08905 3.89916
# Velocity P-wave (km/s) = 6.64570 7.77867 7.23440
#
# Compressibility (1/GPa) = 0.01893902
#
# Stress axis : x y z
#
# Youngs Moduli (GPa) = 70.44261 99.45495 91.77550
#
# Poissons Ratio (x) = 0.32489 0.26025
# Poissons Ratio (y) = 0.23012 0.18369
# Poissons Ratio (z) = 0.19975 0.19906
#
# Static dielectric constant tensor:
#      x y z
#    x 4.391150 -0.055240 -0.439870 
#    y -0.055240 4.081850 -0.279650 
#    z -0.439870 -0.279650 4.168020 
# 
# 
# High freq. dielectric constant tensor:
#      x y z
#    x 1.795400 0.005330 -0.014210 
#    y 0.005330 1.814210 -0.013530 
#    z -0.014210 -0.013530 1.785780 
# 
# From -- ./inp_files/500992.got.cif
#   From: 2010.06.25/outbox.cif.g09.slc.cpg/sg2_251_cif.got.tgz:500992.got - 2010.06.27 13:26:56.
