data_PCOD8015944
_publ_section_title
;
Structure prediction by ZEFSAII (Michael W. Deem and Ramdas Pophale) SiO2 
 PCOD8015944
Probable space group: P -1
;
_chemical_formula_sum "Si O2"
_cell_formula_units_Z 16
_cell_length_a 11.576623
_cell_length_b 8.991957
_cell_length_c 16.917118
_cell_angle_alpha 125.784380
_cell_angle_beta 135.382456
_cell_angle_gamma 88.750785
_cell_volume 724.119415
_symmetry_space_group_name_H-M "P -1"
_symmetry_group_IT_number 2
_symmetry_cell_setting 'triclinic'
loop_
_space_group_symop_operation_xyz
x,y,z
-x,-y,-z
loop_
_atom_site_type_symbol
_atom_site_label
_atom_site_fract_x
_atom_site_fract_y
_atom_site_fract_z
Si Si1 0.838581 0.397927 0.963260
Si Si2 0.698138 0.632330 0.045273
Si Si3 0.808831 0.711588 0.295907
Si Si4 0.138813 0.390995 0.211711
Si Si5 0.439506 0.827865 0.619701
Si Si6 0.739456 0.845177 0.889940
Si Si7 0.007585 0.529420 0.418265
Si Si8 0.681517 0.982693 0.062161
O O1 0.590237 0.110229 0.744794
O O2 0.809444 0.594329 0.019635
O O3 0.000000 0.500000 0.000000
O O4 0.965733 0.414123 0.106459
O O5 0.826917 0.671675 0.200259
O O6 0.719684 0.867576 0.115829
O O7 0.432448 0.375296 0.837753
O O8 0.830885 0.552145 0.313768
O O9 0.000000 0.000000 0.500000
O O10 0.328270 0.632452 0.432569
O O11 0.252835 0.370342 0.185579
O O12 0.995808 0.124847 0.106190
O O13 0.604887 0.815924 0.740092
O O14 0.254643 0.762339 0.573013
O O15 0.612247 0.809992 0.897587
O O16 0.000000 0.500000 0.500000
O O17 0.921052 0.272801 0.257217
O O18 0.500000 0.000000 0.000000
#
# Coordination Sequence:
#
# PCOD8015944 Si02
#       8
#     2   2   2   2   2   2   2   2
#     4  11  25  45  69  99 139 186 237 285 348 417
#     4  11  25  43  69  99 140 185 228 289 354 414
#     4  11  24  44  68 100 139 181 233 286 353 422
#     4  10  21  43  67  98 134 179 229 291 340 412
#     4  11  23  41  70 100 137 185 233 290 353 414
#     4  10  22  39  67  98 138 175 226 284 353 408
#     4  12  24  42  70 106 142 183 234 290 352 423
#     4  12  23  42  66  99 141 178 229 289 346 421
#
# _framework density 22.095803
#
# number of rings (size 3 to 8) (size 9 to 14) (size 15 to 20)
#    0.000    1.000    2.500    4.125    1.750    1.500 
#    2.250    0.000    0.000    0.000    0.000    0.000 
#    0.000    0.000    0.000    0.000    0.000    0.000 
#
# Total GULP energy -198366.395608 kJ/mol
# GULP energy per Si atom -12397.899725 kJ/mol
# Density = 2.204551 g / cm^3
# Si number density = 22.095803 Si / 1000 Ang^3
#
#
#
# Elastic Constant Matrix: (Units=GPa)
#
#
# Indices 1 2 3 4 5 6 
#
# 1 159.6977 44.2787 50.8259 6.1676 -10.5561 -7.9413
# 2 44.2787 116.3040 47.3640 2.1807 -12.5478 -6.3140
# 3 50.8259 47.3640 140.0381 4.0321 -9.0974 2.3233
# 4 6.1676 2.1807 4.0321 31.3823 7.7572 1.2009
# 5 -10.5561 -12.5478 -9.0974 7.7572 32.2780 3.9213
# 6 -7.9413 -6.3140 2.3233 1.2009 3.9213 39.9939
#
#
#
# Elastic Compliance Matrix: (Units=1/GPa)
#
#
# Indices 1 2 3 4 5 6 
#
# 1 0.007631 -0.001826 -0.002037 -0.001511 0.001423 0.001251
# 2 -0.001826 0.010830 -0.002813 -0.000786 0.002857 0.001254
# 3 -0.002037 -0.002813 0.008951 -0.000777 0.001127 -0.001456
# 4 -0.001511 -0.000786 -0.000777 0.034630 -0.009279 -0.000509
# 5 0.001423 0.002857 0.001127 -0.009279 0.035411 -0.002525
# 6 0.001251 0.001254 -0.001456 -0.000509 -0.002525 0.025798
#
#
# Mechanical properties :
#
#
# Convention : Reuss Voigt Hill
#
# Bulk Modulus (GPa) = 71.11923 77.88635 74.50279
# Shear Modulus (GPa) = 35.38856 38.96893 37.17874
#
# Velocity S-wave (km/s) = 4.00634 4.20412 4.10642
# Velocity P-wave (km/s) = 7.32514 7.67412 7.50166
#
# Compressibility (1/GPa) = 0.01406089
#
# Stress axis : x y z
#
# Youngs Moduli (GPa) = 131.04493 92.33748 111.71629
#
# Poissons Ratio (x) = 0.16861 0.22755
# Poissons Ratio (y) = 0.23929 0.31423
# Poissons Ratio (z) = 0.26692 0.25972
#
# Static dielectric constant tensor:
#      x y z
#    x 3.997070 -0.103190 0.011190 
#    y -0.103190 4.138850 0.010590 
#    z 0.011190 0.010590 4.091500 
# 
# 
# High freq. dielectric constant tensor:
#      x y z
#    x 1.872760 -0.009200 -0.001810 
#    y -0.009200 1.868790 -0.002020 
#    z -0.001810 -0.002020 1.871570 
# 
# From -- ./inp_files/566967.got.cif
#   From: 2010.06.25/outbox.cif.g09.slc.cpg/sg2_284_cif.got.tgz:566967.got - 2010.06.27 13:26:56.
