data_PCOD8015684
_publ_section_title
;
Structure prediction by ZEFSAII (Michael W. Deem and Ramdas Pophale) SiO2 
 PCOD8015684
Probable space group: P -1
;
_chemical_formula_sum "Si O2"
_cell_formula_units_Z 10
_cell_length_a 6.028073
_cell_length_b 13.914105
_cell_length_c 13.206374
_cell_angle_alpha 147.007027
_cell_angle_beta 132.859422
_cell_angle_gamma 43.272636
_cell_volume 406.225661
_symmetry_space_group_name_H-M "P -1"
_symmetry_group_IT_number 2
_symmetry_cell_setting 'triclinic'
loop_
_space_group_symop_operation_xyz
x,y,z
-x,-y,-z
loop_
_atom_site_type_symbol
_atom_site_label
_atom_site_fract_x
_atom_site_fract_y
_atom_site_fract_z
Si Si1 0.463306 0.637778 0.516438
Si Si2 0.756221 0.914838 0.803058
Si Si3 0.558646 0.438760 0.777263
Si Si4 0.327233 0.223431 0.815364
Si Si5 0.746284 0.845129 0.515945
O O1 0.500000 0.500000 0.500000
O O2 0.675433 0.766882 0.719835
O O3 0.596316 0.518898 0.347561
O O4 0.082988 0.779599 0.498748
O O5 0.894569 0.817191 0.651838
O O6 0.408706 0.091595 0.824660
O O7 0.000000 0.000000 0.000000
O O8 0.425956 0.306088 0.684248
O O9 0.945734 0.336252 0.789474
O O10 0.479458 0.634427 0.988580
O O11 0.474661 0.078136 0.632594
#
# Coordination Sequence:
#
# PCOD8015684 Si02
#       5
#     2   2   2   2   2
#     4  11  25  38  63  95 123 160 206 256 306 360
#     4   9  22  41  62  85 125 166 199 252 300 367
#     4  10  21  43  62  90 125 160 203 255 300 371
#     4   9  21  42  65  86 122 168 201 245 312 358
#     4   9  22  39  63  88 120 164 199 254 302 359
#
# _framework density 24.616862000000001
#
# number of rings (size 3 to 8) (size 9 to 14) (size 15 to 20)
#    1.200    1.200    0.000    0.600    5.600    3.200 
#    3.600    2.000    0.000    0.000    0.000    0.000 
#    0.000    0.000    0.000    0.000    0.000    0.000 
#
# Total GULP energy -123904.138852 kJ/mol
# GULP energy per Si atom -12390.413885 kJ/mol
# Density = 2.456083 g / cm^3
# Si number density = 24.616862 Si / 1000 Ang^3
#
#
#
# Elastic Constant Matrix: (Units=GPa)
#
#
# Indices 1 2 3 4 5 6 
#
# 1 78.8188 20.1415 73.7521 12.8215 20.5606 11.0825
# 2 20.1415 68.4514 31.4265 8.5977 0.8622 17.7082
# 3 73.7521 31.4265 224.1745 19.4072 24.8950 5.3557
# 4 12.8215 8.5977 19.4072 32.9702 -0.8899 5.1654
# 5 20.5606 0.8622 24.8950 -0.8899 43.3380 8.5461
# 6 11.0825 17.7082 5.3557 5.1654 8.5461 38.8778
#
#
#
# Elastic Compliance Matrix: (Units=1/GPa)
#
#
# Indices 1 2 3 4 5 6 
#
# 1 0.021119 -0.002554 -0.005455 -0.004179 -0.006502 -0.002121
# 2 -0.002554 0.018382 -0.001806 -0.001397 0.003425 -0.007963
# 3 -0.005455 -0.001806 0.006806 -0.001783 -0.001728 0.002057
# 4 -0.004179 -0.001397 -0.001783 0.034023 0.004406 -0.003416
# 5 -0.006502 0.003425 -0.001728 0.004406 0.028416 -0.006300
# 6 -0.002121 -0.007963 0.002057 -0.003416 -0.006300 0.031509
#
#
# Mechanical properties :
#
#
# Convention : Reuss Voigt Hill
#
# Bulk Modulus (GPa) = 37.48696 69.12053 53.30374
# Shear Modulus (GPa) = 29.62487 39.44551 34.53519
#
# Velocity S-wave (km/s) = 3.47282 4.00731 3.74960
# Velocity P-wave (km/s) = 5.59838 7.03924 6.35975
#
# Compressibility (1/GPa) = 0.02667595
#
# Stress axis : x y z
#
# Youngs Moduli (GPa) = 47.35108 54.40145 146.93384
#
# Poissons Ratio (x) = 0.13895 0.80158
# Poissons Ratio (y) = 0.12094 0.26533
# Poissons Ratio (z) = 0.25832 0.09824
#
# Static dielectric constant tensor:
#      x y z
#    x 4.183840 0.161970 -0.205100 
#    y 0.161970 4.595520 0.067160 
#    z -0.205100 0.067160 4.930610 
# 
# 
# High freq. dielectric constant tensor:
#      x y z
#    x 1.962140 0.011640 -0.006740 
#    y 0.011640 1.993930 -0.006530 
#    z -0.006740 -0.006530 1.999280 
# 
# From -- ./inp_files/7189.got.cif
#   From: 2010.06.25/outbox.cif.g09.slc.cpg/sg2_4_cif.got.tgz:7189.got - 2010.06.27 13:26:56.
