data_PCOD8015607
_publ_section_title
;
Structure prediction by ZEFSAII (Michael W. Deem and Ramdas Pophale) SiO2 
 PCOD8015607
Probable space group: P -1
;
_chemical_formula_sum "Si O2"
_cell_formula_units_Z 10
_cell_length_a 4.936579
_cell_length_b 9.593599
_cell_length_c 9.618906
_cell_angle_alpha 114.087339
_cell_angle_beta 113.578153
_cell_angle_gamma 68.898764
_cell_volume 370.470916
_symmetry_space_group_name_H-M "P -1"
_symmetry_group_IT_number 2
_symmetry_cell_setting 'triclinic'
loop_
_space_group_symop_operation_xyz
x,y,z
-x,-y,-z
loop_
_atom_site_type_symbol
_atom_site_label
_atom_site_fract_x
_atom_site_fract_y
_atom_site_fract_z
Si Si1 0.187409 0.832529 0.181466
Si Si2 0.199157 0.354188 0.822732
Si Si3 0.297705 0.655419 0.872420
Si Si4 0.236965 0.129025 0.428762
Si Si5 0.377514 0.681312 0.581601
O O1 0.555591 0.782674 0.264776
O O2 0.082942 0.714681 0.219895
O O3 0.056064 0.016481 0.260325
O O4 0.112615 0.796967 0.991329
O O5 0.118417 0.513609 0.778586
O O6 0.361443 0.402364 0.016684
O O7 0.327399 0.714673 0.748259
O O8 0.376384 0.231615 0.390857
O O9 0.971550 0.243167 0.517369
O O10 0.500000 0.000000 0.500000
O O11 0.500000 0.500000 0.500000
#
# Coordination Sequence:
#
# PCOD8015607 Si02
#       5
#     2   2   2   2   2
#     4  10  21  42  72 104 142 188 239 298 357 445
#     4   9  20  38  70 112 143 188 225 303 370 445
#     4   9  23  40  74 108 147 184 244 293 379 419
#     4  12  29  52  73 106 147 206 243 304 377 432
#     4  12  29  50  75 108 150 194 251 308 359 444
#
# _framework density 26.992674999999998
#
# number of rings (size 3 to 8) (size 9 to 14) (size 15 to 20)
#    1.200    0.400    0.000    3.000    5.600    1.600 
#    0.000    0.000    0.000    0.000    0.000    0.000 
#    0.000    0.000    0.000    0.000    0.000    0.000 
#
# Total GULP energy -123912.964178 kJ/mol
# GULP energy per Si atom -12391.296418 kJ/mol
# Density = 2.693124 g / cm^3
# Si number density = 26.992675 Si / 1000 Ang^3
#
#
#
# Elastic Constant Matrix: (Units=GPa)
#
#
# Indices 1 2 3 4 5 6 
#
# 1 130.1405 51.2332 30.1241 21.9675 -22.2959 18.3576
# 2 51.2332 178.6988 63.4922 38.0656 -16.4589 17.8227
# 3 30.1241 63.4922 74.6198 11.8089 -35.5503 -0.9081
# 4 21.9675 38.0656 11.8089 47.9952 -4.3186 -7.5699
# 5 -22.2959 -16.4589 -35.5503 -4.3186 34.8020 -6.1122
# 6 18.3576 17.8227 -0.9081 -7.5699 -6.1122 61.0191
#
#
#
# Elastic Compliance Matrix: (Units=1/GPa)
#
#
# Indices 1 2 3 4 5 6 
#
# 1 0.010018 -0.001463 0.000047 -0.003391 0.004911 -0.002514
# 2 -0.001463 0.012002 -0.013931 -0.007278 -0.011328 -0.005310
# 3 0.000047 -0.013931 0.043795 0.005384 0.040502 0.009432
# 4 -0.003391 -0.007278 0.005384 0.028394 0.004676 0.007217
# 5 0.004911 -0.011328 0.040502 0.004676 0.070242 0.010050
# 6 -0.002514 -0.005310 0.009432 0.007217 0.010050 0.020738
#
#
# Mechanical properties :
#
#
# Convention : Reuss Voigt Hill
#
# Bulk Modulus (GPa) = 28.47434 74.79535 51.63485
# Shear Modulus (GPa) = 21.96935 44.67055 33.31995
#
# Velocity S-wave (km/s) = 2.85599 4.07248 3.51722
# Velocity P-wave (km/s) = 4.63113 7.06280 5.97204
#
# Compressibility (1/GPa) = 0.03511933
#
# Stress axis : x y z
#
# Youngs Moduli (GPa) = 99.82355 83.32017 22.83382
#
# Poissons Ratio (x) = 0.12192 -0.00106
# Poissons Ratio (y) = 0.14607 0.31809
# Poissons Ratio (z) = -0.00465 1.16072
#
# Static dielectric constant tensor:
#      x y z
#    x 5.147690 0.068280 0.172960 
#    y 0.068280 5.210060 0.602850 
#    z 0.172960 0.602850 5.374690 
# 
# 
# High freq. dielectric constant tensor:
#      x y z
#    x 2.083580 0.006850 -0.005250 
#    y 0.006850 2.087510 0.020650 
#    z -0.005250 0.020650 2.103930 
# 
# From -- ./inp_files/129129.got.cif
#   From: 2010.06.25/outbox.cif.g09.slc.cpg/sg2_65_cif.got.tgz:129129.got - 2010.06.27 13:26:56.
