data_PCOD8015417
_publ_section_title
;
Structure prediction by ZEFSAII (Michael W. Deem and Ramdas Pophale) SiO2 
 PCOD8015417
Probable space group: P -1
;
_chemical_formula_sum "Si O2"
_cell_formula_units_Z 16
_cell_length_a 13.044861
_cell_length_b 11.169510
_cell_length_c 5.502889
_cell_angle_alpha 60.754794
_cell_angle_beta 95.887526
_cell_angle_gamma 97.640197
_cell_volume 692.730145
_symmetry_space_group_name_H-M "P -1"
_symmetry_group_IT_number 2
_symmetry_cell_setting 'triclinic'
loop_
_space_group_symop_operation_xyz
x,y,z
-x,-y,-z
loop_
_atom_site_type_symbol
_atom_site_label
_atom_site_fract_x
_atom_site_fract_y
_atom_site_fract_z
Si Si1 0.406634 0.628232 0.668918
Si Si2 0.242655 0.493422 0.439452
Si Si3 0.990579 0.894514 0.820703
Si Si4 0.228140 0.217226 0.959423
Si Si5 0.748275 0.192798 0.369362
Si Si6 0.792370 0.040920 0.023244
Si Si7 0.630206 0.645332 0.783580
Si Si8 0.920302 0.376720 0.026277
O O1 0.332936 0.609545 0.432073
O O2 0.359455 0.735632 0.735806
O O3 0.525941 0.684824 0.579981
O O4 0.407382 0.474601 0.920461
O O5 0.204884 0.374094 0.742518
O O6 0.283739 0.405978 0.318061
O O7 0.145754 0.575137 0.265166
O O8 0.009275 0.741107 0.905182
O O9 0.080922 0.946529 0.983459
O O10 0.000000 0.000000 0.500000
O O11 0.872231 0.880738 0.885577
O O12 0.317469 0.224084 0.179971
O O13 0.257706 0.120862 0.832634
O O14 0.749461 0.108288 0.702864
O O15 0.839840 0.319487 0.274580
O O16 0.760206 0.107511 0.205598
O O17 0.000000 0.500000 0.000000
#
# Coordination Sequence:
#
# PCOD8015417 Si02
#       8
#     2   2   2   2   2   2   2   2
#     4  10  21  42  68  98 134 176 230 286 363 414
#     4  11  23  40  69 102 141 178 227 295 354 416
#     4  11  25  44  69  99 140 192 232 280 351 427
#     4  11  25  41  68  99 135 183 237 289 342 416
#     4  11  24  46  68 101 135 191 229 288 349 424
#     4  11  26  45  70  95 142 190 235 277 348 427
#     4  10  22  41  68 100 132 174 229 296 353 412
#     4  11  24  39  67 101 140 179 230 294 344 416
#
# _framework density 23.097019
#
# number of rings (size 3 to 8) (size 9 to 14) (size 15 to 20)
#    0.000    1.250    1.250    4.500    8.750    0.500 
#    0.000    1.250    0.000    0.000    0.000    0.000 
#    0.000    0.000    0.000    0.000    0.000    0.000 
#
# Total GULP energy -198233.384170 kJ/mol
# GULP energy per Si atom -12389.586511 kJ/mol
# Density = 2.304445 g / cm^3
# Si number density = 23.097019 Si / 1000 Ang^3
#
#
#
# Elastic Constant Matrix: (Units=GPa)
#
#
# Indices 1 2 3 4 5 6 
#
# 1 98.0857 74.0728 15.8320 8.9941 15.4836 8.7309
# 2 74.0728 159.1224 45.6846 2.7694 20.7600 18.9088
# 3 15.8320 45.6846 82.5069 7.2679 11.5800 5.8751
# 4 8.9941 2.7694 7.2679 30.7535 -0.7960 5.1950
# 5 15.4836 20.7600 11.5800 -0.7960 28.5599 4.5603
# 6 8.7309 18.9088 5.8751 5.1950 4.5603 20.5150
#
#
#
# Elastic Compliance Matrix: (Units=1/GPa)
#
#
# Indices 1 2 3 4 5 6 
#
# 1 0.016969 -0.008054 0.002181 -0.005201 -0.004684 0.001935
# 2 -0.008054 0.012431 -0.004942 0.003585 -0.001415 -0.007208
# 3 0.002181 -0.004942 0.015290 -0.004115 -0.004096 0.001200
# 4 -0.005201 0.003585 -0.004115 0.036522 0.004524 -0.010166
# 5 -0.004684 -0.001415 -0.004096 0.004524 0.041304 -0.005856
# 6 0.001935 -0.007208 0.001200 -0.010166 -0.005856 0.058098
#
#
# Mechanical properties :
#
#
# Convention : Reuss Voigt Hill
#
# Bulk Modulus (GPa) = 43.36257 67.87709 55.61983
# Shear Modulus (GPa) = 23.81740 29.57404 26.69572
#
# Velocity S-wave (km/s) = 3.21470 3.58219 3.40341
# Velocity P-wave (km/s) = 5.70911 6.82356 6.29106
#
# Compressibility (1/GPa) = 0.02306137
#
# Stress axis : x y z
#
# Youngs Moduli (GPa) = 58.92969 80.44248 65.40281
#
# Poissons Ratio (x) = 0.64788 -0.14265
# Poissons Ratio (y) = 0.47462 0.32320
# Poissons Ratio (z) = -0.12853 0.39752
#
# Static dielectric constant tensor:
#      x y z
#    x 4.185840 0.035820 0.551460 
#    y 0.035820 4.582010 -0.050090 
#    z 0.551460 -0.050090 3.715050 
# 
# 
# High freq. dielectric constant tensor:
#      x y z
#    x 1.907580 -0.001400 0.011850 
#    y -0.001400 1.932010 -0.000760 
#    z 0.011850 -0.000760 1.896240 
# 
# From -- ./inp_files/68583.got.cif
#   From: 2010.06.25/outbox.cif.g09.slc.cpg/sg2_35_cif.got.tgz:68583.got - 2010.06.27 13:26:56.
