data_PCOD8015325
_publ_section_title
;
Structure prediction by ZEFSAII (Michael W. Deem and Ramdas Pophale) SiO2 
 PCOD8015325
Probable space group: P -1
;
_chemical_formula_sum "Si O2"
_cell_formula_units_Z 16
_cell_length_a 9.274432
_cell_length_b 17.209286
_cell_length_c 11.910174
_cell_angle_alpha 149.261878
_cell_angle_beta 58.333040
_cell_angle_gamma 131.263989
_cell_volume 725.975260
_symmetry_space_group_name_H-M "P -1"
_symmetry_group_IT_number 2
_symmetry_cell_setting 'triclinic'
loop_
_space_group_symop_operation_xyz
x,y,z
-x,-y,-z
loop_
_atom_site_type_symbol
_atom_site_label
_atom_site_fract_x
_atom_site_fract_y
_atom_site_fract_z
Si Si1 0.213997 0.288512 0.521307
Si Si2 0.598807 0.643161 0.858522
Si Si3 0.424169 0.850417 0.104993
Si Si4 0.944914 0.800579 0.755888
Si Si5 0.996147 0.334066 0.857985
Si Si6 0.492573 0.818763 0.793555
Si Si7 0.694310 0.237449 0.415442
Si Si8 0.699758 0.539608 0.913874
O O1 0.395553 0.474187 0.705716
O O2 0.078398 0.271592 0.450935
O O3 0.069999 0.234550 0.619133
O O4 0.294832 0.157309 0.289744
O O5 0.743764 0.670967 0.733467
O O6 0.711507 0.647981 0.932260
O O7 0.550021 0.802646 0.080416
O O8 0.217449 0.793553 0.172163
O O9 0.522804 0.053812 0.297168
O O10 0.415429 0.750836 0.866381
O O11 0.115589 0.774896 0.705738
O O12 0.000000 0.000000 0.000000
O O13 0.126889 0.366936 0.954788
O O14 0.000000 0.500000 0.000000
O O15 0.353604 0.694514 0.597595
O O16 0.500000 0.000000 0.000000
O O17 0.710831 0.367063 0.666550
O O18 0.500000 0.500000 0.000000
#
# Coordination Sequence:
#
# PCOD8015325 Si02
#       8
#     2   2   2   2   2   2   2   2
#     4  12  23  45  72  98 140 187 228 283 354 411
#     4  12  24  44  73 100 141 182 234 283 354 407
#     4  11  24  46  70 102 142 189 230 288 355 420
#     4  12  25  44  71 110 137 178 237 293 347 415
#     4  12  25  46  70 105 141 188 234 283 347 424
#     4  10  21  42  67  97 139 179 226 287 345 409
#     4  11  24  44  69 102 140 182 232 295 349 404
#     4  12  25  48  69 102 144 182 236 292 338 418
#
# _framework density 22.039318999999999
#
# number of rings (size 3 to 8) (size 9 to 14) (size 15 to 20)
#    0.000    0.500    6.250    1.875    1.750    0.500 
#    2.250    5.000    0.000    0.000    0.000    0.000 
#    0.000    0.000    0.000    0.000    0.000    0.000 
#
# Total GULP energy -198299.690780 kJ/mol
# GULP energy per Si atom -12393.730674 kJ/mol
# Density = 2.198916 g / cm^3
# Si number density = 22.039319 Si / 1000 Ang^3
#
#
#
# Elastic Constant Matrix: (Units=GPa)
#
#
# Indices 1 2 3 4 5 6 
#
# 1 132.5729 58.5535 27.2235 -14.1811 5.3990 -1.9014
# 2 58.5535 131.8757 50.7419 -28.9005 -1.7913 19.6762
# 3 27.2235 50.7419 74.3839 -36.1108 -4.4290 -4.1593
# 4 -14.1811 -28.9005 -36.1108 33.5228 2.2714 -8.3636
# 5 5.3990 -1.7913 -4.4290 2.2714 45.6618 -12.3838
# 6 -1.9014 19.6762 -4.1593 -8.3636 -12.3838 45.2197
#
#
#
# Elastic Compliance Matrix: (Units=1/GPa)
#
#
# Indices 1 2 3 4 5 6 
#
# 1 0.009667 -0.004461 0.000030 0.000903 -0.000732 0.002317
# 2 -0.004461 0.013896 -0.009217 -0.001682 -0.001883 -0.007909
# 3 0.000030 -0.009217 0.039702 0.038527 0.006028 0.016440
# 4 0.000903 -0.001682 0.038527 0.074794 0.005148 0.019556
# 5 -0.000732 -0.001883 0.006028 0.005148 0.024698 0.009059
# 6 0.002317 -0.007909 0.016440 0.019556 0.009059 0.033263
#
#
# Mechanical properties :
#
#
# Convention : Reuss Voigt Hill
#
# Bulk Modulus (GPa) = 27.80311 67.98560 47.89436
# Shear Modulus (GPa) = 21.24877 38.36843 29.80860
#
# Velocity S-wave (km/s) = 3.10841 4.17695 3.68165
# Velocity P-wave (km/s) = 5.05229 7.36049 6.31278
#
# Compressibility (1/GPa) = 0.03596719
#
# Stress axis : x y z
#
# Youngs Moduli (GPa) = 103.44459 71.96169 25.18752
#
# Poissons Ratio (x) = 0.32105 -0.00075
# Poissons Ratio (y) = 0.46151 0.23216
# Poissons Ratio (z) = -0.00308 0.66330
#
# Static dielectric constant tensor:
#      x y z
#    x 5.947330 -1.007820 0.520010 
#    y -1.007820 4.522140 -0.678130 
#    z 0.520010 -0.678130 4.243030 
# 
# 
# High freq. dielectric constant tensor:
#      x y z
#    x 1.895310 -0.000880 -0.006860 
#    y -0.000880 1.856790 -0.021380 
#    z -0.006860 -0.021380 1.863120 
# 
# From -- ./inp_files/226537.got.cif
#   From: 2010.06.25/outbox.cif.g09.slc.cpg/sg2_114_cif.got.tgz:226537.got - 2010.06.27 13:26:56.
