data_PCOD8015683
_publ_section_title
;
Structure prediction by ZEFSAII (Michael W. Deem and Ramdas Pophale) SiO2 
 PCOD8015683
Probable space group: P -1
;
_chemical_formula_sum "Si O2"
_cell_formula_units_Z 16
_cell_length_a 6.676666
_cell_length_b 14.031827
_cell_length_c 22.848548
_cell_angle_alpha 158.804558
_cell_angle_beta 81.579611
_cell_angle_gamma 96.463016
_cell_volume 763.865690
_symmetry_space_group_name_H-M "P -1"
_symmetry_group_IT_number 2
_symmetry_cell_setting 'triclinic'
loop_
_space_group_symop_operation_xyz
x,y,z
-x,-y,-z
loop_
_atom_site_type_symbol
_atom_site_label
_atom_site_fract_x
_atom_site_fract_y
_atom_site_fract_z
Si Si1 0.672802 0.852433 0.698783
Si Si2 0.590041 0.171135 0.772161
Si Si3 0.617803 0.671720 0.412189
Si Si4 0.297831 0.879278 0.464310
Si Si5 0.810277 0.646070 0.061205
Si Si6 0.051609 0.372313 0.727556
Si Si7 0.295844 0.642609 0.658008
Si Si8 0.996201 0.079643 0.889971
O O1 0.461437 0.774605 0.688184
O O2 0.783112 0.602762 0.516373
O O3 0.639794 0.091039 0.791130
O O4 0.792533 0.951054 0.805775
O O5 0.345787 0.229738 0.812089
O O6 0.667761 0.954329 0.598134
O O7 0.701187 0.435529 0.904659
O O8 0.386628 0.701867 0.413346
O O9 0.796282 0.599179 0.317207
O O10 0.617281 0.451929 0.336834
O O11 0.176691 0.685808 0.316625
O O12 0.500000 0.000000 0.500000
O O13 0.139610 0.132466 0.629025
O O14 0.875495 0.880615 0.151584
O O15 0.000000 0.500000 0.000000
O O16 0.049460 0.645216 0.918004
O O17 0.114336 0.865176 0.803997
#
# Coordination Sequence:
#
# PCOD8015683 Si02
#       8
#     2   2   2   2   2   2   2   2
#     4  10  21  43  62  90 121 166 206 251 313 358
#     4  10  22  39  61  91 127 157 207 254 309 371
#     4  10  23  42  65  87 123 169 210 252 299 370
#     4   9  21  42  61  90 121 166 208 247 306 361
#     4  11  23  36  59  96 127 161 196 259 319 367
#     4  10  24  40  63  94 126 161 206 256 309 367
#     4  10  23  42  64  88 125 165 209 255 299 373
#     4  12  24  39  64  94 130 159 203 257 313 369
#
# _framework density 20.946090999999999
#
# number of rings (size 3 to 8) (size 9 to 14) (size 15 to 20)
#    0.000    1.750    2.500    0.375    7.000    3.500 
#    0.000    1.250    0.000    0.000    0.000    0.000 
#    0.000    0.000    0.000    0.000    0.000    0.000 
#
# Total GULP energy -198316.523872 kJ/mol
# GULP energy per Si atom -12394.782742 kJ/mol
# Density = 2.089842 g / cm^3
# Si number density = 20.946091 Si / 1000 Ang^3
#
#
#
# Elastic Constant Matrix: (Units=GPa)
#
#
# Indices 1 2 3 4 5 6 
#
# 1 106.0873 29.3966 50.2396 -4.7843 0.1975 -28.7531
# 2 29.3966 68.9198 24.0730 2.4524 -2.4784 -27.7697
# 3 50.2396 24.0730 117.5665 -1.3440 0.9699 -16.5719
# 4 -4.7843 2.4524 -1.3440 26.9899 -2.6772 -5.5749
# 5 0.1975 -2.4784 0.9699 -2.6772 31.5508 4.0708
# 6 -28.7531 -27.7697 -16.5719 -5.5749 4.0708 38.7368
#
#
#
# Elastic Compliance Matrix: (Units=1/GPa)
#
#
# Indices 1 2 3 4 5 6 
#
# 1 0.014493 -0.001297 -0.004675 0.004132 -0.000796 0.008506
# 2 -0.001297 0.021117 -0.001868 0.000540 0.000035 0.013451
# 3 -0.004675 -0.001868 0.010868 -0.000191 -0.000450 -0.000140
# 4 0.004132 0.000540 -0.000191 0.039779 0.002255 0.008860
# 5 -0.000796 0.000035 -0.000450 0.002255 0.032403 -0.003839
# 6 0.008506 0.013451 -0.000140 0.008860 -0.003839 0.043390
#
#
# Mechanical properties :
#
#
# Convention : Reuss Voigt Hill
#
# Bulk Modulus (GPa) = 32.46960 55.55468 44.01214
# Shear Modulus (GPa) = 26.59653 32.04646 29.32150
#
# Velocity S-wave (km/s) = 3.56724 3.91570 3.74552
# Velocity P-wave (km/s) = 5.70106 6.85740 6.30579
#
# Compressibility (1/GPa) = 0.03079804
#
# Stress axis : x y z
#
# Youngs Moduli (GPa) = 69.00034 47.35534 92.01539
#
# Poissons Ratio (x) = 0.06143 0.43015
# Poissons Ratio (y) = 0.08950 0.17186
# Poissons Ratio (z) = 0.32256 0.08845
#
# Static dielectric constant tensor:
#      x y z
#    x 3.976970 -0.213420 -0.053830 
#    y -0.213420 3.866990 0.199710 
#    z -0.053830 0.199710 3.783100 
# 
# 
# High freq. dielectric constant tensor:
#      x y z
#    x 1.827090 -0.008070 -0.002450 
#    y -0.008070 1.808130 0.013430 
#    z -0.002450 0.013430 1.816600 
# 
# From -- ./inp_files/71674.got.cif
#   From: 2010.06.25/outbox.cif.g09.slc.cpg/sg2_36_cif.got.tgz:71674.got - 2010.06.27 13:26:56.
