data_PCOD8015384
_publ_section_title
;
Structure prediction by ZEFSAII (Michael W. Deem and Ramdas Pophale) SiO2 
 PCOD8015384
Probable space group: P -1
;
_chemical_formula_sum "Si O2"
_cell_formula_units_Z 16
_cell_length_a 9.306240
_cell_length_b 8.655722
_cell_length_c 19.869403
_cell_angle_alpha 56.693607
_cell_angle_beta 60.582738
_cell_angle_gamma 106.503842
_cell_volume 756.303989
_symmetry_space_group_name_H-M "P -1"
_symmetry_group_IT_number 2
_symmetry_cell_setting 'triclinic'
loop_
_space_group_symop_operation_xyz
x,y,z
-x,-y,-z
loop_
_atom_site_type_symbol
_atom_site_label
_atom_site_fract_x
_atom_site_fract_y
_atom_site_fract_z
Si Si1 0.828762 0.109786 0.478631
Si Si2 0.788620 0.708722 0.382593
Si Si3 0.530064 0.825526 0.002030
Si Si4 0.039270 0.926536 0.406780
Si Si5 0.972806 0.601225 0.268234
Si Si6 0.253233 0.620239 0.766980
Si Si7 0.077563 0.326606 0.128806
Si Si8 0.387080 0.487571 0.887791
O O1 0.976730 0.388169 0.334658
O O2 0.884324 0.972012 0.457682
O O3 0.950063 0.208366 0.501727
O O4 0.528409 0.897522 0.604347
O O5 0.500000 0.500000 0.500000
O O6 0.763451 0.523284 0.378754
O O7 0.882604 0.709254 0.432658
O O8 0.952955 0.025873 0.247457
O O9 0.288373 0.554706 0.081107
O O10 0.608964 0.732326 0.059200
O O11 0.500000 0.000000 0.000000
O O12 0.776152 0.075524 0.839893
O O13 0.321898 0.202195 0.248765
O O14 0.935216 0.595683 0.198358
O O15 0.268705 0.458152 0.852004
O O16 0.140429 0.701188 0.813919
O O17 0.219298 0.432497 0.999479
#
# Coordination Sequence:
#
# PCOD8015384 Si02
#       8
#     2   2   2   2   2   2   2   2
#     4  10  22  42  68  94 130 173 225 275 330 391
#     4  12  24  40  67  95 132 173 218 271 337 389
#     4  12  23  42  68  95 128 174 221 268 327 395
#     4  10  21  42  68  95 126 175 224 276 329 391
#     4  12  23  40  62  98 129 173 223 270 326 396
#     4  11  24  42  67  96 137 175 222 276 330 387
#     4  12  23  45  66  96 136 174 222 272 331 403
#     4  11  23  43  68  98 132 179 219 275 330 387
#
# _framework density 21.155517
#
# number of rings (size 3 to 8) (size 9 to 14) (size 15 to 20)
#    0.000    0.750    3.750    4.875    0.000    1.000 
#    0.000    2.500    0.000    0.000    0.000    0.000 
#    0.000    0.000    0.000    0.000    0.000    0.000 
#
# Total GULP energy -198285.780599 kJ/mol
# GULP energy per Si atom -12392.861287 kJ/mol
# Density = 2.110737 g / cm^3
# Si number density = 21.155517 Si / 1000 Ang^3
#
#
#
# Elastic Constant Matrix: (Units=GPa)
#
#
# Indices 1 2 3 4 5 6 
#
# 1 123.3741 50.6886 53.2829 2.3776 7.6810 -5.1824
# 2 50.6886 103.9841 26.9583 13.9675 5.6749 -0.1928
# 3 53.2829 26.9583 89.9123 2.5865 -2.4814 17.8167
# 4 2.3776 13.9675 2.5865 39.1761 -6.9380 -3.1280
# 5 7.6810 5.6749 -2.4814 -6.9380 40.3912 5.0271
# 6 -5.1824 -0.1928 17.8167 -3.1280 5.0271 29.7686
#
#
#
# Elastic Compliance Matrix: (Units=1/GPa)
#
#
# Indices 1 2 3 4 5 6 
#
# 1 0.014489 -0.004717 -0.009021 0.001473 -0.003468 0.008631
# 2 -0.004717 0.012854 -0.000896 -0.004570 -0.001700 -0.000395
# 3 -0.009021 -0.000896 0.019710 -0.000740 0.004698 -0.014244
# 4 0.001473 -0.004570 -0.000740 0.028191 0.004808 0.002820
# 5 -0.003468 -0.001700 0.004698 0.004808 0.027717 -0.007602
# 6 0.008631 -0.000395 -0.014244 0.002820 -0.007602 0.045198
#
#
# Mechanical properties :
#
#
# Convention : Reuss Voigt Hill
#
# Bulk Modulus (GPa) = 56.22331 64.34777 60.28554
# Shear Modulus (GPa) = 27.26947 34.28988 30.77968
#
# Velocity S-wave (km/s) = 3.59416 4.03034 3.81849
# Velocity P-wave (km/s) = 6.62253 7.22086 6.92816
#
# Compressibility (1/GPa) = 0.01778622
#
# Stress axis : x y z
#
# Youngs Moduli (GPa) = 69.01623 77.79414 50.73634
#
# Poissons Ratio (x) = 0.36695 0.45768
# Poissons Ratio (y) = 0.32555 0.04546
# Poissons Ratio (z) = 0.62257 0.06970
#
# Static dielectric constant tensor:
#      x y z
#    x 4.351290 -0.466740 -0.321230 
#    y -0.466740 8.818050 -1.397030 
#    z -0.321230 -1.397030 4.796740 
# 
# 
# High freq. dielectric constant tensor:
#      x y z
#    x 1.840250 -0.010540 -0.011440 
#    y -0.010540 1.824030 0.016730 
#    z -0.011440 0.016730 1.843900 
# 
# From -- ./inp_files/216455.got.cif
#   From: 2010.06.25/outbox.cif.g09.slc.cpg/sg2_109_cif.got.tgz:216455.got - 2010.06.27 13:26:56.
