data_PCOD8015166
_publ_section_title
;
Structure prediction by ZEFSAII (Michael W. Deem and Ramdas Pophale) SiO2 
 PCOD8015166
Probable space group: P -1
;
_chemical_formula_sum "Si O2"
_cell_formula_units_Z 12
_cell_length_a 9.487780
_cell_length_b 12.375103
_cell_length_c 9.289266
_cell_angle_alpha 45.741884
_cell_angle_beta 136.761104
_cell_angle_gamma 114.161166
_cell_volume 524.083921
_symmetry_space_group_name_H-M "P -1"
_symmetry_group_IT_number 2
_symmetry_cell_setting 'triclinic'
loop_
_space_group_symop_operation_xyz
x,y,z
-x,-y,-z
loop_
_atom_site_type_symbol
_atom_site_label
_atom_site_fract_x
_atom_site_fract_y
_atom_site_fract_z
Si Si1 0.660710 0.046904 0.185239
Si Si2 0.314757 0.281541 0.817246
Si Si3 0.207672 0.419798 0.315876
Si Si4 0.997604 0.786613 0.823041
Si Si5 0.006052 0.828219 0.114441
Si Si6 0.368261 0.596940 0.506724
O O1 0.781859 0.163157 0.084466
O O2 0.814893 0.899236 0.496815
O O3 0.518355 0.144259 0.114814
O O4 0.500000 0.000000 0.000000
O O5 0.233376 0.291932 0.580672
O O6 0.383702 0.442735 0.757233
O O7 0.125700 0.257307 0.798735
O O8 0.009892 0.384338 0.100448
O O9 0.221440 0.582027 0.265222
O O10 0.404443 0.380075 0.391336
O O11 0.919065 0.813067 0.904104
O O12 0.251099 0.740643 0.380151
O O13 0.000000 0.000000 0.000000
#
# Coordination Sequence:
#
# PCOD8015166 Si02
#       6
#     2   2   2   2   2   2
#     4  11  21  42  69  96 135 175 228 279 329 392
#     4  10  21  42  66  92 135 184 208 277 343 383
#     4   9  20  42  72  94 121 177 233 274 318 393
#     4  11  25  39  70 105 126 178 233 272 330 409
#     4  12  26  40  65 102 142 176 215 283 344 398
#     4   9  21  45  71  93 134 181 224 278 337 383
#
# _framework density 22.897095
#
# number of rings (size 3 to 8) (size 9 to 14) (size 15 to 20)
#    1.000    0.667    1.667    2.500    4.667    1.333 
#    0.000    0.833    0.000    0.000    0.000    0.000 
#    0.000    0.000    0.000    0.000    0.000    0.000 
#
# Total GULP energy -148740.887524 kJ/mol
# GULP energy per Si atom -12395.073960 kJ/mol
# Density = 2.284498 g / cm^3
# Si number density = 22.897095 Si / 1000 Ang^3
#
#
#
# Elastic Constant Matrix: (Units=GPa)
#
#
# Indices 1 2 3 4 5 6 
#
# 1 190.1358 73.1359 29.3863 -4.2616 11.5286 15.2394
# 2 73.1359 164.2542 58.8059 -8.0211 6.8635 -6.2184
# 3 29.3863 58.8059 62.3021 12.8833 11.6725 7.5628
# 4 -4.2616 -8.0211 12.8833 29.2108 3.1447 13.7741
# 5 11.5286 6.8635 11.6725 3.1447 37.2316 -9.3858
# 6 15.2394 -6.2184 7.5628 13.7741 -9.3858 45.6529
#
#
#
# Elastic Compliance Matrix: (Units=1/GPa)
#
#
# Indices 1 2 3 4 5 6 
#
# 1 0.006972 -0.003090 0.000180 0.002315 -0.002866 -0.004065
# 2 -0.003090 0.012207 -0.012349 0.006437 0.002889 0.003391
# 3 0.000180 -0.012349 0.032697 -0.014929 -0.007845 -0.004267
# 4 0.002315 0.006437 -0.014929 0.049774 -0.004813 -0.013430
# 5 -0.002866 0.002889 -0.007845 -0.004813 0.032814 0.010848
# 6 -0.004065 0.003391 -0.004267 -0.013430 0.010848 0.030713
#
#
# Mechanical properties :
#
#
# Convention : Reuss Voigt Hill
#
# Bulk Modulus (GPa) = 46.82152 82.14980 64.48566
# Shear Modulus (GPa) = 24.65325 39.44334 32.04830
#
# Velocity S-wave (km/s) = 3.28487 4.15497 3.74527
# Velocity P-wave (km/s) = 5.90595 7.67946 6.85034
#
# Compressibility (1/GPa) = 0.02135770
#
# Stress axis : x y z
#
# Youngs Moduli (GPa) = 143.44034 81.92114 30.58418
#
# Poissons Ratio (x) = 0.25310 -0.00549
# Poissons Ratio (y) = 0.44317 0.37768
# Poissons Ratio (z) = -0.02576 1.01162
#
# Static dielectric constant tensor:
#      x y z
#    x 4.048760 -0.018750 0.154870 
#    y -0.018750 4.532100 -0.372500 
#    z 0.154870 -0.372500 4.291190 
# 
# 
# High freq. dielectric constant tensor:
#      x y z
#    x 1.894600 0.002180 0.015190 
#    y 0.002180 1.934850 -0.027540 
#    z 0.015190 -0.027540 1.917970 
# 
# From -- ./inp_files/185584.got.cif
#   From: 2010.06.25/outbox.cif.g09.slc.cpg/sg2_93_cif.got.tgz:185584.got - 2010.06.27 13:26:56.
