data_PCOD8015563
_publ_section_title
;
Structure prediction by ZEFSAII (Michael W. Deem and Ramdas Pophale) SiO2 
 PCOD8015563
Probable space group: P -1
;
_chemical_formula_sum "Si O2"
_cell_formula_units_Z 16
_cell_length_a 13.825855
_cell_length_b 25.072759
_cell_length_c 6.763320
_cell_angle_alpha 54.379472
_cell_angle_beta 140.597291
_cell_angle_gamma 149.378449
_cell_volume 732.935198
_symmetry_space_group_name_H-M "P -1"
_symmetry_group_IT_number 2
_symmetry_cell_setting 'triclinic'
loop_
_space_group_symop_operation_xyz
x,y,z
-x,-y,-z
loop_
_atom_site_type_symbol
_atom_site_label
_atom_site_fract_x
_atom_site_fract_y
_atom_site_fract_z
Si Si1 0.462870 0.498967 0.214577
Si Si2 0.081187 0.262450 0.171934
Si Si3 0.710816 0.896594 0.808103
Si Si4 0.620700 0.111668 0.495377
Si Si5 0.391777 0.733884 0.326596
Si Si6 0.989743 0.299057 0.347325
Si Si7 0.712449 0.417626 0.227182
Si Si8 0.595519 0.744279 0.238876
O O1 0.500000 0.500000 0.500000
O O2 0.743934 0.590208 0.362481
O O3 0.732601 0.624154 0.898129
O O4 0.340005 0.526522 0.907835
O O5 0.183791 0.224145 0.389564
O O6 0.062901 0.270356 0.360068
O O7 0.804413 0.169140 0.847078
O O8 0.607384 0.918931 0.737064
O O9 0.561983 0.844302 0.477299
O O10 0.692714 0.821587 0.049233
O O11 0.000000 0.000000 0.000000
O O12 0.780480 0.196416 0.382602
O O13 0.500000 0.000000 0.500000
O O14 0.399176 0.668422 0.596990
O O15 0.489921 0.755179 0.216467
O O16 0.117557 0.673361 0.995491
O O17 0.000000 0.500000 0.500000
O O18 0.612386 0.373275 0.940636
#
# Coordination Sequence:
#
# PCOD8015563 Si02
#       8
#     2   2   2   2   2   2   2   2
#     4  10  21  42  71 101 143 186 223 284 344 412
#     4  11  25  46  70 101 146 182 231 285 351 411
#     4  11  27  48  70  98 140 182 235 299 350 414
#     4  12  29  46  73 105 133 182 242 291 353 418
#     4  11  25  44  69  98 143 183 229 286 350 410
#     4  11  23  47  70 101 144 178 230 287 350 420
#     4  11  23  40  68 102 143 184 229 280 337 415
#     4  11  25  44  67 104 136 184 231 277 349 426
#
# _framework density 21.830031999999999
#
# number of rings (size 3 to 8) (size 9 to 14) (size 15 to 20)
#    0.000    1.000    5.000    1.500    7.000    3.000 
#    0.000    0.000    0.000    0.000    0.000    0.000 
#    0.000    0.000    0.000    0.000    0.000    0.000 
#
# Total GULP energy -198350.395501 kJ/mol
# GULP energy per Si atom -12396.899719 kJ/mol
# Density = 2.178035 g / cm^3
# Si number density = 21.830032 Si / 1000 Ang^3
#
#
#
# Elastic Constant Matrix: (Units=GPa)
#
#
# Indices 1 2 3 4 5 6 
#
# 1 107.5220 51.6188 32.7806 6.2750 15.6064 6.4984
# 2 51.6188 111.3366 37.1822 18.5227 12.5519 8.5259
# 3 32.7806 37.1822 90.2112 3.7558 35.1196 8.4670
# 4 6.2750 18.5227 3.7558 34.5005 6.6701 7.1784
# 5 15.6064 12.5519 35.1196 6.6701 43.8913 -7.3163
# 6 6.4984 8.5259 8.4670 7.1784 -7.3163 32.9395
#
#
#
# Elastic Compliance Matrix: (Units=1/GPa)
#
#
# Indices 1 2 3 4 5 6 
#
# 1 0.012590 -0.005216 -0.001429 0.001449 -0.002329 -0.001599
# 2 -0.005216 0.013664 -0.004598 -0.006566 0.002743 0.000714
# 3 -0.001429 -0.004598 0.020772 0.005633 -0.017138 -0.008901
# 4 0.001449 -0.006566 0.005633 0.035717 -0.010255 -0.010096
# 5 -0.002329 0.002743 -0.017138 -0.010255 0.040669 0.015423
# 6 -0.001599 0.000714 -0.008901 -0.010096 0.015423 0.038403
#
#
# Mechanical properties :
#
#
# Convention : Reuss Voigt Hill
#
# Bulk Modulus (GPa) = 40.74879 61.35922 51.05400
# Shear Modulus (GPa) = 25.97658 34.76548 30.37103
#
# Velocity S-wave (km/s) = 3.45330 3.99501 3.73399
# Velocity P-wave (km/s) = 5.88280 7.03199 6.48291
#
# Compressibility (1/GPa) = 0.02454061
#
# Stress axis : x y z
#
# Youngs Moduli (GPa) = 79.42661 73.18483 48.14147
#
# Poissons Ratio (x) = 0.38174 0.06878
# Poissons Ratio (y) = 0.41430 0.22136
# Poissons Ratio (z) = 0.11348 0.33651
#
# Static dielectric constant tensor:
#      x y z
#    x 4.315420 -0.546890 0.482430 
#    y -0.546890 4.910390 -0.693360 
#    z 0.482430 -0.693360 4.975360 
# 
# 
# High freq. dielectric constant tensor:
#      x y z
#    x 1.858470 0.003060 0.007030 
#    y 0.003060 1.852150 -0.000790 
#    z 0.007030 -0.000790 1.876810 
# 
# From -- ./inp_files/85041.got.cif
#   From: 2010.06.25/outbox.cif.g09.slc.cpg/sg2_43_cif.got.tgz:85041.got - 2010.06.27 13:26:56.
