data_PCOD8015244
_publ_section_title
;
Structure prediction by ZEFSAII (Michael W. Deem and Ramdas Pophale) SiO2 
 PCOD8015244
Probable space group: P -1
;
_chemical_formula_sum "Si O2"
_cell_formula_units_Z 12
_cell_length_a 5.010951
_cell_length_b 13.929825
_cell_length_c 8.933741
_cell_angle_alpha 75.692597
_cell_angle_beta 118.371132
_cell_angle_gamma 112.786178
_cell_volume 504.335698
_symmetry_space_group_name_H-M "P -1"
_symmetry_group_IT_number 2
_symmetry_cell_setting 'triclinic'
loop_
_space_group_symop_operation_xyz
x,y,z
-x,-y,-z
loop_
_atom_site_type_symbol
_atom_site_label
_atom_site_fract_x
_atom_site_fract_y
_atom_site_fract_z
Si Si1 0.393048 0.784452 0.366305
Si Si2 0.262641 0.411759 0.203071
Si Si3 0.644475 0.361873 0.860937
Si Si4 0.617317 0.755645 0.881988
Si Si5 0.789999 0.071031 0.957721
Si Si6 0.028687 0.753097 0.584046
O O1 0.340590 0.688023 0.276337
O O2 0.350338 0.886927 0.239595
O O3 0.129006 0.748362 0.440224
O O4 0.763190 0.812932 0.510273
O O5 0.462546 0.534028 0.227351
O O6 0.474767 0.344816 0.215176
O O7 0.124544 0.364324 0.345364
O O8 0.991704 0.397559 0.011580
O O9 0.398438 0.277323 0.934957
O O10 0.347776 0.810618 0.746666
O O11 0.979023 0.831368 0.922828
O O12 0.500000 0.000000 0.000000
O O13 0.000000 0.000000 0.000000
#
# Coordination Sequence:
#
# PCOD8015244 Si02
#       6
#     2   2   2   2   2   2
#     4  12  24  46  66 105 139 177 226 291 336 397
#     4  10  21  42  67 105 138 193 227 262 336 409
#     4  10  22  38  72 102 139 189 233 272 316 407
#     4  11  22  47  70  99 143 181 230 284 334 403
#     4  12  27  47  77  99 124 176 239 288 343 408
#     4  11  25  42  70  98 153 181 214 276 355 395
#
# _framework density 23.793675
#
# number of rings (size 3 to 8) (size 9 to 14) (size 15 to 20)
#    0.000    1.000    3.333    3.500    2.333    1.333 
#    0.000    5.000    0.000    0.000    0.000    0.000 
#    0.000    0.000    0.000    0.000    0.000    0.000 
#
# Total GULP energy -148745.368441 kJ/mol
# GULP energy per Si atom -12395.447370 kJ/mol
# Density = 2.373952 g / cm^3
# Si number density = 23.793675 Si / 1000 Ang^3
#
#
#
# Elastic Constant Matrix: (Units=GPa)
#
#
# Indices 1 2 3 4 5 6 
#
# 1 128.8510 26.5307 45.3970 -14.6996 2.7701 2.4873
# 2 26.5307 72.6149 30.6963 -19.4687 10.1137 7.2507
# 3 45.3970 30.6963 126.7447 -26.8395 6.2616 13.6150
# 4 -14.6996 -19.4687 -26.8395 20.8604 -6.3095 0.4258
# 5 2.7701 10.1137 6.2616 -6.3095 53.1398 -3.5702
# 6 2.4873 7.2507 13.6150 0.4258 -3.5702 34.1598
#
#
#
# Elastic Compliance Matrix: (Units=1/GPa)
#
#
# Indices 1 2 3 4 5 6 
#
# 1 0.009240 -0.002052 -0.002650 0.001300 0.000432 0.000848
# 2 -0.002052 0.019624 0.000029 0.016398 -0.001983 -0.004439
# 3 -0.002650 0.000029 0.012359 0.014171 0.000029 -0.004913
# 4 0.001300 0.016398 0.014171 0.083936 0.004449 -0.009804
# 5 0.000432 -0.001983 0.000029 0.004449 0.019859 0.002398
# 6 0.000848 -0.004439 -0.004913 -0.009804 0.002398 0.032486
#
#
# Mechanical properties :
#
#
# Convention : Reuss Voigt Hill
#
# Bulk Modulus (GPa) = 31.36904 59.27317 45.32110
# Shear Modulus (GPa) = 25.31979 36.67109 30.99544
#
# Velocity S-wave (km/s) = 3.26565 3.93009 3.61318
# Velocity P-wave (km/s) = 5.23753 6.74978 6.04116
#
# Compressibility (1/GPa) = 0.03187856
#
# Stress axis : x y z
#
# Youngs Moduli (GPa) = 108.23013 50.95690 80.91394
#
# Poissons Ratio (x) = 0.10457 0.21438
# Poissons Ratio (y) = 0.22209 -0.00238
# Poissons Ratio (z) = 0.28676 -0.00150
#
# Static dielectric constant tensor:
#      x y z
#    x 4.482900 -0.023100 0.317250 
#    y -0.023100 4.352500 -0.288540 
#    z 0.317250 -0.288540 4.600190 
# 
# 
# High freq. dielectric constant tensor:
#      x y z
#    x 1.960770 0.002160 0.006920 
#    y 0.002160 1.906010 -0.015260 
#    z 0.006920 -0.015260 1.955220 
# 
# From -- ./inp_files/109077.got.cif
#   From: 2010.06.25/outbox.cif.g09.slc.cpg/sg2_55_cif.got.tgz:109077.got - 2010.06.27 13:26:56.
