data_PCOD8015398
_publ_section_title
;
Structure prediction by ZEFSAII (Michael W. Deem and Ramdas Pophale) SiO2 
 PCOD8015398
Probable space group: P -1
;
_chemical_formula_sum "Si O2"
_cell_formula_units_Z 16
_cell_length_a 5.096229
_cell_length_b 20.363218
_cell_length_c 7.280724
_cell_angle_alpha 119.079102
_cell_angle_beta 61.163108
_cell_angle_gamma 117.983421
_cell_volume 550.563282
_symmetry_space_group_name_H-M "P -1"
_symmetry_group_IT_number 2
_symmetry_cell_setting 'triclinic'
loop_
_space_group_symop_operation_xyz
x,y,z
-x,-y,-z
loop_
_atom_site_type_symbol
_atom_site_label
_atom_site_fract_x
_atom_site_fract_y
_atom_site_fract_z
Si Si1 0.668477 0.291802 0.693193
Si Si2 0.218456 0.884578 0.886909
Si Si3 0.731332 0.258744 0.164339
Si Si4 0.524170 0.852517 0.202204
Si Si5 0.646720 0.006887 0.661918
Si Si6 0.672759 0.508276 0.692978
Si Si7 0.841778 0.633206 0.068641
Si Si8 0.695483 0.635010 0.575680
O O1 0.504387 0.199097 0.671055
O O2 0.418227 0.326595 0.729328
O O3 0.843781 0.341365 0.878767
O O4 0.933083 0.316976 0.475650
O O5 0.296110 0.800453 0.735077
O O6 0.379541 0.926686 0.703152
O O7 0.356207 0.934972 0.089565
O O8 0.843950 0.867320 0.997691
O O9 0.443272 0.293068 0.287983
O O10 0.747994 0.200800 0.907987
O O11 0.056623 0.329836 0.125310
O O12 0.477128 0.940058 0.384495
O O13 0.000000 0.000000 0.500000
O O14 0.556129 0.568824 0.686739
O O15 0.398029 0.421208 0.659312
O O16 0.000000 0.500000 0.500000
O O17 0.716818 0.539973 0.932131
#
# Coordination Sequence:
#
# PCOD8015398 Si02
#       8
#     2   2   2   2   2   2   2   2
#     4  11  26  44  70 106 142 184 242 305 363 430
#     4  10  21  43  74  97 141 199 234 295 375 438
#     4  10  21  42  70  98 132 192 239 284 361 442
#     4  10  21  42  68  96 142 186 233 287 366 433
#     4  10  23  42  65 109 145 182 244 301 359 439
#     4  11  24  44  69  96 137 189 240 294 369 446
#     4  11  23  45  69  97 144 187 235 301 371 435
#     4  11  26  43  68 103 138 182 248 303 354 440
#
# _framework density 29.061146000000001
#
# number of rings (size 3 to 8) (size 9 to 14) (size 15 to 20)
#    0.000    1.500    2.500    1.875    3.500    2.500 
#    2.250    0.000    2.750    0.000    0.000    0.000 
#    0.000    0.000    0.000    0.000    0.000    0.000 
#
# Total GULP energy -198251.279459 kJ/mol
# GULP energy per Si atom -12390.704966 kJ/mol
# Density = 2.899500 g / cm^3
# Si number density = 29.061146 Si / 1000 Ang^3
#
#
#
# Elastic Constant Matrix: (Units=GPa)
#
#
# Indices 1 2 3 4 5 6 
#
# 1 87.2111 42.0045 21.8341 -1.1395 -24.8423 -14.3784
# 2 42.0045 176.2912 67.8893 -11.9566 -2.8205 -11.4471
# 3 21.8341 67.8893 77.8291 -4.3814 -15.9274 -16.8932
# 4 -1.1395 -11.9566 -4.3814 66.2084 6.7669 -9.2359
# 5 -24.8423 -2.8205 -15.9274 6.7669 56.0109 -0.5730
# 6 -14.3784 -11.4471 -16.8932 -9.2359 -0.5730 51.8130
#
#
#
# Elastic Compliance Matrix: (Units=1/GPa)
#
#
# Indices 1 2 3 4 5 6 
#
# 1 0.015731 -0.003919 0.001309 -0.000547 0.007258 0.003909
# 2 -0.003919 0.009807 -0.008490 0.001325 -0.003834 -0.001495
# 3 0.001309 -0.008490 0.022533 0.000133 0.006605 0.005931
# 4 -0.000547 0.001325 0.000133 0.015970 -0.002037 0.003009
# 5 0.007258 -0.003834 0.006605 -0.002037 0.023037 0.003212
# 6 0.003909 -0.001495 0.005931 0.003009 0.003212 0.022560
#
#
# Mechanical properties :
#
#
# Convention : Reuss Voigt Hill
#
# Bulk Modulus (GPa) = 38.65309 67.19858 52.92583
# Shear Modulus (GPa) = 35.59634 48.78001 42.18818
#
# Velocity S-wave (km/s) = 3.50362 4.10143 3.81426
# Velocity P-wave (km/s) = 5.44946 6.75295 6.13592
#
# Compressibility (1/GPa) = 0.02587116
#
# Stress axis : x y z
#
# Youngs Moduli (GPa) = 63.56729 101.96749 44.37840
#
# Poissons Ratio (x) = 0.39964 -0.05807
# Poissons Ratio (y) = 0.24914 0.37675
# Poissons Ratio (z) = -0.08318 0.86566
#
# Static dielectric constant tensor:
#      x y z
#    x 5.246340 -0.035490 0.588580 
#    y -0.035490 6.410030 -0.027570 
#    z 0.588580 -0.027570 5.660080 
# 
# 
# High freq. dielectric constant tensor:
#      x y z
#    x 2.178450 0.003940 0.035850 
#    y 0.003940 2.231270 0.005390 
#    z 0.035850 0.005390 2.212000 
# 
# From -- ./inp_files/112786.got.cif
#   From: 2010.06.25/outbox.cif.g09.slc.cpg/sg2_57_cif.got.tgz:112786.got - 2010.06.27 13:26:56.
