data_PCOD8015849
_publ_section_title
;
Structure prediction by ZEFSAII (Michael W. Deem and Ramdas Pophale) SiO2 
 PCOD8015849
Probable space group: P -1
;
_chemical_formula_sum "Si O2"
_cell_formula_units_Z 16
_cell_length_a 8.459270
_cell_length_b 11.979921
_cell_length_c 15.321599
_cell_angle_alpha 112.782445
_cell_angle_beta 113.431841
_cell_angle_gamma 32.484619
_cell_volume 760.911619
_symmetry_space_group_name_H-M "P -1"
_symmetry_group_IT_number 2
_symmetry_cell_setting 'triclinic'
loop_
_space_group_symop_operation_xyz
x,y,z
-x,-y,-z
loop_
_atom_site_type_symbol
_atom_site_label
_atom_site_fract_x
_atom_site_fract_y
_atom_site_fract_z
Si Si1 0.692250 0.133108 0.941342
Si Si2 0.776664 0.531151 0.921256
Si Si3 0.394822 0.693396 0.555787
Si Si4 0.720542 0.049331 0.531931
Si Si5 0.439038 0.098714 0.647430
Si Si6 0.864049 0.530286 0.742208
Si Si7 0.541253 0.432097 0.891391
Si Si8 0.105666 0.210933 0.203536
O O1 0.610510 0.249543 0.866573
O O2 0.702060 0.985332 0.877463
O O3 0.513826 0.261884 0.028790
O O4 0.000000 0.000000 0.000000
O O5 0.772056 0.538963 0.819376
O O6 0.808741 0.365869 0.894120
O O7 0.000000 0.500000 0.000000
O O8 0.500000 0.500000 0.500000
O O9 0.412996 0.759887 0.490834
O O10 0.614472 0.627766 0.652101
O O11 0.063133 0.881539 0.579734
O O12 0.523926 0.146433 0.605312
O O13 0.708064 0.936375 0.436322
O O14 0.193487 0.296482 0.717673
O O15 0.748478 0.885002 0.697731
O O16 0.855674 0.678388 0.791220
O O17 0.246988 0.618739 0.822798
O O18 0.500000 0.500000 0.000000
#
# Coordination Sequence:
#
# PCOD8015849 Si02
#       8
#     2   2   2   2   2   2   2   2
#     4  11  23  45  71  94 133 187 227 279 334 398
#     4  11  24  44  67 100 140 177 224 283 342 397
#     4  11  23  46  72 101 141 176 218 291 346 403
#     4  10  24  45  71  99 134 177 227 274 346 411
#     4  11  24  45  69 100 132 178 229 277 334 414
#     4  12  26  44  67 105 138 176 231 284 340 402
#     4  10  21  43  66  94 132 176 227 277 332 398
#     4  12  23  43  69  97 137 176 234 279 328 415
#
# _framework density 21.02741
#
# number of rings (size 3 to 8) (size 9 to 14) (size 15 to 20)
#    0.000    1.000    5.000    3.000    1.750    2.000 
#    4.500    0.000    0.000    0.000    0.000    0.000 
#    0.000    0.000    0.000    0.000    0.000    0.000 
#
# Total GULP energy -198232.284397 kJ/mol
# GULP energy per Si atom -12389.517775 kJ/mol
# Density = 2.097955 g / cm^3
# Si number density = 21.027410 Si / 1000 Ang^3
#
#
#
# Elastic Constant Matrix: (Units=GPa)
#
#
# Indices 1 2 3 4 5 6 
#
# 1 157.1354 63.5684 44.0662 -1.0172 -10.0780 8.3325
# 2 63.5684 112.1775 38.5073 -11.7629 -5.8146 4.9190
# 3 44.0662 38.5073 53.7577 -9.1744 -6.4503 -4.5777
# 4 -1.0172 -11.7629 -9.1744 42.5680 -4.7856 13.3969
# 5 -10.0780 -5.8146 -6.4503 -4.7856 40.8463 -5.6209
# 6 8.3325 4.9190 -4.5777 13.3969 -5.6209 42.1721
#
#
#
# Elastic Compliance Matrix: (Units=1/GPa)
#
#
# Indices 1 2 3 4 5 6 
#
# 1 0.009440 -0.003499 -0.005529 -0.001382 0.000584 -0.001540
# 2 -0.003499 0.013583 -0.006552 0.003073 0.000041 -0.002575
# 3 -0.005529 -0.006552 0.029167 0.003329 0.003305 0.004406
# 4 -0.001382 0.003073 0.003329 0.027925 0.002762 -0.008227
# 5 0.000584 0.000041 0.003305 0.002762 0.025864 0.002809
# 6 -0.001540 -0.002575 0.004406 -0.008227 0.002809 0.027783
#
#
# Mechanical properties :
#
#
# Convention : Reuss Voigt Hill
#
# Bulk Modulus (GPa) = 47.54767 68.37271 57.96019
# Shear Modulus (GPa) = 29.08117 36.91251 32.99684
#
# Velocity S-wave (km/s) = 3.72292 4.19435 3.96565
# Velocity P-wave (km/s) = 6.41417 7.48621 6.97083
#
# Compressibility (1/GPa) = 0.02103152
#
# Stress axis : x y z
#
# Youngs Moduli (GPa) = 105.93194 73.61926 34.28488
#
# Poissons Ratio (x) = 0.25757 0.18956
# Poissons Ratio (y) = 0.37062 0.22463
# Poissons Ratio (z) = 0.58571 0.48235
#
# Static dielectric constant tensor:
#      x y z
#    x 4.231480 0.367760 0.302850 
#    y 0.367760 4.108470 -0.017990 
#    z 0.302850 -0.017990 3.346070 
# 
# 
# High freq. dielectric constant tensor:
#      x y z
#    x 1.843700 0.007970 0.019820 
#    y 0.007970 1.821260 -0.011840 
#    z 0.019820 -0.011840 1.825450 
# 
# From -- ./inp_files/500582.got.cif
#   From: 2010.06.25/outbox.cif.g09.slc.cpg/sg2_251_cif.got.tgz:500582.got - 2010.06.27 13:26:56.
