data_PCOD8015698
_publ_section_title
;
Structure prediction by ZEFSAII (Michael W. Deem and Ramdas Pophale) SiO2 
 PCOD8015698
Probable space group: P -1
;
_chemical_formula_sum "Si O2"
_cell_formula_units_Z 16
_cell_length_a 11.040085
_cell_length_b 13.321430
_cell_length_c 16.893258
_cell_angle_alpha 24.764666
_cell_angle_beta 119.937372
_cell_angle_gamma 103.417390
_cell_volume 715.243754
_symmetry_space_group_name_H-M "P -1"
_symmetry_group_IT_number 2
_symmetry_cell_setting 'triclinic'
loop_
_space_group_symop_operation_xyz
x,y,z
-x,-y,-z
loop_
_atom_site_type_symbol
_atom_site_label
_atom_site_fract_x
_atom_site_fract_y
_atom_site_fract_z
Si Si1 0.819317 0.730435 0.669271
Si Si2 0.491722 0.755954 0.714293
Si Si3 0.347283 0.966070 0.116078
Si Si4 0.550609 0.630908 0.130977
Si Si5 0.974411 0.364040 0.664537
Si Si6 0.128977 0.697069 0.873497
Si Si7 0.618551 0.475525 0.442286
Si Si8 0.163401 0.185790 0.560835
O O1 0.839508 0.661944 0.631670
O O2 0.980982 0.719162 0.760603
O O3 0.635505 0.071008 0.375735
O O4 0.822869 0.479688 0.900084
O O5 0.399758 0.643046 0.712956
O O6 0.500000 0.000000 0.500000
O O7 0.693927 0.474024 0.001296
O O8 0.494458 0.797020 0.216162
O O9 0.413580 0.753249 0.366948
O O10 0.318552 0.278326 0.902725
O O11 0.163570 0.040120 0.973272
O O12 0.561673 0.514763 0.305612
O O13 0.358768 0.933733 0.834871
O O14 0.823395 0.329917 0.622094
O O15 0.936838 0.554093 0.594424
O O16 0.000000 0.500000 0.500000
O O17 0.064524 0.033991 0.627779
#
# Coordination Sequence:
#
# PCOD8015698 Si02
#       8
#     2   2   2   2   2   2   2   2
#     4  10  21  43  63  88 132 168 216 271 321 388
#     4   9  21  41  64  95 129 169 220 262 327 390
#     4  11  24  43  69  96 131 173 220 274 329 392
#     4  11  22  42  68  97 130 176 217 268 334 387
#     4  12  24  45  68  96 137 173 219 277 334 396
#     4   9  21  41  63  92 125 174 209 270 328 379
#     4  11  24  47  66  97 135 170 223 276 330 396
#     4  11  24  41  64  97 129 169 222 264 332 391
#
# _framework density 22.369996
#
# number of rings (size 3 to 8) (size 9 to 14) (size 15 to 20)
#    0.000    1.500    2.500    1.875    1.750    5.000 
#   13.500    0.000    0.000    0.000    0.000    0.000 
#    0.000    0.000    0.000    0.000    0.000    0.000 
#
# Total GULP energy -198365.741391 kJ/mol
# GULP energy per Si atom -12397.858837 kJ/mol
# Density = 2.231908 g / cm^3
# Si number density = 22.369996 Si / 1000 Ang^3
#
#
#
# Elastic Constant Matrix: (Units=GPa)
#
#
# Indices 1 2 3 4 5 6 
#
# 1 86.5427 37.2173 25.6546 6.7087 3.0988 -15.5824
# 2 37.2173 74.5467 18.0121 4.2089 -13.9161 -17.5222
# 3 25.6546 18.0121 64.2668 17.6165 -7.0827 -9.8231
# 4 6.7087 4.2089 17.6165 31.7099 6.1268 -5.5215
# 5 3.0988 -13.9161 -7.0827 6.1268 33.6247 9.9563
# 6 -15.5824 -17.5222 -9.8231 -5.5215 9.9563 33.7125
#
#
#
# Elastic Compliance Matrix: (Units=1/GPa)
#
#
# Indices 1 2 3 4 5 6 
#
# 1 0.017676 -0.007889 -0.005770 0.003030 -0.008236 0.005317
# 2 -0.007889 0.019998 -0.000547 -0.001533 0.007990 0.003978
# 3 -0.005770 -0.000547 0.022184 -0.012615 0.007505 -0.000770
# 4 0.003030 -0.001533 -0.012615 0.042089 -0.013557 0.007825
# 5 -0.008236 0.007990 0.007505 -0.013557 0.041383 -0.011909
# 6 0.005317 0.003978 -0.000770 0.007825 -0.011909 0.038762
#
#
# Mechanical properties :
#
#
# Convention : Reuss Voigt Hill
#
# Bulk Modulus (GPa) = 31.80165 43.01379 37.40772
# Shear Modulus (GPa) = 22.62578 29.44090 26.03334
#
# Velocity S-wave (km/s) = 3.18376 3.63173 3.41510
# Velocity P-wave (km/s) = 5.26898 6.07092 5.68411
#
# Compressibility (1/GPa) = 0.03144491
#
# Stress axis : x y z
#
# Youngs Moduli (GPa) = 56.57546 50.00453 45.07664
#
# Poissons Ratio (x) = 0.39449 0.26011
# Poissons Ratio (y) = 0.44633 0.02466
# Poissons Ratio (z) = 0.32647 0.02736
#
# Static dielectric constant tensor:
#      x y z
#    x 4.366440 0.035280 0.100020 
#    y 0.035280 3.960890 -0.076160 
#    z 0.100020 -0.076160 4.185990 
# 
# 
# High freq. dielectric constant tensor:
#      x y z
#    x 1.896120 0.006350 -0.000360 
#    y 0.006350 1.865820 0.004530 
#    z -0.000360 0.004530 1.884710 
# 
# From -- ./inp_files/519506.got.cif
#   From: 2010.06.25/outbox.cif.g09.slc.cpg/sg2_260_cif.got.tgz:519506.got - 2010.06.27 13:26:56.
