data_PCOD8015012
_publ_section_title
;
Structure prediction by ZEFSAII (Michael W. Deem and Ramdas Pophale) SiO2 
 PCOD8015012
Probable space group: P -1
;
_chemical_formula_sum "Si O2"
_cell_formula_units_Z 12
_cell_length_a 11.361439
_cell_length_b 14.153157
_cell_length_c 16.762687
_cell_angle_alpha 157.024865
_cell_angle_beta 146.253627
_cell_angle_gamma 30.816388
_cell_volume 527.638990
_symmetry_space_group_name_H-M "P -1"
_symmetry_group_IT_number 2
_symmetry_cell_setting 'triclinic'
loop_
_space_group_symop_operation_xyz
x,y,z
-x,-y,-z
loop_
_atom_site_type_symbol
_atom_site_label
_atom_site_fract_x
_atom_site_fract_y
_atom_site_fract_z
Si Si1 0.968834 0.978187 0.831470
Si Si2 0.846428 0.383396 0.775706
Si Si3 0.323104 0.462710 0.931576
Si Si4 0.308615 0.040837 0.194529
Si Si5 0.333846 0.575350 0.609781
Si Si6 0.001268 0.797313 0.456217
O O1 0.132685 0.717224 0.672430
O O2 0.107548 0.081740 0.050763
O O3 0.784711 0.917282 0.733784
O O4 0.842297 0.231267 0.895599
O O5 0.572324 0.599863 0.786200
O O6 0.937292 0.327233 0.693485
O O7 0.869714 0.117196 0.627223
O O8 0.000000 0.500000 0.000000
O O9 0.170288 0.322449 0.694997
O O10 0.477634 0.258318 0.929235
O O11 0.500000 0.500000 0.000000
O O12 0.404733 0.259257 0.400300
O O13 0.236408 0.708676 0.572774
#
# Coordination Sequence:
#
# PCOD8015012 Si02
#       6
#     2   2   2   2   2   2
#     4  10  23  38  66 103 135 174 216 266 332 397
#     4  11  28  47  68  94 131 179 228 279 332 392
#     4  10  21  43  69  96 137 178 210 268 334 397
#     4  10  21  42  64  97 142 175 211 268 330 395
#     4  12  24  42  71  99 131 174 226 279 327 394
#     4  11  25  46  68  99 134 172 227 274 334 394
#
# _framework density 22.742823000000001
#
# number of rings (size 3 to 8) (size 9 to 14) (size 15 to 20)
#    0.000    1.333    3.333    1.000    4.667    0.667 
#    0.000    1.667    0.000    0.000    0.000    0.000 
#    0.000    0.000    0.000    0.000    0.000    0.000 
#
# Total GULP energy -148753.147999 kJ/mol
# GULP energy per Si atom -12396.095667 kJ/mol
# Density = 2.269106 g / cm^3
# Si number density = 22.742823 Si / 1000 Ang^3
#
#
#
# Elastic Constant Matrix: (Units=GPa)
#
#
# Indices 1 2 3 4 5 6 
#
# 1 57.0555 44.9023 33.0839 -5.3925 -1.5232 10.4287
# 2 44.9023 166.5014 42.9512 -0.5773 5.4944 1.1714
# 3 33.0839 42.9512 78.8871 -6.9336 11.9334 9.2842
# 4 -5.3925 -0.5773 -6.9336 44.2697 -2.7535 3.8195
# 5 -1.5232 5.4944 11.9334 -2.7535 32.5426 -3.7162
# 6 10.4287 1.1714 9.2842 3.8195 -3.7162 27.1442
#
#
#
# Elastic Compliance Matrix: (Units=1/GPa)
#
#
# Indices 1 2 3 4 5 6 
#
# 1 0.028730 -0.005640 -0.008539 0.003048 0.004813 -0.007644
# 2 -0.005640 0.008145 -0.002418 -0.001230 -0.000544 0.002741
# 3 -0.008539 -0.002418 0.019404 0.001895 -0.007465 -0.004540
# 4 0.003048 -0.001230 0.001895 0.023737 0.001098 -0.004956
# 5 0.004813 -0.000544 -0.007465 0.001098 0.034481 0.005294
# 6 -0.007644 0.002741 -0.004540 -0.004956 0.005294 0.042634
#
#
# Mechanical properties :
#
#
# Convention : Reuss Voigt Hill
#
# Bulk Modulus (GPa) = 43.31599 60.47987 51.89793
# Shear Modulus (GPa) = 25.25004 32.89173 29.07088
#
# Velocity S-wave (km/s) = 3.33564 3.80708 3.57913
# Velocity P-wave (km/s) = 5.82432 6.78055 6.32054
#
# Compressibility (1/GPa) = 0.02308616
#
# Stress axis : x y z
#
# Youngs Moduli (GPa) = 34.80636 122.77445 51.53567
#
# Poissons Ratio (x) = 0.69242 0.44006
# Poissons Ratio (y) = 0.19630 0.12461
# Poissons Ratio (z) = 0.29721 0.29685
#
# Static dielectric constant tensor:
#      x y z
#    x 3.894410 0.037220 0.229760 
#    y 0.037220 4.673230 0.094330 
#    z 0.229760 0.094330 3.948790 
# 
# 
# High freq. dielectric constant tensor:
#      x y z
#    x 1.876400 -0.001700 0.019100 
#    y -0.001700 1.925530 0.004280 
#    z 0.019100 0.004280 1.886220 
# 
# From -- ./inp_files/26582.got.cif
#   From: 2010.06.25/outbox.cif.g09.slc.cpg/sg2_14_cif.got.tgz:26582.got - 2010.06.27 13:26:56.
