data_PCOD8015674
_publ_section_title
;
Structure prediction by ZEFSAII (Michael W. Deem and Ramdas Pophale) SiO2 
 PCOD8015674
Probable space group: P -1
;
_chemical_formula_sum "Si O2"
_cell_formula_units_Z 14
_cell_length_a 7.620776
_cell_length_b 7.109277
_cell_length_c 20.016548
_cell_angle_alpha 47.491804
_cell_angle_beta 78.184374
_cell_angle_gamma 60.360202
_cell_volume 680.519793
_symmetry_space_group_name_H-M "P -1"
_symmetry_group_IT_number 2
_symmetry_cell_setting 'triclinic'
loop_
_space_group_symop_operation_xyz
x,y,z
-x,-y,-z
loop_
_atom_site_type_symbol
_atom_site_label
_atom_site_fract_x
_atom_site_fract_y
_atom_site_fract_z
Si Si1 0.558388 0.896146 0.595539
Si Si2 0.894706 0.278715 0.894739
Si Si3 0.527083 0.310505 0.979320
Si Si4 0.183131 0.922753 0.689276
Si Si5 0.763917 0.628788 0.121847
Si Si6 0.934253 0.914015 0.593353
Si Si7 0.945933 0.343428 0.725772
O O1 0.357923 0.992325 0.633205
O O2 0.710279 0.541587 0.669638
O O3 0.685527 0.046190 0.581384
O O4 0.500000 0.000000 0.500000
O O5 0.651231 0.405798 0.894336
O O6 0.945289 0.202315 0.831153
O O7 0.989010 0.483670 0.864754
O O8 0.000000 0.000000 0.000000
O O9 0.308645 0.390272 0.943249
O O10 0.500000 0.500000 0.000000
O O11 0.641989 0.968108 0.073830
O O12 0.283146 0.574608 0.776906
O O13 0.003286 0.039267 0.619791
O O14 0.085064 0.083790 0.727346
O O15 0.044227 0.558013 0.674559
O O16 0.000000 0.000000 0.500000
#
# Coordination Sequence:
#
# PCOD8015674 Si02
#       7
#     2   2   2   2   2   2   2
#     4  10  22  42  67  95 129 167 210 273 321 381
#     4  10  21  43  61  90 132 164 218 268 312 378
#     4  10  23  41  61  93 128 161 221 268 307 386
#     4  12  22  43  68  91 135 170 210 265 334 379
#     4  10  22  39  62  91 122 172 210 254 327 373
#     4  10  22  43  65  96 130 162 220 265 314 404
#     4  10  24  43  62  99 131 166 221 271 314 393
#
# _framework density 20.572510000000001
#
# number of rings (size 3 to 8) (size 9 to 14) (size 15 to 20)
#    0.857    0.857    2.857    0.857    4.000    2.857 
#   10.286    1.429    0.000    0.000    0.000    0.000 
#    0.000    0.000    0.000    0.000    0.000    0.000 
#
# Total GULP energy -173438.650271 kJ/mol
# GULP energy per Si atom -12388.475019 kJ/mol
# Density = 2.052569 g / cm^3
# Si number density = 20.572510 Si / 1000 Ang^3
#
#
#
# Elastic Constant Matrix: (Units=GPa)
#
#
# Indices 1 2 3 4 5 6 
#
# 1 152.8720 53.2190 47.8612 23.6160 -4.6874 7.1022
# 2 53.2190 113.0805 52.6950 31.4110 -4.4825 6.4925
# 3 47.8612 52.6950 147.4633 27.9554 -6.4163 -3.9279
# 4 23.6160 31.4110 27.9554 31.8102 -2.1574 0.1731
# 5 -4.6874 -4.4825 -6.4163 -2.1574 37.6875 4.6611
# 6 7.1022 6.4925 -3.9279 0.1731 4.6611 24.9189
#
#
#
# Elastic Compliance Matrix: (Units=1/GPa)
#
#
# Indices 1 2 3 4 5 6 
#
# 1 0.008324 -0.002433 -0.001385 -0.002507 0.000621 -0.002055
# 2 -0.002433 0.014103 -0.002427 -0.009913 0.000821 -0.003448
# 3 -0.001385 -0.002427 0.009036 -0.004494 0.000525 0.002384
# 4 -0.002507 -0.009913 -0.004494 0.047034 0.000160 0.002232
# 5 0.000621 0.000821 0.000525 0.000160 0.027481 -0.005449
# 6 -0.002055 -0.003448 0.002384 0.002232 -0.005449 0.042994
#
#
# Mechanical properties :
#
#
# Convention : Reuss Voigt Hill
#
# Bulk Modulus (GPa) = 52.70394 80.10735 66.40565
# Shear Modulus (GPa) = 29.79962 36.19269 32.99616
#
# Velocity S-wave (km/s) = 3.81007 4.19892 4.00921
# Velocity P-wave (km/s) = 6.71042 7.90768 7.33353
#
# Compressibility (1/GPa) = 0.01897391
#
# Stress axis : x y z
#
# Youngs Moduli (GPa) = 120.13782 70.90504 110.66407
#
# Poissons Ratio (x) = 0.17253 0.15323
# Poissons Ratio (y) = 0.29233 0.26857
# Poissons Ratio (z) = 0.16634 0.17208
#
# Static dielectric constant tensor:
#      x y z
#    x 4.691690 0.182360 -0.156420 
#    y 0.182360 3.240590 -0.016380 
#    z -0.156420 -0.016380 3.879050 
# 
# 
# High freq. dielectric constant tensor:
#      x y z
#    x 1.819210 0.016810 0.002440 
#    y 0.016810 1.756580 0.006610 
#    z 0.002440 0.006610 1.821630 
# 
# From -- ./inp_files/553255.got.cif
#   From: 2010.06.25/outbox.cif.g09.slc.cpg/sg2_277_cif.got.tgz:553255.got - 2010.06.27 13:26:56.
