data_PCOD8015141
_publ_section_title
;
Structure prediction by ZEFSAII (Michael W. Deem and Ramdas Pophale) SiO2 
 PCOD8015141
Probable space group: P -1
;
_chemical_formula_sum "Si O2"
_cell_formula_units_Z 14
_cell_length_a 11.382909
_cell_length_b 7.922056
_cell_length_c 10.268404
_cell_angle_alpha 47.548379
_cell_angle_beta 97.413656
_cell_angle_gamma 69.989318
_cell_volume 548.641998
_symmetry_space_group_name_H-M "P -1"
_symmetry_group_IT_number 2
_symmetry_cell_setting 'triclinic'
loop_
_space_group_symop_operation_xyz
x,y,z
-x,-y,-z
loop_
_atom_site_type_symbol
_atom_site_label
_atom_site_fract_x
_atom_site_fract_y
_atom_site_fract_z
Si Si1 0.009591 0.102444 0.694898
Si Si2 0.814511 0.706677 0.490230
Si Si3 0.035489 0.602591 0.080770
Si Si4 0.393147 0.956873 0.432928
Si Si5 0.552541 0.759602 0.316147
Si Si6 0.745451 0.730298 0.995500
Si Si7 0.243328 0.711157 0.614631
O O1 0.918451 0.395883 0.604960
O O2 0.914398 0.083132 0.580688
O O3 0.141174 0.083354 0.649337
O O4 0.063611 0.840304 0.935465
O O5 0.650660 0.857341 0.336715
O O6 0.831704 0.645041 0.681506
O O7 0.879163 0.735939 0.066442
O O8 0.000000 0.500000 0.000000
O O9 0.488576 0.707268 0.466388
O O10 0.314330 0.878852 0.568296
O O11 0.500000 0.000000 0.500000
O O12 0.270889 0.236355 0.183202
O O13 0.647092 0.502342 0.369264
O O14 0.407073 0.023355 0.084431
O O15 0.771522 0.433834 0.186984
#
# Coordination Sequence:
#
# PCOD8015141 Si02
#       7
#     2   2   2   2   2   2   2
#     4  10  21  42  66  90 128 164 207 268 309 366
#     4  10  22  41  64  97 125 161 211 261 314 368
#     4  12  25  41  64  92 126 172 217 249 315 378
#     4  10  23  39  61  87 131 160 203 249 309 366
#     4   9  22  40  64  96 126 157 207 258 310 370
#     4  10  23  41  64  92 123 163 208 256 308 369
#     4  11  19  42  69  90 122 165 207 260 312 365
#
# _framework density 25.517548999999999
#
# number of rings (size 3 to 8) (size 9 to 14) (size 15 to 20)
#    0.857    0.857    2.857    1.286    2.000    1.143 
#    5.143    0.000    0.000    0.000    0.000    0.000 
#    0.000    0.000    0.000    0.000    0.000    0.000 
#
# Total GULP energy -173475.235795 kJ/mol
# GULP energy per Si atom -12391.088271 kJ/mol
# Density = 2.545947 g / cm^3
# Si number density = 25.517549 Si / 1000 Ang^3
#
#
#
# Elastic Constant Matrix: (Units=GPa)
#
#
# Indices 1 2 3 4 5 6 
#
# 1 143.8525 15.1265 74.9186 -10.3127 -33.2273 39.3829
# 2 15.1265 23.1969 8.7488 5.6632 -6.0402 7.5252
# 3 74.9186 8.7488 120.9102 -4.7675 -20.7560 16.5750
# 4 -10.3127 5.6632 -4.7675 30.9625 3.7481 -0.5715
# 5 -33.2273 -6.0402 -20.7560 3.7481 60.9102 2.9489
# 6 39.3829 7.5252 16.5750 -0.5715 2.9489 38.4091
#
#
#
# Elastic Compliance Matrix: (Units=1/GPa)
#
#
# Indices 1 2 3 4 5 6 
#
# 1 0.016380 -0.002841 -0.006735 0.003862 0.006789 -0.013796
# 2 -0.002841 0.051456 -0.000636 -0.011122 0.004379 -0.007396
# 3 -0.006735 -0.000636 0.012317 -0.000247 0.000394 0.001681
# 4 0.003862 -0.011122 -0.000247 0.035709 -0.001227 -0.001048
# 5 0.006789 0.004379 0.000394 -0.001227 0.021232 -0.009637
# 6 -0.013796 -0.007396 0.001681 -0.001048 -0.009637 0.041629
#
#
# Mechanical properties :
#
#
# Convention : Reuss Voigt Hill
#
# Bulk Modulus (GPa) = 16.74199 53.94971 35.34585
# Shear Modulus (GPa) = 22.82527 38.66740 30.74633
#
# Velocity S-wave (km/s) = 2.99405 3.89694 3.47495
# Velocity P-wave (km/s) = 4.30438 6.43710 5.47558
#
# Compressibility (1/GPa) = 0.05973007
#
# Stress axis : x y z
#
# Youngs Moduli (GPa) = 61.05166 19.43396 81.18788
#
# Poissons Ratio (x) = 0.05520 0.54678
# Poissons Ratio (y) = 0.17342 0.05165
# Poissons Ratio (z) = 0.41117 0.01236
#
# Static dielectric constant tensor:
#      x y z
#    x 5.714670 -0.259440 0.094350 
#    y -0.259440 4.503080 0.074040 
#    z 0.094350 0.074040 4.436210 
# 
# 
# High freq. dielectric constant tensor:
#      x y z
#    x 2.053250 -0.020900 -0.002730 
#    y -0.020900 2.019550 -0.000940 
#    z -0.002730 -0.000940 2.000340 
# 
# From -- ./inp_files/416160.got.cif
#   From: 2010.06.25/outbox.cif.g09.slc.cpg/sg2_209_cif.got.tgz:416160.got - 2010.06.27 13:26:56.
