data_PCOD8015970
_publ_section_title
;
Structure prediction by ZEFSAII (Michael W. Deem and Ramdas Pophale) SiO2 
 PCOD8015970
Probable space group: P -1
;
_chemical_formula_sum "Si O2"
_cell_formula_units_Z 16
_cell_length_a 21.258509
_cell_length_b 22.255356
_cell_length_c 5.488133
_cell_angle_alpha 100.973371
_cell_angle_beta 110.794285
_cell_angle_gamma 18.706947
_cell_volume 680.135211
_symmetry_space_group_name_H-M "P -1"
_symmetry_group_IT_number 2
_symmetry_cell_setting 'triclinic'
loop_
_space_group_symop_operation_xyz
x,y,z
-x,-y,-z
loop_
_atom_site_type_symbol
_atom_site_label
_atom_site_fract_x
_atom_site_fract_y
_atom_site_fract_z
Si Si1 0.532954 0.023999 0.869975
Si Si2 0.163072 0.776638 0.385238
Si Si3 0.332515 0.318341 0.952284
Si Si4 0.869867 0.970450 0.751022
Si Si5 0.684415 0.226165 0.347001
Si Si6 0.416700 0.317143 0.569003
Si Si7 0.743423 0.416747 0.320619
Si Si8 0.887373 0.646927 0.779776
O O1 0.317621 0.210446 0.529132
O O2 0.779715 0.798322 0.897414
O O3 0.533869 0.090147 0.045907
O O4 0.500000 0.000000 0.000000
O O5 0.332518 0.688004 0.524643
O O6 0.302028 0.602225 0.584017
O O7 0.921801 0.007603 0.356834
O O8 0.091292 0.812524 0.052764
O O9 0.361413 0.328788 0.254355
O O10 0.347609 0.345334 0.749320
O O11 0.077182 0.508406 0.745774
O O12 0.991666 0.818947 0.607172
O O13 0.690784 0.176269 0.549519
O O14 0.701484 0.079913 0.788695
O O15 0.456498 0.406920 0.022471
O O16 0.269091 0.508812 0.492895
O O17 0.000000 0.500000 0.000000
#
# Coordination Sequence:
#
# PCOD8015970 Si02
#       8
#     2   2   2   2   2   2   2   2
#     4  11  25  45  80 113 150 183 233 302 365 419
#     4  10  22  40  72 103 134 180 244 308 377 437
#     4  12  28  48  76 108 147 199 244 291 352 440
#     4  11  25  44  70  97 144 189 239 305 369 427
#     4  10  21  43  68 105 138 176 241 313 379 436
#     4  12  29  49  69 103 152 198 251 292 349 436
#     4  11  25  44  71  96 141 193 238 302 372 430
#     4  11  24  47  78 113 153 185 232 296 370 418
#
# _framework density 23.524730999999999
#
# number of rings (size 3 to 8) (size 9 to 14) (size 15 to 20)
#    0.000    1.000    2.500    2.625    8.750    2.500 
#    0.000    0.000    0.000    0.000    0.000    0.000 
#    0.000    0.000    0.000    0.000    0.000    0.000 
#
# Total GULP energy -198413.989935 kJ/mol
# GULP energy per Si atom -12400.874371 kJ/mol
# Density = 2.347119 g / cm^3
# Si number density = 23.524731 Si / 1000 Ang^3
#
#
#
# Elastic Constant Matrix: (Units=GPa)
#
#
# Indices 1 2 3 4 5 6 
#
# 1 121.6245 71.1135 35.0588 4.2057 -15.2358 -0.8998
# 2 71.1135 136.6391 35.7574 15.0209 -1.1678 29.1124
# 3 35.0588 35.7574 114.4249 4.8184 -19.5674 5.0530
# 4 4.2057 15.0209 4.8184 38.2671 5.2885 4.3289
# 5 -15.2358 -1.1678 -19.5674 5.2885 35.8660 7.1764
# 6 -0.8998 29.1124 5.0530 4.3289 7.1764 33.0601
#
#
#
# Elastic Compliance Matrix: (Units=1/GPa)
#
#
# Indices 1 2 3 4 5 6 
#
# 1 0.014096 -0.008575 -0.001417 0.000701 0.003366 0.007329
# 2 -0.008575 0.015283 -0.001613 -0.003269 -0.000981 -0.012803
# 3 -0.001417 -0.001613 0.010754 -0.001196 0.005656 -0.001333
# 4 0.000701 -0.003269 -0.001196 0.028089 -0.004687 0.000420
# 5 0.003366 -0.000981 0.005656 -0.004687 0.034410 -0.006764
# 6 0.007329 -0.012803 -0.001333 0.000420 -0.006764 0.043339
#
#
# Mechanical properties :
#
#
# Convention : Reuss Voigt Hill
#
# Bulk Modulus (GPa) = 59.09375 72.94977 66.02176
# Shear Modulus (GPa) = 28.60066 36.82258 32.71162
#
# Velocity S-wave (km/s) = 3.49057 3.96064 3.73301
# Velocity P-wave (km/s) = 6.43582 7.21060 6.83420
#
# Compressibility (1/GPa) = 0.01692226
#
# Stress axis : x y z
#
# Youngs Moduli (GPa) = 70.94215 65.43391 92.98960
#
# Poissons Ratio (x) = 0.56112 0.13174
# Poissons Ratio (y) = 0.60835 0.15000
# Poissons Ratio (z) = 0.10050 0.10555
#
# Static dielectric constant tensor:
#      x y z
#    x 4.332000 0.152800 0.027020 
#    y 0.152800 4.690310 0.101970 
#    z 0.027020 0.101970 4.037930 
# 
# 
# High freq. dielectric constant tensor:
#      x y z
#    x 1.925940 0.004690 -0.006050 
#    y 0.004690 1.960650 0.006720 
#    z -0.006050 0.006720 1.923890 
# 
# From -- ./inp_files/11422.got.cif
#   From: 2010.06.25/outbox.cif.g09.slc.cpg/sg2_6_cif.got.tgz:11422.got - 2010.06.27 13:26:56.
