data_PCOD8015115
_publ_section_title
;
Structure prediction by ZEFSAII (Michael W. Deem and Ramdas Pophale) SiO2 
 PCOD8015115
Probable space group: P -1
;
_chemical_formula_sum "Si O2"
_cell_formula_units_Z 12
_cell_length_a 9.498711
_cell_length_b 8.724515
_cell_length_c 21.101922
_cell_angle_alpha 149.960356
_cell_angle_beta 143.087572
_cell_angle_gamma 44.334926
_cell_volume 524.218230
_symmetry_space_group_name_H-M "P -1"
_symmetry_group_IT_number 2
_symmetry_cell_setting 'triclinic'
loop_
_space_group_symop_operation_xyz
x,y,z
-x,-y,-z
loop_
_atom_site_type_symbol
_atom_site_label
_atom_site_fract_x
_atom_site_fract_y
_atom_site_fract_z
Si Si1 0.986738 0.249763 0.030702
Si Si2 0.422714 0.087816 0.280960
Si Si3 0.486093 0.181181 0.124992
Si Si4 0.762007 0.676049 0.453038
Si Si5 0.318054 0.245105 0.847669
Si Si6 0.601392 0.258824 0.542257
O O1 0.773765 0.159652 0.876248
O O2 0.935758 0.581733 0.165629
O O3 0.216704 0.265636 0.076984
O O4 0.000000 0.000000 0.000000
O O5 0.495478 0.149541 0.399741
O O6 0.313392 0.399451 0.316414
O O7 0.658104 0.951116 0.279060
O O8 0.626443 0.487685 0.283334
O O9 0.618618 0.976740 0.151705
O O10 0.500000 0.000000 0.000000
O O11 0.607656 0.727411 0.478138
O O12 0.000000 0.500000 0.500000
O O13 0.802446 0.003231 0.549869
O O14 0.500000 0.500000 0.000000
#
# Coordination Sequence:
#
# PCOD8015115 Si02
#       6
#     2   2   2   2   2   2
#     4  11  22  41  72 101 137 179 221 297 342 397
#     4  10  21  44  71 104 132 179 238 285 346 403
#     4  12  27  44  68 107 139 179 234 282 349 413
#     4  11  26  47  67  96 142 188 224 283 357 412
#     4  10  21  42  66 101 137 171 227 283 343 405
#     4  10  23  46  69  96 140 177 236 285 336 431
#
# _framework density 22.89123
#
# number of rings (size 3 to 8) (size 9 to 14) (size 15 to 20)
#    0.000    1.333    5.000    0.000    7.000    4.667 
#    0.000    1.667    0.000    0.000    0.000    0.000 
#    0.000    0.000    0.000    0.000    0.000    0.000 
#
# Total GULP energy -148717.273986 kJ/mol
# GULP energy per Si atom -12393.106165 kJ/mol
# Density = 2.283913 g / cm^3
# Si number density = 22.891230 Si / 1000 Ang^3
#
#
#
# Elastic Constant Matrix: (Units=GPa)
#
#
# Indices 1 2 3 4 5 6 
#
# 1 78.5571 32.6993 51.9475 1.0200 -19.7928 -17.6904
# 2 32.6993 136.6413 30.0746 21.0144 -5.1562 -19.2950
# 3 51.9475 30.0746 127.0046 18.1580 -20.1022 -11.8965
# 4 1.0200 21.0144 18.1580 28.5622 0.9161 0.8737
# 5 -19.7928 -5.1562 -20.1022 0.9161 44.8767 4.9675
# 6 -17.6904 -19.2950 -11.8965 0.8737 4.9675 43.2549
#
#
#
# Elastic Compliance Matrix: (Units=1/GPa)
#
#
# Indices 1 2 3 4 5 6 
#
# 1 0.021454 -0.003648 -0.007639 0.006480 0.005009 0.004340
# 2 -0.003648 0.009642 0.000477 -0.007348 -0.000485 0.003145
# 3 -0.007639 0.000477 0.012457 -0.008086 0.002386 0.000404
# 4 0.006480 -0.007348 -0.008086 0.045503 -0.002147 -0.003524
# 5 0.005009 -0.000485 0.002386 -0.002147 0.025594 -0.000408
# 6 0.004340 0.003145 0.000404 -0.003524 -0.000408 0.026526
#
#
# Mechanical properties :
#
#
# Convention : Reuss Voigt Hill
#
# Bulk Modulus (GPa) = 45.59018 63.51621 54.55319
# Shear Modulus (GPa) = 29.39326 38.50420 33.94873
#
# Velocity S-wave (km/s) = 3.58724 4.10573 3.85521
# Velocity P-wave (km/s) = 6.09237 7.09107 6.61060
#
# Compressibility (1/GPa) = 0.02193455
#
# Stress axis : x y z
#
# Youngs Moduli (GPa) = 46.61040 103.71169 80.27766
#
# Poissons Ratio (x) = 0.37831 0.61322
# Poissons Ratio (y) = 0.17002 -0.03829
# Poissons Ratio (z) = 0.35604 -0.04947
#
# Static dielectric constant tensor:
#      x y z
#    x 4.193780 -0.184370 0.157800 
#    y -0.184370 4.637440 0.321170 
#    z 0.157800 0.321170 4.793420 
# 
# 
# High freq. dielectric constant tensor:
#      x y z
#    x 1.895380 -0.001120 -0.008690 
#    y -0.001120 1.911110 0.020780 
#    z -0.008690 0.020780 1.920260 
# 
# From -- ./inp_files/297125.got.cif
#   From: 2010.06.25/outbox.cif.g09.slc.cpg/sg2_149_cif.got.tgz:297125.got - 2010.06.27 13:26:56.
