data_PCOD8015386
_publ_section_title
;
Structure prediction by ZEFSAII (Michael W. Deem and Ramdas Pophale) SiO2 
 PCOD8015386
Probable space group: P -1
;
_chemical_formula_sum "Si O2"
_cell_formula_units_Z 16
_cell_length_a 19.851119
_cell_length_b 8.527952
_cell_length_c 12.346987
_cell_angle_alpha 40.911015
_cell_angle_beta 130.367065
_cell_angle_gamma 148.823347
_cell_volume 708.621438
_symmetry_space_group_name_H-M "P -1"
_symmetry_group_IT_number 2
_symmetry_cell_setting 'triclinic'
loop_
_space_group_symop_operation_xyz
x,y,z
-x,-y,-z
loop_
_atom_site_type_symbol
_atom_site_label
_atom_site_fract_x
_atom_site_fract_y
_atom_site_fract_z
Si Si1 0.535043 0.334225 0.059697
Si Si2 0.982012 0.699563 0.950434
Si Si3 0.773729 0.761401 0.935162
Si Si4 0.718421 0.181687 0.070594
Si Si5 0.506754 0.914724 0.432196
Si Si6 0.741513 0.846258 0.442471
Si Si7 0.009461 0.264570 0.567752
Si Si8 0.733951 0.036273 0.567330
O O1 0.567983 0.206429 0.252693
O O2 0.500000 0.500000 0.000000
O O3 0.664948 0.643015 0.965693
O O4 0.416478 0.017537 0.024339
O O5 0.007267 0.010472 0.762645
O O6 0.833886 0.395132 0.993539
O O7 0.000000 0.500000 0.000000
O O8 0.083340 0.885108 0.058265
O O9 0.758816 0.838504 0.758991
O O10 0.754398 0.440413 0.067486
O O11 0.701591 0.897193 0.263322
O O12 0.360242 0.566824 0.425724
O O13 0.500000 0.000000 0.500000
O O14 0.597069 0.860859 0.558639
O O15 0.884830 0.016232 0.488212
O O16 0.732328 0.001720 0.454846
O O17 0.000000 0.500000 0.500000
O O18 0.146366 0.543638 0.499863
#
# Coordination Sequence:
#
# PCOD8015386 Si02
#       8
#     2   2   2   2   2   2   2   2
#     4  12  25  44  65  96 134 172 220 280 340 399
#     4  12  26  44  67 101 139 177 221 284 346 398
#     4  12  24  43  69  98 131 177 226 276 333 403
#     4  12  24  43  69  98 131 177 226 276 333 403
#     4  12  25  42  63  92 130 172 212 264 329 397
#     4  11  23  42  66  95 127 168 219 273 325 389
#     4  10  21  42  68  95 128 171 218 270 325 396
#     4  11  23  42  66  95 127 168 219 273 325 389
#
# _framework density 22.579052000000001
#
# number of rings (size 3 to 8) (size 9 to 14) (size 15 to 20)
#    0.000    0.500    0.000   10.875    0.000    2.000 
#    0.000    1.875    0.000    0.000    0.000    0.000 
#    0.000    0.000    0.000    0.000    0.000    0.000 
#
# Total GULP energy -198394.292783 kJ/mol
# GULP energy per Si atom -12399.643299 kJ/mol
# Density = 2.252766 g / cm^3
# Si number density = 22.579052 Si / 1000 Ang^3
#
#
#
# Elastic Constant Matrix: (Units=GPa)
#
#
# Indices 1 2 3 4 5 6 
#
# 1 76.9959 23.5262 6.6176 -3.3008 1.5470 -2.3214
# 2 23.5262 113.8714 9.6880 6.3177 0.7670 15.7800
# 3 6.6176 9.6880 124.5649 0.3344 -0.8439 -1.1048
# 4 -3.3008 6.3177 0.3344 40.5370 2.1051 -1.2863
# 5 1.5470 0.7670 -0.8439 2.1051 36.1240 -8.7924
# 6 -2.3214 15.7800 -1.1048 -1.2863 -8.7924 38.3610
#
#
#
# Elastic Compliance Matrix: (Units=1/GPa)
#
#
# Indices 1 2 3 4 5 6 
#
# 1 0.014180 -0.003294 -0.000483 0.001749 -0.000107 0.002234
# 2 -0.003294 0.010299 -0.000671 -0.001960 -0.001143 -0.004783
# 3 -0.000483 -0.000671 0.008113 -0.000003 0.000362 0.000563
# 4 0.001749 -0.001960 -0.000003 0.025223 -0.001139 0.001497
# 5 -0.000107 -0.001143 0.000362 -0.001139 0.029540 0.007207
# 6 0.002234 -0.004783 0.000563 0.001497 0.007207 0.029889
#
#
# Mechanical properties :
#
#
# Convention : Reuss Voigt Hill
#
# Bulk Modulus (GPa) = 42.20078 43.89953 43.05016
# Shear Modulus (GPa) = 37.30244 41.37776 39.34010
#
# Velocity S-wave (km/s) = 4.06899 4.28550 4.17865
# Velocity P-wave (km/s) = 6.38799 6.63115 6.51070
#
# Compressibility (1/GPa) = 0.02369624
#
# Stress axis : x y z
#
# Youngs Moduli (GPa) = 70.52066 97.09866 123.25562
#
# Poissons Ratio (x) = 0.31988 0.05950
# Poissons Ratio (y) = 0.23232 0.08269
# Poissons Ratio (z) = 0.03404 0.06514
#
# Static dielectric constant tensor:
#      x y z
#    x 3.636220 -1.958070 0.321920 
#    y -1.958070 -9.518580 1.492460 
#    z 0.321920 1.492460 3.785060 
# 
# 
# High freq. dielectric constant tensor:
#      x y z
#    x 1.881800 0.018070 0.000990 
#    y 0.018070 1.907160 -0.002580 
#    z 0.000990 -0.002580 1.901720 
# 
# From -- ./inp_files/469775.got.cif
#   From: 2010.06.25/outbox.cif.g09.slc.cpg/sg2_235_cif.got.tgz:469775.got - 2010.06.27 13:26:56.
