data_PCOD8015832
_publ_section_title
;
Structure prediction by ZEFSAII (Michael W. Deem and Ramdas Pophale) SiO2 
 PCOD8015832
Probable space group: P -1
;
_chemical_formula_sum "Si O2"
_cell_formula_units_Z 14
_cell_length_a 14.055573
_cell_length_b 20.197472
_cell_length_c 11.927838
_cell_angle_alpha 23.166191
_cell_angle_beta 146.944765
_cell_angle_gamma 150.422989
_cell_volume 644.414937
_symmetry_space_group_name_H-M "P -1"
_symmetry_group_IT_number 2
_symmetry_cell_setting 'triclinic'
loop_
_space_group_symop_operation_xyz
x,y,z
-x,-y,-z
loop_
_atom_site_type_symbol
_atom_site_label
_atom_site_fract_x
_atom_site_fract_y
_atom_site_fract_z
Si Si1 0.216993 0.278328 0.638115
Si Si2 0.442574 0.127341 0.664380
Si Si3 0.198182 0.917489 0.541821
Si Si4 0.790104 0.484953 0.326132
Si Si5 0.345118 0.431912 0.172626
Si Si6 0.239593 0.257270 0.930037
Si Si7 0.351552 0.627382 0.091225
O O1 0.110662 0.208443 0.764449
O O2 0.291853 0.501353 0.341241
O O3 0.409545 0.242020 0.874670
O O4 0.037491 0.152517 0.572762
O O5 0.631059 0.292934 0.528634
O O6 0.322225 0.218884 0.470901
O O7 0.291560 0.976922 0.663247
O O8 0.500000 0.000000 0.000000
O O9 0.244990 0.758017 0.782970
O O10 0.292461 0.093738 0.275513
O O11 0.840053 0.676038 0.146646
O O12 0.000000 0.500000 0.500000
O O13 0.718254 0.502608 0.104871
O O14 0.572504 0.564225 0.209992
O O15 0.255724 0.476246 0.127794
#
# Coordination Sequence:
#
# PCOD8015832 Si02
#       7
#     2   2   2   2   2   2   2
#     4  10  24  42  64  96 134 173 218 270 341 393
#     4  11  25  44  68  97 135 177 225 280 337 391
#     4  12  23  42  67  97 130 172 223 273 331 393
#     4  11  23  42  70  95 135 179 225 272 343 403
#     4  10  21  47  64  91 135 176 215 273 341 391
#     4  10  21  43  66  92 130 174 218 271 324 405
#     4  10  25  42  67  94 134 174 219 274 329 404
#
# _framework density 21.725133
#
# number of rings (size 3 to 8) (size 9 to 14) (size 15 to 20)
#    0.000    1.429    2.857    1.714   10.000    4.571 
#    0.000    1.429    0.000    0.000    0.000    0.000 
#    0.000    0.000    0.000    0.000    0.000    0.000 
#
# Total GULP energy -173444.487932 kJ/mol
# GULP energy per Si atom -12388.891995 kJ/mol
# Density = 2.167569 g / cm^3
# Si number density = 21.725133 Si / 1000 Ang^3
#
#
#
# Elastic Constant Matrix: (Units=GPa)
#
#
# Indices 1 2 3 4 5 6 
#
# 1 80.2041 36.9286 58.7625 4.5800 -1.6498 -25.0824
# 2 36.9286 98.9170 40.4364 16.0508 -5.1097 -10.5228
# 3 58.7625 40.4364 161.5088 3.5369 -13.5164 -26.6262
# 4 4.5800 16.0508 3.5369 30.6752 -9.5384 4.2784
# 5 -1.6498 -5.1097 -13.5164 -9.5384 32.8522 2.5968
# 6 -25.0824 -10.5228 -26.6262 4.2784 2.5968 25.2732
#
#
#
# Elastic Compliance Matrix: (Units=1/GPa)
#
#
# Indices 1 2 3 4 5 6 
#
# 1 0.023864 -0.004519 -0.004861 -0.004437 -0.004205 0.017864
# 2 -0.004519 0.013527 -0.001543 -0.006546 -0.000714 0.000703
# 3 -0.004861 -0.001543 0.009218 0.000973 0.003295 0.003741
# 4 -0.004437 -0.006546 0.000973 0.042552 0.012669 -0.014609
# 5 -0.004205 -0.000714 0.003295 0.012669 0.035689 -0.006810
# 6 0.017864 0.000703 0.003741 -0.014609 -0.006810 0.064704
#
#
# Mechanical properties :
#
#
# Convention : Reuss Voigt Hill
#
# Bulk Modulus (GPa) = 40.38212 68.09832 54.24022
# Shear Modulus (GPa) = 22.76307 31.39363 27.07835
#
# Velocity S-wave (km/s) = 3.24045 3.80549 3.53428
# Velocity P-wave (km/s) = 5.71216 7.12197 6.45566
#
# Compressibility (1/GPa) = 0.02476344
#
# Stress axis : x y z
#
# Youngs Moduli (GPa) = 41.90469 73.92406 108.48685
#
# Poissons Ratio (x) = 0.33405 0.52732
# Poissons Ratio (y) = 0.18936 0.16741
# Poissons Ratio (z) = 0.20369 0.11408
#
# Static dielectric constant tensor:
#      x y z
#    x 3.882120 -0.038190 -0.025280 
#    y -0.038190 3.743990 -0.023030 
#    z -0.025280 -0.023030 3.962560 
# 
# 
# High freq. dielectric constant tensor:
#      x y z
#    x 1.841370 -0.016450 -0.014080 
#    y -0.016450 1.857640 0.007760 
#    z -0.014080 0.007760 1.863900 
# 
# From -- ./inp_files/204138.got.cif
#   From: 2010.06.25/outbox.cif.g09.slc.cpg/sg2_103_cif.got.tgz:204138.got - 2010.06.27 13:26:56.
