data_PCOD8015933
_publ_section_title
;
Structure prediction by ZEFSAII (Michael W. Deem and Ramdas Pophale) SiO2 
 PCOD8015933
Probable space group: P -1
;
_chemical_formula_sum "Si O2"
_cell_formula_units_Z 14
_cell_length_a 14.857393
_cell_length_b 18.290754
_cell_length_c 8.264004
_cell_angle_alpha 79.136956
_cell_angle_beta 89.831138
_cell_angle_gamma 159.856292
_cell_volume 643.188959
_symmetry_space_group_name_H-M "P -1"
_symmetry_group_IT_number 2
_symmetry_cell_setting 'triclinic'
loop_
_space_group_symop_operation_xyz
x,y,z
-x,-y,-z
loop_
_atom_site_type_symbol
_atom_site_label
_atom_site_fract_x
_atom_site_fract_y
_atom_site_fract_z
Si Si1 0.179213 0.645701 0.107269
Si Si2 0.188263 0.782542 0.668191
Si Si3 0.139722 0.038304 0.903270
Si Si4 0.840995 0.209159 0.956958
Si Si5 0.734802 0.701090 0.769465
Si Si6 0.221545 0.382944 0.766455
Si Si7 0.192493 0.390444 0.388550
O O1 0.064457 0.480958 0.268511
O O2 0.554162 0.941789 0.978096
O O3 0.090877 0.656287 0.183256
O O4 0.000000 0.500000 0.000000
O O5 0.233029 0.833544 0.837057
O O6 0.098758 0.789805 0.583008
O O7 0.500000 0.000000 0.500000
O O8 0.507199 0.326814 0.789208
O O9 0.054235 0.975921 0.738691
O O10 0.000000 0.000000 0.000000
O O11 0.009335 0.863826 0.069603
O O12 0.141074 0.394454 0.860845
O O13 0.579617 0.644021 0.687686
O O14 0.809149 0.689539 0.665402
O O15 0.500000 0.500000 0.000000
O O16 0.174464 0.360136 0.589324
#
# Coordination Sequence:
#
# PCOD8015933 Si02
#       7
#     2   2   2   2   2   2   2
#     4   9  21  42  69  91 127 173 229 275 337 387
#     4  11  25  43  67  98 138 176 227 282 334 400
#     4  11  23  43  71  94 136 180 215 275 341 393
#     4  10  22  44  68  94 134 176 224 278 341 395
#     4  10  21  43  67  96 135 170 215 273 332 398
#     4  11  24  43  69 100 137 172 225 276 329 411
#     4  12  25  44  66 101 134 177 226 273 335 400
#
# _framework density 21.766542999999999
#
# number of rings (size 3 to 8) (size 9 to 14) (size 15 to 20)
#    0.000    1.429    2.857    3.000    6.000    1.143 
#    5.143    0.000    0.000    0.000    0.000    0.000 
#    0.000    0.000    0.000    0.000    0.000    0.000 
#
# Total GULP energy -173509.200417 kJ/mol
# GULP energy per Si atom -12393.514315 kJ/mol
# Density = 2.171700 g / cm^3
# Si number density = 21.766543 Si / 1000 Ang^3
#
#
#
# Elastic Constant Matrix: (Units=GPa)
#
#
# Indices 1 2 3 4 5 6 
#
# 1 147.9532 6.9203 40.0207 2.5631 -19.1310 14.4345
# 2 6.9203 67.4830 15.8175 2.8577 0.1766 4.5760
# 3 40.0207 15.8175 85.7065 18.7881 -13.9430 1.0008
# 4 2.5631 2.8577 18.7881 28.6667 2.9320 1.5653
# 5 -19.1310 0.1766 -13.9430 2.9320 38.5874 0.4504
# 6 14.4345 4.5760 1.0008 1.5653 0.4504 40.9102
#
#
#
# Elastic Compliance Matrix: (Units=1/GPa)
#
#
# Indices 1 2 3 4 5 6 
#
# 1 0.008400 0.000164 -0.003839 0.001637 0.002687 -0.002980
# 2 0.000164 0.015669 -0.003331 0.000828 -0.001236 -0.001747
# 3 -0.003839 -0.003331 0.017397 -0.011355 0.005241 0.001678
# 4 0.001637 0.000828 -0.011355 0.042871 -0.006530 -0.001961
# 5 0.002687 -0.001236 0.005241 -0.006530 0.029655 -0.001015
# 6 -0.002980 -0.001747 0.001678 -0.001961 -0.001015 0.025736
#
#
# Mechanical properties :
#
#
# Convention : Reuss Voigt Hill
#
# Bulk Modulus (GPa) = 36.42438 47.40667 41.91552
# Shear Modulus (GPa) = 30.69533 37.52514 34.11023
#
# Velocity S-wave (km/s) = 3.75935 4.15659 3.96295
# Velocity P-wave (km/s) = 5.96775 6.69800 6.34339
#
# Compressibility (1/GPa) = 0.02745414
#
# Stress axis : x y z
#
# Youngs Moduli (GPa) = 119.05369 63.82010 57.47985
#
# Poissons Ratio (x) = -0.01049 0.22069
# Poissons Ratio (y) = -0.01956 0.19145
# Poissons Ratio (z) = 0.45710 0.21257
#
# Static dielectric constant tensor:
#      x y z
#    x 4.358050 0.167920 0.065190 
#    y 0.167920 4.410680 0.062830 
#    z 0.065190 0.062830 3.634590 
# 
# 
# High freq. dielectric constant tensor:
#      x y z
#    x 1.878300 0.004810 -0.003870 
#    y 0.004810 1.861910 0.009430 
#    z -0.003870 0.009430 1.832450 
# 
# From -- ./inp_files/317687.got.cif
#   From: 2010.06.25/outbox.cif.g09.slc.cpg/sg2_159_cif.got.tgz:317687.got - 2010.06.27 13:26:56.
