data_PCOD8015169
_publ_section_title
;
Structure prediction by ZEFSAII (Michael W. Deem and Ramdas Pophale) SiO2 
 PCOD8015169
Probable space group: P -1
;
_chemical_formula_sum "Si O2"
_cell_formula_units_Z 16
_cell_length_a 15.752976
_cell_length_b 15.803914
_cell_length_c 9.143782
_cell_angle_alpha 132.107115
_cell_angle_beta 47.819618
_cell_angle_gamma 152.732570
_cell_volume 754.434478
_symmetry_space_group_name_H-M "P -1"
_symmetry_group_IT_number 2
_symmetry_cell_setting 'triclinic'
loop_
_space_group_symop_operation_xyz
x,y,z
-x,-y,-z
loop_
_atom_site_type_symbol
_atom_site_label
_atom_site_fract_x
_atom_site_fract_y
_atom_site_fract_z
Si Si1 0.692884 0.671488 0.064252
Si Si2 0.678645 0.918899 0.392477
Si Si3 0.745463 0.380405 0.445151
Si Si4 0.232128 0.503819 0.757749
Si Si5 0.896154 0.261306 0.052859
Si Si6 0.299152 0.329386 0.605800
Si Si7 0.009603 0.279153 0.256057
Si Si8 0.332301 0.103707 0.285286
O O1 0.751107 0.849546 0.192055
O O2 0.670613 0.620584 0.200415
O O3 0.500000 0.500000 0.000000
O O4 0.857399 0.724019 0.865224
O O5 0.461414 0.762114 0.412316
O O6 0.690040 0.959222 0.597001
O O7 0.806987 0.106473 0.368846
O O8 0.783719 0.494453 0.395518
O O9 0.764336 0.263957 0.244639
O O10 0.895392 0.530612 0.571086
O O11 0.173812 0.327080 0.667994
O O12 0.444326 0.707689 0.798345
O O13 0.068028 0.444300 0.962696
O O14 0.983858 0.271861 0.105492
O O15 0.761018 0.060760 0.903491
O O16 0.500000 0.500000 0.500000
O O17 0.225797 0.142317 0.442177
#
# Coordination Sequence:
#
# PCOD8015169 Si02
#       8
#     2   2   2   2   2   2   2   2
#     4  11  21  41  67  93 132 164 208 262 322 382
#     4  10  23  43  64  95 127 169 213 258 321 380
#     4  11  25  44  66  89 131 178 211 260 314 374
#     4  10  21  42  66  93 126 165 218 263 317 370
#     4  12  25  41  64  98 127 169 220 259 315 378
#     4   9  19  38  64  97 123 159 206 262 323 368
#     4  12  25  42  63  96 129 169 213 262 316 382
#     4   9  22  41  64  93 128 167 207 269 318 370
#
# _framework density 21.207937999999999
#
# number of rings (size 3 to 8) (size 9 to 14) (size 15 to 20)
#    0.000    1.500    2.500    2.625    0.000    7.000 
#    2.250    0.000    0.000    0.000    0.000    0.000 
#    0.000    0.000    0.000    0.000    0.000    0.000 
#
# Total GULP energy -198395.693376 kJ/mol
# GULP energy per Si atom -12399.730836 kJ/mol
# Density = 2.115967 g / cm^3
# Si number density = 21.207938 Si / 1000 Ang^3
#
#
#
# Elastic Constant Matrix: (Units=GPa)
#
#
# Indices 1 2 3 4 5 6 
#
# 1 69.8506 29.1039 26.6548 12.7293 0.9057 4.2746
# 2 29.1039 115.9604 53.7632 -4.3677 14.1689 3.3216
# 3 26.6548 53.7632 105.3738 17.5176 3.2388 2.3875
# 4 12.7293 -4.3677 17.5176 46.0319 8.0518 2.6578
# 5 0.9057 14.1689 3.2388 8.0518 32.7494 2.3123
# 6 4.2746 3.3216 2.3875 2.6578 2.3123 16.8195
#
#
#
# Elastic Compliance Matrix: (Units=1/GPa)
#
#
# Indices 1 2 3 4 5 6 
#
# 1 0.017719 -0.004206 -0.001516 -0.005059 0.002940 -0.003062
# 2 -0.004206 0.013956 -0.006884 0.006332 -0.006742 -0.000783
# 3 -0.001516 -0.006884 0.014322 -0.006246 0.003120 0.000270
# 4 -0.005059 0.006332 -0.006246 0.027744 -0.008642 -0.002274
# 5 0.002940 -0.006742 0.003120 -0.008642 0.035424 -0.003363
# 6 -0.003062 -0.000783 0.000270 -0.002274 -0.003363 0.061171
#
#
# Mechanical properties :
#
#
# Convention : Reuss Voigt Hill
#
# Bulk Modulus (GPa) = 48.11360 56.69207 52.40283
# Shear Modulus (GPa) = 24.69431 31.23104 27.96267
#
# Velocity S-wave (km/s) = 3.41602 3.84162 3.63506
# Velocity P-wave (km/s) = 6.18828 6.81667 6.51006
#
# Compressibility (1/GPa) = 0.02078414
#
# Stress axis : x y z
#
# Youngs Moduli (GPa) = 56.43799 71.65497 69.82241
#
# Poissons Ratio (x) = 0.30141 0.10583
# Poissons Ratio (y) = 0.23740 0.48066
# Poissons Ratio (z) = 0.08554 0.49327
#
# Static dielectric constant tensor:
#      x y z
#    x 3.872900 -0.016310 -0.214570 
#    y -0.016310 3.681800 -0.102300 
#    z -0.214570 -0.102300 3.984290 
# 
# 
# High freq. dielectric constant tensor:
#      x y z
#    x 1.830220 0.001310 -0.004770 
#    y 0.001310 1.827310 -0.009350 
#    z -0.004770 -0.009350 1.836490 
# 
# From -- ./inp_files/272052.got.cif
#   From: 2010.06.25/outbox.cif.g09.slc.cpg/sg2_137_cif.got.tgz:272052.got - 2010.06.27 13:26:56.
