data_PCOD8015269
_publ_section_title
;
Structure prediction by ZEFSAII (Michael W. Deem and Ramdas Pophale) SiO2 
 PCOD8015269
Probable space group: P -1
;
_chemical_formula_sum "Si O2"
_cell_formula_units_Z 16
_cell_length_a 8.923508
_cell_length_b 12.228680
_cell_length_c 18.048396
_cell_angle_alpha 30.927870
_cell_angle_beta 130.870588
_cell_angle_gamma 127.700361
_cell_volume 759.025704
_symmetry_space_group_name_H-M "P -1"
_symmetry_group_IT_number 2
_symmetry_cell_setting 'triclinic'
loop_
_space_group_symop_operation_xyz
x,y,z
-x,-y,-z
loop_
_atom_site_type_symbol
_atom_site_label
_atom_site_fract_x
_atom_site_fract_y
_atom_site_fract_z
Si Si1 0.203268 0.818983 0.051602
Si Si2 0.426689 0.273724 0.864196
Si Si3 0.386021 0.980766 0.397535
Si Si4 0.456051 0.762822 0.910521
Si Si5 0.205023 0.558007 0.346499
Si Si6 0.120076 0.579406 0.564698
Si Si7 0.765446 0.674624 0.946863
Si Si8 0.448371 0.203010 0.585977
O O1 0.395950 0.722926 0.139242
O O2 0.172315 0.743612 0.170099
O O3 0.003576 0.740001 0.986636
O O4 0.249690 0.075955 0.912628
O O5 0.330417 0.486571 0.692347
O O6 0.525788 0.271472 0.977218
O O7 0.174508 0.834572 0.426309
O O8 0.519684 0.874969 0.441572
O O9 0.500000 0.000000 0.500000
O O10 0.335095 0.211772 0.219859
O O11 0.670118 0.750298 0.948166
O O12 0.387302 0.995440 0.738898
O O13 0.285986 0.581397 0.929180
O O14 0.273481 0.353186 0.445524
O O15 0.352720 0.655253 0.402129
O O16 0.995747 0.477322 0.363848
O O17 0.000000 0.500000 0.500000
#
# Coordination Sequence:
#
# PCOD8015269 Si02
#       8
#     2   2   2   2   2   2   2   2
#     4  11  24  40  62  97 131 168 215 269 328 380
#     4  11  24  39  63  93 129 170 217 269 322 384
#     4  11  23  43  66  96 134 172 212 268 325 389
#     4  10  21  42  67  92 127 169 213 264 320 395
#     4  11  23  40  66  94 132 168 216 272 321 386
#     4  12  24  39  65  95 124 170 226 267 319 388
#     4  10  23  41  65  96 131 169 214 263 326 389
#     4  10  22  41  65  95 130 172 211 267 331 380
#
# _framework density 21.079654999999999
#
# number of rings (size 3 to 8) (size 9 to 14) (size 15 to 20)
#    0.000    1.250    2.500    3.000    3.500    4.500 
#    0.000    3.750    0.000    0.000    0.000    0.000 
#    0.000    0.000    0.000    0.000    0.000    0.000 
#
# Total GULP energy -198472.736559 kJ/mol
# GULP energy per Si atom -12404.546035 kJ/mol
# Density = 2.103168 g / cm^3
# Si number density = 21.079655 Si / 1000 Ang^3
#
#
#
# Elastic Constant Matrix: (Units=GPa)
#
#
# Indices 1 2 3 4 5 6 
#
# 1 82.0294 24.7177 25.1667 0.9843 -12.7594 3.9026
# 2 24.7177 91.9399 18.2207 1.2093 0.1076 3.0584
# 3 25.1667 18.2207 76.2823 -3.8669 -5.5383 -1.7921
# 4 0.9843 1.2093 -3.8669 40.5111 -4.6028 -9.5014
# 5 -12.7594 0.1076 -5.5383 -4.6028 34.6030 1.9836
# 6 3.9026 3.0584 -1.7921 -9.5014 1.9836 34.9571
#
#
#
# Elastic Compliance Matrix: (Units=1/GPa)
#
#
# Indices 1 2 3 4 5 6 
#
# 1 0.015281 -0.003250 -0.003975 -0.000564 0.005052 -0.002065
# 2 -0.003250 0.012197 -0.002027 -0.000888 -0.001624 -0.000957
# 3 -0.003975 -0.002027 0.015144 0.002184 0.001144 0.001926
# 4 -0.000564 -0.000888 0.002184 0.027050 0.003317 0.007417
# 5 0.005052 -0.001624 0.001144 0.003317 0.031463 -0.001247
# 6 -0.002065 -0.000957 0.001926 0.007417 -0.001247 0.031106
#
#
# Mechanical properties :
#
#
# Convention : Reuss Voigt Hill
#
# Bulk Modulus (GPa) = 41.46301 42.94018 42.20160
# Shear Modulus (GPa) = 31.48933 34.15734 32.82333
#
# Velocity S-wave (km/s) = 3.86920 4.02978 3.95030
# Velocity P-wave (km/s) = 6.29867 6.48589 6.39297
#
# Compressibility (1/GPa) = 0.02411788
#
# Stress axis : x y z
#
# Youngs Moduli (GPa) = 65.44281 81.98409 66.03330
#
# Poissons Ratio (x) = 0.26645 0.26250
# Poissons Ratio (y) = 0.21269 0.13382
# Poissons Ratio (z) = 0.26016 0.16615
#
# Static dielectric constant tensor:
#      x y z
#    x 3.776700 -0.035130 -0.059530 
#    y -0.035130 3.675330 -0.153180 
#    z -0.059530 -0.153180 4.006300 
# 
# 
# High freq. dielectric constant tensor:
#      x y z
#    x 1.823880 -0.002930 -0.016630 
#    y -0.002930 1.820570 -0.009740 
#    z -0.016630 -0.009740 1.837540 
# 
# From -- ./inp_files/462409.got.cif
#   From: 2010.06.25/outbox.cif.g09.slc.cpg/sg2_232_cif.got.tgz:462409.got - 2010.06.27 13:26:56.
