data_PCOD8015455
_publ_section_title
;
Structure prediction by ZEFSAII (Michael W. Deem and Ramdas Pophale) SiO2 
 PCOD8015455
Probable space group: P -1
;
_chemical_formula_sum "Si O2"
_cell_formula_units_Z 16
_cell_length_a 12.162648
_cell_length_b 12.008097
_cell_length_c 10.879666
_cell_angle_alpha 122.719290
_cell_angle_beta 140.831073
_cell_angle_gamma 48.740809
_cell_volume 753.017070
_symmetry_space_group_name_H-M "P -1"
_symmetry_group_IT_number 2
_symmetry_cell_setting 'triclinic'
loop_
_space_group_symop_operation_xyz
x,y,z
-x,-y,-z
loop_
_atom_site_type_symbol
_atom_site_label
_atom_site_fract_x
_atom_site_fract_y
_atom_site_fract_z
Si Si1 0.316782 0.134433 0.533576
Si Si2 0.787626 0.792657 0.924647
Si Si3 0.224502 0.362070 0.944799
Si Si4 0.308331 0.644586 0.886074
Si Si5 0.425514 0.881757 0.036786
Si Si6 0.012480 0.608822 0.477022
Si Si7 0.800012 0.330812 0.921328
Si Si8 0.512512 0.193126 0.527408
O O1 0.496326 0.085721 0.751071
O O2 0.345724 0.237080 0.514591
O O3 0.120625 0.224055 0.492020
O O4 0.330784 0.977781 0.407463
O O5 0.608905 0.782798 0.690170
O O6 0.721714 0.950852 0.033243
O O7 0.852119 0.665247 0.008265
O O8 0.979682 0.762159 0.993626
O O9 0.409455 0.209114 0.974531
O O10 0.045279 0.414618 0.723564
O O11 0.283832 0.495436 0.082757
O O12 0.228953 0.590636 0.666952
O O13 0.500000 0.500000 0.000000
O O14 0.319607 0.785753 0.927132
O O15 0.178086 0.692511 0.925937
O O16 0.000000 0.500000 0.500000
O O17 0.640759 0.283215 0.697575
#
# Coordination Sequence:
#
# PCOD8015455 Si02
#       8
#     2   2   2   2   2   2   2   2
#     4   9  19  39  61  95 128 157 209 270 326 378
#     4  11  26  44  64  93 136 178 215 258 322 394
#     4  11  24  46  63  92 131 175 219 263 320 388
#     4  12  22  39  64 103 127 156 219 273 329 380
#     4  10  21  42  69  91 126 170 213 273 325 372
#     4  11  22  37  67  91 122 165 212 275 323 366
#     4  12  24  40  68  95 133 167 218 268 319 387
#     4  10  22  39  64  93 131 169 204 263 327 385
#
# _framework density 21.247858000000001
#
# number of rings (size 3 to 8) (size 9 to 14) (size 15 to 20)
#    0.000    1.250    3.750    2.250    1.750    1.000 
#    2.250    0.625    0.000    0.000    0.000    0.000 
#    0.000    0.000    0.000    0.000    0.000    0.000 
#
# Total GULP energy -198234.496397 kJ/mol
# GULP energy per Si atom -12389.656025 kJ/mol
# Density = 2.119950 g / cm^3
# Si number density = 21.247858 Si / 1000 Ang^3
#
#
#
# Elastic Constant Matrix: (Units=GPa)
#
#
# Indices 1 2 3 4 5 6 
#
# 1 85.0138 18.7326 47.9917 3.6472 1.8005 19.4208
# 2 18.7326 81.1710 63.0282 18.6476 3.5742 14.7789
# 3 47.9917 63.0282 124.8932 7.2511 15.7313 10.6515
# 4 3.6472 18.6476 7.2511 29.5506 7.9806 0.3802
# 5 1.8005 3.5742 15.7313 7.9806 25.3414 -1.4504
# 6 19.4208 14.7789 10.6515 0.3802 -1.4504 35.5655
#
#
#
# Elastic Compliance Matrix: (Units=1/GPa)
#
#
# Indices 1 2 3 4 5 6 
#
# 1 0.017916 0.005506 -0.009201 -0.004547 0.004574 -0.009081
# 2 0.005506 0.029029 -0.016260 -0.017762 0.010654 -0.009576
# 3 -0.009201 -0.016260 0.020317 0.009702 -0.012429 0.005086
# 4 -0.004547 -0.017762 0.009702 0.048014 -0.017989 0.005711
# 5 0.004574 0.010654 -0.012429 -0.017989 0.050961 -0.000932
# 6 -0.009081 -0.009576 0.005086 0.005711 -0.000932 0.035432
#
#
# Mechanical properties :
#
#
# Convention : Reuss Voigt Hill
#
# Bulk Modulus (GPa) = 36.55906 61.17591 48.86749
# Shear Modulus (GPa) = 19.94444 28.84654 24.39549
#
# Velocity S-wave (km/s) = 3.06707 3.68859 3.39210
# Velocity P-wave (km/s) = 5.45765 6.85529 6.19600
#
# Compressibility (1/GPa) = 0.02735300
#
# Stress axis : x y z
#
# Youngs Moduli (GPa) = 55.81533 34.44798 49.22085
#
# Poissons Ratio (x) = -0.18968 0.45288
# Poissons Ratio (y) = -0.30733 0.80032
# Poissons Ratio (z) = 0.51356 0.56011
#
# Static dielectric constant tensor:
#      x y z
#    x 4.130260 -0.173890 0.493790 
#    y -0.173890 3.976650 -0.067550 
#    z 0.493790 -0.067550 4.527880 
# 
# 
# High freq. dielectric constant tensor:
#      x y z
#    x 1.819430 -0.006670 0.001710 
#    y -0.006670 1.849940 0.009050 
#    z 0.001710 0.009050 1.823920 
# 
# From -- ./inp_files/426559.got.cif
#   From: 2010.06.25/outbox.cif.g09.slc.cpg/sg2_214_cif.got.tgz:426559.got - 2010.06.27 13:26:56.
