data_PCOD8015395
_publ_section_title
;
Structure prediction by ZEFSAII (Michael W. Deem and Ramdas Pophale) SiO2 
 PCOD8015395
Probable space group: P -1
;
_chemical_formula_sum "Si O2"
_cell_formula_units_Z 16
_cell_length_a 21.373114
_cell_length_b 5.500126
_cell_length_c 10.016795
_cell_angle_alpha 44.584967
_cell_angle_beta 54.449629
_cell_angle_gamma 72.339326
_cell_volume 659.753271
_symmetry_space_group_name_H-M "P -1"
_symmetry_group_IT_number 2
_symmetry_cell_setting 'triclinic'
loop_
_space_group_symop_operation_xyz
x,y,z
-x,-y,-z
loop_
_atom_site_type_symbol
_atom_site_label
_atom_site_fract_x
_atom_site_fract_y
_atom_site_fract_z
Si Si1 0.100821 0.223131 0.174806
Si Si2 0.487679 0.738890 0.240820
Si Si3 0.833297 0.432762 0.566473
Si Si4 0.571032 0.237952 0.173637
Si Si5 0.197514 0.578029 0.683157
Si Si6 0.663384 0.764193 0.387390
Si Si7 0.312451 0.270828 0.334019
Si Si8 0.945928 0.773759 0.485478
O O1 0.106283 0.358052 0.267250
O O2 0.144001 0.887609 0.252436
O O3 0.143721 0.523246 0.903260
O O4 0.007753 0.141254 0.284629
O O5 0.519217 0.379574 0.298373
O O6 0.395611 0.601641 0.436907
O O7 0.525068 0.928221 0.255223
O O8 0.500000 0.000000 0.000000
O O9 0.855474 0.430937 0.381966
O O10 0.740557 0.429930 0.693780
O O11 0.885809 0.786821 0.431290
O O12 0.643011 0.097021 0.205468
O O13 0.610342 0.579935 0.905824
O O14 0.247537 0.265980 0.742758
O O15 0.257975 0.944873 0.458400
O O16 0.654501 0.841438 0.524254
O O17 0.000000 0.500000 0.500000
#
# Coordination Sequence:
#
# PCOD8015395 Si02
#       8
#     2   2   2   2   2   2   2   2
#     4  10  21  42  68  96 131 179 221 284 338 415
#     4  12  25  47  74 101 139 183 233 293 351 411
#     4  10  22  42  63  97 133 178 223 285 343 410
#     4  12  27  45  74 100 138 188 230 294 348 414
#     4  11  25  41  68  97 138 175 233 282 344 415
#     4  11  26  44  67 101 133 179 231 280 347 414
#     4  11  25  42  65  96 137 179 225 286 340 415
#     4   9  20  40  68  95 133 171 226 275 343 411
#
# _framework density 24.251491999999999
#
# number of rings (size 3 to 8) (size 9 to 14) (size 15 to 20)
#    0.000    1.250    1.250    3.375    5.250    6.500 
#    0.000    8.750    0.000    0.000    0.000    0.000 
#    0.000    0.000    0.000    0.000    0.000    0.000 
#
# Total GULP energy -198373.455816 kJ/mol
# GULP energy per Si atom -12398.340989 kJ/mol
# Density = 2.419629 g / cm^3
# Si number density = 24.251492 Si / 1000 Ang^3
#
#
#
# Elastic Constant Matrix: (Units=GPa)
#
#
# Indices 1 2 3 4 5 6 
#
# 1 117.3134 30.3473 24.8086 10.2648 10.3575 36.1973
# 2 30.3473 91.0682 20.2270 10.0661 -0.3300 34.8037
# 3 24.8086 20.2270 87.4988 20.8435 -3.5069 23.7662
# 4 10.2648 10.0661 20.8435 31.0419 -2.0234 5.5434
# 5 10.3575 -0.3300 -3.5069 -2.0234 32.1212 2.8276
# 6 36.1973 34.8037 23.7662 5.5434 2.8276 45.1711
#
#
#
# Elastic Compliance Matrix: (Units=1/GPa)
#
#
# Indices 1 2 3 4 5 6 
#
# 1 0.011812 -0.000373 -0.000618 -0.002085 -0.003273 -0.008392
# 2 -0.000373 0.015893 0.000451 -0.003136 0.001180 -0.011873
# 3 -0.000618 0.000451 0.015668 -0.009065 0.001969 -0.007107
# 4 -0.002085 -0.003136 -0.009065 0.039427 0.001790 0.003906
# 5 -0.003273 0.001180 0.001969 0.001790 0.032667 -0.001588
# 6 -0.008392 -0.011873 -0.007107 0.003906 -0.001588 0.041370
#
#
# Mechanical properties :
#
#
# Convention : Reuss Voigt Hill
#
# Bulk Modulus (GPa) = 23.64414 49.62735 36.63575
# Shear Modulus (GPa) = 29.06705 36.36669 32.71687
#
# Velocity S-wave (km/s) = 3.46579 3.87662 3.67695
# Velocity P-wave (km/s) = 5.07802 6.36755 5.75899
#
# Compressibility (1/GPa) = 0.04229378
#
# Stress axis : x y z
#
# Youngs Moduli (GPa) = 84.65845 62.91921 63.82277
#
# Poissons Ratio (x) = 0.02348 0.03944
# Poissons Ratio (y) = 0.03159 -0.02879
# Poissons Ratio (z) = 0.05231 -0.02838
#
# Static dielectric constant tensor:
#      x y z
#    x 5.001860 0.184350 -0.163830 
#    y 0.184350 4.536750 0.133830 
#    z -0.163830 0.133830 4.093320 
# 
# 
# High freq. dielectric constant tensor:
#      x y z
#    x 1.978700 -0.001470 0.004420 
#    y -0.001470 1.968410 0.013410 
#    z 0.004420 0.013410 1.943610 
# 
# From -- ./inp_files/139187.got.cif
#   From: 2010.06.25/outbox.cif.g09.slc.cpg/sg2_70_cif.got.tgz:139187.got - 2010.06.27 13:26:56.
