data_PCOD8015296
_publ_section_title
;
Structure prediction by ZEFSAII (Michael W. Deem and Ramdas Pophale) SiO2 
 PCOD8015296
Probable space group: P -1
;
_chemical_formula_sum "Si O2"
_cell_formula_units_Z 14
_cell_length_a 18.054835
_cell_length_b 9.018488
_cell_length_c 22.525971
_cell_angle_alpha 27.521462
_cell_angle_beta 23.345276
_cell_angle_gamma 26.777355
_cell_volume 606.718324
_symmetry_space_group_name_H-M "P -1"
_symmetry_group_IT_number 2
_symmetry_cell_setting 'triclinic'
loop_
_space_group_symop_operation_xyz
x,y,z
-x,-y,-z
loop_
_atom_site_type_symbol
_atom_site_label
_atom_site_fract_x
_atom_site_fract_y
_atom_site_fract_z
Si Si1 0.423840 0.299341 0.400135
Si Si2 0.295862 0.794633 0.420716
Si Si3 0.175783 0.868105 0.000935
Si Si4 0.190715 0.195908 0.758276
Si Si5 0.615788 0.078235 0.065647
Si Si6 0.909522 0.379771 0.553918
Si Si7 0.415793 0.820919 0.077605
O O1 0.325369 0.683039 0.368792
O O2 0.249246 0.291603 0.486033
O O3 0.500000 0.000000 0.500000
O O4 0.633666 0.207020 0.241193
O O5 0.290291 0.476586 0.578095
O O6 0.484764 0.895444 0.260657
O O7 0.085951 0.140479 0.463428
O O8 0.003281 0.713673 0.176141
O O9 0.174724 0.025177 0.012284
O O10 0.408039 0.569654 0.926861
O O11 0.119618 0.187989 0.880970
O O12 0.500000 0.500000 0.000000
O O13 0.658516 0.955010 0.009035
O O14 0.787382 0.171542 0.744868
O O15 0.000000 0.500000 0.500000
O O16 0.500000 0.000000 0.000000
#
# Coordination Sequence:
#
# PCOD8015296 Si02
#       7
#     2   2   2   2   2   2   2
#     4  10  23  43  67  99 138 176 227 282 338 406
#     4  11  24  43  70 101 133 184 230 273 343 412
#     4  10  21  42  67  94 140 174 226 278 347 396
#     4  10  22  42  72  97 134 186 225 280 339 416
#     4  10  23  41  63  99 133 172 220 290 333 395
#     4  12  24  42  69 101 135 175 228 282 339 404
#     4  11  22  39  68  96 134 172 224 277 342 407
#
# _framework density 23.074960000000001
#
# number of rings (size 3 to 8) (size 9 to 14) (size 15 to 20)
#    0.000    1.429    1.429    3.857    0.000    8.571 
#    2.571    0.714    0.000    0.000    0.000    0.000 
#    0.000    0.000    0.000    0.000    0.000    0.000 
#
# Total GULP energy -173435.321946 kJ/mol
# GULP energy per Si atom -12388.237282 kJ/mol
# Density = 2.302244 g / cm^3
# Si number density = 23.074960 Si / 1000 Ang^3
#
#
#
# Elastic Constant Matrix: (Units=GPa)
#
#
# Indices 1 2 3 4 5 6 
#
# 1 215.3882 38.5298 63.0524 -5.2100 -22.4441 -10.4463
# 2 38.5298 56.2018 23.3158 10.4899 -4.6458 2.3066
# 3 63.0524 23.3158 126.1516 -17.8079 -12.9696 -3.7478
# 4 -5.2100 10.4899 -17.8079 36.8182 0.7533 -1.5134
# 5 -22.4441 -4.6458 -12.9696 0.7533 38.6892 1.4078
# 6 -10.4463 2.3066 -3.7478 -1.5134 1.4078 28.2570
#
#
#
# Elastic Compliance Matrix: (Units=1/GPa)
#
#
# Indices 1 2 3 4 5 6 
#
# 1 0.006249 -0.003514 -0.002023 0.000950 0.002424 0.002259
# 2 -0.003514 0.023842 -0.004136 -0.009462 -0.000222 -0.004290
# 3 -0.002023 -0.004136 0.010788 0.006125 0.001781 0.001260
# 4 0.000950 -0.009462 0.006125 0.033090 0.000690 0.003674
# 5 0.002424 -0.000222 0.001781 0.000690 0.027817 -0.000198
# 6 0.002259 -0.004290 0.001260 0.003674 -0.000198 0.036948
#
#
# Mechanical properties :
#
#
# Convention : Reuss Voigt Hill
#
# Bulk Modulus (GPa) = 46.44376 71.94861 59.19618
# Shear Modulus (GPa) = 30.25551 38.94246 34.59898
#
# Velocity S-wave (km/s) = 3.62496 4.11256 3.87643
# Velocity P-wave (km/s) = 6.13934 7.33477 6.76352
#
# Compressibility (1/GPa) = 0.02153142
#
# Stress axis : x y z
#
# Youngs Moduli (GPa) = 160.02929 41.94287 92.69673
#
# Poissons Ratio (x) = 0.14740 0.18755
# Poissons Ratio (y) = 0.56238 0.38340
# Poissons Ratio (z) = 0.32379 0.17348
#
# Static dielectric constant tensor:
#      x y z
#    x 5.303980 0.595810 0.404630 
#    y 0.595810 4.369820 0.409420 
#    z 0.404630 0.409420 4.293910 
# 
# 
# High freq. dielectric constant tensor:
#      x y z
#    x 1.929840 0.004750 0.004670 
#    y 0.004750 1.885040 0.011320 
#    z 0.004670 0.011320 1.912080 
# 
# From -- ./inp_files/158076.got.cif
#   From: 2010.06.25/outbox.cif.g09.slc.cpg/sg2_80_cif.got.tgz:158076.got - 2010.06.27 13:26:56.
