data_PCOD8015317
_publ_section_title
;
Structure prediction by ZEFSAII (Michael W. Deem and Ramdas Pophale) SiO2 
 PCOD8015317
Probable space group: P -1
;
_chemical_formula_sum "Si O2"
_cell_formula_units_Z 16
_cell_length_a 16.001339
_cell_length_b 8.722870
_cell_length_c 10.865101
_cell_angle_alpha 64.834954
_cell_angle_beta 36.534846
_cell_angle_gamma 52.381187
_cell_volume 708.226584
_symmetry_space_group_name_H-M "P -1"
_symmetry_group_IT_number 2
_symmetry_cell_setting 'triclinic'
loop_
_space_group_symop_operation_xyz
x,y,z
-x,-y,-z
loop_
_atom_site_type_symbol
_atom_site_label
_atom_site_fract_x
_atom_site_fract_y
_atom_site_fract_z
Si Si1 0.496719 0.777283 0.839041
Si Si2 0.329515 0.886767 0.262994
Si Si3 0.219193 0.591741 0.450377
Si Si4 0.975486 0.707365 0.493673
Si Si5 0.106686 0.357060 0.818673
Si Si6 0.372461 0.935936 0.450028
Si Si7 0.992543 0.171180 0.830625
Si Si8 0.712528 0.082424 0.195511
O O1 0.623655 0.545460 0.772824
O O2 0.360788 0.816900 0.882791
O O3 0.590667 0.887723 0.646647
O O4 0.426929 0.841798 0.036370
O O5 0.233461 0.769309 0.429296
O O6 0.444181 0.821153 0.274308
O O7 0.212043 0.121413 0.330903
O O8 0.208268 0.452623 0.612121
O O9 0.055064 0.699231 0.531731
O O10 0.000000 0.500000 0.500000
O O11 0.069801 0.748970 0.259948
O O12 0.984513 0.340407 0.871628
O O13 0.233015 0.146480 0.798448
O O14 0.000000 0.500000 0.000000
O O15 0.419060 0.821878 0.566696
O O16 0.180908 0.013458 0.647200
O O17 0.875310 0.089041 0.039402
#
# Coordination Sequence:
#
# PCOD8015317 Si02
#       8
#     2   2   2   2   2   2   2   2
#     4  12  24  46  68  99 139 185 223 274 342 406
#     4  11  26  40  70 101 133 179 228 282 333 407
#     4  12  24  43  66 100 143 175 225 280 340 396
#     4  11  22  43  68  99 132 172 226 283 340 393
#     4  11  24  38  67 102 135 173 227 283 332 401
#     4  10  21  43  66  94 131 175 222 274 334 394
#     4  10  21  42  67  97 127 174 222 278 334 396
#     4  11  24  42  70  97 135 178 225 273 347 393
#
# _framework density 22.591640999999999
#
# number of rings (size 3 to 8) (size 9 to 14) (size 15 to 20)
#    0.000    1.000    3.750    4.500    7.000    0.000 
#    0.000    1.875    0.000    0.000    0.000    0.000 
#    0.000    0.000    0.000    0.000    0.000    0.000 
#
# Total GULP energy -198215.498972 kJ/mol
# GULP energy per Si atom -12388.468686 kJ/mol
# Density = 2.254022 g / cm^3
# Si number density = 22.591641 Si / 1000 Ang^3
#
#
#
# Elastic Constant Matrix: (Units=GPa)
#
#
# Indices 1 2 3 4 5 6 
#
# 1 76.8459 -2.9342 26.7222 10.6385 25.8759 3.3370
# 2 -2.9342 76.6492 28.1911 -0.7619 6.2815 13.2504
# 3 26.7222 28.1911 99.5264 -2.6782 24.3976 3.4083
# 4 10.6385 -0.7619 -2.6782 34.3689 12.1421 -0.7219
# 5 25.8759 6.2815 24.3976 12.1421 46.1872 -1.0207
# 6 3.3370 13.2504 3.4083 -0.7219 -1.0207 30.0699
#
#
#
# Elastic Compliance Matrix: (Units=1/GPa)
#
#
# Indices 1 2 3 4 5 6 
#
# 1 0.017543 0.003198 -0.003732 -0.003047 -0.007563 -0.003263
# 2 0.003198 0.016300 -0.004910 -0.000666 -0.001395 -0.007044
# 3 -0.003732 -0.004910 0.013908 0.004148 -0.005658 0.000909
# 4 -0.003047 -0.000666 0.004148 0.033618 -0.009217 0.000656
# 5 -0.007563 -0.001395 -0.005658 -0.009217 0.031555 0.002945
# 6 -0.003263 -0.007044 0.000909 0.000656 0.002945 0.036735
#
#
# Mechanical properties :
#
#
# Convention : Reuss Voigt Hill
#
# Bulk Modulus (GPa) = 27.12834 39.66442 33.39638
# Shear Modulus (GPa) = 28.92917 35.52804 32.22861
#
# Velocity S-wave (km/s) = 3.58233 3.96993 3.78110
# Velocity P-wave (km/s) = 5.39861 6.21361 5.82039
#
# Compressibility (1/GPa) = 0.03686182
#
# Stress axis : x y z
#
# Youngs Moduli (GPa) = 57.00245 61.34830 71.90028
#
# Poissons Ratio (x) = -0.19618 0.26836
# Poissons Ratio (y) = -0.18228 0.35306
# Poissons Ratio (z) = 0.21275 0.30125
#
# Static dielectric constant tensor:
#      x y z
#    x 4.397880 0.008390 0.470380 
#    y 0.008390 3.961850 -0.256130 
#    z 0.470380 -0.256130 4.433940 
# 
# 
# High freq. dielectric constant tensor:
#      x y z
#    x 1.904450 0.009570 0.020410 
#    y 0.009570 1.872360 -0.024280 
#    z 0.020410 -0.024280 1.893560 
# 
# From -- ./inp_files/461980.got.cif
#   From: 2010.06.25/outbox.cif.g09.slc.cpg/sg2_231_cif.got.tgz:461980.got - 2010.06.27 13:26:56.
