data_PCOD8015648
_publ_section_title
;
Structure prediction by ZEFSAII (Michael W. Deem and Ramdas Pophale) SiO2 
 PCOD8015648
Probable space group: P -1
;
_chemical_formula_sum "Si O2"
_cell_formula_units_Z 14
_cell_length_a 8.704063
_cell_length_b 8.863202
_cell_length_c 9.335221
_cell_angle_alpha 89.097416
_cell_angle_beta 84.760140
_cell_angle_gamma 120.886073
_cell_volume 613.807818
_symmetry_space_group_name_H-M "P -1"
_symmetry_group_IT_number 2
_symmetry_cell_setting 'triclinic'
loop_
_space_group_symop_operation_xyz
x,y,z
-x,-y,-z
loop_
_atom_site_type_symbol
_atom_site_label
_atom_site_fract_x
_atom_site_fract_y
_atom_site_fract_z
Si Si1 0.904599 0.440296 0.155359
Si Si2 0.453854 0.231027 0.667431
Si Si3 0.860333 0.519994 0.607350
Si Si4 0.659090 0.057416 0.093489
Si Si5 0.192325 0.160816 0.437274
Si Si6 0.809417 0.727973 0.141584
Si Si7 0.151359 0.074164 0.128577
O O1 0.729659 0.250719 0.146353
O O2 0.852325 0.584181 0.201759
O O3 0.046619 0.430718 0.246855
O O4 0.000000 0.500000 0.000000
O O5 0.667996 0.340174 0.626296
O O6 0.353297 0.184525 0.523822
O O7 0.387272 0.334252 0.774672
O O8 0.406462 0.054128 0.754973
O O9 0.826803 0.669784 0.550417
O O10 0.000000 0.500000 0.500000
O O11 0.500000 0.000000 0.000000
O O12 0.799468 0.036387 0.983363
O O13 0.251747 0.140873 0.270932
O O14 0.000000 0.000000 0.500000
O O15 0.816517 0.752724 0.966207
O O16 0.944821 0.926569 0.189431
#
# Coordination Sequence:
#
# PCOD8015648 Si02
#       7
#     2   2   2   2   2   2   2
#     4  12  23  43  73 104 140 181 227 284 354 397
#     4  11  25  47  70  99 141 183 235 282 340 424
#     4  12  29  47  68 102 141 183 229 293 349 408
#     4  11  25  44  70 106 139 176 231 291 340 407
#     4  12  24  44  74 101 136 188 231 277 349 419
#     4  10  21  42  73  98 137 181 230 281 337 411
#     4  10  22  41  71 101 136 180 229 277 341 410
#
# _framework density 22.808443
#
# number of rings (size 3 to 8) (size 9 to 14) (size 15 to 20)
#    0.000    0.857    2.857    3.857    2.000    2.286 
#    0.000    5.714    0.000    0.000    0.000    0.000 
#    0.000    0.000    0.000    0.000    0.000    0.000 
#
# Total GULP energy -173494.125898 kJ/mol
# GULP energy per Si atom -12392.437564 kJ/mol
# Density = 2.275653 g / cm^3
# Si number density = 22.808443 Si / 1000 Ang^3
#
#
#
# Elastic Constant Matrix: (Units=GPa)
#
#
# Indices 1 2 3 4 5 6 
#
# 1 113.8255 50.0475 51.7448 -2.4137 11.7894 21.3823
# 2 50.0475 124.4164 57.8374 -9.3578 7.9913 10.0588
# 3 51.7448 57.8374 157.1919 9.1324 27.3129 16.5385
# 4 -2.4137 -9.3578 9.1324 33.6759 4.5911 7.2572
# 5 11.7894 7.9913 27.3129 4.5911 54.9490 0.6638
# 6 21.3823 10.0588 16.5385 7.2572 0.6638 41.4537
#
#
#
# Elastic Compliance Matrix: (Units=1/GPa)
#
#
# Indices 1 2 3 4 5 6 
#
# 1 0.012348 -0.003323 -0.002223 0.001793 -0.001151 -0.004971
# 2 -0.003323 0.011183 -0.003272 0.003780 0.000402 -0.000362
# 3 -0.002223 -0.003272 0.009168 -0.002847 -0.003352 -0.001165
# 4 0.001793 0.003780 -0.002847 0.033352 -0.002227 -0.006509
# 5 -0.001151 0.000402 -0.003352 -0.002227 0.020217 0.001900
# 6 -0.004971 -0.000362 -0.001165 -0.006509 0.001900 0.028349
#
#
# Mechanical properties :
#
#
# Convention : Reuss Voigt Hill
#
# Bulk Modulus (GPa) = 66.39036 79.41036 72.90036
# Shear Modulus (GPa) = 36.42322 41.73600 39.07961
#
# Velocity S-wave (km/s) = 4.00048 4.28231 4.14379
# Velocity P-wave (km/s) = 7.10700 7.70342 7.41121
#
# Compressibility (1/GPa) = 0.01506243
#
# Stress axis : x y z
#
# Youngs Moduli (GPa) = 80.98311 89.42039 109.07634
#
# Poissons Ratio (x) = 0.29714 0.24251
# Poissons Ratio (y) = 0.26910 0.35691
# Poissons Ratio (z) = 0.18005 0.29260
#
# Static dielectric constant tensor:
#      x y z
#    x 5.042720 -0.739040 -0.590700 
#    y -0.739040 4.417410 0.404450 
#    z -0.590700 0.404450 4.817270 
# 
# 
# High freq. dielectric constant tensor:
#      x y z
#    x 1.900350 -0.001130 0.009010 
#    y -0.001130 1.894310 -0.010650 
#    z 0.009010 -0.010650 1.920950 
# 
# From -- ./inp_files/157855.got.cif
#   From: 2010.06.25/outbox.cif.g09.slc.cpg/sg2_79_cif.got.tgz:157855.got - 2010.06.27 13:26:56.
