data_PCOD8015433
_publ_section_title
;
Structure prediction by ZEFSAII (Michael W. Deem and Ramdas Pophale) SiO2 
 PCOD8015433
Probable space group: P -1
;
_chemical_formula_sum "Si O2"
_cell_formula_units_Z 16
_cell_length_a 8.696032
_cell_length_b 8.579059
_cell_length_c 23.369230
_cell_angle_alpha 33.474532
_cell_angle_beta 51.450479
_cell_angle_gamma 64.860800
_cell_volume 733.586629
_symmetry_space_group_name_H-M "P -1"
_symmetry_group_IT_number 2
_symmetry_cell_setting 'triclinic'
loop_
_space_group_symop_operation_xyz
x,y,z
-x,-y,-z
loop_
_atom_site_type_symbol
_atom_site_label
_atom_site_fract_x
_atom_site_fract_y
_atom_site_fract_z
Si Si1 0.635805 0.806304 0.809892
Si Si2 0.291869 0.092642 0.006039
Si Si3 0.125834 0.756985 0.552069
Si Si4 0.961647 0.489037 0.787468
Si Si5 0.801042 0.415037 0.537219
Si Si6 0.441071 0.212246 0.561821
Si Si7 0.818695 0.396104 0.183614
Si Si8 0.767890 0.643848 0.947829
O O1 0.789132 0.666511 0.781105
O O2 0.696543 0.819424 0.858386
O O3 0.652025 0.122781 0.682790
O O4 0.406833 0.631217 0.909253
O O5 0.187392 0.137747 0.076504
O O6 0.143013 0.848277 0.078853
O O7 0.318266 0.382840 0.872448
O O8 0.500000 0.000000 0.000000
O O9 0.124715 0.590541 0.543640
O O10 0.359791 0.890499 0.473513
O O11 0.040037 0.538880 0.689506
O O12 0.000000 0.000000 0.500000
O O13 0.140558 0.576176 0.765883
O O14 0.682991 0.674113 0.495020
O O15 0.000000 0.500000 0.500000
O O16 0.500000 0.500000 0.500000
O O17 0.295717 0.926931 0.709552
O O18 0.034007 0.472441 0.078124
#
# Coordination Sequence:
#
# PCOD8015433 Si02
#       8
#     2   2   2   2   2   2   2   2
#     4  10  21  42  69 100 141 174 224 283 334 413
#     4  12  26  42  71 102 135 178 230 285 346 401
#     4  11  25  44  70  97 136 184 229 282 345 401
#     4  11  24  45  68 102 142 179 228 280 348 412
#     4  11  23  44  71 101 140 180 229 284 342 409
#     4  10  26  44  69 100 135 179 235 278 342 419
#     4  11  26  49  68  96 145 178 226 290 343 416
#     4  10  23  42  70  99 133 182 225 271 350 400
#
# _framework density 21.810648
#
# number of rings (size 3 to 8) (size 9 to 14) (size 15 to 20)
#    0.000    1.250    2.500    2.250   10.500    1.500 
#    2.250    0.000    0.000    0.000    0.000    0.000 
#    0.000    0.000    0.000    0.000    0.000    0.000 
#
# Total GULP energy -198338.169698 kJ/mol
# GULP energy per Si atom -12396.135606 kJ/mol
# Density = 2.176101 g / cm^3
# Si number density = 21.810648 Si / 1000 Ang^3
#
#
#
# Elastic Constant Matrix: (Units=GPa)
#
#
# Indices 1 2 3 4 5 6 
#
# 1 134.1116 57.1432 58.4533 -6.9599 0.7675 -23.2085
# 2 57.1432 74.6862 45.9274 -2.6602 11.2487 -11.8815
# 3 58.4533 45.9274 144.7661 -7.9462 6.0702 -8.4896
# 4 -6.9599 -2.6602 -7.9462 40.4580 -0.3429 6.9216
# 5 0.7675 11.2487 6.0702 -0.3429 37.4215 -3.3145
# 6 -23.2085 -11.8815 -8.4896 6.9216 -3.3145 50.8060
#
#
#
# Elastic Compliance Matrix: (Units=1/GPa)
#
#
# Indices 1 2 3 4 5 6 
#
# 1 0.012521 -0.007934 -0.002417 0.000571 0.002841 0.003568
# 2 -0.007934 0.022780 -0.003769 -0.000793 -0.006011 0.000789
# 3 -0.002417 -0.003769 0.009123 0.001237 -0.000344 -0.000652
# 4 0.000571 -0.000793 0.001237 0.025553 -0.000023 -0.003201
# 5 0.002841 -0.006011 -0.000344 -0.000023 0.028678 0.001709
# 6 0.003568 0.000789 -0.000652 -0.003201 0.001709 0.021936
#
#
# Mechanical properties :
#
#
# Convention : Reuss Voigt Hill
#
# Bulk Modulus (GPa) = 61.78566 75.17905 68.48236
# Shear Modulus (GPa) = 32.41989 38.53976 35.47983
#
# Velocity S-wave (km/s) = 3.85960 4.20815 4.03764
# Velocity P-wave (km/s) = 6.94635 7.62595 7.29407
#
# Compressibility (1/GPa) = 0.01618498
#
# Stress axis : x y z
#
# Youngs Moduli (GPa) = 79.86314 43.89892 109.60712
#
# Poissons Ratio (x) = 0.34828 0.26497
# Poissons Ratio (y) = 0.63361 0.41307
# Poissons Ratio (z) = 0.19306 0.16544
#
# Static dielectric constant tensor:
#      x y z
#    x 4.481790 -0.164260 -0.069540 
#    y -0.164260 3.961930 0.090500 
#    z -0.069540 0.090500 3.884990 
# 
# 
# High freq. dielectric constant tensor:
#      x y z
#    x 1.875690 -0.006360 0.003230 
#    y -0.006360 1.846570 -0.003340 
#    z 0.003230 -0.003340 1.856950 
# 
# From -- ./inp_files/587719.got.cif
#   From: 2010.06.25/outbox.cif.g09.slc.cpg/sg2_294_cif.got.tgz:587719.got - 2010.06.27 13:26:56.
