data_PCOD8015591
_publ_section_title
;
Structure prediction by ZEFSAII (Michael W. Deem and Ramdas Pophale) SiO2 
 PCOD8015591
Probable space group: P -1
;
_chemical_formula_sum "Si O2"
_cell_formula_units_Z 16
_cell_length_a 17.625020
_cell_length_b 16.234316
_cell_length_c 8.367343
_cell_angle_alpha 33.423075
_cell_angle_beta 137.064358
_cell_angle_gamma 148.234604
_cell_volume 692.144348
_symmetry_space_group_name_H-M "P -1"
_symmetry_group_IT_number 2
_symmetry_cell_setting 'triclinic'
loop_
_space_group_symop_operation_xyz
x,y,z
-x,-y,-z
loop_
_atom_site_type_symbol
_atom_site_label
_atom_site_fract_x
_atom_site_fract_y
_atom_site_fract_z
Si Si1 0.121166 0.048664 0.896157
Si Si2 0.445941 0.992851 0.252836
Si Si3 0.609393 0.517914 0.023838
Si Si4 0.945770 0.341637 0.539207
Si Si5 0.277518 0.829330 0.787536
Si Si6 0.576804 0.697028 0.204779
Si Si7 0.229878 0.611616 0.372112
Si Si8 0.168753 0.056360 0.326438
O O1 0.258474 0.208342 0.739352
O O2 0.987562 0.049633 0.658722
O O3 0.071006 0.836825 0.120706
O O4 0.166524 0.098235 0.069501
O O5 0.553115 0.017998 0.241861
O O6 0.500000 0.000000 0.500000
O O7 0.290613 0.787086 0.306963
O O8 0.425614 0.153107 0.939542
O O9 0.697370 0.482995 0.327995
O O10 0.500000 0.500000 0.000000
O O11 0.519572 0.351565 0.021616
O O12 0.714515 0.731577 0.756989
O O13 0.798404 0.266029 0.346826
O O14 0.000000 0.500000 0.500000
O O15 0.060642 0.440202 0.413447
O O16 0.220898 0.930049 0.626878
O O17 0.252144 0.671470 0.124551
O O18 0.500000 0.500000 0.500000
#
# Coordination Sequence:
#
# PCOD8015591 Si02
#       8
#     2   2   2   2   2   2   2   2
#     4  10  21  45  70  98 135 183 227 287 351 416
#     4  12  24  47  68  98 146 187 231 286 356 418
#     4  12  24  43  72 100 136 187 236 279 353 422
#     4  11  23  44  71 102 139 185 231 283 364 427
#     4  11  26  42  70 106 139 184 236 297 346 410
#     4  12  28  45  70 104 139 182 234 292 351 417
#     4  12  25  44  69 104 138 183 239 289 345 420
#     4  10  21  42  71  99 134 178 234 282 345 411
#
# _framework density 23.116565000000001
#
# number of rings (size 3 to 8) (size 9 to 14) (size 15 to 20)
#    0.000    0.750    3.750    4.500    3.500    0.000 
#    2.250    0.625    0.000    0.000    0.000    0.000 
#    0.000    0.000    0.000    0.000    0.000    0.000 
#
# Total GULP energy -198432.117884 kJ/mol
# GULP energy per Si atom -12402.007368 kJ/mol
# Density = 2.306395 g / cm^3
# Si number density = 23.116565 Si / 1000 Ang^3
#
#
#
# Elastic Constant Matrix: (Units=GPa)
#
#
# Indices 1 2 3 4 5 6 
#
# 1 98.7273 35.3052 35.7126 -8.4560 11.0048 24.8971
# 2 35.3052 93.8082 15.5250 -21.6916 11.0066 14.6859
# 3 35.7126 15.5250 89.8110 -16.0787 3.7874 13.3638
# 4 -8.4560 -21.6916 -16.0787 34.1019 2.7979 -2.0688
# 5 11.0048 11.0066 3.7874 2.7979 35.3191 -8.2163
# 6 24.8971 14.6859 13.3638 -2.0688 -8.2163 56.5086
#
#
#
# Elastic Compliance Matrix: (Units=1/GPa)
#
#
# Indices 1 2 3 4 5 6 
#
# 1 0.014733 -0.003712 -0.004422 -0.000768 -0.004086 -0.005103
# 2 -0.003712 0.015125 0.001226 0.009519 -0.005137 -0.002984
# 3 -0.004422 0.001226 0.014130 0.006359 -0.001415 -0.001685
# 4 -0.000768 0.009519 0.006359 0.038581 -0.007228 -0.003278
# 5 -0.004086 -0.005137 -0.001415 -0.007228 0.033800 0.008120
# 6 -0.005103 -0.002984 -0.001685 -0.003278 0.008120 0.022179
#
#
# Mechanical properties :
#
#
# Convention : Reuss Voigt Hill
#
# Bulk Modulus (GPa) = 33.14448 50.60355 41.87401
# Shear Modulus (GPa) = 30.78422 38.23953 34.51187
#
# Velocity S-wave (km/s) = 3.65320 4.07160 3.86806
# Velocity P-wave (km/s) = 5.67130 6.63642 6.17275
#
# Compressibility (1/GPa) = 0.03017094
#
# Stress axis : x y z
#
# Youngs Moduli (GPa) = 67.87712 66.11569 70.77169
#
# Poissons Ratio (x) = 0.24542 0.31298
# Poissons Ratio (y) = 0.25196 -0.08678
# Poissons Ratio (z) = 0.30018 -0.08107
#
# Static dielectric constant tensor:
#      x y z
#    x 4.161710 -0.177670 0.079950 
#    y -0.177670 6.194700 0.443130 
#    z 0.079950 0.443130 4.164180 
# 
# 
# High freq. dielectric constant tensor:
#      x y z
#    x 1.910090 0.009420 0.012200 
#    y 0.009420 1.932790 -0.009670 
#    z 0.012200 -0.009670 1.899930 
# 
# From -- ./inp_files/244105.got.cif
#   From: 2010.06.25/outbox.cif.g09.slc.cpg/sg2_123_cif.got.tgz:244105.got - 2010.06.27 13:26:56.
