data_PCOD8015463
_publ_section_title
;
Structure prediction by ZEFSAII (Michael W. Deem and Ramdas Pophale) SiO2 
 PCOD8015463
Probable space group: P -1
;
_chemical_formula_sum "Si O2"
_cell_formula_units_Z 16
_cell_length_a 9.166672
_cell_length_b 11.621607
_cell_length_c 17.441410
_cell_angle_alpha 31.013184
_cell_angle_beta 48.945898
_cell_angle_gamma 57.639166
_cell_volume 720.089938
_symmetry_space_group_name_H-M "P -1"
_symmetry_group_IT_number 2
_symmetry_cell_setting 'triclinic'
loop_
_space_group_symop_operation_xyz
x,y,z
-x,-y,-z
loop_
_atom_site_type_symbol
_atom_site_label
_atom_site_fract_x
_atom_site_fract_y
_atom_site_fract_z
Si Si1 0.067914 0.770922 0.643567
Si Si2 0.396179 0.781449 0.195121
Si Si3 0.563237 0.407992 0.448441
Si Si4 0.997282 0.752787 0.379655
Si Si5 0.665223 0.191257 0.323743
Si Si6 0.734210 0.014073 0.239808
Si Si7 0.712188 0.456228 0.921700
Si Si8 0.314139 0.437907 0.302324
O O1 0.213189 0.653806 0.600608
O O2 0.169610 0.815909 0.664983
O O3 0.881737 0.602095 0.824455
O O4 0.000000 0.000000 0.500000
O O5 0.534961 0.613677 0.283257
O O6 0.216278 0.841503 0.279210
O O7 0.282401 0.664565 0.229135
O O8 0.500000 0.000000 0.000000
O O9 0.500000 0.500000 0.500000
O O10 0.439984 0.179571 0.596688
O O11 0.000000 0.500000 0.500000
O O12 0.932620 0.891021 0.248473
O O13 0.831476 0.767924 0.494864
O O14 0.544321 0.411044 0.248505
O O15 0.500000 0.000000 0.500000
O O16 0.737185 0.176813 0.220198
O O17 0.736067 0.188314 0.069364
O O18 0.744439 0.540056 0.776971
O O19 0.500000 0.500000 0.000000
#
# Coordination Sequence:
#
# PCOD8015463 Si02
#       8
#     2   2   2   2   2   2   2   2
#     4  12  27  47  76 110 149 196 251 306 376 443
#     4  11  25  45  69 102 140 187 251 301 367 444
#     4  12  27  46  71 109 151 192 244 311 378 448
#     4  10  21  42  69  93 128 194 238 278 361 449
#     4  12  20  44  78 102 139 194 241 298 366 450
#     4  12  24  45  72 103 149 190 244 301 372 441
#     4  12  28  45  69 114 150 188 249 314 370 433
#     4  11  22  46  72  97 147 189 242 296 370 446
#
# _framework density 22.219445
#
# number of rings (size 3 to 8) (size 9 to 14) (size 15 to 20)
#    0.000    0.500    7.500    1.500    5.250    0.500 
#    2.250    3.125    0.000    0.000    0.000    0.000 
#    0.000    0.000    0.000    0.000    0.000    0.000 
#
# Total GULP energy -198213.397047 kJ/mol
# GULP energy per Si atom -12388.337315 kJ/mol
# Density = 2.216887 g / cm^3
# Si number density = 22.219445 Si / 1000 Ang^3
#
#
#
# Elastic Constant Matrix: (Units=GPa)
#
#
# Indices 1 2 3 4 5 6 
#
# 1 133.5625 54.1125 65.6792 0.8750 0.0833 -17.8602
# 2 54.1125 107.1478 36.4478 6.8870 -5.6984 -15.0584
# 3 65.6792 36.4478 157.1530 -13.7545 -1.1526 -20.6160
# 4 0.8750 6.8870 -13.7545 32.1857 -9.1113 5.7432
# 5 0.0833 -5.6984 -1.1526 -9.1113 42.1202 -2.1240
# 6 -17.8602 -15.0584 -20.6160 5.7432 -2.1240 54.0440
#
#
#
# Elastic Compliance Matrix: (Units=1/GPa)
#
#
# Indices 1 2 3 4 5 6 
#
# 1 0.011156 -0.004167 -0.003668 -0.001468 -0.000941 0.001245
# 2 -0.004167 0.012355 -0.001121 -0.003059 0.001088 0.002006
# 3 -0.003668 -0.001121 0.008707 0.004109 0.001053 0.001402
# 4 -0.001468 -0.003059 0.004109 0.036198 0.007364 -0.003327
# 5 -0.000941 0.001088 0.001053 0.007364 0.025544 0.000616
# 6 0.001245 0.002006 0.001402 -0.003327 0.000616 0.020387
#
#
# Mechanical properties :
#
#
# Convention : Reuss Voigt Hill
#
# Bulk Modulus (GPa) = 69.89497 78.92692 74.41095
# Shear Modulus (GPa) = 36.48936 41.77822 39.13379
#
# Velocity S-wave (km/s) = 4.05684 4.34089 4.20127
# Velocity P-wave (km/s) = 7.31224 7.79251 7.55619
#
# Compressibility (1/GPa) = 0.01430718
#
# Stress axis : x y z
#
# Youngs Moduli (GPa) = 89.63942 80.93960 114.84646
#
# Poissons Ratio (x) = 0.33727 0.42125
# Poissons Ratio (y) = 0.37352 0.12869
# Poissons Ratio (z) = 0.32879 0.09070
#
# Static dielectric constant tensor:
#      x y z
#    x 3.406170 0.282900 0.519530 
#    y 0.282900 4.544370 -0.308400 
#    z 0.519530 -0.308400 3.763670 
# 
# 
# High freq. dielectric constant tensor:
#      x y z
#    x 1.876860 -0.021040 0.007340 
#    y -0.021040 1.882720 -0.003270 
#    z 0.007340 -0.003270 1.869230 
# 
# From -- ./inp_files/559520.got.cif
#   From: 2010.06.25/outbox.cif.g09.slc.cpg/sg2_280_cif.got.tgz:559520.got - 2010.06.27 13:26:56.
