data_PCOD8015693
_publ_section_title
;
Structure prediction by ZEFSAII (Michael W. Deem and Ramdas Pophale) SiO2 
 PCOD8015693
Probable space group: P -1
;
_chemical_formula_sum "Si O2"
_cell_formula_units_Z 16
_cell_length_a 11.456300
_cell_length_b 14.566823
_cell_length_c 9.517821
_cell_angle_alpha 110.635017
_cell_angle_beta 68.204297
_cell_angle_gamma 148.790756
_cell_volume 762.185791
_symmetry_space_group_name_H-M "P -1"
_symmetry_group_IT_number 2
_symmetry_cell_setting 'triclinic'
loop_
_space_group_symop_operation_xyz
x,y,z
-x,-y,-z
loop_
_atom_site_type_symbol
_atom_site_label
_atom_site_fract_x
_atom_site_fract_y
_atom_site_fract_z
Si Si1 0.530118 0.406911 0.758637
Si Si2 0.391102 0.524059 0.924562
Si Si3 0.684400 0.170161 0.193238
Si Si4 0.213247 0.875147 0.384060
Si Si5 0.231039 0.110974 0.521866
Si Si6 0.107946 0.840642 0.110706
Si Si7 0.516880 0.767834 0.785662
Si Si8 0.989856 0.608512 0.584233
O O1 0.548438 0.537244 0.804729
O O2 0.298855 0.217280 0.686880
O O3 0.736737 0.486908 0.632472
O O4 0.521393 0.378313 0.912910
O O5 0.399820 0.620773 0.869032
O O6 0.134739 0.314203 0.941742
O O7 0.664954 0.265593 0.186098
O O8 0.903040 0.298881 0.263062
O O9 0.465584 0.004606 0.297372
O O10 0.713902 0.114556 0.022083
O O11 0.061861 0.773878 0.255052
O O12 0.124352 0.743309 0.468118
O O13 0.212671 0.984888 0.505959
O O14 0.428571 0.254613 0.394391
O O15 0.000000 0.000000 0.500000
O O16 0.239956 0.030798 0.159159
O O17 0.000000 0.500000 0.500000
#
# Coordination Sequence:
#
# PCOD8015693 Si02
#       8
#     2   2   2   2   2   2   2   2
#     4  11  25  45  62  99 136 168 223 274 325 406
#     4  11  25  44  66  96 137 175 221 276 331 389
#     4  10  21  43  62  95 133 169 230 265 327 398
#     4  10  23  39  66  94 129 173 218 277 329 388
#     4  10  22  44  67  96 127 169 223 271 332 394
#     4  10  21  43  65  97 132 171 225 271 328 393
#     4  10  23  40  68  97 127 176 223 273 328 394
#     4  12  25  40  63  98 136 174 214 273 335 391
#
# _framework density 20.992258
#
# number of rings (size 3 to 8) (size 9 to 14) (size 15 to 20)
#    0.000    1.750    1.250    4.875    5.250    4.000 
#    0.000    1.875    0.000    0.000    0.000    0.000 
#    0.000    0.000    0.000    0.000    0.000    0.000 
#
# Total GULP energy -198383.392105 kJ/mol
# GULP energy per Si atom -12398.962007 kJ/mol
# Density = 2.094448 g / cm^3
# Si number density = 20.992258 Si / 1000 Ang^3
#
#
#
# Elastic Constant Matrix: (Units=GPa)
#
#
# Indices 1 2 3 4 5 6 
#
# 1 96.5807 49.9142 44.3214 -10.9907 -4.3276 -2.6959
# 2 49.9142 86.1784 46.1119 2.6759 10.6362 -6.1942
# 3 44.3214 46.1119 119.9321 17.2265 -4.2481 -13.3106
# 4 -10.9907 2.6759 17.2265 32.9183 7.6352 13.8818
# 5 -4.3276 10.6362 -4.2481 7.6352 37.7654 -0.7361
# 6 -2.6959 -6.1942 -13.3106 13.8818 -0.7361 40.6651
#
#
#
# Elastic Compliance Matrix: (Units=1/GPa)
#
#
# Indices 1 2 3 4 5 6 
#
# 1 0.019009 -0.008723 -0.006157 0.012682 0.001254 -0.006391
# 2 -0.008723 0.019977 -0.004378 -0.001214 -0.006847 0.001322
# 3 -0.006157 -0.004378 0.015703 -0.015137 0.005536 0.009332
# 4 0.012682 -0.001214 -0.015137 0.055141 -0.011510 -0.023331
# 5 0.001254 -0.006847 0.005536 -0.011510 0.031606 0.005354
# 6 -0.006391 0.001322 0.009332 -0.023331 0.005354 0.035485
#
#
# Mechanical properties :
#
#
# Convention : Reuss Voigt Hill
#
# Bulk Modulus (GPa) = 61.83941 64.82067 63.33004
# Shear Modulus (GPa) = 22.64200 33.09266 27.86733
#
# Velocity S-wave (km/s) = 3.28775 3.97473 3.64745
# Velocity P-wave (km/s) = 6.62831 7.21180 6.92620
#
# Compressibility (1/GPa) = 0.01617092
#
# Stress axis : x y z
#
# Youngs Moduli (GPa) = 52.60690 50.05802 63.68182
#
# Poissons Ratio (x) = 0.43666 0.39211
# Poissons Ratio (y) = 0.45889 0.27883
# Poissons Ratio (z) = 0.32392 0.21918
#
# Static dielectric constant tensor:
#      x y z
#    x 3.830560 0.136320 -0.025870 
#    y 0.136320 3.527610 0.201960 
#    z -0.025870 0.201960 3.974000 
# 
# 
# High freq. dielectric constant tensor:
#      x y z
#    x 1.828470 0.014120 -0.005300 
#    y 0.014120 1.804100 0.013680 
#    z -0.005300 0.013680 1.837020 
# 
# From -- ./inp_files/273683.got.cif
#   From: 2010.06.25/outbox.cif.g09.slc.cpg/sg2_137_cif.got.tgz:273683.got - 2010.06.27 13:26:56.
