data_PCOD8015134
_publ_section_title
;
Structure prediction by ZEFSAII (Michael W. Deem and Ramdas Pophale) SiO2 
 PCOD8015134
Probable space group: P -1
;
_chemical_formula_sum "Si O2"
_cell_formula_units_Z 16
_cell_length_a 11.742003
_cell_length_b 8.338404
_cell_length_c 15.850262
_cell_angle_alpha 65.953726
_cell_angle_beta 73.341894
_cell_angle_gamma 126.379540
_cell_volume 793.474508
_symmetry_space_group_name_H-M "P -1"
_symmetry_group_IT_number 2
_symmetry_cell_setting 'triclinic'
loop_
_space_group_symop_operation_xyz
x,y,z
-x,-y,-z
loop_
_atom_site_type_symbol
_atom_site_label
_atom_site_fract_x
_atom_site_fract_y
_atom_site_fract_z
Si Si1 0.672520 0.229211 0.484309
Si Si2 0.559835 0.523970 0.677762
Si Si3 0.055949 0.764547 0.575825
Si Si4 0.314288 0.355512 0.623557
Si Si5 0.474341 0.514263 0.118026
Si Si6 0.463909 0.751967 0.931686
Si Si7 0.671953 0.278230 0.661368
Si Si8 0.895578 0.726287 0.785446
O O1 0.851913 0.313436 0.402366
O O2 0.745325 0.516325 0.409821
O O3 0.614340 0.116229 0.619031
O O4 0.500000 0.000000 0.500000
O O5 0.380861 0.418748 0.693028
O O6 0.476045 0.385004 0.817866
O O7 0.588061 0.375165 0.654772
O O8 0.769601 0.884163 0.555825
O O9 0.914699 0.577912 0.562683
O O10 0.914325 0.651711 0.707891
O O11 0.500000 0.500000 0.500000
O O12 0.115584 0.006881 0.719581
O O13 0.555002 0.416420 0.102113
O O14 0.228144 0.239359 0.213119
O O15 0.582253 0.792136 0.975379
O O16 0.576712 0.056579 0.807092
O O17 0.242763 0.548285 0.058531
#
# Coordination Sequence:
#
# PCOD8015134 Si02
#       8
#     2   2   2   2   2   2   2   2
#     4  12  25  41  63  96 132 164 205 266 316 379
#     4  12  23  40  64  97 128 165 209 263 319 375
#     4  12  24  38  64 101 125 161 216 263 318 370
#     4  12  23  42  66  91 132 170 203 252 334 374
#     4   9  21  41  68  84 132 160 212 269 302 362
#     4   9  22  42  64  93 124 168 213 261 308 366
#     4  12  24  39  68  91 129 166 212 259 318 371
#     4  10  21  42  66  89 129 166 210 258 310 375
#
# _framework density 20.164480000000001
#
# number of rings (size 3 to 8) (size 9 to 14) (size 15 to 20)
#    0.750    0.250    5.000    1.500    3.500    2.000 
#    0.000    1.250    2.750    0.000    0.000    0.000 
#    0.000    0.000    0.000    0.000    0.000    0.000 
#
# Total GULP energy -198257.899550 kJ/mol
# GULP energy per Si atom -12391.118722 kJ/mol
# Density = 2.011858 g / cm^3
# Si number density = 20.164480 Si / 1000 Ang^3
#
#
#
# Elastic Constant Matrix: (Units=GPa)
#
#
# Indices 1 2 3 4 5 6 
#
# 1 83.0491 20.4171 30.4760 10.4470 12.1401 -7.7843
# 2 20.4171 113.0259 42.5957 17.9610 -0.9337 14.8903
# 3 30.4760 42.5957 71.1503 6.4099 12.2913 2.6520
# 4 10.4470 17.9610 6.4099 28.1059 -9.0074 0.8441
# 5 12.1401 -0.9337 12.2913 -9.0074 24.2051 2.0205
# 6 -7.7843 14.8903 2.6520 0.8441 2.0205 41.0666
#
#
#
# Elastic Compliance Matrix: (Units=1/GPa)
#
#
# Indices 1 2 3 4 5 6 
#
# 1 0.016635 -0.000691 -0.004557 -0.007821 -0.009327 0.004318
# 2 -0.000691 0.013288 -0.007531 -0.005405 0.003047 -0.004501
# 3 -0.004557 -0.007531 0.022406 -0.001890 -0.010166 0.000959
# 4 -0.007821 -0.005405 -0.001890 0.049912 0.023380 -0.001577
# 5 -0.009327 0.003047 -0.010166 0.023380 0.060445 -0.005671
# 6 0.004318 -0.004501 0.000959 -0.001577 -0.005671 0.027051
#
#
# Mechanical properties :
#
#
# Convention : Reuss Voigt Hill
#
# Bulk Modulus (GPa) = 37.35260 50.46699 43.90979
# Shear Modulus (GPa) = 22.29981 30.25796 26.27888
#
# Velocity S-wave (km/s) = 3.32911 3.87791 3.61394
# Velocity P-wave (km/s) = 5.77421 6.71810 6.26396
#
# Compressibility (1/GPa) = 0.02677190
#
# Stress axis : x y z
#
# Youngs Moduli (GPa) = 60.11400 75.25859 44.63112
#
# Poissons Ratio (x) = 0.05197 0.20338
# Poissons Ratio (y) = 0.04151 0.33611
# Poissons Ratio (z) = 0.27394 0.56675
#
# Static dielectric constant tensor:
#      x y z
#    x 3.909610 0.101790 0.043950 
#    y 0.101790 3.778360 0.246490 
#    z 0.043950 0.246490 3.474180 
# 
# 
# High freq. dielectric constant tensor:
#      x y z
#    x 1.789780 -0.004080 0.005460 
#    y -0.004080 1.792120 0.021770 
#    z 0.005460 0.021770 1.763310 
# 
# From -- ./inp_files/566642.got.cif
#   From: 2010.06.25/outbox.cif.g09.slc.cpg/sg2_284_cif.got.tgz:566642.got - 2010.06.27 13:26:56.
