data_PCOD8015898
_publ_section_title
;
Structure prediction by ZEFSAII (Michael W. Deem and Ramdas Pophale) SiO2 
 PCOD8015898
Probable space group: P -1
;
_chemical_formula_sum "Si O2"
_cell_formula_units_Z 14
_cell_length_a 9.471753
_cell_length_b 12.427938
_cell_length_c 11.022338
_cell_angle_alpha 129.165338
_cell_angle_beta 126.974291
_cell_angle_gamma 41.328343
_cell_volume 643.494583
_symmetry_space_group_name_H-M "P -1"
_symmetry_group_IT_number 2
_symmetry_cell_setting 'triclinic'
loop_
_space_group_symop_operation_xyz
x,y,z
-x,-y,-z
loop_
_atom_site_type_symbol
_atom_site_label
_atom_site_fract_x
_atom_site_fract_y
_atom_site_fract_z
Si Si1 0.142789 0.861462 0.578783
Si Si2 0.283954 0.081286 0.844434
Si Si3 0.196565 0.597017 0.256741
Si Si4 0.250820 0.952689 0.331089
Si Si5 0.159952 0.315172 0.155205
Si Si6 0.420752 0.088232 0.335645
Si Si7 0.701416 0.389597 0.932986
O O1 0.273566 0.668475 0.452770
O O2 0.310905 0.900123 0.741955
O O3 0.000000 0.000000 0.500000
O O4 0.980035 0.886487 0.617910
O O5 0.032166 0.245189 0.807700
O O6 0.419451 0.067178 0.786999
O O7 0.330379 0.134673 0.036469
O O8 0.167800 0.460944 0.202419
O O9 0.363395 0.523129 0.174326
O O10 0.448200 0.879925 0.477624
O O11 0.232239 0.802407 0.176548
O O12 0.284965 0.029908 0.286175
O O13 0.255952 0.269624 0.308484
O O14 0.910026 0.378843 0.081529
O O15 0.500000 0.500000 0.000000
#
# Coordination Sequence:
#
# PCOD8015898 Si02
#       7
#     2   2   2   2   2   2   2
#     4  10  16  38  67  86 113 165 220 238 288 388
#     4  10  18  39  66  89 121 167 209 247 308 374
#     4  10  20  38  67  92 122 165 205 253 308 375
#     4  11  22  41  65  87 124 174 210 244 311 378
#     4  11  24  40  60  99 130 155 208 265 308 359
#     4  11  24  38  64  94 125 162 210 260 305 367
#     4  11  23  40  65  90 128 169 204 251 320 372
#
# _framework density 21.756202999999999
#
# number of rings (size 3 to 8) (size 9 to 14) (size 15 to 20)
#    0.000    1.429    7.143    2.143    4.000    0.571 
#    0.000    5.714    0.000    0.000    0.000    0.000 
#    0.000    0.000    0.000    0.000    0.000    0.000 
#
# Total GULP energy -173548.865398 kJ/mol
# GULP energy per Si atom -12396.347528 kJ/mol
# Density = 2.170669 g / cm^3
# Si number density = 21.756203 Si / 1000 Ang^3
#
#
#
# Elastic Constant Matrix: (Units=GPa)
#
#
# Indices 1 2 3 4 5 6 
#
# 1 175.9028 47.0222 68.0558 7.5143 -27.3173 24.1416
# 2 47.0222 51.2414 39.8901 3.6491 -3.3998 18.1754
# 3 68.0558 39.8901 113.0802 12.9812 -5.8291 15.5668
# 4 7.5143 3.6491 12.9812 26.1031 3.3016 -4.6514
# 5 -27.3173 -3.3998 -5.8291 3.3016 42.1454 11.2554
# 6 24.1416 18.1754 15.5668 -4.6514 11.2554 33.8523
#
#
#
# Elastic Compliance Matrix: (Units=1/GPa)
#
#
# Indices 1 2 3 4 5 6 
#
# 1 0.010209 -0.003748 -0.003100 -0.003116 0.007979 -0.006924
# 2 -0.003748 0.033901 -0.007348 -0.002823 0.003137 -0.013581
# 3 -0.003100 -0.007348 0.014048 -0.005255 0.000030 -0.001036
# 4 -0.003116 -0.002823 -0.005255 0.046481 -0.010936 0.016177
# 5 0.007979 0.003137 0.000030 -0.010936 0.035543 -0.020708
# 6 -0.006924 -0.013581 -0.001036 0.016177 -0.020708 0.051354
#
#
# Mechanical properties :
#
#
# Convention : Reuss Voigt Hill
#
# Bulk Modulus (GPa) = 33.59406 72.24007 52.91707
# Shear Modulus (GPa) = 21.75337 32.77058 27.26197
#
# Velocity S-wave (km/s) = 3.16550 3.88527 3.54371
# Velocity P-wave (km/s) = 5.36984 7.30777 6.41244
#
# Compressibility (1/GPa) = 0.02976717
#
# Stress axis : x y z
#
# Youngs Moduli (GPa) = 97.95749 29.49730 71.18295
#
# Poissons Ratio (x) = 0.11055 0.22064
# Poissons Ratio (y) = 0.36713 0.52306
# Poissons Ratio (z) = 0.30363 0.21675
#
# Static dielectric constant tensor:
#      x y z
#    x 4.306050 0.041110 0.091130 
#    y 0.041110 3.599010 0.214990 
#    z 0.091130 0.214990 4.776820 
# 
# 
# High freq. dielectric constant tensor:
#      x y z
#    x 1.873710 0.003900 -0.000260 
#    y 0.003900 1.823910 0.002090 
#    z -0.000260 0.002090 1.865070 
# 
# From -- ./inp_files/190206.got.cif
#   From: 2010.06.25/outbox.cif.g09.slc.cpg/sg2_96_cif.got.tgz:190206.got - 2010.06.27 13:26:56.
