data_PCOD8015869
_publ_section_title
;
Structure prediction by ZEFSAII (Michael W. Deem and Ramdas Pophale) SiO2 
 PCOD8015869
Probable space group: P -1
;
_chemical_formula_sum "Si O2"
_cell_formula_units_Z 16
_cell_length_a 14.377312
_cell_length_b 20.386809
_cell_length_c 8.959127
_cell_angle_alpha 104.288609
_cell_angle_beta 65.299531
_cell_angle_gamma 159.018693
_cell_volume 766.810406
_symmetry_space_group_name_H-M "P -1"
_symmetry_group_IT_number 2
_symmetry_cell_setting 'triclinic'
loop_
_space_group_symop_operation_xyz
x,y,z
-x,-y,-z
loop_
_atom_site_type_symbol
_atom_site_label
_atom_site_fract_x
_atom_site_fract_y
_atom_site_fract_z
Si Si1 0.791529 0.199693 0.813478
Si Si2 0.167742 0.799557 0.545552
Si Si3 0.117456 0.537595 0.796255
Si Si4 0.721983 0.847816 0.704508
Si Si5 0.893901 0.516860 0.756671
Si Si6 0.818706 0.949095 0.018904
Si Si7 0.773069 0.550657 0.094372
Si Si8 0.856529 0.713799 0.906922
O O1 0.781656 0.156215 0.638102
O O2 0.852817 0.317475 0.811703
O O3 0.095126 0.361347 0.779728
O O4 0.500000 0.000000 0.000000
O O5 0.994168 0.620655 0.599764
O O6 0.996306 0.758443 0.701525
O O7 0.500000 0.000000 0.500000
O O8 0.460512 0.722462 0.707864
O O9 0.108987 0.585423 0.688733
O O10 0.000000 0.500000 0.000000
O O11 0.849216 0.970885 0.829150
O O12 0.586971 0.694141 0.783525
O O13 0.000000 0.000000 0.500000
O O14 0.541673 0.276893 0.826243
O O15 0.931220 0.588983 0.915304
O O16 0.000000 0.000000 0.000000
O O17 0.961284 0.103910 0.087293
O O18 0.864396 0.678070 0.034651
O O19 0.500000 0.500000 0.000000
#
# Coordination Sequence:
#
# PCOD8015869 Si02
#       8
#     2   2   2   2   2   2   2   2
#     4  11  23  40  66  94 140 173 218 275 344 396
#     4  11  26  44  63 100 141 177 223 281 335 401
#     4  11  21  40  70  97 127 181 224 279 335 395
#     4  10  22  41  64  97 138 168 223 282 338 398
#     4  10  21  43  66  97 132 170 234 276 329 405
#     4  11  23  42  71  95 131 183 223 278 343 404
#     4   9  20  40  64  90 128 173 212 276 332 396
#     4  11  24  46  68  94 135 182 227 272 344 405
#
# _framework density 20.865652000000001
#
# number of rings (size 3 to 8) (size 9 to 14) (size 15 to 20)
#    0.000    1.500    3.750    3.750    3.500    4.500 
#    4.500    1.250    0.000    0.000    0.000    0.000 
#    0.000    0.000    0.000    0.000    0.000    0.000 
#
# Total GULP energy -198245.419792 kJ/mol
# GULP energy per Si atom -12390.338737 kJ/mol
# Density = 2.081816 g / cm^3
# Si number density = 20.865652 Si / 1000 Ang^3
#
#
#
# Elastic Constant Matrix: (Units=GPa)
#
#
# Indices 1 2 3 4 5 6 
#
# 1 132.9610 59.7973 46.7186 0.8511 -1.7412 -7.8118
# 2 59.7973 128.1869 57.2169 3.5250 -4.8004 0.0095
# 3 46.7186 57.2169 144.5846 -6.2716 3.7618 -0.0222
# 4 0.8511 3.5250 -6.2716 32.0729 7.2022 0.6522
# 5 -1.7412 -4.8004 3.7618 7.2022 33.7029 -3.6982
# 6 -7.8118 0.0095 -0.0222 0.6522 -3.6982 40.6352
#
#
#
# Elastic Compliance Matrix: (Units=1/GPa)
#
#
# Indices 1 2 3 4 5 6 
#
# 1 0.009988 -0.003865 -0.001723 -0.000316 0.000441 0.001965
# 2 -0.003865 0.011249 -0.003359 -0.002276 0.002208 -0.000510
# 3 -0.001723 -0.003359 0.008975 0.002676 -0.002204 -0.000569
# 4 -0.000316 -0.002276 0.002676 0.033785 -0.008005 -0.001330
# 5 0.000441 0.002208 -0.002204 -0.008005 0.032311 0.003152
# 6 0.001965 -0.000510 -0.000569 -0.001330 0.003152 0.025295
#
#
# Mechanical properties :
#
#
# Convention : Reuss Voigt Hill
#
# Bulk Modulus (GPa) = 81.17650 81.46649 81.32149
# Shear Modulus (GPa) = 34.81829 37.41553 36.11691
#
# Velocity S-wave (km/s) = 4.08939 4.23917 4.16495
# Velocity P-wave (km/s) = 7.82856 7.94285 7.88591
#
# Compressibility (1/GPa) = 0.01231884
#
# Stress axis : x y z
#
# Youngs Moduli (GPa) = 100.12147 88.89918 111.41459
#
# Poissons Ratio (x) = 0.34362 0.19192
# Poissons Ratio (y) = 0.38700 0.37422
# Poissons Ratio (z) = 0.17247 0.29859
#
# Static dielectric constant tensor:
#      x y z
#    x 4.529960 0.264960 0.271100 
#    y 0.264960 4.158910 0.183120 
#    z 0.271100 0.183120 4.169630 
# 
# 
# High freq. dielectric constant tensor:
#      x y z
#    x 1.820390 0.002190 0.012110 
#    y 0.002190 1.831260 -0.000490 
#    z 0.012110 -0.000490 1.803980 
# 
# From -- ./inp_files/319395.got.cif
#   From: 2010.06.25/outbox.cif.g09.slc.cpg/sg2_160_cif.got.tgz:319395.got - 2010.06.27 13:26:56.
