data_PCOD8015601
_publ_section_title
;
Structure prediction by ZEFSAII (Michael W. Deem and Ramdas Pophale) SiO2 
 PCOD8015601
Probable space group: P -1
;
_chemical_formula_sum "Si O2"
_cell_formula_units_Z 14
_cell_length_a 11.250267
_cell_length_b 9.899945
_cell_length_c 11.097150
_cell_angle_alpha 94.450351
_cell_angle_beta 142.174586
_cell_angle_gamma 107.536062
_cell_volume 608.447162
_symmetry_space_group_name_H-M "P -1"
_symmetry_group_IT_number 2
_symmetry_cell_setting 'triclinic'
loop_
_space_group_symop_operation_xyz
x,y,z
-x,-y,-z
loop_
_atom_site_type_symbol
_atom_site_label
_atom_site_fract_x
_atom_site_fract_y
_atom_site_fract_z
Si Si1 0.054295 0.519857 0.893274
Si Si2 0.251915 0.026854 0.379791
Si Si3 0.539457 0.904872 0.921660
Si Si4 0.020221 0.621223 0.425495
Si Si5 0.106489 0.139708 0.697151
Si Si6 0.407066 0.596482 0.369333
Si Si7 0.731982 0.102917 0.857779
O O1 0.093482 0.501789 0.786647
O O2 0.769107 0.383542 0.686019
O O3 0.236033 0.494848 0.109344
O O4 0.114748 0.698682 0.987753
O O5 0.353515 0.221800 0.462241
O O6 0.459077 0.016828 0.595865
O O7 0.153862 0.937840 0.163342
O O8 0.043917 0.929208 0.304816
O O9 0.297248 0.776603 0.645781
O O10 0.734765 0.029542 0.985093
O O11 0.629070 0.805794 0.053361
O O12 0.500000 0.000000 0.000000
O O13 0.000000 0.500000 0.500000
O O14 0.872416 0.700079 0.330139
O O15 0.000000 0.000000 0.500000
O O16 0.500000 0.500000 0.500000
#
# Coordination Sequence:
#
# PCOD8015601 Si02
#       7
#     2   2   2   2   2   2   2
#     4  10  24  42  66 103 145 183 229 292 358 422
#     4  10  22  42  71 103 139 185 235 290 348 430
#     4  12  24  46  75 102 141 192 238 293 357 427
#     4  12  27  47  72 103 144 186 237 302 365 419
#     4  12  27  46  75 104 137 186 249 293 355 437
#     4  10  23  41  68 104 146 182 228 288 358 421
#     4  10  21  42  72 102 143 184 233 286 354 422
#
# _framework density 23.009394
#
# number of rings (size 3 to 8) (size 9 to 14) (size 15 to 20)
#    0.000    1.143    2.857    1.714    8.000    4.571 
#    0.000    0.000    0.000    0.000    0.000    0.000 
#    0.000    0.000    0.000    0.000    0.000    0.000 
#
# Total GULP energy -173505.816434 kJ/mol
# GULP energy per Si atom -12393.272602 kJ/mol
# Density = 2.295702 g / cm^3
# Si number density = 23.009394 Si / 1000 Ang^3
#
#
#
# Elastic Constant Matrix: (Units=GPa)
#
#
# Indices 1 2 3 4 5 6 
#
# 1 120.2891 46.2435 33.5290 -2.2934 -40.2492 -3.7973
# 2 46.2435 163.3625 51.0143 -29.7707 -12.1966 -0.9755
# 3 33.5290 51.0143 93.6533 -17.7762 -23.2342 -17.5355
# 4 -2.2934 -29.7707 -17.7762 45.5398 -1.3379 0.6036
# 5 -40.2492 -12.1966 -23.2342 -1.3379 46.3822 -1.2875
# 6 -3.7973 -0.9755 -17.5355 0.6036 -1.2875 32.8223
#
#
#
# Elastic Compliance Matrix: (Units=1/GPa)
#
#
# Indices 1 2 3 4 5 6 
#
# 1 0.013081 -0.003013 -0.000381 -0.001177 0.010380 0.001649
# 2 -0.003013 0.008747 -0.003917 0.004003 -0.002227 -0.002342
# 3 -0.000381 -0.003917 0.017457 0.004338 0.007770 0.009391
# 4 -0.001177 0.004003 0.004338 0.026273 0.003016 0.001936
# 5 0.010380 -0.002227 0.007770 0.003016 0.034143 0.006570
# 6 0.001649 -0.002342 0.009391 0.001936 0.006570 0.035828
#
#
# Mechanical properties :
#
#
# Convention : Reuss Voigt Hill
#
# Bulk Modulus (GPa) = 40.54859 70.98652 55.76755
# Shear Modulus (GPa) = 31.57132 41.38338 36.47735
#
# Velocity S-wave (km/s) = 3.70821 4.24552 3.98593
# Velocity P-wave (km/s) = 5.99961 7.41287 6.74337
#
# Compressibility (1/GPa) = 0.02466177
#
# Stress axis : x y z
#
# Youngs Moduli (GPa) = 76.44850 114.32786 57.28326
#
# Poissons Ratio (x) = 0.34452 0.02184
# Poissons Ratio (y) = 0.23037 0.22436
# Poissons Ratio (z) = 0.02914 0.44779
#
# Static dielectric constant tensor:
#      x y z
#    x 4.142310 0.056570 -0.086240 
#    y 0.056570 4.326920 -0.358380 
#    z -0.086240 -0.358380 3.188260 
# 
# 
# High freq. dielectric constant tensor:
#      x y z
#    x 1.900270 0.007290 -0.012520 
#    y 0.007290 1.915040 -0.011630 
#    z -0.012520 -0.011630 1.916390 
# 
# From -- ./inp_files/203418.got.cif
#   From: 2010.06.25/outbox.cif.g09.slc.cpg/sg2_102_cif.got.tgz:203418.got - 2010.06.27 13:26:56.
