data_PCOD8015363
_publ_section_title
;
Structure prediction by ZEFSAII (Michael W. Deem and Ramdas Pophale) SiO2 
 PCOD8015363
Probable space group: P -1
;
_chemical_formula_sum "Si O2"
_cell_formula_units_Z 16
_cell_length_a 9.135488
_cell_length_b 11.233549
_cell_length_c 16.320450
_cell_angle_alpha 74.504931
_cell_angle_beta 52.067076
_cell_angle_gamma 39.834634
_cell_volume 773.499365
_symmetry_space_group_name_H-M "P -1"
_symmetry_group_IT_number 2
_symmetry_cell_setting 'triclinic'
loop_
_space_group_symop_operation_xyz
x,y,z
-x,-y,-z
loop_
_atom_site_type_symbol
_atom_site_label
_atom_site_fract_x
_atom_site_fract_y
_atom_site_fract_z
Si Si1 0.187643 0.033884 0.980961
Si Si2 0.930808 0.841055 0.592462
Si Si3 0.251199 0.451960 0.463156
Si Si4 0.276269 0.647076 0.787758
Si Si5 0.715008 0.221124 0.785710
Si Si6 0.751811 0.091625 0.465537
Si Si7 0.296481 0.054395 0.174589
Si Si8 0.765863 0.259964 0.942540
O O1 0.069498 0.137477 0.912039
O O2 0.432999 0.000059 0.939440
O O3 0.896019 0.184333 0.114076
O O4 0.337692 0.818037 0.969466
O O5 0.715936 0.921900 0.727718
O O6 0.098783 0.632083 0.541131
O O7 0.185726 0.805966 0.537670
O O8 0.712910 0.013205 0.565640
O O9 0.463715 0.403466 0.330782
O O10 0.444866 0.257011 0.488702
O O11 0.000000 0.500000 0.500000
O O12 0.416656 0.450578 0.815699
O O13 0.034276 0.732520 0.786269
O O14 0.841723 0.208870 0.829578
O O15 0.621734 0.127781 0.847448
O O16 0.972233 0.099276 0.651333
O O17 0.500000 0.500000 0.000000
#
# Coordination Sequence:
#
# PCOD8015363 Si02
#       8
#     2   2   2   2   2   2   2   2
#     4  11  25  44  69  97 135 178 220 266 336 388
#     4  10  22  41  67  94 129 169 220 267 332 374
#     4  12  25  41  68 100 131 173 219 272 334 400
#     4  12  23  43  68  95 132 177 219 274 333 388
#     4  11  22  41  71  93 131 175 220 270 340 381
#     4  10  21  42  68  91 129 174 215 272 325 392
#     4  11  25  43  68 100 132 174 223 280 316 396
#     4  11  23  42  65  94 133 177 215 271 323 394
#
# _framework density 20.685216
#
# number of rings (size 3 to 8) (size 9 to 14) (size 15 to 20)
#    0.000    1.000    6.250    0.750    0.000    5.000 
#    2.250    0.000    0.000    0.000    0.000    0.000 
#    0.000    0.000    0.000    0.000    0.000    0.000 
#
# Total GULP energy -198433.939957 kJ/mol
# GULP energy per Si atom -12402.121247 kJ/mol
# Density = 2.063814 g / cm^3
# Si number density = 20.685216 Si / 1000 Ang^3
#
#
#
# Elastic Constant Matrix: (Units=GPa)
#
#
# Indices 1 2 3 4 5 6 
#
# 1 116.8846 51.2460 47.2175 7.5523 4.0856 -14.4853
# 2 51.2460 155.8615 26.2907 0.1294 4.7665 -10.6574
# 3 47.2175 26.2907 65.0070 6.1145 15.9471 4.4312
# 4 7.5523 0.1294 6.1145 26.8892 -3.5064 14.3668
# 5 4.0856 4.7665 15.9471 -3.5064 34.4334 6.1825
# 6 -14.4853 -10.6574 4.4312 14.3668 6.1825 30.1826
#
#
#
# Elastic Compliance Matrix: (Units=1/GPa)
#
#
# Indices 1 2 3 4 5 6 
#
# 1 0.016173 -0.002646 -0.010786 -0.008712 0.000312 0.012494
# 2 -0.002646 0.007611 -0.001145 -0.000004 -0.000514 0.001693
# 3 -0.010786 -0.001145 0.026560 -0.000316 -0.009572 -0.007369
# 4 -0.008712 -0.000004 -0.000316 0.060650 0.013790 -0.035830
# 5 0.000312 -0.000514 -0.009572 0.013790 0.037213 -0.012813
# 6 0.012494 0.001693 -0.007369 -0.035830 -0.012813 0.060487
#
#
# Mechanical properties :
#
#
# Convention : Reuss Voigt Hill
#
# Bulk Modulus (GPa) = 47.19170 65.25129 56.22149
# Shear Modulus (GPa) = 20.41556 32.50097 26.45826
#
# Velocity S-wave (km/s) = 3.14501 3.96816 3.58032
# Velocity P-wave (km/s) = 6.00432 7.25317 6.65809
#
# Compressibility (1/GPa) = 0.02119017
#
# Stress axis : x y z
#
# Youngs Moduli (GPa) = 61.83128 131.39606 37.65034
#
# Poissons Ratio (x) = 0.34771 0.40609
# Poissons Ratio (y) = 0.16362 0.04310
# Poissons Ratio (z) = 0.66690 0.15042
#
# Static dielectric constant tensor:
#      x y z
#    x 3.736610 -0.109050 0.343660 
#    y -0.109050 3.982870 -0.171170 
#    z 0.343660 -0.171170 3.678470 
# 
# 
# High freq. dielectric constant tensor:
#      x y z
#    x 1.802570 -0.005010 0.029000 
#    y -0.005010 1.826190 -0.009210 
#    z 0.029000 -0.009210 1.802770 
# 
# From -- ./inp_files/306252.got.cif
#   From: 2010.06.25/outbox.cif.g09.slc.cpg/sg2_154_cif.got.tgz:306252.got - 2010.06.27 13:26:56.
