data_PCOD8015713
_publ_section_title
;
Structure prediction by ZEFSAII (Michael W. Deem and Ramdas Pophale) SiO2 
 PCOD8015713
Probable space group: P -1
;
_chemical_formula_sum "Si O2"
_cell_formula_units_Z 14
_cell_length_a 5.217369
_cell_length_b 10.477982
_cell_length_c 17.538012
_cell_angle_alpha 132.569242
_cell_angle_beta 76.918797
_cell_angle_gamma 101.645154
_cell_volume 686.175961
_symmetry_space_group_name_H-M "P -1"
_symmetry_group_IT_number 2
_symmetry_cell_setting 'triclinic'
loop_
_space_group_symop_operation_xyz
x,y,z
-x,-y,-z
loop_
_atom_site_type_symbol
_atom_site_label
_atom_site_fract_x
_atom_site_fract_y
_atom_site_fract_z
Si Si1 0.957052 0.379497 0.189373
Si Si2 0.682594 0.303635 0.472885
Si Si3 0.161477 0.459219 0.583827
Si Si4 0.058720 0.737614 0.244963
Si Si5 0.589900 0.909177 0.288355
Si Si6 0.516860 0.802206 0.942350
Si Si7 0.428111 0.697091 0.077981
O O1 0.904886 0.404005 0.291907
O O2 0.682929 0.312629 0.143034
O O3 0.055096 0.561278 0.220185
O O4 0.183300 0.246162 0.109517
O O5 0.404169 0.346665 0.546579
O O6 0.758390 0.434335 0.453177
O O7 0.907675 0.326151 0.531410
O O8 0.664534 0.112407 0.361644
O O9 0.135838 0.703138 0.137109
O O10 0.780187 0.822039 0.300778
O O11 0.712027 0.132060 0.679958
O O12 0.626264 0.823949 0.167441
O O13 0.429850 0.769391 0.021945
O O14 0.500000 0.000000 0.000000
O O15 0.500000 0.500000 0.000000
#
# Coordination Sequence:
#
# PCOD8015713 Si02
#       7
#     2   2   2   2   2   2   2
#     4  12  24  44  62  90 133 161 212 256 326 370
#     4  10  21  43  63  94 115 165 213 255 326 376
#     4  10  23  40  68  85 125 165 205 261 323 383
#     4  10  22  38  63  91 120 173 206 251 310 376
#     4  10  22  37  66  91 125 154 222 264 293 377
#     4  12  27  40  63  98 129 168 212 262 311 374
#     4  10  22  41  65  88 130 173 210 247 313 382
#
# _framework density 20.402930999999999
#
# number of rings (size 3 to 8) (size 9 to 14) (size 15 to 20)
#    0.857    0.571    1.429    3.857    4.000    2.286 
#    0.000    4.286    0.000    0.000    0.000    0.000 
#    0.000    0.000    0.000    0.000    0.000    0.000 
#
# Total GULP energy -173547.592015 kJ/mol
# GULP energy per Si atom -12396.256572 kJ/mol
# Density = 2.035649 g / cm^3
# Si number density = 20.402931 Si / 1000 Ang^3
#
#
#
# Elastic Constant Matrix: (Units=GPa)
#
#
# Indices 1 2 3 4 5 6 
#
# 1 130.3865 21.5374 32.4823 4.0843 17.8290 -12.4594
# 2 21.5374 72.5736 16.9700 13.1217 9.3779 -9.1207
# 3 32.4823 16.9700 50.9953 12.5980 10.0347 -2.4143
# 4 4.0843 13.1217 12.5980 40.3025 8.4470 -1.7804
# 5 17.8290 9.3779 10.0347 8.4470 35.1298 7.5026
# 6 -12.4594 -9.1207 -2.4143 -1.7804 7.5026 25.6373
#
#
#
# Elastic Compliance Matrix: (Units=1/GPa)
#
#
# Indices 1 2 3 4 5 6 
#
# 1 0.010424 -0.000759 -0.005633 0.002330 -0.005317 0.005983
# 2 -0.000759 0.016582 -0.003223 -0.003287 -0.003625 0.006060
# 3 -0.005633 -0.003223 0.026129 -0.006188 -0.001985 -0.001273
# 4 0.002330 -0.003287 -0.006188 0.029022 -0.006202 0.003211
# 5 -0.005317 -0.003625 -0.001985 -0.006202 0.037492 -0.015463
# 6 0.005983 0.006060 -0.001273 0.003211 -0.015463 0.048698
#
#
# Mechanical properties :
#
#
# Convention : Reuss Voigt Hill
#
# Bulk Modulus (GPa) = 29.49332 43.99274 36.74303
# Shear Modulus (GPa) = 25.14090 32.41166 28.77628
#
# Velocity S-wave (km/s) = 3.51411 3.99002 3.75960
# Velocity P-wave (km/s) = 5.56346 6.54491 6.07404
#
# Compressibility (1/GPa) = 0.03390598
#
# Stress axis : x y z
#
# Youngs Moduli (GPa) = 95.93235 60.30617 38.27118
#
# Poissons Ratio (x) = 0.04574 0.21560
# Poissons Ratio (y) = 0.07277 0.12334
# Poissons Ratio (z) = 0.54043 0.19435
#
# Static dielectric constant tensor:
#      x y z
#    x 4.078590 -0.002420 0.052400 
#    y -0.002420 3.536350 0.085010 
#    z 0.052400 0.085010 3.434020 
# 
# 
# High freq. dielectric constant tensor:
#      x y z
#    x 1.813600 -0.001910 0.005290 
#    y -0.001910 1.789410 0.009220 
#    z 0.005290 0.009220 1.791670 
# 
# From -- ./inp_files/482429.got.cif
#   From: 2010.06.25/outbox.cif.g09.slc.cpg/sg2_242_cif.got.tgz:482429.got - 2010.06.27 13:26:56.
