data_PCOD8015945
_publ_section_title
;
Structure prediction by ZEFSAII (Michael W. Deem and Ramdas Pophale) SiO2 
 PCOD8015945
Probable space group: P -1
;
_chemical_formula_sum "Si O2"
_cell_formula_units_Z 14
_cell_length_a 12.599113
_cell_length_b 9.600703
_cell_length_c 5.501669
_cell_angle_alpha 111.646038
_cell_angle_beta 107.895807
_cell_angle_gamma 94.594975
_cell_volume 574.374358
_symmetry_space_group_name_H-M "P -1"
_symmetry_group_IT_number 2
_symmetry_cell_setting 'triclinic'
loop_
_space_group_symop_operation_xyz
x,y,z
-x,-y,-z
loop_
_atom_site_type_symbol
_atom_site_label
_atom_site_fract_x
_atom_site_fract_y
_atom_site_fract_z
Si Si1 0.264719 0.668203 0.459280
Si Si2 0.051081 0.676138 0.605954
Si Si3 0.578378 0.668316 0.188980
Si Si4 0.771088 0.115185 0.803878
Si Si5 0.104086 0.127673 0.242859
Si Si6 0.286075 0.332092 0.209890
Si Si7 0.428655 0.869987 0.033155
O O1 0.137829 0.688580 0.453223
O O2 0.299946 0.798668 0.367019
O O3 0.260759 0.499183 0.252851
O O4 0.363887 0.710989 0.755837
O O5 0.000000 0.500000 0.500000
O O6 0.943099 0.756997 0.533477
O O7 0.119966 0.759814 0.939821
O O8 0.642732 0.672297 0.493640
O O9 0.508306 0.804950 0.240885
O O10 0.500000 0.500000 0.000000
O O11 0.657731 0.707771 0.027381
O O12 0.672476 0.051838 0.890432
O O13 0.809317 0.964867 0.623539
O O14 0.165058 0.215916 0.103396
O O15 0.000000 0.000000 0.000000
O O16 0.500000 0.000000 0.000000
#
# Coordination Sequence:
#
# PCOD8015945 Si02
#       7
#     2   2   2   2   2   2   2
#     4  11  24  41  68 100 135 180 240 289 352 434
#     4  10  21  43  67  98 135 178 234 289 363 417
#     4  12  26  46  73 107 144 191 242 299 359 426
#     4  10  24  43  66 100 136 182 238 291 355 431
#     4  10  23  48  69 102 145 186 241 299 367 428
#     4  12  26  46  73 108 145 189 245 299 356 435
#     4  11  25  43  67  95 142 184 233 292 357 422
#
# _framework density 24.374347
#
# number of rings (size 3 to 8) (size 9 to 14) (size 15 to 20)
#    0.000    1.143    2.857    2.143    6.000    1.714 
#    5.143    0.000    0.000    0.000    0.000    0.000 
#    0.000    0.000    0.000    0.000    0.000    0.000 
#
# Total GULP energy -173445.145318 kJ/mol
# GULP energy per Si atom -12388.938951 kJ/mol
# Density = 2.431887 g / cm^3
# Si number density = 24.374347 Si / 1000 Ang^3
#
#
#
# Elastic Constant Matrix: (Units=GPa)
#
#
# Indices 1 2 3 4 5 6 
#
# 1 150.9290 68.6817 31.3080 8.9511 -3.9467 -8.7166
# 2 68.6817 151.7371 14.0750 0.8516 4.4647 -17.9200
# 3 31.3080 14.0750 58.5885 -10.0306 -11.7252 -6.2908
# 4 8.9511 0.8516 -10.0306 35.6891 -4.0304 0.9811
# 5 -3.9467 4.4647 -11.7252 -4.0304 14.2903 3.0938
# 6 -8.7166 -17.9200 -6.2908 0.9811 3.0938 65.6093
#
#
#
# Elastic Compliance Matrix: (Units=1/GPa)
#
#
# Indices 1 2 3 4 5 6 
#
# 1 0.009639 -0.003827 -0.005229 -0.003964 -0.001522 -0.000135
# 2 -0.003827 0.008792 -0.000865 -0.000113 -0.004988 0.002047
# 3 -0.005229 -0.000865 0.026921 0.011613 0.024117 0.000339
# 4 -0.003964 -0.000113 0.011613 0.034374 0.018342 -0.000823
# 5 -0.001522 -0.004988 0.024117 0.018342 0.096964 -0.004099
# 6 -0.000135 0.002047 0.000339 -0.000823 -0.004099 0.016021
#
#
# Mechanical properties :
#
#
# Convention : Reuss Voigt Hill
#
# Bulk Modulus (GPa) = 39.19993 65.48712 52.34352
# Shear Modulus (GPa) = 22.61850 39.59708 31.10779
#
# Velocity S-wave (km/s) = 3.04955 4.03493 3.57634
# Velocity P-wave (km/s) = 5.34014 6.97374 6.21088
#
# Compressibility (1/GPa) = 0.02551025
#
# Stress axis : x y z
#
# Youngs Moduli (GPa) = 103.74071 113.74022 37.14516
#
# Poissons Ratio (x) = 0.43528 0.19424
# Poissons Ratio (y) = 0.39702 0.03213
# Poissons Ratio (z) = 0.54250 0.09838
#
# Static dielectric constant tensor:
#      x y z
#    x 4.473140 -0.486320 0.504710 
#    y -0.486320 4.639430 0.264780 
#    z 0.504710 0.264780 3.778530 
# 
# 
# High freq. dielectric constant tensor:
#      x y z
#    x 1.996020 0.000640 0.002350 
#    y 0.000640 1.990000 0.012380 
#    z 0.002350 0.012380 1.932670 
# 
# From -- ./inp_files/37000.got.cif
#   From: 2010.06.25/outbox.cif.g09.slc.cpg/sg2_19_cif.got.tgz:37000.got - 2010.06.27 13:26:56.
