data_PCOD8015561
_publ_section_title
;
Structure prediction by ZEFSAII (Michael W. Deem and Ramdas Pophale) SiO2 
 PCOD8015561
Probable space group: P -1
;
_chemical_formula_sum "Si O2"
_cell_formula_units_Z 14
_cell_length_a 8.831040
_cell_length_b 17.011211
_cell_length_c 9.025562
_cell_angle_alpha 150.637418
_cell_angle_beta 68.484747
_cell_angle_gamma 122.941119
_cell_volume 538.694916
_symmetry_space_group_name_H-M "P -1"
_symmetry_group_IT_number 2
_symmetry_cell_setting 'triclinic'
loop_
_space_group_symop_operation_xyz
x,y,z
-x,-y,-z
loop_
_atom_site_type_symbol
_atom_site_label
_atom_site_fract_x
_atom_site_fract_y
_atom_site_fract_z
Si Si1 0.821814 0.056936 0.228341
Si Si2 0.345495 0.480247 0.405165
Si Si3 0.351626 0.215946 0.393079
Si Si4 0.834071 0.927718 0.322725
Si Si5 0.929305 0.534352 0.288704
Si Si6 0.241039 0.490843 0.995176
Si Si7 0.473513 0.105809 0.422371
O O1 0.952972 0.247187 0.415241
O O2 0.609773 0.022720 0.260311
O O3 0.902385 0.046523 0.342185
O O4 0.800288 0.888358 0.855625
O O5 0.500000 0.500000 0.500000
O O6 0.446880 0.636770 0.503106
O O7 0.189921 0.514999 0.599242
O O8 0.246819 0.286144 0.037847
O O9 0.268162 0.314380 0.689944
O O10 0.364386 0.055797 0.220390
O O11 0.670296 0.961301 0.500735
O O12 0.000000 0.000000 0.500000
O O13 0.794859 0.449997 0.057477
O O14 0.069298 0.448981 0.100310
O O15 0.427673 0.672726 0.272662
#
# Coordination Sequence:
#
# PCOD8015561 Si02
#       7
#     2   2   2   2   2   2   2
#     4  11  26  47  74 105 149 199 242 310 368 445
#     4  12  23  45  74 110 149 199 247 300 374 450
#     4  12  24  44  79 102 144 196 253 292 370 444
#     4  12  27  43  75 114 151 187 256 309 372 434
#     4  10  23  42  72 107 145 187 249 300 374 425
#     4  10  21  42  71 101 141 189 243 296 365 436
#     4  11  25  47  71 106 148 198 246 301 372 445
#
# _framework density 25.988738999999999
#
# number of rings (size 3 to 8) (size 9 to 14) (size 15 to 20)
#    0.000    0.857    4.286    1.286    4.000    1.143 
#    2.571    2.857    0.000    0.000    0.000    0.000 
#    0.000    0.000    0.000    0.000    0.000    0.000 
#
# Total GULP energy -173625.287651 kJ/mol
# GULP energy per Si atom -12401.806261 kJ/mol
# Density = 2.592959 g / cm^3
# Si number density = 25.988739 Si / 1000 Ang^3
#
#
#
# Elastic Constant Matrix: (Units=GPa)
#
#
# Indices 1 2 3 4 5 6 
#
# 1 96.9180 22.8726 34.3335 -18.8247 0.7722 -5.1492
# 2 22.8726 115.9512 30.9032 -23.3719 -13.7517 15.0158
# 3 34.3335 30.9032 110.5894 -15.5487 4.9948 2.5675
# 4 -18.8247 -23.3719 -15.5487 35.3146 10.6733 -8.8509
# 5 0.7722 -13.7517 4.9948 10.6733 48.2460 -8.8604
# 6 -5.1492 15.0158 2.5675 -8.8509 -8.8604 41.9826
#
#
#
# Elastic Compliance Matrix: (Units=1/GPa)
#
#
# Indices 1 2 3 4 5 6 
#
# 1 0.012949 -0.001104 -0.002901 0.005991 -0.000955 0.003222
# 2 -0.001104 0.010851 -0.002086 0.004470 0.001869 -0.002552
# 3 -0.002901 -0.002086 0.010993 0.002549 -0.002292 -0.000228
# 4 0.005991 0.004470 0.002549 0.039060 -0.006660 0.005809
# 5 -0.000955 0.001869 -0.002292 -0.006660 0.023521 0.002915
# 6 0.003222 -0.002552 -0.000228 0.005809 0.002915 0.026981
#
#
# Mechanical properties :
#
#
# Convention : Reuss Voigt Hill
#
# Bulk Modulus (GPa) = 44.22687 55.51969 49.87328
# Shear Modulus (GPa) = 34.70438 40.79860 37.75149
#
# Velocity S-wave (km/s) = 3.65823 3.96644 3.81545
# Velocity P-wave (km/s) = 5.90746 6.51047 6.21628
#
# Compressibility (1/GPa) = 0.02261069
#
# Stress axis : x y z
#
# Youngs Moduli (GPa) = 77.22869 92.15492 90.96541
#
# Poissons Ratio (x) = 0.10175 0.26388
# Poissons Ratio (y) = 0.08527 0.18977
# Poissons Ratio (z) = 0.22403 0.19225
#
# Static dielectric constant tensor:
#      x y z
#    x 4.836750 0.290420 0.132590 
#    y 0.290420 4.569660 -0.311950 
#    z 0.132590 -0.311950 4.873230 
# 
# 
# High freq. dielectric constant tensor:
#      x y z
#    x 2.051760 0.015900 0.010740 
#    y 0.015900 2.030570 -0.016350 
#    z 0.010740 -0.016350 2.047680 
# 
# From -- ./inp_files/219014.got.cif
#   From: 2010.06.25/outbox.cif.g09.slc.cpg/sg2_110_cif.got.tgz:219014.got - 2010.06.27 13:26:56.
