data_PCOD8015599
_publ_section_title
;
Structure prediction by ZEFSAII (Michael W. Deem and Ramdas Pophale) SiO2 
 PCOD8015599
Probable space group: P -1
;
_chemical_formula_sum "Si O2"
_cell_formula_units_Z 16
_cell_length_a 9.001019
_cell_length_b 24.359765
_cell_length_c 8.991434
_cell_angle_alpha 129.179457
_cell_angle_beta 102.660246
_cell_angle_gamma 37.614534
_cell_volume 750.036229
_symmetry_space_group_name_H-M "P -1"
_symmetry_group_IT_number 2
_symmetry_cell_setting 'triclinic'
loop_
_space_group_symop_operation_xyz
x,y,z
-x,-y,-z
loop_
_atom_site_type_symbol
_atom_site_label
_atom_site_fract_x
_atom_site_fract_y
_atom_site_fract_z
Si Si1 0.924118 0.635477 0.556266
Si Si2 0.211942 0.087637 0.000921
Si Si3 0.252541 0.911750 0.783400
Si Si4 0.115385 0.603873 0.873493
Si Si5 0.134639 0.422478 0.053693
Si Si6 0.809208 0.137968 0.616912
Si Si7 0.182898 0.128681 0.730377
Si Si8 0.296264 0.608373 0.503491
O O1 0.565627 0.780158 0.713184
O O2 0.001002 0.620468 0.718255
O O3 0.063398 0.505098 0.313019
O O4 0.055456 0.642106 0.482450
O O5 0.890057 0.244634 0.260357
O O6 0.253602 0.102143 0.873039
O O7 0.500000 0.000000 0.000000
O O8 0.200778 0.007922 0.859581
O O9 0.244490 0.856453 0.558471
O O10 0.000000 0.000000 0.000000
O O11 0.481253 0.465833 0.713030
O O12 0.019721 0.589724 0.959219
O O13 0.984491 0.732047 0.110512
O O14 0.494556 0.269702 0.861273
O O15 0.000000 0.500000 0.000000
O O16 0.978483 0.144442 0.668723
O O17 0.000000 0.000000 0.500000
O O18 0.500000 0.000000 0.500000
O O19 0.500000 0.500000 0.500000
#
# Coordination Sequence:
#
# PCOD8015599 Si02
#       8
#     2   2   2   2   2   2   2   2
#     4  11  23  46  72 103 142 184 236 296 347 423
#     4  12  24  45  73 104 142 183 231 299 347 412
#     4  12  28  44  70 107 145 187 243 289 351 424
#     4  11  25  45  75 105 134 191 239 288 352 434
#     4  12  27  47  70 105 148 181 232 292 364 417
#     4  12  27  47  73 103 148 191 229 297 362 421
#     4  12  26  46  73 105 140 186 239 288 359 425
#     4  10  21  42  72 102 135 176 238 283 344 407
#
# _framework density 21.332301999999999
#
# number of rings (size 3 to 8) (size 9 to 14) (size 15 to 20)
#    0.000    0.500    6.250    1.875    8.750    0.000 
#    0.000    1.250    0.000    0.000    0.000    0.000 
#    0.000    0.000    0.000    0.000    0.000    0.000 
#
# Total GULP energy -198449.622181 kJ/mol
# GULP energy per Si atom -12403.101386 kJ/mol
# Density = 2.128375 g / cm^3
# Si number density = 21.332302 Si / 1000 Ang^3
#
#
#
# Elastic Constant Matrix: (Units=GPa)
#
#
# Indices 1 2 3 4 5 6 
#
# 1 171.5926 45.7691 75.7527 5.7511 -13.6008 3.0648
# 2 45.7691 77.9537 35.4903 16.4835 -4.2494 -2.7970
# 3 75.7527 35.4903 156.1181 36.2773 -11.9792 -0.6163
# 4 5.7511 16.4835 36.2773 35.3751 -6.7892 -1.9524
# 5 -13.6008 -4.2494 -11.9792 -6.7892 55.6884 6.1095
# 6 3.0648 -2.7970 -0.6163 -1.9524 6.1095 37.1668
#
#
#
# Elastic Compliance Matrix: (Units=1/GPa)
#
#
# Indices 1 2 3 4 5 6 
#
# 1 0.008925 -0.004289 -0.004489 0.005409 0.001670 -0.001123
# 2 -0.004289 0.016932 -0.000177 -0.007090 -0.000810 0.001386
# 3 -0.004489 -0.000177 0.011073 -0.010547 -0.000012 -0.000012
# 4 0.005409 -0.007090 -0.010547 0.042227 0.003608 0.000471
# 5 0.001670 -0.000810 -0.000012 0.003608 0.019085 -0.003147
# 6 -0.001123 0.001386 -0.000012 0.000471 -0.003147 0.027644
#
#
# Mechanical properties :
#
#
# Convention : Reuss Voigt Hill
#
# Bulk Modulus (GPa) = 52.57705 79.96541 66.27123
# Shear Modulus (GPa) = 33.30304 42.22287 37.76295
#
# Velocity S-wave (km/s) = 3.95543 4.45375 4.21197
# Velocity P-wave (km/s) = 6.74987 8.00093 7.40188
#
# Compressibility (1/GPa) = 0.01901971
#
# Stress axis : x y z
#
# Youngs Moduli (GPa) = 112.05014 59.06012 90.30661
#
# Poissons Ratio (x) = 0.25334 0.40535
# Poissons Ratio (y) = 0.48064 0.01598
# Poissons Ratio (z) = 0.50295 0.01045
#
# Static dielectric constant tensor:
#      x y z
#    x 4.331880 -0.059850 -0.044510 
#    y -0.059850 3.737970 0.167480 
#    z -0.044510 0.167480 4.232160 
# 
# 
# High freq. dielectric constant tensor:
#      x y z
#    x 1.854560 -0.003890 -0.000460 
#    y -0.003890 1.830550 0.014380 
#    z -0.000460 0.014380 1.854900 
# 
# From -- ./inp_files/226512.got.cif
#   From: 2010.06.25/outbox.cif.g09.slc.cpg/sg2_114_cif.got.tgz:226512.got - 2010.06.27 13:26:56.
