data_PCOD8015742
_publ_section_title
;
Structure prediction by ZEFSAII (Michael W. Deem and Ramdas Pophale) SiO2 
 PCOD8015742
Probable space group: P -1
;
_chemical_formula_sum "Si O2"
_cell_formula_units_Z 16
_cell_length_a 6.954437
_cell_length_b 11.184041
_cell_length_c 24.266296
_cell_angle_alpha 32.462147
_cell_angle_beta 113.920531
_cell_angle_gamma 127.277278
_cell_volume 781.084588
_symmetry_space_group_name_H-M "P -1"
_symmetry_group_IT_number 2
_symmetry_cell_setting 'triclinic'
loop_
_space_group_symop_operation_xyz
x,y,z
-x,-y,-z
loop_
_atom_site_type_symbol
_atom_site_label
_atom_site_fract_x
_atom_site_fract_y
_atom_site_fract_z
Si Si1 0.884770 0.320597 0.930924
Si Si2 0.415217 0.196958 0.367963
Si Si3 0.403619 0.498985 0.351204
Si Si4 0.216140 0.257521 0.213747
Si Si5 0.910116 0.647196 0.393111
Si Si6 0.413750 0.401917 0.966978
Si Si7 0.910519 0.351905 0.412304
Si Si8 0.538946 0.062606 0.890084
O O1 0.933521 0.596871 0.852549
O O2 0.766097 0.258348 0.880412
O O3 0.142318 0.341759 0.947789
O O4 0.711658 0.088375 0.044062
O O5 0.345619 0.287592 0.379885
O O6 0.389363 0.331960 0.258661
O O7 0.703256 0.280976 0.368893
O O8 0.218399 0.881645 0.466029
O O9 0.611936 0.521878 0.408548
O O10 0.495803 0.778262 0.224346
O O11 0.153831 0.386204 0.400761
O O12 0.392866 0.361436 0.141381
O O13 0.030430 0.948084 0.306575
O O14 0.982685 0.618945 0.349763
O O15 0.000000 0.500000 0.500000
O O16 0.500000 0.500000 0.000000
O O17 0.406123 0.137167 0.055999
#
# Coordination Sequence:
#
# PCOD8015742 Si02
#       8
#     2   2   2   2   2   2   2   2
#     4  10  23  45  64  91 127 164 213 268 307 374
#     4  10  21  43  64  92 129 162 217 267 314 365
#     4  11  24  40  70  96 123 172 216 259 320 377
#     4  11  24  42  65  91 127 173 209 256 322 375
#     4  11  25  44  62  93 135 170 207 262 317 379
#     4  11  27  41  65  96 127 167 210 260 321 385
#     4  10  23  41  65  93 127 170 212 267 309 374
#     4  10  23  42  67  93 123 163 213 264 317 367
#
# _framework density 20.484335999999999
#
# number of rings (size 3 to 8) (size 9 to 14) (size 15 to 20)
#    0.000    1.500    2.500    0.750    7.000    2.500 
#    2.250    0.000    0.000    0.000    0.000    0.000 
#    0.000    0.000    0.000    0.000    0.000    0.000 
#
# Total GULP energy -198413.189606 kJ/mol
# GULP energy per Si atom -12400.824350 kJ/mol
# Density = 2.043771 g / cm^3
# Si number density = 20.484336 Si / 1000 Ang^3
#
#
#
# Elastic Constant Matrix: (Units=GPa)
#
#
# Indices 1 2 3 4 5 6 
#
# 1 132.7865 52.7046 16.7323 2.2639 6.4298 11.5530
# 2 52.7046 103.5429 31.4073 -4.5644 -0.0127 -2.1334
# 3 16.7323 31.4073 72.0863 4.6681 6.8152 3.7530
# 4 2.2639 -4.5644 4.6681 36.0176 -6.3714 8.4327
# 5 6.4298 -0.0127 6.8152 -6.3714 22.9205 2.9647
# 6 11.5530 -2.1334 3.7530 8.4327 2.9647 27.1392
#
#
#
# Elastic Compliance Matrix: (Units=1/GPa)
#
#
# Indices 1 2 3 4 5 6 
#
# 1 0.010144 -0.005460 0.000559 -0.000886 -0.002711 -0.004253
# 2 -0.005460 0.014341 -0.005663 0.002846 0.003632 0.002954
# 3 0.000559 -0.005663 0.017097 -0.003772 -0.006136 -0.001205
# 4 -0.000886 0.002846 -0.003772 0.033250 0.011975 -0.010517
# 5 -0.002711 0.003632 -0.006136 0.011975 0.050443 -0.006943
# 6 -0.004253 0.002954 -0.001205 -0.010517 -0.006943 0.043083
#
#
# Mechanical properties :
#
#
# Convention : Reuss Voigt Hill
#
# Bulk Modulus (GPa) = 48.88601 56.67824 52.78213
# Shear Modulus (GPa) = 25.47084 31.05356 28.26220
#
# Velocity S-wave (km/s) = 3.53006 3.89777 3.71846
# Velocity P-wave (km/s) = 6.36647 6.92719 6.65274
#
# Compressibility (1/GPa) = 0.02045575
#
# Stress axis : x y z
#
# Youngs Moduli (GPa) = 98.58014 69.72795 58.49105
#
# Poissons Ratio (x) = 0.38073 -0.03272
# Poissons Ratio (y) = 0.53826 0.33121
# Poissons Ratio (z) = -0.05515 0.39483
#
# Static dielectric constant tensor:
#      x y z
#    x 3.685420 -0.067000 0.208690 
#    y -0.067000 3.856040 0.000540 
#    z 0.208690 0.000540 3.803220 
# 
# 
# High freq. dielectric constant tensor:
#      x y z
#    x 1.803260 -0.006300 0.016350 
#    y -0.006300 1.811950 -0.002220 
#    z 0.016350 -0.002220 1.802550 
# 
# From -- ./inp_files/39725.got.cif
#   From: 2010.06.25/outbox.cif.g09.slc.cpg/sg2_20_cif.got.tgz:39725.got - 2010.06.27 13:26:56.
