data_PCOD8015057
_publ_section_title
;
Structure prediction by ZEFSAII (Michael W. Deem and Ramdas Pophale) SiO2 
 PCOD8015057
Probable space group: P -1
;
_chemical_formula_sum "Si O2"
_cell_formula_units_Z 14
_cell_length_a 9.209522
_cell_length_b 11.209003
_cell_length_c 15.716852
_cell_angle_alpha 144.797289
_cell_angle_beta 105.097836
_cell_angle_gamma 100.279944
_cell_volume 642.177430
_symmetry_space_group_name_H-M "P -1"
_symmetry_group_IT_number 2
_symmetry_cell_setting 'triclinic'
loop_
_space_group_symop_operation_xyz
x,y,z
-x,-y,-z
loop_
_atom_site_type_symbol
_atom_site_label
_atom_site_fract_x
_atom_site_fract_y
_atom_site_fract_z
Si Si1 0.223835 0.386982 0.533731
Si Si2 0.885781 0.262475 0.507014
Si Si3 0.533969 0.076639 0.224064
Si Si4 0.506361 0.640554 0.885054
Si Si5 0.208106 0.290868 0.791010
Si Si6 0.948469 0.445630 0.129578
Si Si7 0.869877 0.735560 0.051330
O O1 0.379527 0.620236 0.619851
O O2 0.354479 0.437251 0.665462
O O3 0.064723 0.421359 0.553775
O O4 0.094158 0.066573 0.291555
O O5 0.665604 0.125310 0.354372
O O6 0.957136 0.491283 0.724325
O O7 0.881243 0.026717 0.408664
O O8 0.553613 0.931909 0.064703
O O9 0.291937 0.869016 0.094739
O O10 0.407146 0.497236 0.879406
O O11 0.723409 0.722912 0.956053
O O12 0.033814 0.293141 0.737416
O O13 0.262850 0.409283 0.965555
O O14 0.090057 0.452831 0.089843
#
# Coordination Sequence:
#
# PCOD8015057 Si02
#       7
#     2   2   2   2   2   2   2
#     4  11  23  40  67  93 121 163 216 253 297 369
#     4  11  22  39  69  91 123 162 212 255 303 363
#     4  11  23  40  67  93 121 163 216 253 297 369
#     4  11  22  39  69  91 123 162 212 255 303 363
#     4  10  21  42  65  92 124 160 212 256 297 372
#     4  11  25  40  61  95 131 162 198 257 319 364
#     4  11  25  40  61  95 131 162 198 257 319 364
#
# _framework density 21.800827000000002
#
# number of rings (size 3 to 8) (size 9 to 14) (size 15 to 20)
#    0.000    1.143    5.714    2.143    4.000    1.714 
#    0.000    2.143    0.000    0.000    0.000    0.000 
#    0.000    0.000    0.000    0.000    0.000    0.000 
#
# Total GULP energy -173542.312153 kJ/mol
# GULP energy per Si atom -12395.879440 kJ/mol
# Density = 2.175121 g / cm^3
# Si number density = 21.800827 Si / 1000 Ang^3
#
#
#
# Elastic Constant Matrix: (Units=GPa)
#
#
# Indices 1 2 3 4 5 6 
#
# 1 95.8445 34.8393 42.9888 -18.0183 -2.4744 -9.0602
# 2 34.8393 86.6272 44.9043 6.5369 2.5356 -1.6630
# 3 42.9888 44.9043 96.0404 -21.9495 11.2431 -4.6255
# 4 -18.0183 6.5369 -21.9495 38.9499 -1.5807 10.3158
# 5 -2.4744 2.5356 11.2431 -1.5807 26.7044 -7.6329
# 6 -9.0602 -1.6630 -4.6255 10.3158 -7.6329 11.7063
#
#
#
# Elastic Compliance Matrix: (Units=1/GPa)
#
#
# Indices 1 2 3 4 5 6 
#
# 1 0.015989 -0.003854 -0.005208 0.001920 0.007943 0.013257
# 2 -0.003854 0.019719 -0.010643 -0.013722 0.004476 0.010623
# 3 -0.005208 -0.010643 0.022154 0.016714 -0.013645 -0.020415
# 4 0.001920 -0.013722 0.016714 0.050692 -0.016676 -0.049403
# 5 0.007943 0.004476 -0.013645 -0.016676 0.057906 0.053844
# 6 0.013257 0.010623 -0.020415 -0.049403 0.053844 0.167769
#
#
# Mechanical properties :
#
#
# Convention : Reuss Voigt Hill
#
# Bulk Modulus (GPa) = 54.19231 58.21964 56.20597
# Shear Modulus (GPa) = 13.16520 25.85746 19.51133
#
# Velocity S-wave (km/s) = 2.46007 3.44768 2.99487
# Velocity P-wave (km/s) = 5.74292 6.52778 6.14789
#
# Compressibility (1/GPa) = 0.01845280
#
# Stress axis : x y z
#
# Youngs Moduli (GPa) = 62.54113 50.71228 45.13933
#
# Poissons Ratio (x) = 0.19545 0.23507
# Poissons Ratio (y) = 0.24103 0.48042
# Poissons Ratio (z) = 0.32569 0.53973
#
# Static dielectric constant tensor:
#      x y z
#    x 3.644260 -0.037580 0.126050 
#    y -0.037580 3.862780 -0.011460 
#    z 0.126050 -0.011460 3.875860 
# 
# 
# High freq. dielectric constant tensor:
#      x y z
#    x 1.835200 -0.007240 0.012620 
#    y -0.007240 1.852880 -0.010300 
#    z 0.012620 -0.010300 1.855430 
# 
# From -- ./inp_files/445861.got.cif
#   From: 2010.06.25/outbox.cif.g09.slc.cpg/sg2_223_cif.got.tgz:445861.got - 2010.06.27 13:26:56.
