data_PCOD8015564
_publ_section_title
;
Structure prediction by ZEFSAII (Michael W. Deem and Ramdas Pophale) SiO2 
 PCOD8015564
Probable space group: P -1
;
_chemical_formula_sum "Si O2"
_cell_formula_units_Z 16
_cell_length_a 19.184815
_cell_length_b 13.478938
_cell_length_c 8.673404
_cell_angle_alpha 124.909712
_cell_angle_beta 134.394592
_cell_angle_gamma 25.637400
_cell_volume 680.910357
_symmetry_space_group_name_H-M "P -1"
_symmetry_group_IT_number 2
_symmetry_cell_setting 'triclinic'
loop_
_space_group_symop_operation_xyz
x,y,z
-x,-y,-z
loop_
_atom_site_type_symbol
_atom_site_label
_atom_site_fract_x
_atom_site_fract_y
_atom_site_fract_z
Si Si1 0.063892 0.729888 0.617736
Si Si2 0.309746 0.150173 0.258661
Si Si3 0.721483 0.268099 0.117420
Si Si4 0.234341 0.823325 0.241030
Si Si5 0.254286 0.968081 0.838291
Si Si6 0.162299 0.369437 0.522123
Si Si7 0.449114 0.379557 0.273384
Si Si8 0.541022 0.882434 0.808708
O O1 0.205035 0.671661 0.697080
O O2 0.180511 0.496978 0.673456
O O3 0.920338 0.817287 0.354095
O O4 0.952100 0.925034 0.746891
O O5 0.134810 0.365179 0.293842
O O6 0.292684 0.238366 0.147001
O O7 0.500000 0.000000 0.500000
O O8 0.301792 0.016717 0.085893
O O9 0.803002 0.097244 0.226990
O O10 0.500000 0.500000 0.000000
O O11 0.785888 0.144704 0.944500
O O12 0.261666 0.654592 0.187456
O O13 0.422678 0.691025 0.464984
O O14 0.442114 0.756434 0.839251
O O15 0.000000 0.500000 0.500000
O O16 0.343633 0.097553 0.604946
O O17 0.385840 0.325119 0.211334
O O18 0.500000 0.000000 0.000000
#
# Coordination Sequence:
#
# PCOD8015564 Si02
#       8
#     2   2   2   2   2   2   2   2
#     4  11  27  48  67 103 150 185 236 290 358 432
#     4  10  25  43  72 105 134 186 243 289 352 421
#     4  12  26  42  75 102 138 188 243 295 355 410
#     4  10  23  43  69 102 137 184 233 288 351 423
#     4  11  23  46  70  99 147 184 237 297 354 425
#     4  11  26  47  71 102 146 186 233 293 360 423
#     4  10  21  42  71 102 139 183 237 287 354 422
#     4  11  23  43  73 101 137 181 239 291 352 414
#
# _framework density 23.497954
#
# number of rings (size 3 to 8) (size 9 to 14) (size 15 to 20)
#    0.000    1.250    2.500    2.250   10.500    0.500 
#    2.250    0.000    0.000    0.000    0.000    0.000 
#    0.000    0.000    0.000    0.000    0.000    0.000 
#
# Total GULP energy -198307.905721 kJ/mol
# GULP energy per Si atom -12394.244108 kJ/mol
# Density = 2.344447 g / cm^3
# Si number density = 23.497954 Si / 1000 Ang^3
#
#
#
# Elastic Constant Matrix: (Units=GPa)
#
#
# Indices 1 2 3 4 5 6 
#
# 1 171.5246 35.7007 41.5219 24.6041 -11.0384 15.8279
# 2 35.7007 87.8619 25.7680 24.9071 -7.8502 14.4827
# 3 41.5219 25.7680 78.8298 19.2523 -1.1146 -15.2325
# 4 24.6041 24.9071 19.2523 34.6792 0.0505 0.2059
# 5 -11.0384 -7.8502 -1.1146 0.0505 40.8327 8.1677
# 6 15.8279 14.4827 -15.2325 0.2059 8.1677 44.7830
#
#
#
# Elastic Compliance Matrix: (Units=1/GPa)
#
#
# Indices 1 2 3 4 5 6 
#
# 1 0.007973 0.000003 -0.004294 -0.003251 0.003005 -0.004813
# 2 0.000003 0.017295 -0.004764 -0.009738 0.004818 -0.008049
# 3 -0.004294 -0.004764 0.019544 -0.004439 -0.003615 0.010386
# 4 -0.003251 -0.009738 -0.004439 0.040586 -0.003573 0.003254
# 5 0.003005 0.004818 -0.003615 -0.003573 0.027920 -0.008926
# 6 -0.004813 -0.008049 0.010386 0.003254 -0.008926 0.031779
#
#
# Mechanical properties :
#
#
# Convention : Reuss Voigt Hill
#
# Bulk Modulus (GPa) = 37.44949 60.46641 48.95795
# Shear Modulus (GPa) = 29.05148 39.74067 34.39608
#
# Velocity S-wave (km/s) = 3.51998 4.11693 3.83010
# Velocity P-wave (km/s) = 5.70020 6.95610 6.35923
#
# Compressibility (1/GPa) = 0.02670263
#
# Stress axis : x y z
#
# Youngs Moduli (GPa) = 125.42823 57.81958 51.16573
#
# Poissons Ratio (x) = -0.00018 0.21971
# Poissons Ratio (y) = -0.00039 0.24375
# Poissons Ratio (z) = 0.53859 0.27544
#
# Static dielectric constant tensor:
#      x y z
#    x 4.804560 -0.214090 -0.382620 
#    y -0.214090 4.246060 0.474440 
#    z -0.382620 0.474440 4.724560 
# 
# 
# High freq. dielectric constant tensor:
#      x y z
#    x 1.943410 0.006280 -0.011800 
#    y 0.006280 1.921780 0.010860 
#    z -0.011800 0.010860 1.930890 
# 
# From -- ./inp_files/333640.got.cif
#   From: 2010.06.25/outbox.cif.g09.slc.cpg/sg2_167_cif.got.tgz:333640.got - 2010.06.27 13:26:56.
