data_PCOD8015334
_publ_section_title
;
Structure prediction by ZEFSAII (Michael W. Deem and Ramdas Pophale) SiO2 
 PCOD8015334
Probable space group: P -1
;
_chemical_formula_sum "Si O2"
_cell_formula_units_Z 14
_cell_length_a 8.126884
_cell_length_b 9.353643
_cell_length_c 11.308164
_cell_angle_alpha 78.870678
_cell_angle_beta 137.590034
_cell_angle_gamma 102.569787
_cell_volume 565.162696
_symmetry_space_group_name_H-M "P -1"
_symmetry_group_IT_number 2
_symmetry_cell_setting 'triclinic'
loop_
_space_group_symop_operation_xyz
x,y,z
-x,-y,-z
loop_
_atom_site_type_symbol
_atom_site_label
_atom_site_fract_x
_atom_site_fract_y
_atom_site_fract_z
Si Si1 0.570138 0.125979 0.693402
Si Si2 0.219293 0.614694 0.546967
Si Si3 0.282636 0.997857 0.973458
Si Si4 0.822612 0.442545 0.073739
Si Si5 0.533686 0.693997 0.926229
Si Si6 0.826114 0.065753 0.603775
Si Si7 0.643038 0.457268 0.711250
O O1 0.693757 0.052788 0.661710
O O2 0.561125 0.297662 0.637726
O O3 0.304238 0.026906 0.561464
O O4 0.708821 0.115175 0.894867
O O5 0.411176 0.663690 0.741133
O O6 0.108819 0.760646 0.419428
O O7 0.396988 0.542193 0.556465
O O8 0.000000 0.500000 0.500000
O O9 0.052655 0.975712 0.767598
O O10 0.292681 0.155599 0.016329
O O11 0.500000 0.000000 0.000000
O O12 0.680086 0.300467 0.087095
O O13 0.118247 0.456228 0.242263
O O14 0.725050 0.576328 0.074215
O O15 0.731134 0.438124 0.893375
#
# Coordination Sequence:
#
# PCOD8015334 Si02
#       7
#     2   2   2   2   2   2   2
#     4  11  25  49  72 104 141 187 234 290 349 424
#     4  11  26  44  70 100 142 186 231 292 357 415
#     4  12  26  44  74 103 139 189 237 285 351 419
#     4   9  20  39  70 100 132 182 234 289 344 420
#     4  10  21  42  67  98 139 181 231 285 355 407
#     4  11  27  49  71 101 145 189 232 289 356 422
#     4  10  22  43  70 104 138 176 241 289 349 415
#
# _framework density 24.771625
#
# number of rings (size 3 to 8) (size 9 to 14) (size 15 to 20)
#    0.000    1.429    1.429    2.143   10.000    2.286 
#   12.857    0.000    0.000    0.000    0.000    0.000 
#    0.000    0.000    0.000    0.000    0.000    0.000 
#
# Total GULP energy -173454.936689 kJ/mol
# GULP energy per Si atom -12389.638335 kJ/mol
# Density = 2.471524 g / cm^3
# Si number density = 24.771625 Si / 1000 Ang^3
#
#
#
# Elastic Constant Matrix: (Units=GPa)
#
#
# Indices 1 2 3 4 5 6 
#
# 1 98.0613 9.6366 15.0191 -11.5892 22.1026 3.2566
# 2 9.6366 71.7723 27.3680 7.0300 11.2911 18.8443
# 3 15.0191 27.3680 123.4557 -14.8607 11.7453 2.3931
# 4 -11.5892 7.0300 -14.8607 28.0814 11.1548 -0.1550
# 5 22.1026 11.2911 11.7453 11.1548 28.5188 -5.2472
# 6 3.2566 18.8443 2.3931 -0.1550 -5.2472 31.8621
#
#
#
# Elastic Compliance Matrix: (Units=1/GPa)
#
#
# Indices 1 2 3 4 5 6 
#
# 1 0.016797 0.000124 0.002037 0.016417 -0.021316 -0.005374
# 2 0.000124 0.020485 -0.004174 -0.004534 -0.007108 -0.013007
# 3 0.002037 -0.004174 0.010961 0.011185 -0.008808 0.000041
# 4 0.016417 -0.004534 0.011185 0.066365 -0.042697 -0.006545
# 5 -0.021316 -0.007108 -0.008808 -0.042697 0.078359 0.019741
# 6 -0.005374 -0.013007 0.000041 -0.006545 0.019741 0.042844
#
#
# Mechanical properties :
#
#
# Convention : Reuss Voigt Hill
#
# Bulk Modulus (GPa) = 22.61500 44.14852 33.38176
# Shear Modulus (GPa) = 19.64062 33.77683 26.70873
#
# Velocity S-wave (km/s) = 2.81885 3.69661 3.28716
# Velocity P-wave (km/s) = 4.44339 6.00673 5.28320
#
# Compressibility (1/GPa) = 0.04421843
#
# Stress axis : x y z
#
# Youngs Moduli (GPa) = 59.53580 48.81560 91.23158
#
# Poissons Ratio (x) = -0.00607 -0.18586
# Poissons Ratio (y) = -0.00740 0.38078
# Poissons Ratio (z) = -0.12129 0.20375
#
# Static dielectric constant tensor:
#      x y z
#    x 5.237800 1.122910 2.598460 
#    y 1.122910 7.699170 4.379350 
#    z 2.598460 4.379350 14.706780 
# 
# 
# High freq. dielectric constant tensor:
#      x y z
#    x 1.987200 -0.001240 -0.007410 
#    y -0.001240 1.987390 0.009520 
#    z -0.007410 0.009520 1.994970 
# 
# From -- ./inp_files/382152.got.cif
#   From: 2010.06.25/outbox.cif.g09.slc.cpg/sg2_192_cif.got.tgz:382152.got - 2010.06.27 13:26:56.
