data_PCOD8015676
_publ_section_title
;
Structure prediction by ZEFSAII (Michael W. Deem and Ramdas Pophale) SiO2 
 PCOD8015676
Probable space group: P -1
;
_chemical_formula_sum "Si O2"
_cell_formula_units_Z 16
_cell_length_a 6.463763
_cell_length_b 15.000093
_cell_length_c 14.651686
_cell_angle_alpha 143.132000
_cell_angle_beta 121.030092
_cell_angle_gamma 63.866014
_cell_volume 729.254606
_symmetry_space_group_name_H-M "P -1"
_symmetry_group_IT_number 2
_symmetry_cell_setting 'triclinic'
loop_
_space_group_symop_operation_xyz
x,y,z
-x,-y,-z
loop_
_atom_site_type_symbol
_atom_site_label
_atom_site_fract_x
_atom_site_fract_y
_atom_site_fract_z
Si Si1 0.030802 0.667264 0.739563
Si Si2 0.472141 0.846233 0.983597
Si Si3 0.932651 0.347327 0.475487
Si Si4 0.650757 0.422263 0.888590
Si Si5 0.362150 0.185922 0.536361
Si Si6 0.255664 0.063293 0.607041
Si Si7 0.511228 0.824764 0.762843
Si Si8 0.157105 0.300391 0.930282
O O1 0.999066 0.512090 0.660937
O O2 0.779283 0.758501 0.760157
O O3 0.242627 0.765738 0.910798
O O4 0.104253 0.634306 0.625402
O O5 0.437366 0.850450 0.871438
O O6 0.720740 0.754744 0.992505
O O7 0.495050 0.016890 0.162040
O O8 0.683843 0.288265 0.414546
O O9 0.144324 0.225493 0.449826
O O10 0.486595 0.336330 0.712077
O O11 0.865139 0.306333 0.880629
O O12 0.500000 0.500000 0.000000
O O13 0.769567 0.535513 0.940928
O O14 0.271797 0.120867 0.556046
O O15 0.539099 0.064252 0.426612
O O16 0.269091 0.195952 0.790200
O O17 0.000000 0.000000 0.500000
#
# Coordination Sequence:
#
# PCOD8015676 Si02
#       8
#     2   2   2   2   2   2   2   2
#     4  10  21  43  61  92 124 159 206 257 305 375
#     4  10  23  39  63  92 122 159 209 250 313 368
#     4  10  23  38  64  92 122 161 209 250 311 370
#     4  11  23  44  62  93 128 163 213 257 305 376
#     4  11  24  41  64  92 129 168 209 258 313 367
#     4  11  24  42  60  93 129 164 214 260 301 375
#     4  10  22  42  60  93 124 157 205 261 303 374
#     4  11  24  41  66  92 126 169 208 258 313 371
#
# _framework density 21.94021
#
# number of rings (size 3 to 8) (size 9 to 14) (size 15 to 20)
#    0.000    1.500    2.500    1.500    3.500    2.000 
#    0.000    0.000    0.000    0.000    0.000    0.000 
#    0.000    0.000    0.000    0.000    0.000    0.000 
#
# Total GULP energy -198354.639824 kJ/mol
# GULP energy per Si atom -12397.164989 kJ/mol
# Density = 2.189027 g / cm^3
# Si number density = 21.940210 Si / 1000 Ang^3
#
#
#
# Elastic Constant Matrix: (Units=GPa)
#
#
# Indices 1 2 3 4 5 6 
#
# 1 87.1836 21.2174 37.0107 11.3428 15.7959 -22.4381
# 2 21.2174 115.5886 25.9183 11.5194 12.7522 -25.9541
# 3 37.0107 25.9183 80.3119 23.4951 23.2176 1.5081
# 4 11.3428 11.5194 23.4951 33.3208 -1.7160 3.5531
# 5 15.7959 12.7522 23.2176 -1.7160 41.5436 5.6135
# 6 -22.4381 -25.9541 1.5081 3.5531 5.6135 36.2535
#
#
#
# Elastic Compliance Matrix: (Units=1/GPa)
#
#
# Indices 1 2 3 4 5 6 
#
# 1 0.019709 0.002758 -0.006856 -0.004888 -0.006873 0.016001
# 2 0.002758 0.012516 -0.002520 -0.005053 -0.005325 0.012092
# 3 -0.006856 -0.002520 0.023079 -0.013104 -0.009485 -0.004254
# 4 -0.004888 -0.005053 -0.013104 0.044752 0.014297 -0.012698
# 5 -0.006873 -0.005325 -0.009485 0.014297 0.036193 -0.014677
# 6 0.016001 0.012092 -0.004254 -0.012698 -0.014677 0.049838
#
#
# Mechanical properties :
#
#
# Convention : Reuss Voigt Hill
#
# Bulk Modulus (GPa) = 23.77060 50.15299 36.96179
# Shear Modulus (GPa) = 23.43613 35.48607 29.46110
#
# Velocity S-wave (km/s) = 3.27185 4.02605 3.66839
# Velocity P-wave (km/s) = 5.01310 6.67238 5.90135
#
# Compressibility (1/GPa) = 0.04206877
#
# Stress axis : x y z
#
# Youngs Moduli (GPa) = 50.73917 79.89604 43.32885
#
# Poissons Ratio (x) = -0.22034 0.29706
# Poissons Ratio (y) = -0.13993 0.10917
# Poissons Ratio (z) = 0.34787 0.20130
#
# Static dielectric constant tensor:
#      x y z
#    x 3.744620 0.070960 0.585600 
#    y 0.070960 3.989670 0.249440 
#    z 0.585600 0.249440 3.913490 
# 
# 
# High freq. dielectric constant tensor:
#      x y z
#    x 1.863670 -0.007950 0.022910 
#    y -0.007950 1.866820 0.017860 
#    z 0.022910 0.017860 1.859980 
# 
# From -- ./inp_files/78398.got.cif
#   From: 2010.06.25/outbox.cif.g09.slc.cpg/sg2_40_cif.got.tgz:78398.got - 2010.06.27 13:26:56.
