data_PCOD8015467
_publ_section_title
;
Structure prediction by ZEFSAII (Michael W. Deem and Ramdas Pophale) SiO2 
 PCOD8015467
Probable space group: P -1
;
_chemical_formula_sum "Si O2"
_cell_formula_units_Z 16
_cell_length_a 15.612309
_cell_length_b 11.679016
_cell_length_c 14.768272
_cell_angle_alpha 28.129302
_cell_angle_beta 43.577686
_cell_angle_gamma 61.846340
_cell_volume 750.715442
_symmetry_space_group_name_H-M "P -1"
_symmetry_group_IT_number 2
_symmetry_cell_setting 'triclinic'
loop_
_space_group_symop_operation_xyz
x,y,z
-x,-y,-z
loop_
_atom_site_type_symbol
_atom_site_label
_atom_site_fract_x
_atom_site_fract_y
_atom_site_fract_z
Si Si1 0.807214 0.244402 0.505755
Si Si2 0.096876 0.146066 0.059460
Si Si3 0.890465 0.835666 0.279018
Si Si4 0.768587 0.212725 0.767909
Si Si5 0.626672 0.195662 0.392790
Si Si6 0.054700 0.338982 0.133525
Si Si7 0.474467 0.098973 0.139099
Si Si8 0.409721 0.273256 0.386503
O O1 0.815164 0.526024 0.264703
O O2 0.815368 0.260696 0.594962
O O3 0.935520 0.194995 0.405014
O O4 0.655779 0.978214 0.776289
O O5 0.061696 0.115327 0.216079
O O6 0.191592 0.002777 0.065751
O O7 0.950312 0.986986 0.224155
O O8 0.858490 0.517261 0.534945
O O9 0.744093 0.838481 0.368155
O O10 0.000000 0.000000 0.000000
O O11 0.597698 0.079877 0.002921
O O12 0.521647 0.285864 0.365407
O O13 0.579868 0.121698 0.583631
O O14 0.611076 0.923788 0.544633
O O15 0.791275 0.454253 0.081914
O O16 0.000000 0.500000 0.000000
O O17 0.532235 0.412461 0.915022
#
# Coordination Sequence:
#
# PCOD8015467 Si02
#       8
#     2   2   2   2   2   2   2   2
#     4  11  23  43  65  96 134 168 209 269 323 373
#     4  11  23  43  67  96 126 171 213 266 320 376
#     4  11  23  44  67  90 134 169 209 272 316 376
#     4  11  26  41  64 100 125 174 219 253 327 387
#     4  11  22  44  66  96 127 173 217 263 320 381
#     4  10  21  42  69  94 126 169 214 264 324 371
#     4  11  24  41  65  93 137 168 213 266 315 389
#     4  10  25  42  65  96 130 172 219 260 322 380
#
# _framework density 21.313002000000001
#
# number of rings (size 3 to 8) (size 9 to 14) (size 15 to 20)
#    0.000    1.250    3.750    2.625    3.500    1.000 
#    0.000    0.000    0.000    0.000    0.000    0.000 
#    0.000    0.000    0.000    0.000    0.000    0.000 
#
# Total GULP energy -198437.581630 kJ/mol
# GULP energy per Si atom -12402.348852 kJ/mol
# Density = 2.126449 g / cm^3
# Si number density = 21.313002 Si / 1000 Ang^3
#
#
#
# Elastic Constant Matrix: (Units=GPa)
#
#
# Indices 1 2 3 4 5 6 
#
# 1 86.5382 35.5237 30.0899 1.3592 -31.2787 -1.4916
# 2 35.5237 105.5904 39.5667 1.8616 -17.5012 -10.3075
# 3 30.0899 39.5667 100.3072 15.2115 -27.7081 -5.6174
# 4 1.3592 1.8616 15.2115 31.7115 2.1166 -5.5260
# 5 -31.2787 -17.5012 -27.7081 2.1166 41.2617 1.5064
# 6 -1.4916 -10.3075 -5.6174 -5.5260 1.5064 41.6735
#
#
#
# Elastic Compliance Matrix: (Units=1/GPa)
#
#
# Indices 1 2 3 4 5 6 
#
# 1 0.017408 -0.003891 -0.000412 -0.001248 0.011369 -0.000971
# 2 -0.003891 0.012419 -0.004026 0.001871 -0.000579 0.002659
# 3 -0.000412 -0.004026 0.015200 -0.007661 0.008590 -0.000288
# 4 -0.001248 0.001871 -0.007661 0.036422 -0.007329 0.004480
# 5 0.011369 -0.000579 0.008590 -0.007329 0.038788 -0.000952
# 6 -0.000971 0.002659 -0.000288 0.004480 -0.000952 0.025209
#
#
# Mechanical properties :
#
#
# Convention : Reuss Voigt Hill
#
# Bulk Modulus (GPa) = 35.25005 55.86626 45.55816
# Shear Modulus (GPa) = 29.14449 35.41306 32.27878
#
# Velocity S-wave (km/s) = 3.70192 4.08066 3.89589
# Velocity P-wave (km/s) = 5.90317 6.96215 6.45442
#
# Compressibility (1/GPa) = 0.02836875
#
# Stress axis : x y z
#
# Youngs Moduli (GPa) = 57.44481 80.52283 65.79110
#
# Poissons Ratio (x) = 0.31329 0.02711
# Poissons Ratio (y) = 0.22350 0.26489
# Poissons Ratio (z) = 0.02367 0.32420
#
# Static dielectric constant tensor:
#      x y z
#    x 3.779210 0.032300 -0.173800 
#    y 0.032300 4.274100 0.059280 
#    z -0.173800 0.059280 3.844130 
# 
# 
# High freq. dielectric constant tensor:
#      x y z
#    x 1.836010 0.000200 -0.012720 
#    y 0.000200 1.851250 -0.000510 
#    z -0.012720 -0.000510 1.833590 
# 
# From -- ./inp_files/456054.got.cif
#   From: 2010.06.25/outbox.cif.g09.slc.cpg/sg2_229_cif.got.tgz:456054.got - 2010.06.27 13:26:56.
