data_PCOD8015226
_publ_section_title
;
Structure prediction by ZEFSAII (Michael W. Deem and Ramdas Pophale) SiO2 
 PCOD8015226
Probable space group: P -1
;
_chemical_formula_sum "Si O2"
_cell_formula_units_Z 16
_cell_length_a 9.197301
_cell_length_b 13.287690
_cell_length_c 8.835794
_cell_angle_alpha 101.084806
_cell_angle_beta 47.264465
_cell_angle_gamma 98.028330
_cell_volume 778.268511
_symmetry_space_group_name_H-M "P -1"
_symmetry_group_IT_number 2
_symmetry_cell_setting 'triclinic'
loop_
_space_group_symop_operation_xyz
x,y,z
-x,-y,-z
loop_
_atom_site_type_symbol
_atom_site_label
_atom_site_fract_x
_atom_site_fract_y
_atom_site_fract_z
Si Si1 0.921425 0.905785 0.933331
Si Si2 0.891293 0.559246 0.457502
Si Si3 0.198284 0.780071 0.872825
Si Si4 0.450425 0.984201 0.704100
Si Si5 0.854573 0.064091 0.525186
Si Si6 0.700009 0.448698 0.294109
Si Si7 0.468910 0.570914 0.898523
Si Si8 0.817461 0.264438 0.789922
O O1 0.993930 0.800866 0.931678
O O2 0.030641 0.909470 0.699564
O O3 0.684666 0.922945 0.105231
O O4 0.000000 0.000000 0.000000
O O5 0.875635 0.496636 0.289447
O O6 0.673459 0.589333 0.673431
O O7 0.000000 0.500000 0.500000
O O8 0.007302 0.663272 0.373653
O O9 0.296411 0.674165 0.717650
O O10 0.357352 0.871606 0.763282
O O11 0.129567 0.775626 0.093080
O O12 0.661501 0.991585 0.636537
O O13 0.500000 0.000000 0.500000
O O14 0.790214 0.170644 0.671027
O O15 0.000000 0.000000 0.500000
O O16 0.500000 0.500000 0.500000
O O17 0.701335 0.469190 0.114976
O O18 0.500000 0.500000 0.000000
O O19 0.392841 0.678509 0.047052
#
# Coordination Sequence:
#
# PCOD8015226 Si02
#       8
#     2   2   2   2   2   2   2   2
#     4  10  21  42  66  98 131 170 223 274 330 410
#     4  11  23  42  70  91 138 181 220 276 341 392
#     4  10  22  43  70  96 139 169 229 283 330 409
#     4  11  23  44  71  96 131 179 219 275 344 396
#     4  12  26  42  69  98 139 175 223 279 336 397
#     4   9  22  41  66  99 132 179 223 274 340 400
#     4  10  21  44  66  97 136 170 224 284 327 407
#     4  11  26  43  63 101 137 173 224 278 334 394
#
# _framework density 20.558456
#
# number of rings (size 3 to 8) (size 9 to 14) (size 15 to 20)
#    0.000    1.500    3.750    1.500    1.750    8.000 
#    0.000    0.000    0.000    0.000    0.000    0.000 
#    0.000    0.000    0.000    0.000    0.000    0.000 
#
# Total GULP energy -198221.654694 kJ/mol
# GULP energy per Si atom -12388.853418 kJ/mol
# Density = 2.051166 g / cm^3
# Si number density = 20.558456 Si / 1000 Ang^3
#
#
#
# Elastic Constant Matrix: (Units=GPa)
#
#
# Indices 1 2 3 4 5 6 
#
# 1 134.7025 48.4991 37.1293 3.1870 0.5402 -15.9090
# 2 48.4991 112.1123 41.0300 5.8321 2.6400 -9.7455
# 3 37.1293 41.0300 112.3973 7.9959 -6.6910 -10.3765
# 4 3.1870 5.8321 7.9959 48.8684 -2.4366 -0.8071
# 5 0.5402 2.6400 -6.6910 -2.4366 43.7145 -3.1115
# 6 -15.9090 -9.7455 -10.3765 -0.8071 -3.1115 41.1483
#
#
#
# Elastic Compliance Matrix: (Units=1/GPa)
#
#
# Indices 1 2 3 4 5 6 
#
# 1 0.009330 -0.003211 -0.001693 0.000092 -0.000003 0.002421
# 2 -0.003211 0.011568 -0.003123 -0.000707 -0.001133 0.000611
# 3 -0.001693 -0.003123 0.010932 -0.001185 0.001922 0.001485
# 4 0.000092 -0.000707 -0.001185 0.020787 0.001023 0.000054
# 5 -0.000003 -0.001133 0.001922 0.001023 0.023438 0.002008
# 6 0.002421 0.000611 0.001485 0.000054 0.002008 0.025911
#
#
# Mechanical properties :
#
#
# Convention : Reuss Voigt Hill
#
# Bulk Modulus (GPa) = 63.38472 68.05876 65.72174
# Shear Modulus (GPa) = 40.55820 42.24984 41.40402
#
# Velocity S-wave (km/s) = 4.44647 4.53825 4.49259
# Velocity P-wave (km/s) = 7.56702 7.78703 7.67781
#
# Compressibility (1/GPa) = 0.01577667
#
# Stress axis : x y z
#
# Youngs Moduli (GPa) = 107.17705 86.44481 91.47287
#
# Poissons Ratio (x) = 0.27755 0.15489
# Poissons Ratio (y) = 0.34412 0.28567
# Poissons Ratio (z) = 0.18148 0.26996
#
# Static dielectric constant tensor:
#      x y z
#    x 4.401600 -0.079190 -0.013260 
#    y -0.079190 4.282070 0.370350 
#    z -0.013260 0.370350 4.021710 
# 
# 
# High freq. dielectric constant tensor:
#      x y z
#    x 1.816660 -0.017640 0.004740 
#    y -0.017640 1.792580 0.012110 
#    z 0.004740 0.012110 1.820970 
# 
# From -- ./inp_files/188201.got.cif
#   From: 2010.06.25/outbox.cif.g09.slc.cpg/sg2_95_cif.got.tgz:188201.got - 2010.06.27 13:26:56.
