data_PCOD8015220
_publ_section_title
;
Structure prediction by ZEFSAII (Michael W. Deem and Ramdas Pophale) SiO2 
 PCOD8015220
Probable space group: P -1
;
_chemical_formula_sum "Si O2"
_cell_formula_units_Z 16
_cell_length_a 8.456377
_cell_length_b 9.222770
_cell_length_c 18.080766
_cell_angle_alpha 126.588002
_cell_angle_beta 137.331650
_cell_angle_gamma 50.207670
_cell_volume 712.720321
_symmetry_space_group_name_H-M "P -1"
_symmetry_group_IT_number 2
_symmetry_cell_setting 'triclinic'
loop_
_space_group_symop_operation_xyz
x,y,z
-x,-y,-z
loop_
_atom_site_type_symbol
_atom_site_label
_atom_site_fract_x
_atom_site_fract_y
_atom_site_fract_z
Si Si1 0.396472 0.296031 0.758608
Si Si2 0.153145 0.996238 0.624806
Si Si3 0.141294 0.051240 0.358821
Si Si4 0.035507 0.981456 0.144083
Si Si5 0.365901 0.298569 0.585283
Si Si6 0.425298 0.392118 0.298582
Si Si7 0.099748 0.343700 0.050616
Si Si8 0.071449 0.618226 0.843480
O O1 0.277048 0.375028 0.660751
O O2 0.314794 0.483308 0.841340
O O3 0.286272 0.148489 0.711915
O O4 0.694820 0.193263 0.825020
O O5 0.358827 0.783963 0.642681
O O6 0.968255 0.051059 0.648106
O O7 0.000000 0.000000 0.500000
O O8 0.982813 0.076361 0.236709
O O9 0.140635 0.261409 0.451464
O O10 0.423099 0.914052 0.394091
O O11 0.997250 0.154368 0.126884
O O12 0.842975 0.873202 0.027535
O O13 0.475647 0.432095 0.616610
O O14 0.358829 0.344615 0.177117
O O15 0.173196 0.439847 0.276599
O O16 0.884992 0.400378 0.058534
O O17 0.000000 0.500000 0.000000
#
# Coordination Sequence:
#
# PCOD8015220 Si02
#       8
#     2   2   2   2   2   2   2   2
#     4  11  22  41  69 100 140 177 229 285 341 414
#     4  12  24  43  66 101 141 184 224 284 345 407
#     4  10  23  39  69  96 136 183 223 278 351 397
#     4  11  23  45  70  98 143 178 232 284 336 414
#     4  10  21  42  66  97 135 177 226 284 338 411
#     4  10  24  43  67  99 142 174 232 282 337 415
#     4  10  22  45  72  99 136 184 225 289 344 396
#     4  10  24  42  68 102 132 182 228 279 346 400
#
# _framework density 22.449196000000001
#
# number of rings (size 3 to 8) (size 9 to 14) (size 15 to 20)
#    0.750    0.750    2.500    2.625    3.500    2.000 
#    0.000    2.500    0.000    0.000    0.000    0.000 
#    0.000    0.000    0.000    0.000    0.000    0.000 
#
# Total GULP energy -198322.768506 kJ/mol
# GULP energy per Si atom -12395.173032 kJ/mol
# Density = 2.239810 g / cm^3
# Si number density = 22.449196 Si / 1000 Ang^3
#
#
#
# Elastic Constant Matrix: (Units=GPa)
#
#
# Indices 1 2 3 4 5 6 
#
# 1 84.7757 25.4381 22.6770 1.2432 -19.4719 15.3881
# 2 25.4381 102.6931 35.4294 0.4788 -9.7054 18.4779
# 3 22.6770 35.4294 97.8891 1.8803 -13.9882 4.3183
# 4 1.2432 0.4788 1.8803 39.8421 8.6094 4.1820
# 5 -19.4719 -9.7054 -13.9882 8.6094 40.0625 5.7503
# 6 15.3881 18.4779 4.3183 4.1820 5.7503 36.1087
#
#
#
# Elastic Compliance Matrix: (Units=1/GPa)
#
#
# Indices 1 2 3 4 5 6 
#
# 1 0.015780 -0.001298 -0.001698 -0.001407 0.008066 -0.006979
# 2 -0.001298 0.012557 -0.003727 0.000264 0.001879 -0.005757
# 3 -0.001698 -0.003727 0.012328 -0.001158 0.002702 0.000860
# 4 -0.001407 0.000264 -0.001158 0.026766 -0.006568 -0.001451
# 5 0.008066 0.001879 0.002702 -0.006568 0.033015 -0.009219
# 6 -0.006979 -0.005757 0.000860 -0.001451 -0.009219 0.035147
#
#
# Mechanical properties :
#
#
# Convention : Reuss Voigt Hill
#
# Bulk Modulus (GPa) = 36.73894 50.27187 43.50540
# Shear Modulus (GPa) = 31.62298 36.65691 34.13994
#
# Velocity S-wave (km/s) = 3.75727 4.04528 3.90393
# Velocity P-wave (km/s) = 5.93495 6.65291 6.30416
#
# Compressibility (1/GPa) = 0.02721907
#
# Stress axis : x y z
#
# Youngs Moduli (GPa) = 63.37242 79.63491 81.11482
#
# Poissons Ratio (x) = 0.10339 0.13774
# Poissons Ratio (y) = 0.08228 0.30229
# Poissons Ratio (z) = 0.10761 0.29677
#
# Static dielectric constant tensor:
#      x y z
#    x 3.952450 0.064000 -0.092740 
#    y 0.064000 3.745740 0.075360 
#    z -0.092740 0.075360 4.179230 
# 
# 
# High freq. dielectric constant tensor:
#      x y z
#    x 1.880550 0.017980 -0.004700 
#    y 0.017980 1.875740 0.007240 
#    z -0.004700 0.007240 1.885810 
# 
# From -- ./inp_files/556426.got.cif
#   From: 2010.06.25/outbox.cif.g09.slc.cpg/sg2_279_cif.got.tgz:556426.got - 2010.06.27 13:26:56.
