data_PCOD8015777
_publ_section_title
;
Structure prediction by ZEFSAII (Michael W. Deem and Ramdas Pophale) SiO2 
 PCOD8015777
Probable space group: P -1
;
_chemical_formula_sum "Si O2"
_cell_formula_units_Z 16
_cell_length_a 20.685790
_cell_length_b 17.451420
_cell_length_c 9.464212
_cell_angle_alpha 63.515604
_cell_angle_beta 126.987420
_cell_angle_gamma 161.434951
_cell_volume 757.865057
_symmetry_space_group_name_H-M "P -1"
_symmetry_group_IT_number 2
_symmetry_cell_setting 'triclinic'
loop_
_space_group_symop_operation_xyz
x,y,z
-x,-y,-z
loop_
_atom_site_type_symbol
_atom_site_label
_atom_site_fract_x
_atom_site_fract_y
_atom_site_fract_z
Si Si1 0.436967 0.104877 0.451795
Si Si2 0.096189 0.502921 0.089976
Si Si3 0.569709 0.878701 0.896202
Si Si4 0.093994 0.244311 0.139388
Si Si5 0.701491 0.686018 0.838452
Si Si6 0.522543 0.644240 0.940919
Si Si7 0.602268 0.455282 0.438391
Si Si8 0.869863 0.531035 0.130735
O O1 0.651013 0.260573 0.677258
O O2 0.492346 0.154674 0.316714
O O3 0.444266 0.207861 0.439572
O O4 0.140683 0.775780 0.361920
O O5 0.185715 0.588208 0.974629
O O6 0.000000 0.500000 0.000000
O O7 0.862181 0.200054 0.061554
O O8 0.537328 0.743912 0.974799
O O9 0.364161 0.715661 0.864749
O O10 0.311726 0.403184 0.221512
O O11 0.148354 0.304241 0.329962
O O12 0.099940 0.342928 0.994864
O O13 0.804002 0.912701 0.014754
O O14 0.570520 0.640828 0.646327
O O15 0.554392 0.512016 0.933127
O O16 0.000000 0.000000 0.000000
O O17 0.318782 0.448024 0.702153
#
# Coordination Sequence:
#
# PCOD8015777 Si02
#       8
#     2   2   2   2   2   2   2   2
#     4  10  21  43  65  91 127 171 207 251 324 374
#     4  11  24  44  68  95 129 162 204 263 317 381
#     4  10  22  40  65  96 125 168 211 253 312 378
#     4  12  22  42  61  89 127 167 211 257 309 366
#     4  12  24  40  61  90 130 164 213 262 304 354
#     4  11  22  42  62  86 127 169 206 257 309 364
#     4  11  22  40  61  90 123 168 210 256 306 365
#     4  11  21  41  67  94 129 165 209 260 309 378
#
# _framework density 21.111937000000001
#
# number of rings (size 3 to 8) (size 9 to 14) (size 15 to 20)
#    0.000    1.000    7.500    0.750    0.000    4.000 
#    2.250    1.250    0.000    0.000    0.000    0.000 
#    0.000    0.000    0.000    0.000    0.000    0.000 
#
# Total GULP energy -198368.700900 kJ/mol
# GULP energy per Si atom -12398.043806 kJ/mol
# Density = 2.106389 g / cm^3
# Si number density = 21.111937 Si / 1000 Ang^3
#
#
#
# Elastic Constant Matrix: (Units=GPa)
#
#
# Indices 1 2 3 4 5 6 
#
# 1 120.5641 20.5451 30.7317 -0.7034 11.0312 16.7627
# 2 20.5451 57.6714 24.4397 9.6701 -5.9959 22.7092
# 3 30.7317 24.4397 120.4903 21.4763 2.6752 3.7055
# 4 -0.7034 9.6701 21.4763 18.9943 1.4325 2.1891
# 5 11.0312 -5.9959 2.6752 1.4325 33.7182 -2.2721
# 6 16.7627 22.7092 3.7055 2.1891 -2.2721 36.2971
#
#
#
# Elastic Compliance Matrix: (Units=1/GPa)
#
#
# Indices 1 2 3 4 5 6 
#
# 1 0.010362 -0.002400 -0.002969 0.005681 -0.004064 -0.003578
# 2 -0.002400 0.027410 -0.002930 -0.009419 0.005292 -0.014842
# 3 -0.002969 -0.002930 0.011741 -0.012228 0.000224 0.002757
# 4 0.005681 -0.009419 -0.012228 0.071923 -0.005630 -0.000172
# 5 -0.004064 0.005292 0.000224 -0.005630 0.032210 0.000899
# 6 -0.003578 -0.014842 0.002757 -0.000172 0.000899 0.038274
#
#
# Mechanical properties :
#
#
# Convention : Reuss Voigt Hill
#
# Bulk Modulus (GPa) = 30.37925 50.01762 40.19843
# Shear Modulus (GPa) = 22.78022 32.66922 27.72472
#
# Velocity S-wave (km/s) = 3.28841 3.93800 3.62778
# Velocity P-wave (km/s) = 5.37020 6.66485 6.05224
#
# Compressibility (1/GPa) = 0.03291720
#
# Stress axis : x y z
#
# Youngs Moduli (GPa) = 96.50288 36.48285 85.17501
#
# Poissons Ratio (x) = 0.08754 0.25284
# Poissons Ratio (y) = 0.23157 0.24955
# Poissons Ratio (z) = 0.28647 0.10689
#
# Static dielectric constant tensor:
#      x y z
#    x 4.333110 -0.070380 -0.102840 
#    y -0.070380 3.726020 0.127740 
#    z -0.102840 0.127740 3.822520 
# 
# 
# High freq. dielectric constant tensor:
#      x y z
#    x 1.847470 -0.002930 -0.006560 
#    y -0.002930 1.800270 0.010870 
#    z -0.006560 0.010870 1.822100 
# 
# From -- ./inp_files/348455.got.cif
#   From: 2010.06.25/outbox.cif.g09.slc.cpg/sg2_175_cif.got.tgz:348455.got - 2010.06.27 13:26:56.
