data_PCOD8015781
_publ_section_title
;
Structure prediction by ZEFSAII (Michael W. Deem and Ramdas Pophale) SiO2 
 PCOD8015781
Probable space group: P -1
;
_chemical_formula_sum "Si O2"
_cell_formula_units_Z 14
_cell_length_a 6.310829
_cell_length_b 23.042854
_cell_length_c 11.419925
_cell_angle_alpha 151.035228
_cell_angle_beta 107.971933
_cell_angle_gamma 58.267989
_cell_volume 635.979896
_symmetry_space_group_name_H-M "P -1"
_symmetry_group_IT_number 2
_symmetry_cell_setting 'triclinic'
loop_
_space_group_symop_operation_xyz
x,y,z
-x,-y,-z
loop_
_atom_site_type_symbol
_atom_site_label
_atom_site_fract_x
_atom_site_fract_y
_atom_site_fract_z
Si Si1 0.624334 0.796615 0.982778
Si Si2 0.830543 0.139463 0.137123
Si Si3 0.996338 0.324589 0.381422
Si Si4 0.378755 0.656658 0.123375
Si Si5 0.465493 0.374123 0.151689
Si Si6 0.995625 0.860171 0.250617
Si Si7 0.601591 0.629639 0.355127
O O1 0.326309 0.888931 0.040334
O O2 0.837456 0.701254 0.751947
O O3 0.666964 0.688653 0.903123
O O4 0.699752 0.903096 0.240335
O O5 0.619962 0.273697 0.416004
O O6 0.018365 0.181374 0.178857
O O7 0.000000 0.000000 0.000000
O O8 0.128615 0.373811 0.587628
O O9 0.681955 0.455796 0.538561
O O10 0.083018 0.793860 0.279117
O O11 0.483082 0.695111 0.322592
O O12 0.583988 0.626449 0.998099
O O13 0.336931 0.528497 0.908002
O O14 0.791723 0.265312 0.029216
O O15 0.000000 0.000000 0.500000
#
# Coordination Sequence:
#
# PCOD8015781 Si02
#       7
#     2   2   2   2   2   2   2
#     4  11  24  41  68  93 127 167 210 270 317 370
#     4  11  25  44  64  93 128 168 215 260 318 380
#     4  11  23  41  67  96 127 167 216 263 315 375
#     4   9  21  41  63  93 128 165 213 258 311 376
#     4  10  22  41  64  99 127 164 213 260 318 372
#     4  10  23  42  62  92 132 163 208 258 318 382
#     4  10  21  43  65  92 130 169 210 266 312 368
#
# _framework density 22.013273999999999
#
# number of rings (size 3 to 8) (size 9 to 14) (size 15 to 20)
#    0.857    0.857    1.429    2.143    0.000   10.286 
#    2.571    0.000    0.000    0.000    0.000    0.000 
#    0.000    0.000    0.000    0.000    0.000    0.000 
#
# Total GULP energy -173449.708320 kJ/mol
# GULP energy per Si atom -12389.264880 kJ/mol
# Density = 2.196317 g / cm^3
# Si number density = 22.013274 Si / 1000 Ang^3
#
#
#
# Elastic Constant Matrix: (Units=GPa)
#
#
# Indices 1 2 3 4 5 6 
#
# 1 111.6895 65.5453 30.0701 -6.5776 25.8294 5.1898
# 2 65.5453 143.9605 37.1052 -6.1551 32.3437 -0.5339
# 3 30.0701 37.1052 48.5926 11.5468 26.6301 -7.6775
# 4 -6.5776 -6.1551 11.5468 25.1041 2.9800 -1.7354
# 5 25.8294 32.3437 26.6301 2.9800 40.0568 -5.4608
# 6 5.1898 -0.5339 -7.6775 -1.7354 -5.4608 41.1153
#
#
#
# Elastic Compliance Matrix: (Units=1/GPa)
#
#
# Indices 1 2 3 4 5 6 
#
# 1 0.013987 -0.004021 -0.005913 0.005505 -0.002666 -0.003044
# 2 -0.004021 0.011066 -0.005370 0.004467 -0.003184 -0.000586
# 3 -0.005913 -0.005370 0.044718 -0.020760 -0.019273 0.005591
# 4 0.005505 0.004467 -0.020760 0.051480 0.002542 -0.002003
# 5 -0.002666 -0.003184 -0.019273 0.002542 0.042206 0.002409
# 6 -0.003044 -0.000586 0.005591 -0.002003 0.002409 0.025978
#
#
# Mechanical properties :
#
#
# Convention : Reuss Voigt Hill
#
# Bulk Modulus (GPa) = 25.53565 63.29821 44.41693
# Shear Modulus (GPa) = 21.45022 32.69004 27.07013
#
# Velocity S-wave (km/s) = 3.12496 3.85777 3.51054
# Velocity P-wave (km/s) = 4.96445 6.97568 6.05417
#
# Compressibility (1/GPa) = 0.03916093
#
# Stress axis : x y z
#
# Youngs Moduli (GPa) = 71.49281 90.36993 22.36260
#
# Poissons Ratio (x) = 0.36342 0.13223
# Poissons Ratio (y) = 0.28751 0.12010
# Poissons Ratio (z) = 0.42273 0.48532
#
# Static dielectric constant tensor:
#      x y z
#    x 3.940010 -0.104720 0.027120 
#    y -0.104720 4.376970 -0.223800 
#    z 0.027120 -0.223800 3.745980 
# 
# 
# High freq. dielectric constant tensor:
#      x y z
#    x 1.860090 0.006610 0.005110 
#    y 0.006610 1.877860 -0.010160 
#    z 0.005110 -0.010160 1.849250 
# 
# From -- ./inp_files/370914.got.cif
#   From: 2010.06.25/outbox.cif.g09.slc.cpg/sg2_186_cif.got.tgz:370914.got - 2010.06.27 13:26:56.
