data_PCOD8015681
_publ_section_title
;
Structure prediction by ZEFSAII (Michael W. Deem and Ramdas Pophale) SiO2 
 PCOD8015681
Probable space group: P -1
;
_chemical_formula_sum "Si O2"
_cell_formula_units_Z 12
_cell_length_a 14.967087
_cell_length_b 12.255017
_cell_length_c 6.376265
_cell_angle_alpha 109.447993
_cell_angle_beta 114.284892
_cell_angle_gamma 30.068272
_cell_volume 533.451038
_symmetry_space_group_name_H-M "P -1"
_symmetry_group_IT_number 2
_symmetry_cell_setting 'triclinic'
loop_
_space_group_symop_operation_xyz
x,y,z
-x,-y,-z
loop_
_atom_site_type_symbol
_atom_site_label
_atom_site_fract_x
_atom_site_fract_y
_atom_site_fract_z
Si Si1 0.453431 0.217915 0.008474
Si Si2 0.240727 0.195828 0.225009
Si Si3 0.063710 0.065796 0.648757
Si Si4 0.588422 0.287793 0.948404
Si Si5 0.302469 0.962240 0.491023
Si Si6 0.881748 0.462610 0.851757
O O1 0.243228 0.390394 0.966515
O O2 0.551642 0.127287 0.270040
O O3 0.448967 0.348561 0.985063
O O4 0.557146 0.025106 0.828305
O O5 0.222356 0.151087 0.401803
O O6 0.198876 0.375432 0.311691
O O7 0.093542 0.285974 0.981974
O O8 0.143708 0.048971 0.509966
O O9 0.885539 0.322697 0.705086
O O10 0.000000 0.000000 0.500000
O O11 0.209263 0.916574 0.883493
O O12 0.598756 0.229380 0.686224
O O13 0.500000 0.500000 0.000000
#
# Coordination Sequence:
#
# PCOD8015681 Si02
#       6
#     2   2   2   2   2   2
#     4  10  22  41  63  96 124 160 213 256 311 371
#     4  10  22  45  63  92 130 162 210 257 312 369
#     4  11  25  41  61  95 127 161 214 255 308 374
#     4  10  23  41  61  88 127 171 204 257 313 362
#     4  10  21  43  62  87 134 159 207 265 302 376
#     4  11  22  42  66  92 128 167 203 264 311 363
#
# _framework density 22.495035999999999
#
# number of rings (size 3 to 8) (size 9 to 14) (size 15 to 20)
#    0.000    1.667    5.000    0.500    4.667    4.667 
#    3.000    0.000    0.000    0.000    0.000    0.000 
#    0.000    0.000    0.000    0.000    0.000    0.000 
#
# Total GULP energy -148754.747785 kJ/mol
# GULP energy per Si atom -12396.228982 kJ/mol
# Density = 2.244384 g / cm^3
# Si number density = 22.495036 Si / 1000 Ang^3
#
#
#
# Elastic Constant Matrix: (Units=GPa)
#
#
# Indices 1 2 3 4 5 6 
#
# 1 98.4915 59.9519 14.3939 9.5486 -12.0801 13.6239
# 2 59.9519 134.8241 13.4794 13.9510 -11.4379 36.2750
# 3 14.3939 13.4794 51.3784 -0.4787 -21.8591 15.1487
# 4 9.5486 13.9510 -0.4787 15.6372 7.6595 -0.2785
# 5 -12.0801 -11.4379 -21.8591 7.6595 33.4973 4.4580
# 6 13.6239 36.2750 15.1487 -0.2785 4.4580 57.2441
#
#
#
# Elastic Compliance Matrix: (Units=1/GPa)
#
#
# Indices 1 2 3 4 5 6 
#
# 1 0.014741 -0.005349 -0.000791 -0.006458 0.004489 -0.000291
# 2 -0.005349 0.014646 0.005540 -0.015512 0.011626 -0.010455
# 3 -0.000791 0.005540 0.035997 -0.019064 0.031504 -0.015395
# 4 -0.006458 -0.015512 -0.019064 0.104374 -0.046667 0.020554
# 5 0.004489 0.011626 0.031504 -0.046667 0.069656 -0.022424
# 6 -0.000291 -0.010455 -0.015395 0.020554 -0.022424 0.030084
#
#
# Mechanical properties :
#
#
# Convention : Reuss Voigt Hill
#
# Bulk Modulus (GPa) = 15.58007 51.14937 33.36472
# Shear Modulus (GPa) = 17.11794 34.40031 25.75912
#
# Velocity S-wave (km/s) = 2.76155 3.91479 3.38761
# Velocity P-wave (km/s) = 4.13634 6.57431 5.49231
#
# Compressibility (1/GPa) = 0.06418455
#
# Stress axis : x y z
#
# Youngs Moduli (GPa) = 67.83633 68.27862 27.78030
#
# Poissons Ratio (x) = 0.36520 0.02198
# Poissons Ratio (y) = 0.36284 -0.15391
# Poissons Ratio (z) = 0.05368 -0.37829
#
# Static dielectric constant tensor:
#      x y z
#    x 4.275500 0.232300 -0.105060 
#    y 0.232300 4.249040 0.068530 
#    z -0.105060 0.068530 3.857440 
# 
# 
# High freq. dielectric constant tensor:
#      x y z
#    x 1.897840 0.013440 -0.010830 
#    y 0.013440 1.892320 0.005160 
#    z -0.010830 0.005160 1.868090 
# 
# From -- ./inp_files/28644.got.cif
#   From: 2010.06.25/outbox.cif.g09.slc.cpg/sg2_15_cif.got.tgz:28644.got - 2010.06.27 13:26:56.
