data_PCOD8015498
_publ_section_title
;
Structure prediction by ZEFSAII (Michael W. Deem and Ramdas Pophale) SiO2 
 PCOD8015498
Probable space group: P -1
;
_chemical_formula_sum "Si O2"
_cell_formula_units_Z 14
_cell_length_a 8.326673
_cell_length_b 8.431907
_cell_length_c 12.551895
_cell_angle_alpha 71.886577
_cell_angle_beta 126.981919
_cell_angle_gamma 69.562301
_cell_volume 473.688621
_symmetry_space_group_name_H-M "P -1"
_symmetry_group_IT_number 2
_symmetry_cell_setting 'triclinic'
loop_
_space_group_symop_operation_xyz
x,y,z
-x,-y,-z
loop_
_atom_site_type_symbol
_atom_site_label
_atom_site_fract_x
_atom_site_fract_y
_atom_site_fract_z
Si Si1 0.026063 0.020214 0.630347
Si Si2 0.109621 0.119314 0.992832
Si Si3 0.137042 0.601429 0.844408
Si Si4 0.355551 0.350516 0.363731
Si Si5 0.444249 0.195835 0.207786
Si Si6 0.348520 0.281616 0.807591
Si Si7 0.258501 0.510873 0.504197
O O1 0.104945 0.819626 0.779875
O O2 0.299313 0.985546 0.736220
O O3 0.000000 0.000000 0.500000
O O4 0.756189 0.278843 0.520897
O O5 0.253837 0.138679 0.145115
O O6 0.342844 0.992978 0.014012
O O7 0.829677 0.379424 0.793399
O O8 0.000000 0.000000 0.000000
O O9 0.350056 0.418525 0.873130
O O10 0.827215 0.708794 0.679110
O O11 0.258561 0.463235 0.034817
O O12 0.554931 0.179209 0.376770
O O13 0.477463 0.328516 0.535053
O O14 0.362596 0.361515 0.681862
O O15 0.061600 0.344048 0.690361
#
# Coordination Sequence:
#
# PCOD8015498 Si02
#       7
#     2   2   2   2   2   2   2
#     4  12  24  43  73 107 132 185 239 285 339 418
#     4  11  24  41  71 101 140 181 231 284 350 410
#     4  10  22  41  72  97 139 175 234 283 349 402
#     4  10  25  44  68 103 144 182 224 288 353 414
#     4  11  25  47  66 103 146 180 225 290 349 413
#     4  10  21  42  69  99 135 182 230 290 335 406
#     4  10  22  43  71  96 137 182 234 281 343 404
#
# _framework density 29.555278999999999
#
# number of rings (size 3 to 8) (size 9 to 14) (size 15 to 20)
#    0.000    1.429    2.857    2.143    4.000    4.000 
#    0.000    7.143    0.000    0.000    0.000    0.000 
#    0.000    0.000    0.000    0.000    0.000    0.000 
#
# Total GULP energy -173443.754389 kJ/mol
# GULP energy per Si atom -12388.839599 kJ/mol
# Density = 2.948801 g / cm^3
# Si number density = 29.555279 Si / 1000 Ang^3
#
#
#
# Elastic Constant Matrix: (Units=GPa)
#
#
# Indices 1 2 3 4 5 6 
#
# 1 147.0242 50.3033 1.8925 12.4391 -2.2331 -10.9396
# 2 50.3033 125.5979 26.8556 12.3066 -28.6148 -21.6801
# 3 1.8925 26.8556 56.3064 8.9616 -24.3681 -1.8762
# 4 12.4391 12.3066 8.9616 46.8447 -14.7617 -0.2200
# 5 -2.2331 -28.6148 -24.3681 -14.7617 35.7392 0.1597
# 6 -10.9396 -21.6801 -1.8762 -0.2200 0.1597 75.1422
#
#
#
# Elastic Compliance Matrix: (Units=1/GPa)
#
#
# Indices 1 2 3 4 5 6 
#
# 1 0.008290 -0.003930 0.000590 -0.002280 -0.003168 0.000088
# 2 -0.003930 0.012354 -0.002094 0.000917 0.008584 0.002924
# 3 0.000590 -0.002094 0.025596 0.000552 0.016040 0.000088
# 4 -0.002280 0.000917 0.000552 0.025190 0.011372 -0.000004
# 5 -0.003168 0.008584 0.016040 0.011372 0.050279 0.002342
# 6 0.000088 0.002924 0.000088 -0.000004 0.002342 0.014162
#
#
# Mechanical properties :
#
#
# Convention : Reuss Voigt Hill
#
# Bulk Modulus (GPa) = 28.26969 54.11461 41.19215
# Shear Modulus (GPa) = 31.54048 48.20369 39.87209
#
# Velocity S-wave (km/s) = 3.27030 4.04290 3.67695
# Velocity P-wave (km/s) = 4.88320 6.33584 5.65634
#
# Compressibility (1/GPa) = 0.03537358
#
# Stress axis : x y z
#
# Youngs Moduli (GPa) = 120.63083 80.94512 39.06926
#
# Poissons Ratio (x) = 0.31807 -0.02307
# Poissons Ratio (y) = 0.47402 0.08180
# Poissons Ratio (z) = -0.07123 0.16949
#
# Static dielectric constant tensor:
#      x y z
#    x 6.289310 -0.351490 0.480390 
#    y -0.351490 5.675090 0.131690 
#    z 0.480390 0.131690 5.450210 
# 
# 
# High freq. dielectric constant tensor:
#      x y z
#    x 2.235320 -0.004780 0.014630 
#    y -0.004780 2.216430 0.013470 
#    z 0.014630 0.013470 2.194010 
# 
# From -- ./inp_files/298077.got.cif
#   From: 2010.06.25/outbox.cif.g09.slc.cpg/sg2_150_cif.got.tgz:298077.got - 2010.06.27 13:26:56.
