data_PCOD8015631
_publ_section_title
;
Structure prediction by ZEFSAII (Michael W. Deem and Ramdas Pophale) SiO2 
 PCOD8015631
Probable space group: P -1
;
_chemical_formula_sum "Si O2"
_cell_formula_units_Z 12
_cell_length_a 9.754947
_cell_length_b 10.504655
_cell_length_c 12.076023
_cell_angle_alpha 35.328788
_cell_angle_beta 140.359238
_cell_angle_gamma 137.563679
_cell_volume 435.841836
_symmetry_space_group_name_H-M "P -1"
_symmetry_group_IT_number 2
_symmetry_cell_setting 'triclinic'
loop_
_space_group_symop_operation_xyz
x,y,z
-x,-y,-z
loop_
_atom_site_type_symbol
_atom_site_label
_atom_site_fract_x
_atom_site_fract_y
_atom_site_fract_z
Si Si1 0.136170 0.612219 0.671373
Si Si2 0.942296 0.834615 0.200958
Si Si3 0.442251 0.372036 0.438434
Si Si4 0.425136 0.023539 0.312104
Si Si5 0.498558 0.830221 0.022000
Si Si6 0.021616 0.665638 0.791823
O O1 0.140400 0.396182 0.756293
O O2 0.982781 0.534032 0.741663
O O3 0.028682 0.779872 0.414218
O O4 0.395393 0.739066 0.783660
O O5 0.721278 0.926432 0.013840
O O6 0.160543 0.026532 0.144116
O O7 0.500000 0.500000 0.500000
O O8 0.576503 0.198187 0.607178
O O9 0.484720 0.571073 0.230951
O O10 0.177807 0.220004 0.391666
O O11 0.500000 0.000000 0.500000
O O12 0.270596 0.843456 0.810722
O O13 0.500000 0.000000 0.000000
O O14 0.000000 0.500000 0.000000
#
# Coordination Sequence:
#
# PCOD8015631 Si02
#       6
#     2   2   2   2   2   2
#     4  10  21  42  73 100 130 179 237 284 344 397
#     4  10  21  43  67 103 134 176 230 291 334 412
#     4  11  23  43  69  97 131 176 238 289 332 405
#     4  10  22  38  70 102 128 170 238 288 335 394
#     4  11  25  41  63  96 144 182 217 277 356 415
#     4  10  24  42  63  97 138 179 220 277 348 410
#
# _framework density 27.532921999999999
#
# number of rings (size 3 to 8) (size 9 to 14) (size 15 to 20)
#    0.000    1.667    0.000    5.000    7.000    1.333 
#    3.000    0.833    0.000    0.000    0.000    0.000 
#    0.000    0.000    0.000    0.000    0.000    0.000 
#
# Total GULP energy -148682.577918 kJ/mol
# GULP energy per Si atom -12390.214826 kJ/mol
# Density = 2.747026 g / cm^3
# Si number density = 27.532922 Si / 1000 Ang^3
#
#
#
# Elastic Constant Matrix: (Units=GPa)
#
#
# Indices 1 2 3 4 5 6 
#
# 1 231.8949 65.5084 50.7177 13.3239 19.1761 8.1053
# 2 65.5084 116.8148 25.2060 16.8783 21.1120 5.6107
# 3 50.7177 25.2060 77.4809 2.3296 24.8801 16.9420
# 4 13.3239 16.8783 2.3296 27.0642 11.1250 9.1026
# 5 19.1761 21.1120 24.8801 11.1250 61.5498 15.3332
# 6 8.1053 5.6107 16.9420 9.1026 15.3332 55.0499
#
#
#
# Elastic Compliance Matrix: (Units=1/GPa)
#
#
# Indices 1 2 3 4 5 6 
#
# 1 0.005714 -0.002430 -0.003161 -0.001376 0.000460 0.000478
# 2 -0.002430 0.011310 -0.001591 -0.005350 -0.001780 0.001075
# 3 -0.003161 -0.001591 0.018051 0.004683 -0.005579 -0.004148
# 4 -0.001376 -0.005350 0.004683 0.045281 -0.006207 -0.006452
# 5 0.000460 -0.001780 -0.005579 -0.006207 0.020824 -0.002943
# 6 0.000478 0.001075 -0.004148 -0.006452 -0.002943 0.021149
#
#
# Mechanical properties :
#
#
# Convention : Reuss Voigt Hill
#
# Bulk Modulus (GPa) = 48.28527 78.78386 63.53456
# Shear Modulus (GPa) = 34.81963 47.71672 41.26817
#
# Velocity S-wave (km/s) = 3.56006 4.16754 3.87572
# Velocity P-wave (km/s) = 5.87146 7.19961 6.56919
#
# Compressibility (1/GPa) = 0.02071025
#
# Stress axis : x y z
#
# Youngs Moduli (GPa) = 174.99853 88.42062 55.39828
#
# Poissons Ratio (x) = 0.21485 0.17512
# Poissons Ratio (y) = 0.42521 0.08816
# Poissons Ratio (z) = 0.55320 0.14071
#
# Static dielectric constant tensor:
#      x y z
#    x 5.934920 0.718960 0.306490 
#    y 0.718960 5.128830 0.616870 
#    z 0.306490 0.616870 4.955670 
# 
# 
# High freq. dielectric constant tensor:
#      x y z
#    x 2.152110 0.006730 -0.011370 
#    y 0.006730 2.101940 0.038380 
#    z -0.011370 0.038380 2.116810 
# 
# From -- ./inp_files/237345.got.cif
#   From: 2010.06.25/outbox.cif.g09.slc.cpg/sg2_119_cif.got.tgz:237345.got - 2010.06.27 13:26:56.
