data_PCOD8015085
_publ_section_title
;
Structure prediction by ZEFSAII (Michael W. Deem and Ramdas Pophale) SiO2 
 PCOD8015085
Probable space group: P -1
;
_chemical_formula_sum "Si O2"
_cell_formula_units_Z 16
_cell_length_a 22.209986
_cell_length_b 18.865838
_cell_length_c 9.467303
_cell_angle_alpha 30.159082
_cell_angle_beta 152.760722
_cell_angle_gamma 152.671148
_cell_volume 779.021618
_symmetry_space_group_name_H-M "P -1"
_symmetry_group_IT_number 2
_symmetry_cell_setting 'triclinic'
loop_
_space_group_symop_operation_xyz
x,y,z
-x,-y,-z
loop_
_atom_site_type_symbol
_atom_site_label
_atom_site_fract_x
_atom_site_fract_y
_atom_site_fract_z
Si Si1 0.075965 0.853841 0.298409
Si Si2 0.057573 0.876244 0.815587
Si Si3 0.581888 0.920606 0.724973
Si Si4 0.037056 0.144065 0.647734
Si Si5 0.622577 0.637853 0.915993
Si Si6 0.093051 0.417958 0.785896
Si Si7 0.583714 0.933778 0.385068
Si Si8 0.420354 0.556116 0.125488
O O1 0.071477 0.865263 0.436876
O O2 0.968651 0.666221 0.349878
O O3 0.246465 0.910604 0.510430
O O4 0.023273 0.967108 0.913042
O O5 0.033411 0.820217 0.698195
O O6 0.000000 0.000000 0.500000
O O7 0.939182 0.717604 0.931153
O O8 0.233952 0.956557 0.093468
O O9 0.518821 0.886685 0.490582
O O10 0.500000 0.000000 0.500000
O O11 0.537081 0.745053 0.000389
O O12 0.212770 0.287444 0.793995
O O13 0.582151 0.780916 0.567209
O O14 0.627381 0.565413 0.899145
O O15 0.500000 0.500000 0.000000
O O16 0.000000 0.500000 0.500000
O O17 0.274002 0.545442 0.918079
O O18 0.500000 0.000000 0.000000
O O19 0.500000 0.500000 0.500000
#
# Coordination Sequence:
#
# PCOD8015085 Si02
#       8
#     2   2   2   2   2   2   2   2
#     4  10  21  42  65  96 128 171 228 277 324 401
#     4  12  23  44  75  97 129 180 241 272 331 411
#     4  12  27  46  66 104 147 179 226 287 346 417
#     4  10  22  40  72  96 124 172 231 281 321 393
#     4  11  23  45  67  98 139 171 228 290 338 403
#     4  12  25  45  65  99 144 177 218 290 347 401
#     4  11  25  43  69  97 135 184 225 277 348 411
#     4  12  28  43  72 105 139 184 230 285 352 406
#
# _framework density 20.538582999999999
#
# number of rings (size 3 to 8) (size 9 to 14) (size 15 to 20)
#    0.000    0.750    5.000    2.250    5.250    0.000 
#    0.000    0.625    0.000    0.000    0.000    0.000 
#    0.000    0.000    0.000    0.000    0.000    0.000 
#
# Total GULP energy -198399.424169 kJ/mol
# GULP energy per Si atom -12399.964011 kJ/mol
# Density = 2.049184 g / cm^3
# Si number density = 20.538583 Si / 1000 Ang^3
#
#
#
# Elastic Constant Matrix: (Units=GPa)
#
#
# Indices 1 2 3 4 5 6 
#
# 1 112.0044 30.2239 59.2738 12.1856 -4.3657 5.4152
# 2 30.2239 80.9451 27.6183 0.8706 -5.4162 0.9568
# 3 59.2738 27.6183 110.5281 -0.1881 -9.0432 -7.7006
# 4 12.1856 0.8706 -0.1881 21.7847 0.8796 -6.2371
# 5 -4.3657 -5.4162 -9.0432 0.8796 43.7469 -0.6495
# 6 5.4152 0.9568 -7.7006 -6.2371 -0.6495 37.9214
#
#
#
# Elastic Compliance Matrix: (Units=1/GPa)
#
#
# Indices 1 2 3 4 5 6 
#
# 1 0.015173 -0.002842 -0.007843 -0.009954 -0.000338 -0.005331
# 2 -0.002842 0.014137 -0.001933 0.000916 0.001046 -0.000175
# 3 -0.007843 -0.001933 0.014254 0.005965 0.001880 0.005077
# 4 -0.009954 0.000916 0.005965 0.054837 -0.000577 0.011619
# 5 -0.000338 0.001046 0.001880 -0.000577 0.023365 0.000709
# 6 -0.005331 -0.000175 0.005077 0.011619 0.000709 0.030090
#
#
# Mechanical properties :
#
#
# Convention : Reuss Voigt Hill
#
# Bulk Modulus (GPa) = 54.56192 59.74550 57.15371
# Shear Modulus (GPa) = 27.29221 33.11470 30.20346
#
# Velocity S-wave (km/s) = 3.64926 4.01972 3.83896
# Velocity P-wave (km/s) = 6.66179 7.12017 6.89479
#
# Compressibility (1/GPa) = 0.01832780
#
# Stress axis : x y z
#
# Youngs Moduli (GPa) = 65.90580 70.73572 70.15471
#
# Poissons Ratio (x) = 0.20103 0.55021
# Poissons Ratio (y) = 0.18731 0.13564
# Poissons Ratio (z) = 0.51689 0.13676
#
# Static dielectric constant tensor:
#      x y z
#    x 4.102410 -0.045830 -0.165190 
#    y -0.045830 3.935370 0.053880 
#    z -0.165190 0.053880 3.917150 
# 
# 
# High freq. dielectric constant tensor:
#      x y z
#    x 1.828390 0.002310 -0.002640 
#    y 0.002310 1.808090 0.000900 
#    z -0.002640 0.000900 1.790210 
# 
# From -- ./inp_files/348786.got.cif
#   From: 2010.06.25/outbox.cif.g09.slc.cpg/sg2_175_cif.got.tgz:348786.got - 2010.06.27 13:26:56.
