data_PCOD8015331
_publ_section_title
;
Structure prediction by ZEFSAII (Michael W. Deem and Ramdas Pophale) SiO2 
 PCOD8015331
Probable space group: P -1
;
_chemical_formula_sum "Si O2"
_cell_formula_units_Z 16
_cell_length_a 20.928258
_cell_length_b 7.883375
_cell_length_c 17.908582
_cell_angle_alpha 130.797502
_cell_angle_beta 19.361172
_cell_angle_gamma 121.435488
_cell_volume 686.472754
_symmetry_space_group_name_H-M "P -1"
_symmetry_group_IT_number 2
_symmetry_cell_setting 'triclinic'
loop_
_space_group_symop_operation_xyz
x,y,z
-x,-y,-z
loop_
_atom_site_type_symbol
_atom_site_label
_atom_site_fract_x
_atom_site_fract_y
_atom_site_fract_z
Si Si1 0.910456 0.344766 0.606497
Si Si2 0.380431 0.958677 0.506229
Si Si3 0.902744 0.488763 0.428997
Si Si4 0.494824 0.551883 0.833123
Si Si5 0.574680 0.339442 0.217989
Si Si6 0.175205 0.300215 0.701473
Si Si7 0.752892 0.735658 0.125542
Si Si8 0.025566 0.008616 0.255611
O O1 0.000000 0.500000 0.500000
O O2 0.043450 0.309877 0.525999
O O3 0.928095 0.103951 0.472813
O O4 0.670789 0.479228 0.935008
O O5 0.365864 0.701520 0.432911
O O6 0.614088 0.916106 0.265711
O O7 0.331425 0.096320 0.522636
O O8 0.215456 0.109964 0.795315
O O9 0.657790 0.623760 0.722212
O O10 0.968865 0.232533 0.325748
O O11 0.025191 0.435915 0.200428
O O12 0.387173 0.729231 0.933026
O O13 0.329372 0.408127 0.523116
O O14 0.626751 0.574073 0.247198
O O15 0.725980 0.120303 0.039912
O O16 0.067203 0.184922 0.726968
O O17 0.000000 0.500000 0.000000
#
# Coordination Sequence:
#
# PCOD8015331 Si02
#       8
#     2   2   2   2   2   2   2   2
#     4  10  24  45  72 101 134 173 232 286 334 397
#     4  10  21  42  67  98 135 178 233 269 338 400
#     4  11  22  44  75  96 135 174 234 281 331 403
#     4  11  24  44  69 104 133 178 234 282 330 401
#     4  11  26  44  68  99 145 174 223 278 344 404
#     4  12  27  44  67 103 142 180 224 274 339 411
#     4  10  22  42  71  99 135 182 224 282 340 396
#     4  11  26  44  71 100 136 184 224 275 349 393
#
# _framework density 23.307552000000001
#
# number of rings (size 3 to 8) (size 9 to 14) (size 15 to 20)
#    0.000    1.250    3.750    1.500    5.250    9.000 
#    0.000    1.250    0.000    0.000    0.000    0.000 
#    0.000    0.000    0.000    0.000    0.000    0.000 
#
# Total GULP energy -198267.301725 kJ/mol
# GULP energy per Si atom -12391.706358 kJ/mol
# Density = 2.325450 g / cm^3
# Si number density = 23.307552 Si / 1000 Ang^3
#
#
#
# Elastic Constant Matrix: (Units=GPa)
#
#
# Indices 1 2 3 4 5 6 
#
# 1 123.8374 41.7339 64.8048 -4.1786 -0.6533 25.5375
# 2 41.7339 69.8923 38.3426 -10.6693 3.2798 20.5225
# 3 64.8048 38.3426 109.3368 -26.0068 8.2100 20.1151
# 4 -4.1786 -10.6693 -26.0068 36.1963 1.8922 1.9704
# 5 -0.6533 3.2798 8.2100 1.8922 45.9613 12.3060
# 6 25.5375 20.5225 20.1151 1.9704 12.3060 48.2535
#
#
#
# Elastic Compliance Matrix: (Units=1/GPa)
#
#
# Indices 1 2 3 4 5 6 
#
# 1 0.013961 -0.004166 -0.007718 -0.005152 0.002869 -0.002921
# 2 -0.004166 0.020559 -0.002820 0.003841 0.000319 -0.005601
# 3 -0.007718 -0.002820 0.018028 0.011496 -0.003090 -0.001913
# 4 -0.005152 0.003841 0.011496 0.036812 -0.002708 -0.004512
# 5 0.002869 0.000319 -0.003090 -0.002708 0.024157 -0.006416
# 6 -0.002921 -0.005601 -0.001913 -0.004512 -0.006416 0.027270
#
#
# Mechanical properties :
#
#
# Convention : Reuss Voigt Hill
#
# Bulk Modulus (GPa) = 43.21509 65.86990 54.54250
# Shear Modulus (GPa) = 28.10459 36.62790 32.36625
#
# Velocity S-wave (km/s) = 3.47625 3.96852 3.73051
# Velocity P-wave (km/s) = 5.89016 7.02292 6.48133
#
# Compressibility (1/GPa) = 0.02314006
#
# Stress axis : x y z
#
# Youngs Moduli (GPa) = 71.62594 48.64131 55.47043
#
# Poissons Ratio (x) = 0.20265 0.42810
# Poissons Ratio (y) = 0.29841 0.15643
# Poissons Ratio (z) = 0.55278 0.13717
#
# Static dielectric constant tensor:
#      x y z
#    x 4.817130 0.139120 0.084600 
#    y 0.139120 3.986690 0.089900 
#    z 0.084600 0.089900 4.096470 
# 
# 
# High freq. dielectric constant tensor:
#      x y z
#    x 1.943990 0.006870 -0.000150 
#    y 0.006870 1.897230 -0.001960 
#    z -0.000150 -0.001960 1.912610 
# 
# From -- ./inp_files/577402.got.cif
#   From: 2010.06.25/outbox.cif.g09.slc.cpg/sg2_289_cif.got.tgz:577402.got - 2010.06.27 13:26:56.
