data_PCOD8015796
_publ_section_title
;
Structure prediction by ZEFSAII (Michael W. Deem and Ramdas Pophale) SiO2 
 PCOD8015796
Probable space group: P -1
;
_chemical_formula_sum "Si O2"
_cell_formula_units_Z 16
_cell_length_a 13.494240
_cell_length_b 14.381530
_cell_length_c 15.395679
_cell_angle_alpha 26.762884
_cell_angle_beta 51.046616
_cell_angle_gamma 34.903210
_cell_volume 704.886888
_symmetry_space_group_name_H-M "P -1"
_symmetry_group_IT_number 2
_symmetry_cell_setting 'triclinic'
loop_
_space_group_symop_operation_xyz
x,y,z
-x,-y,-z
loop_
_atom_site_type_symbol
_atom_site_label
_atom_site_fract_x
_atom_site_fract_y
_atom_site_fract_z
Si Si1 0.540385 0.953865 0.371202
Si Si2 0.200888 0.662628 0.696321
Si Si3 0.817105 0.151797 0.151892
Si Si4 0.187162 0.495047 0.539292
Si Si5 0.193439 0.295327 0.889438
Si Si6 0.463221 0.369701 0.217938
Si Si7 0.441059 0.591395 0.357019
Si Si8 0.163608 0.499782 0.038062
O O1 0.715490 0.774493 0.359044
O O2 0.573399 0.698892 0.615016
O O3 0.528953 0.146781 0.287207
O O4 0.356347 0.156289 0.243924
O O5 0.272371 0.396064 0.814694
O O6 0.368282 0.632778 0.620401
O O7 0.184810 0.595591 0.857255
O O8 0.000000 0.000000 0.500000
O O9 0.639643 0.312992 0.179584
O O10 0.901849 0.263898 0.047544
O O11 0.731827 0.281774 0.992935
O O12 0.980387 0.786884 0.369893
O O13 0.158184 0.405419 0.718372
O O14 0.311790 0.552559 0.433728
O O15 0.997760 0.479438 0.893422
O O16 0.331038 0.936708 0.115955
O O17 0.500000 0.500000 0.500000
#
# Coordination Sequence:
#
# PCOD8015796 Si02
#       8
#     2   2   2   2   2   2   2   2
#     4  10  23  40  66  98 125 173 219 269 337 401
#     4  12  26  42  68  98 133 183 229 274 327 386
#     4  10  21  43  65  96 130 170 218 271 333 398
#     4  12  25  42  69 101 134 176 221 272 330 400
#     4  12  25  46  66  95 143 179 218 279 328 386
#     4   9  21  44  68  91 134 169 210 281 337 394
#     4  12  26  45  65  96 141 180 223 272 336 383
#     4  11  23  41  67  97 130 176 227 268 325 394
#
# _framework density 22.698675999999999
#
# number of rings (size 3 to 8) (size 9 to 14) (size 15 to 20)
#    0.000    1.000    2.500    3.750    5.250    1.000 
#    2.250    0.000    0.000    0.000    0.000    0.000 
#    0.000    0.000    0.000    0.000    0.000    0.000 
#
# Total GULP energy -198395.468268 kJ/mol
# GULP energy per Si atom -12399.716767 kJ/mol
# Density = 2.264701 g / cm^3
# Si number density = 22.698676 Si / 1000 Ang^3
#
#
#
# Elastic Constant Matrix: (Units=GPa)
#
#
# Indices 1 2 3 4 5 6 
#
# 1 54.1814 20.0111 25.9563 1.6295 13.9946 -9.4286
# 2 20.0111 117.2404 58.1113 11.3482 23.0299 -13.7102
# 3 25.9563 58.1113 166.1743 2.9858 34.4349 -11.3568
# 4 1.6295 11.3482 2.9858 47.9392 -2.9699 -3.8334
# 5 13.9946 23.0299 34.4349 -2.9699 37.8328 -3.0230
# 6 -9.4286 -13.7102 -11.3568 -3.8334 -3.0230 28.5344
#
#
#
# Elastic Compliance Matrix: (Units=1/GPa)
#
#
# Indices 1 2 3 4 5 6 
#
# 1 0.022036 -0.001269 -0.001451 -0.000271 -0.005643 0.005460
# 2 -0.001269 0.011506 -0.002732 -0.002496 -0.003983 0.003264
# 3 -0.001451 -0.002732 0.008377 -0.000080 -0.005354 0.000964
# 4 -0.000271 -0.002496 -0.000080 0.021845 0.003567 0.001992
# 5 -0.005643 -0.003983 -0.005354 0.003567 0.035968 -0.001620
# 6 0.005460 0.003264 0.000964 0.001992 -0.001620 0.038898
#
#
# Mechanical properties :
#
#
# Convention : Reuss Voigt Hill
#
# Bulk Modulus (GPa) = 32.24235 60.63928 46.44082
# Shear Modulus (GPa) = 31.27522 38.42912 34.85217
#
# Velocity S-wave (km/s) = 3.71596 4.11909 3.92270
# Velocity P-wave (km/s) = 5.71371 7.02819 6.40476
#
# Compressibility (1/GPa) = 0.03101511
#
# Stress axis : x y z
#
# Youngs Moduli (GPa) = 45.37997 86.91102 119.38096
#
# Poissons Ratio (x) = 0.11027 0.17321
# Poissons Ratio (y) = 0.05758 0.32617
# Poissons Ratio (z) = 0.06584 0.23745
#
# Static dielectric constant tensor:
#      x y z
#    x 4.061180 -0.194620 0.070500 
#    y -0.194620 4.026690 0.081080 
#    z 0.070500 0.081080 4.365170 
# 
# 
# High freq. dielectric constant tensor:
#      x y z
#    x 1.894180 -0.013190 0.006710 
#    y -0.013190 1.889700 0.004240 
#    z 0.006710 0.004240 1.915560 
# 
# From -- ./inp_files/534116.got.cif
#   From: 2010.06.25/outbox.cif.g09.slc.cpg/sg2_268_cif.got.tgz:534116.got - 2010.06.27 13:26:56.
