data_PCOD8015856
_publ_section_title
;
Structure prediction by ZEFSAII (Michael W. Deem and Ramdas Pophale) SiO2 
 PCOD8015856
Probable space group: P -1
;
_chemical_formula_sum "Si O2"
_cell_formula_units_Z 16
_cell_length_a 26.227900
_cell_length_b 17.932337
_cell_length_c 8.797110
_cell_angle_alpha 41.294162
_cell_angle_beta 149.761936
_cell_angle_gamma 158.916226
_cell_volume 714.469745
_symmetry_space_group_name_H-M "P -1"
_symmetry_group_IT_number 2
_symmetry_cell_setting 'triclinic'
loop_
_space_group_symop_operation_xyz
x,y,z
-x,-y,-z
loop_
_atom_site_type_symbol
_atom_site_label
_atom_site_fract_x
_atom_site_fract_y
_atom_site_fract_z
Si Si1 0.609458 0.516911 0.546358
Si Si2 0.956857 0.249196 0.204593
Si Si3 0.321994 0.160779 0.718229
Si Si4 0.862057 0.623595 0.844752
Si Si5 0.700614 0.426615 0.180876
Si Si6 0.251018 0.053027 0.364812
Si Si7 0.464762 0.847557 0.213964
Si Si8 0.365317 0.887835 0.471115
O O1 0.677284 0.703550 0.488120
O O2 0.701366 0.570439 0.536612
O O3 0.371437 0.284868 0.284254
O O4 0.698741 0.508493 0.906397
O O5 0.081011 0.336957 0.242409
O O6 0.093624 0.379720 0.503014
O O7 0.799063 0.999303 0.204975
O O8 0.847799 0.266115 0.886316
O O9 0.221684 0.018675 0.522803
O O10 0.538379 0.316381 0.050545
O O11 0.760936 0.410344 0.969799
O O12 0.046863 0.840238 0.085667
O O13 0.657058 0.254747 0.283223
O O14 0.402409 0.105588 0.616457
O O15 0.537116 0.925387 0.455112
O O16 0.500000 0.000000 0.000000
O O17 0.500000 0.000000 0.500000
#
# Coordination Sequence:
#
# PCOD8015856 Si02
#       8
#     2   2   2   2   2   2   2   2
#     4  10  24  45  71  98 131 179 232 285 330 384
#     4  12  26  42  67 103 141 177 220 271 348 409
#     4  11  24  44  72  98 133 180 228 284 331 393
#     4  11  24  43  65  99 137 172 220 281 334 406
#     4  11  23  44  69  99 133 176 232 276 330 402
#     4  10  21  43  66  95 133 170 227 280 328 390
#     4  11  24  42  66  97 132 178 225 275 331 393
#     4  12  23  44  68  98 141 178 218 274 342 408
#
# _framework density 22.394227999999998
#
# number of rings (size 3 to 8) (size 9 to 14) (size 15 to 20)
#    0.000    1.000    2.500    5.625    0.000    4.000 
#    2.250    1.250    0.000    0.000    0.000    0.000 
#    0.000    0.000    0.000    0.000    0.000    0.000 
#
# Total GULP energy -198274.586691 kJ/mol
# GULP energy per Si atom -12392.161668 kJ/mol
# Density = 2.234326 g / cm^3
# Si number density = 22.394228 Si / 1000 Ang^3
#
#
#
# Elastic Constant Matrix: (Units=GPa)
#
#
# Indices 1 2 3 4 5 6 
#
# 1 128.0015 55.3338 13.6638 -6.2665 12.0771 3.4321
# 2 55.3338 139.1110 46.7539 -8.4709 6.6886 -0.6657
# 3 13.6638 46.7539 73.7277 5.8885 9.3924 -11.4803
# 4 -6.2665 -8.4709 5.8885 39.9398 -2.1766 5.7204
# 5 12.0771 6.6886 9.3924 -2.1766 19.7740 5.6975
# 6 3.4321 -0.6657 -11.4803 5.7204 5.6975 39.5846
#
#
#
# Elastic Compliance Matrix: (Units=1/GPa)
#
#
# Indices 1 2 3 4 5 6 
#
# 1 0.009988 -0.004228 0.001567 0.000098 -0.005488 0.000293
# 2 -0.004228 0.011461 -0.007614 0.003458 0.003466 -0.002647
# 3 0.001567 -0.007614 0.021442 -0.006397 -0.011740 0.008569
# 4 0.000098 0.003458 -0.006397 0.028086 0.006875 -0.006854
# 5 -0.005488 0.003466 -0.011740 0.006875 0.062802 -0.012903
# 6 0.000293 -0.002647 0.008569 -0.006854 -0.012903 0.030525
#
#
# Mechanical properties :
#
#
# Convention : Reuss Voigt Hill
#
# Bulk Modulus (GPa) = 44.76193 63.59369 54.17781
# Shear Modulus (GPa) = 26.00101 34.86558 30.43330
#
# Velocity S-wave (km/s) = 3.41113 3.95004 3.69043
# Velocity P-wave (km/s) = 5.96204 7.01874 6.51186
#
# Compressibility (1/GPa) = 0.02234041
#
# Stress axis : x y z
#
# Youngs Moduli (GPa) = 100.12328 87.25536 46.63724
#
# Poissons Ratio (x) = 0.36894 -0.07309
# Poissons Ratio (y) = 0.42335 0.35510
# Poissons Ratio (z) = -0.15692 0.66436
#
# Static dielectric constant tensor:
#      x y z
#    x 4.064870 0.343430 0.067360 
#    y 0.343430 4.446860 0.287800 
#    z 0.067360 0.287800 3.876370 
# 
# 
# High freq. dielectric constant tensor:
#      x y z
#    x 1.901120 -0.000680 0.003330 
#    y -0.000680 1.897570 0.011860 
#    z 0.003330 0.011860 1.857060 
# 
# From -- ./inp_files/357609.got.cif
#   From: 2010.06.25/outbox.cif.g09.slc.cpg/sg2_179_cif.got.tgz:357609.got - 2010.06.27 13:26:56.
