data_PCOD8015370
_publ_section_title
;
Structure prediction by ZEFSAII (Michael W. Deem and Ramdas Pophale) SiO2 
 PCOD8015370
Probable space group: P -1
;
_chemical_formula_sum "Si O2"
_cell_formula_units_Z 16
_cell_length_a 12.730709
_cell_length_b 13.314474
_cell_length_c 14.920758
_cell_angle_alpha 149.788863
_cell_angle_beta 42.320230
_cell_angle_gamma 147.632504
_cell_volume 680.870397
_symmetry_space_group_name_H-M "P -1"
_symmetry_group_IT_number 2
_symmetry_cell_setting 'triclinic'
loop_
_space_group_symop_operation_xyz
x,y,z
-x,-y,-z
loop_
_atom_site_type_symbol
_atom_site_label
_atom_site_fract_x
_atom_site_fract_y
_atom_site_fract_z
Si Si1 0.561524 0.066733 0.795858
Si Si2 0.230281 0.516423 0.148278
Si Si3 0.187444 0.086719 0.749519
Si Si4 0.224490 0.680807 0.468828
Si Si5 0.206152 0.228526 0.350253
Si Si6 0.480286 0.313432 0.590038
Si Si7 0.836750 0.401554 0.239885
Si Si8 0.718521 0.152842 0.946127
O O1 0.588462 0.263134 0.856880
O O2 0.716962 0.229289 0.903788
O O3 0.624084 0.902604 0.586378
O O4 0.336561 0.875803 0.825677
O O5 0.272352 0.578610 0.274447
O O6 0.038486 0.494037 0.228440
O O7 0.196086 0.255053 0.953080
O O8 0.318219 0.270010 0.726391
O O9 0.281808 0.953627 0.621190
O O10 0.966143 0.882551 0.699311
O O11 0.356122 0.707095 0.487114
O O12 0.000000 0.500000 0.500000
O O13 0.411304 0.410294 0.306963
O O14 0.198193 0.393906 0.558304
O O15 0.202216 0.012071 0.232463
O O16 0.850960 0.387291 0.111519
O O17 0.500000 0.000000 0.000000
#
# Coordination Sequence:
#
# PCOD8015370 Si02
#       8
#     2   2   2   2   2   2   2   2
#     4  10  23  44  65  98 135 178 219 276 335 385
#     4  12  25  43  68 100 137 172 229 271 334 403
#     4  12  25  42  70 100 132 180 221 271 339 399
#     4  12  24  49  70  99 137 176 222 281 337 398
#     4  11  22  46  68  98 137 180 224 274 339 393
#     4  11  24  44  72  95 140 176 221 283 330 398
#     4  10  21  42  68  92 136 176 217 284 324 391
#     4  10  23  41  69 103 134 175 231 273 334 400
#
# _framework density 23.499331999999999
#
# number of rings (size 3 to 8) (size 9 to 14) (size 15 to 20)
#    0.000    1.000    5.000    1.125    3.500    6.000 
#    0.000    1.250    0.000    0.000    0.000    0.000 
#    0.000    0.000    0.000    0.000    0.000    0.000 
#
# Total GULP energy -198430.804147 kJ/mol
# GULP energy per Si atom -12401.925259 kJ/mol
# Density = 2.344585 g / cm^3
# Si number density = 23.499332 Si / 1000 Ang^3
#
#
#
# Elastic Constant Matrix: (Units=GPa)
#
#
# Indices 1 2 3 4 5 6 
#
# 1 43.5286 -9.3717 17.8037 -1.8294 11.8227 -5.3333
# 2 -9.3717 70.0265 23.2353 0.3480 11.5840 -2.1172
# 3 17.8037 23.2353 152.9111 6.9849 10.1106 -11.2826
# 4 -1.8294 0.3480 6.9849 31.0242 -2.6088 1.8018
# 5 11.8227 11.5840 10.1106 -2.6088 32.4895 -8.2471
# 6 -5.3333 -2.1172 -11.2826 1.8018 -8.2471 25.2181
#
#
#
# Elastic Compliance Matrix: (Units=1/GPa)
#
#
# Indices 1 2 3 4 5 6 
#
# 1 0.029402 0.007124 -0.003709 0.001437 -0.011654 0.001243
# 2 0.007124 0.017561 -0.003051 0.000287 -0.008153 -0.001071
# 3 -0.003709 -0.003051 0.007691 -0.002027 0.000575 0.002733
# 4 0.001437 0.000287 -0.002027 0.033077 0.002088 -0.002259
# 5 -0.011654 -0.008153 0.000575 0.002088 0.040506 0.010206
# 6 0.001243 -0.001071 0.002733 -0.002259 0.010206 0.044549
#
#
# Mechanical properties :
#
#
# Convention : Reuss Voigt Hill
#
# Bulk Modulus (GPa) = 18.05629 36.64456 27.35042
# Shear Modulus (GPa) = 26.24389 33.39962 29.82175
#
# Velocity S-wave (km/s) = 3.34547 3.77410 3.56623
# Velocity P-wave (km/s) = 4.75640 5.88384 5.34990
#
# Compressibility (1/GPa) = 0.05538238
#
# Stress axis : x y z
#
# Youngs Moduli (GPa) = 34.01092 56.94460 130.01450
#
# Poissons Ratio (x) = -0.40567 0.48225
# Poissons Ratio (y) = -0.24229 0.39666
# Poissons Ratio (z) = 0.12615 0.17373
#
# Static dielectric constant tensor:
#      x y z
#    x 4.214250 -0.038990 0.410740 
#    y -0.038990 4.285500 -0.058850 
#    z 0.410740 -0.058850 4.639620 
# 
# 
# High freq. dielectric constant tensor:
#      x y z
#    x 1.914510 0.006890 0.015920 
#    y 0.006890 1.930290 -0.001640 
#    z 0.015920 -0.001640 1.941750 
# 
# From -- ./inp_files/446491.got.cif
#   From: 2010.06.25/outbox.cif.g09.slc.cpg/sg2_224_cif.got.tgz:446491.got - 2010.06.27 13:26:56.
