data_PCOD8015281
_publ_section_title
;
Structure prediction by ZEFSAII (Michael W. Deem and Ramdas Pophale) SiO2 
 PCOD8015281
Probable space group: P -1
;
_chemical_formula_sum "Si O2"
_cell_formula_units_Z 16
_cell_length_a 9.147675
_cell_length_b 7.707336
_cell_length_c 19.872248
_cell_angle_alpha 33.103957
_cell_angle_beta 72.139200
_cell_angle_gamma 72.847132
_cell_volume 726.383543
_symmetry_space_group_name_H-M "P -1"
_symmetry_group_IT_number 2
_symmetry_cell_setting 'triclinic'
loop_
_space_group_symop_operation_xyz
x,y,z
-x,-y,-z
loop_
_atom_site_type_symbol
_atom_site_label
_atom_site_fract_x
_atom_site_fract_y
_atom_site_fract_z
Si Si1 0.142332 0.777806 0.523811
Si Si2 0.036113 0.602815 0.810667
Si Si3 0.637730 0.320770 0.769495
Si Si4 0.343329 0.347735 0.069336
Si Si5 0.900226 0.117272 0.077328
Si Si6 0.041399 0.776719 0.295618
Si Si7 0.250715 0.299999 0.251289
Si Si8 0.706763 0.540958 0.266032
O O1 0.075413 0.490467 0.583554
O O2 0.253087 0.634417 0.613127
O O3 0.253076 0.963449 0.399213
O O4 0.000000 0.000000 0.500000
O O5 0.210389 0.648119 0.747436
O O6 0.928292 0.558016 0.774204
O O7 0.966986 0.935165 0.744357
O O8 0.022398 0.274845 0.960055
O O9 0.651793 0.456769 0.798931
O O10 0.476599 0.455419 0.716103
O O11 0.786494 0.402106 0.676958
O O12 0.640777 0.940531 0.891843
O O13 0.312159 0.250766 0.182712
O O14 0.500000 0.500000 0.000000
O O15 0.209083 0.580338 0.979782
O O16 0.998778 0.939844 0.178003
O O17 0.780321 0.883672 0.137780
#
# Coordination Sequence:
#
# PCOD8015281 Si02
#       8
#     2   2   2   2   2   2   2   2
#     4  11  22  46  71  92 134 180 234 282 325 411
#     4  11  22  42  66 102 133 178 238 275 330 420
#     4  12  24  43  68 105 138 177 219 280 352 393
#     4  11  24  46  70 101 143 175 219 289 338 412
#     4  10  21  42  67  93 137 178 228 274 335 404
#     4  11  23  42  70  98 135 185 225 281 341 395
#     4  11  24  45  70  99 129 184 230 271 337 402
#     4  11  24  41  66 100 136 176 225 282 344 396
#
# _framework density 22.026931000000001
#
# number of rings (size 3 to 8) (size 9 to 14) (size 15 to 20)
#    0.000    1.000    6.250    1.500    0.000    3.500 
#    2.250    0.625    0.000    0.000    0.000    0.000 
#    0.000    0.000    0.000    0.000    0.000    0.000 
#
# Total GULP energy -198241.616542 kJ/mol
# GULP energy per Si atom -12390.101034 kJ/mol
# Density = 2.197680 g / cm^3
# Si number density = 22.026931 Si / 1000 Ang^3
#
#
#
# Elastic Constant Matrix: (Units=GPa)
#
#
# Indices 1 2 3 4 5 6 
#
# 1 148.6103 52.1890 36.7421 -0.4179 -1.1470 -7.7882
# 2 52.1890 92.7367 41.0532 -9.6533 -7.3203 11.3948
# 3 36.7421 41.0532 104.2889 -5.3216 -16.7778 -0.4439
# 4 -0.4179 -9.6533 -5.3216 18.0584 -0.5342 -11.2892
# 5 -1.1470 -7.3203 -16.7778 -0.5342 29.1612 -7.9128
# 6 -7.7882 11.3948 -0.4439 -11.2892 -7.9128 37.4173
#
#
#
# Elastic Compliance Matrix: (Units=1/GPa)
#
#
# Indices 1 2 3 4 5 6 
#
# 1 0.008953 -0.004956 -0.001402 -0.001124 -0.000956 0.002815
# 2 -0.004956 0.016665 -0.004586 0.004452 0.000132 -0.004790
# 3 -0.001402 -0.004586 0.013364 0.004300 0.007698 0.004189
# 4 -0.001124 0.004452 0.004300 0.073751 0.011159 0.023073
# 5 -0.000956 0.000132 0.007698 0.011159 0.042217 0.012147
# 6 0.002815 -0.004790 0.004189 0.023073 0.012147 0.038350
#
#
# Mechanical properties :
#
#
# Convention : Reuss Voigt Hill
#
# Bulk Modulus (GPa) = 58.50448 67.28938 62.89693
# Shear Modulus (GPa) = 22.63608 31.30415 26.97011
#
# Velocity S-wave (km/s) = 3.20918 3.77394 3.50296
# Velocity P-wave (km/s) = 6.35216 7.04309 6.70653
#
# Compressibility (1/GPa) = 0.01709271
#
# Stress axis : x y z
#
# Youngs Moduli (GPa) = 111.69200 60.00670 74.82882
#
# Poissons Ratio (x) = 0.29739 0.10495
# Poissons Ratio (y) = 0.55354 0.34317
# Poissons Ratio (z) = 0.15665 0.27520
#
# Static dielectric constant tensor:
#      x y z
#    x 4.120270 0.008390 -0.163280 
#    y 0.008390 4.293950 -0.160410 
#    z -0.163280 -0.160410 4.072330 
# 
# 
# High freq. dielectric constant tensor:
#      x y z
#    x 1.870930 0.007370 -0.006260 
#    y 0.007370 1.863530 -0.014530 
#    z -0.006260 -0.014530 1.859990 
# 
# From -- ./inp_files/587706.got.cif
#   From: 2010.06.25/outbox.cif.g09.slc.cpg/sg2_294_cif.got.tgz:587706.got - 2010.06.27 13:26:56.
