data_PCOD8015993
_publ_section_title
;
Structure prediction by ZEFSAII (Michael W. Deem and Ramdas Pophale) SiO2 
 PCOD8015993
Probable space group: P -1
;
_chemical_formula_sum "Si O2"
_cell_formula_units_Z 14
_cell_length_a 12.103239
_cell_length_b 9.223258
_cell_length_c 9.034513
_cell_angle_alpha 49.685112
_cell_angle_beta 95.348111
_cell_angle_gamma 113.903715
_cell_volume 682.086597
_symmetry_space_group_name_H-M "P -1"
_symmetry_group_IT_number 2
_symmetry_cell_setting 'triclinic'
loop_
_space_group_symop_operation_xyz
x,y,z
-x,-y,-z
loop_
_atom_site_type_symbol
_atom_site_label
_atom_site_fract_x
_atom_site_fract_y
_atom_site_fract_z
Si Si1 0.896255 0.793979 0.700716
Si Si2 0.496307 0.864624 0.449246
Si Si3 0.644330 0.608486 0.651519
Si Si4 0.928488 0.775276 0.062850
Si Si5 0.877237 0.405539 0.779156
Si Si6 0.743206 0.497581 0.453633
Si Si7 0.610417 0.157770 0.009801
O O1 0.764701 0.777970 0.642622
O O2 0.909653 0.587010 0.787371
O O3 0.904104 0.810612 0.867363
O O4 0.000000 0.000000 0.500000
O O5 0.537223 0.680368 0.608830
O O6 0.357196 0.741970 0.446184
O O7 0.500000 0.000000 0.500000
O O8 0.596176 0.044340 0.238765
O O9 0.677014 0.598000 0.488999
O O10 0.599244 0.377508 0.874451
O O11 0.797241 0.641186 0.219314
O O12 0.010113 0.650706 0.171051
O O13 0.000000 0.000000 0.000000
O O14 0.858262 0.488431 0.561317
O O15 0.745915 0.202339 0.936467
O O16 0.500000 0.000000 0.000000
#
# Coordination Sequence:
#
# PCOD8015993 Si02
#       7
#     2   2   2   2   2   2   2
#     4  10  23  44  63  92 126 173 213 258 322 377
#     4  12  26  40  68  99 130 168 212 271 323 381
#     4  10  24  45  66  91 132 172 216 265 315 397
#     4  12  25  39  65  99 127 167 214 265 321 376
#     4  10  23  42  67  90 129 170 211 265 313 391
#     4  10  23  44  63  96 128 165 218 261 320 384
#     4  10  21  43  68  94 126 174 216 253 332 382
#
# _framework density 20.525252999999999
#
# number of rings (size 3 to 8) (size 9 to 14) (size 15 to 20)
#    0.000    1.714    2.857    3.000    8.000    2.857 
#    0.000    0.000    0.000    0.000    0.000    0.000 
#    0.000    0.000    0.000    0.000    0.000    0.000 
#
# Total GULP energy -173589.359449 kJ/mol
# GULP energy per Si atom -12399.239961 kJ/mol
# Density = 2.047854 g / cm^3
# Si number density = 20.525253 Si / 1000 Ang^3
#
#
#
# Elastic Constant Matrix: (Units=GPa)
#
#
# Indices 1 2 3 4 5 6 
#
# 1 62.9482 32.5716 14.0089 -2.8046 3.0883 -5.7547
# 2 32.5716 143.6926 39.1683 13.6472 -9.6197 8.5755
# 3 14.0089 39.1683 111.5437 3.1286 -20.2183 4.2891
# 4 -2.8046 13.6472 3.1286 39.3105 4.0069 -4.9867
# 5 3.0883 -9.6197 -20.2183 4.0069 32.1315 -8.3973
# 6 -5.7547 8.5755 4.2891 -4.9867 -8.3973 29.4876
#
#
#
# Elastic Compliance Matrix: (Units=1/GPa)
#
#
# Indices 1 2 3 4 5 6 
#
# 1 0.019678 -0.004957 -0.001708 0.004292 -0.003620 0.005225
# 2 -0.004957 0.009369 -0.002145 -0.004049 0.001485 -0.003642
# 3 -0.001708 -0.002145 0.011170 -0.000901 0.006779 0.000444
# 4 0.004292 -0.004049 -0.000901 0.028381 -0.004231 0.005741
# 5 -0.003620 0.001485 0.006779 -0.004231 0.038857 0.008226
# 6 0.005225 -0.003642 0.000444 0.005741 0.008226 0.039240
#
#
# Mechanical properties :
#
#
# Convention : Reuss Voigt Hill
#
# Bulk Modulus (GPa) = 44.25364 54.40911 49.33138
# Shear Modulus (GPa) = 29.09581 35.68164 32.38872
#
# Velocity S-wave (km/s) = 3.76914 4.17397 3.97671
# Velocity P-wave (km/s) = 6.36783 7.05658 6.72103
#
# Compressibility (1/GPa) = 0.02259701
#
# Stress axis : x y z
#
# Youngs Moduli (GPa) = 50.81946 106.73842 89.52857
#
# Poissons Ratio (x) = 0.52906 0.15294
# Poissons Ratio (y) = 0.25189 0.19200
# Poissons Ratio (z) = 0.08681 0.22890
#
# Static dielectric constant tensor:
#      x y z
#    x 3.392400 -0.086580 0.475310 
#    y -0.086580 3.642750 0.593530 
#    z 0.475310 0.593530 2.458700 
# 
# 
# High freq. dielectric constant tensor:
#      x y z
#    x 1.791710 0.012440 -0.006340 
#    y 0.012440 1.814080 -0.000640 
#    z -0.006340 -0.000640 1.809470 
# 
# From -- ./inp_files/177136.got.cif
#   From: 2010.06.25/outbox.cif.g09.slc.cpg/sg2_89_cif.got.tgz:177136.got - 2010.06.27 13:26:56.
