data_PCOD8015071
_publ_section_title
;
Structure prediction by ZEFSAII (Michael W. Deem and Ramdas Pophale) SiO2 
 PCOD8015071
Probable space group: P -1
;
_chemical_formula_sum "Si O2"
_cell_formula_units_Z 16
_cell_length_a 14.725899
_cell_length_b 8.833586
_cell_length_c 8.929967
_cell_angle_alpha 130.706729
_cell_angle_beta 90.187628
_cell_angle_gamma 68.696582
_cell_volume 774.209327
_symmetry_space_group_name_H-M "P -1"
_symmetry_group_IT_number 2
_symmetry_cell_setting 'triclinic'
loop_
_space_group_symop_operation_xyz
x,y,z
-x,-y,-z
loop_
_atom_site_type_symbol
_atom_site_label
_atom_site_fract_x
_atom_site_fract_y
_atom_site_fract_z
Si Si1 0.768623 0.399000 0.509242
Si Si2 0.487174 0.076555 0.879090
Si Si3 0.404662 0.650518 0.996001
Si Si4 0.948776 0.354581 0.847851
Si Si5 0.071058 0.461545 0.333719
Si Si6 0.439814 0.398059 0.525717
Si Si7 0.935763 0.948049 0.088734
Si Si8 0.723632 0.463388 0.878268
O O1 0.823594 0.557396 0.614413
O O2 0.662059 0.555070 0.531629
O O3 0.750273 0.336048 0.636403
O O4 0.829996 0.172120 0.266419
O O5 0.494936 0.875817 0.640871
O O6 0.584702 0.124505 0.887137
O O7 0.375320 0.288373 0.979320
O O8 0.500000 0.000000 0.000000
O O9 0.412093 0.508432 0.757809
O O10 0.500000 0.500000 0.000000
O O11 0.300094 0.695341 0.110852
O O12 0.974251 0.326352 0.649946
O O13 0.823964 0.479338 0.949402
O O14 0.000095 0.126736 0.802041
O O15 0.000000 0.500000 0.000000
O O16 0.000000 0.500000 0.500000
O O17 0.093845 0.235666 0.097463
O O18 0.500000 0.500000 0.500000
O O19 0.000000 0.000000 0.000000
#
# Coordination Sequence:
#
# PCOD8015071 Si02
#       8
#     2   2   2   2   2   2   2   2
#     4  11  24  42  64  98 132 174 224 271 342 398
#     4  11  21  44  69  97 133 177 220 277 342 394
#     4  10  23  42  65  99 136 169 223 282 332 407
#     4   9  22  41  62  93 132 174 219 279 330 394
#     4  10  21  42  65  94 132 169 223 283 329 402
#     4  12  24  40  69  99 135 177 224 276 333 408
#     4  11  23  42  69  94 131 177 225 277 341 400
#     4  10  22  42  66  93 139 173 220 282 336 403
#
# _framework density 20.666246000000001
#
# number of rings (size 3 to 8) (size 9 to 14) (size 15 to 20)
#    0.000    1.500    3.750    0.750    1.750    8.000 
#    0.000    3.750    0.000    0.000    0.000    0.000 
#    0.000    0.000    0.000    0.000    0.000    0.000 
#
# Total GULP energy -198272.941498 kJ/mol
# GULP energy per Si atom -12392.058844 kJ/mol
# Density = 2.061921 g / cm^3
# Si number density = 20.666246 Si / 1000 Ang^3
#
#
#
# Elastic Constant Matrix: (Units=GPa)
#
#
# Indices 1 2 3 4 5 6 
#
# 1 152.0315 55.9754 49.3690 -12.9762 3.3969 14.2422
# 2 55.9754 98.3508 26.0951 -11.8814 -4.3989 20.3749
# 3 49.3690 26.0951 119.8237 -0.4209 1.1247 21.3738
# 4 -12.9762 -11.8814 -0.4209 40.5239 4.8319 -5.1243
# 5 3.3969 -4.3989 1.1247 4.8319 39.5750 -5.8878
# 6 14.2422 20.3749 21.3738 -5.1243 -5.8878 43.6283
#
#
#
# Elastic Compliance Matrix: (Units=1/GPa)
#
#
# Indices 1 2 3 4 5 6 
#
# 1 0.009318 -0.004466 -0.002940 0.001872 -0.001364 0.000520
# 2 -0.004466 0.014043 -0.000414 0.001987 0.001040 -0.004524
# 3 -0.002940 -0.000414 0.010392 -0.001419 -0.000537 -0.004177
# 4 0.001872 0.001987 -0.001419 0.026421 -0.002846 0.001875
# 5 -0.001364 0.001040 -0.000537 -0.002846 0.026377 0.003448
# 6 0.000520 -0.004524 -0.004177 0.001875 0.003448 0.027596
#
#
# Mechanical properties :
#
#
# Convention : Reuss Voigt Hill
#
# Bulk Modulus (GPa) = 55.20749 70.34279 62.77514
# Shear Modulus (GPa) = 36.81224 40.66319 38.73771
#
# Velocity S-wave (km/s) = 4.22509 4.44059 4.33418
# Velocity P-wave (km/s) = 7.11152 7.77195 7.44906
#
# Compressibility (1/GPa) = 0.01811349
#
# Stress axis : x y z
#
# Youngs Moduli (GPa) = 107.31842 71.21014 96.22517
#
# Poissons Ratio (x) = 0.31801 0.28290
# Poissons Ratio (y) = 0.47926 0.03985
# Poissons Ratio (z) = 0.31551 0.02949
#
# Static dielectric constant tensor:
#      x y z
#    x 3.922110 -0.037260 -0.113190 
#    y -0.037260 4.405280 -0.280120 
#    z -0.113190 -0.280120 3.732090 
# 
# 
# High freq. dielectric constant tensor:
#      x y z
#    x 1.823490 0.012440 0.008700 
#    y 0.012440 1.811050 -0.019800 
#    z 0.008700 -0.019800 1.802160 
# 
# From -- ./inp_files/215055.got.cif
#   From: 2010.06.25/outbox.cif.g09.slc.cpg/sg2_108_cif.got.tgz:215055.got - 2010.06.27 13:26:56.
