data_PCOD8015118
_publ_section_title
;
Structure prediction by ZEFSAII (Michael W. Deem and Ramdas Pophale) SiO2 
 PCOD8015118
Probable space group: P -1
;
_chemical_formula_sum "Si O2"
_cell_formula_units_Z 14
_cell_length_a 6.603330
_cell_length_b 23.914574
_cell_length_c 10.166186
_cell_angle_alpha 32.586741
_cell_angle_beta 133.134655
_cell_angle_gamma 129.699838
_cell_volume 622.886703
_symmetry_space_group_name_H-M "P -1"
_symmetry_group_IT_number 2
_symmetry_cell_setting 'triclinic'
loop_
_space_group_symop_operation_xyz
x,y,z
-x,-y,-z
loop_
_atom_site_type_symbol
_atom_site_label
_atom_site_fract_x
_atom_site_fract_y
_atom_site_fract_z
Si Si1 0.858459 0.635738 0.595298
Si Si2 0.582983 0.549968 0.184779
Si Si3 0.281846 0.893665 0.614306
Si Si4 0.384059 0.761076 0.678672
Si Si5 0.400824 0.767744 0.165531
Si Si6 0.955135 0.418862 0.483447
Si Si7 0.624249 0.893156 0.275136
O O1 0.726503 0.519423 0.817885
O O2 0.621672 0.705380 0.314759
O O3 0.063018 0.701360 0.660658
O O4 0.054648 0.622074 0.586488
O O5 0.756903 0.508661 0.224234
O O6 0.735291 0.529832 0.430715
O O7 0.584299 0.673379 0.929421
O O8 0.413126 0.823524 0.704191
O O9 0.964005 0.912758 0.403894
O O10 0.500000 0.000000 0.500000
O O11 0.282553 0.843273 0.859361
O O12 0.462469 0.835937 0.441165
O O13 0.145843 0.680678 0.270936
O O14 0.548146 0.830486 0.231056
O O15 0.500000 0.000000 0.000000
#
# Coordination Sequence:
#
# PCOD8015118 Si02
#       7
#     2   2   2   2   2   2   2
#     4  11  22  41  70 102 143 192 227 286 347 423
#     4  10  23  38  65 107 141 186 235 281 343 427
#     4  12  29  48  75 106 138 187 246 300 360 427
#     4  12  25  45  71 104 145 185 238 292 357 419
#     4  11  24  46  72 100 143 184 236 288 359 417
#     4  10  21  42  66 101 145 187 229 287 344 419
#     4  12  28  48  74 104 139 185 242 301 364 419
#
# _framework density 22.475997
#
# number of rings (size 3 to 8) (size 9 to 14) (size 15 to 20)
#    0.000    0.857    2.857    3.429    2.000    8.571 
#    0.000    0.000    0.000    0.000    0.000    0.000 
#    0.000    0.000    0.000    0.000    0.000    0.000 
#
# Total GULP energy -173580.157683 kJ/mol
# GULP energy per Si atom -12398.582692 kJ/mol
# Density = 2.242484 g / cm^3
# Si number density = 22.475997 Si / 1000 Ang^3
#
#
#
# Elastic Constant Matrix: (Units=GPa)
#
#
# Indices 1 2 3 4 5 6 
#
# 1 103.5015 50.0614 46.4117 -3.9627 2.0442 -5.9826
# 2 50.0614 139.1230 37.0672 -5.6273 -2.4567 3.5335
# 3 46.4117 37.0672 111.0631 -12.7627 4.0577 -6.1906
# 4 -3.9627 -5.6273 -12.7627 39.7542 -2.8636 1.1549
# 5 2.0442 -2.4567 4.0577 -2.8636 31.0605 4.9337
# 6 -5.9826 3.5335 -6.1906 1.1549 4.9337 37.7746
#
#
#
# Elastic Compliance Matrix: (Units=1/GPa)
#
#
# Indices 1 2 3 4 5 6 
#
# 1 0.013555 -0.003821 -0.004325 -0.000707 -0.001004 0.001948
# 2 -0.003821 0.009069 -0.001526 0.000579 0.001527 -0.001921
# 3 -0.004325 -0.001526 0.011796 0.003001 -0.001335 0.001474
# 4 -0.000707 0.000579 0.003001 0.026314 0.002249 -0.000773
# 5 -0.001004 0.001527 -0.001335 0.002249 0.033553 -0.004972
# 6 0.001948 -0.001921 0.001474 -0.000773 -0.004972 0.027875
#
#
# Mechanical properties :
#
#
# Convention : Reuss Voigt Hill
#
# Bulk Modulus (GPa) = 66.33441 68.97425 67.65433
# Shear Modulus (GPa) = 34.12232 36.39436 35.25834
#
# Velocity S-wave (km/s) = 3.90059 4.02836 3.96499
# Velocity P-wave (km/s) = 7.06142 7.23820 7.15036
#
# Compressibility (1/GPa) = 0.01507513
#
# Stress axis : x y z
#
# Youngs Moduli (GPa) = 73.77603 110.27110 84.77163
#
# Poissons Ratio (x) = 0.42133 0.36664
# Poissons Ratio (y) = 0.28189 0.12938
# Poissons Ratio (z) = 0.31908 0.16830
#
# Static dielectric constant tensor:
#      x y z
#    x 4.092530 -0.004610 0.156710 
#    y -0.004610 4.317590 -0.081690 
#    z 0.156710 -0.081690 3.947830 
# 
# 
# High freq. dielectric constant tensor:
#      x y z
#    x 1.893500 0.001760 0.013030 
#    y 0.001760 1.908010 -0.005820 
#    z 0.013030 -0.005820 1.880970 
# 
# From -- ./inp_files/141077.got.cif
#   From: 2010.06.25/outbox.cif.g09.slc.cpg/sg2_71_cif.got.tgz:141077.got - 2010.06.27 13:26:56.
