data_PCOD8015692
_publ_section_title
;
Structure prediction by ZEFSAII (Michael W. Deem and Ramdas Pophale) SiO2 
 PCOD8015692
Probable space group: P -1
;
_chemical_formula_sum "Si O2"
_cell_formula_units_Z 14
_cell_length_a 7.494818
_cell_length_b 9.066286
_cell_length_c 13.451063
_cell_angle_alpha 69.207406
_cell_angle_beta 138.465268
_cell_angle_gamma 98.379571
_cell_volume 555.862959
_symmetry_space_group_name_H-M "P -1"
_symmetry_group_IT_number 2
_symmetry_cell_setting 'triclinic'
loop_
_space_group_symop_operation_xyz
x,y,z
-x,-y,-z
loop_
_atom_site_type_symbol
_atom_site_label
_atom_site_fract_x
_atom_site_fract_y
_atom_site_fract_z
Si Si1 0.257116 0.358644 0.148493
Si Si2 0.521297 0.168887 0.665132
Si Si3 0.030018 0.778375 0.289103
Si Si4 0.080211 0.267025 0.290880
Si Si5 0.263655 0.399167 0.928470
Si Si6 0.819305 0.013488 0.322922
Si Si7 0.304495 0.504063 0.589281
O O1 0.196396 0.227735 0.235780
O O2 0.530688 0.426467 0.271658
O O3 0.295921 0.290226 0.068556
O O4 0.000000 0.500000 0.000000
O O5 0.831132 0.128993 0.760982
O O6 0.311076 0.184954 0.482087
O O7 0.473281 0.022539 0.752882
O O8 0.471197 0.330586 0.670386
O O9 0.270598 0.626301 0.452954
O O10 0.761210 0.719787 0.145519
O O11 0.948388 0.878862 0.329624
O O12 0.013252 0.460628 0.224408
O O13 0.812169 0.185472 0.222921
O O14 0.500000 0.500000 0.000000
O O15 0.000000 0.000000 0.500000
O O16 0.000000 0.500000 0.500000
#
# Coordination Sequence:
#
# PCOD8015692 Si02
#       7
#     2   2   2   2   2   2   2
#     4  10  22  39  63  93 134 178 221 278 345 401
#     4  11  21  39  69 102 134 167 227 280 342 397
#     4  12  23  43  70  99 132 176 229 285 340 401
#     4  10  21  43  62  94 135 174 217 277 340 400
#     4  11  24  42  67  98 132 173 229 280 336 406
#     4  10  25  42  65 102 139 172 221 284 345 408
#     4  12  21  37  70 102 131 172 233 296 333 395
#
# _framework density 25.186060999999999
#
# number of rings (size 3 to 8) (size 9 to 14) (size 15 to 20)
#    0.000    1.143    4.286    3.000    0.000    2.286 
#    2.571    1.429    0.000    0.000    0.000    0.000 
#    0.000    0.000    0.000    0.000    0.000    0.000 
#
# Total GULP energy -173468.992233 kJ/mol
# GULP energy per Si atom -12390.642302 kJ/mol
# Density = 2.512874 g / cm^3
# Si number density = 25.186061 Si / 1000 Ang^3
#
#
#
# Elastic Constant Matrix: (Units=GPa)
#
#
# Indices 1 2 3 4 5 6 
#
# 1 151.8413 54.2722 32.6281 19.5030 -21.2802 27.1923
# 2 54.2722 108.3038 40.7756 18.4474 -28.1074 22.5279
# 3 32.6281 40.7756 92.7885 29.4425 -16.9686 -1.1324
# 4 19.5030 18.4474 29.4425 37.4807 2.9484 -11.2787
# 5 -21.2802 -28.1074 -16.9686 2.9484 42.8362 9.6224
# 6 27.1923 22.5279 -1.1324 -11.2787 9.6224 44.3286
#
#
#
# Elastic Compliance Matrix: (Units=1/GPa)
#
#
# Indices 1 2 3 4 5 6 
#
# 1 0.011248 0.001639 0.001071 -0.012334 0.010903 -0.013210
# 2 0.001639 0.021953 -0.000374 -0.019595 0.021312 -0.021783
# 3 0.001071 -0.000374 0.017700 -0.017014 0.009929 -0.006499
# 4 -0.012334 -0.019595 -0.017014 0.072675 -0.040704 0.044416
# 5 0.010903 0.021312 0.009929 -0.040704 0.058540 -0.040329
# 6 -0.013210 -0.021783 -0.006499 0.044416 -0.040329 0.061621
#
#
# Mechanical properties :
#
#
# Convention : Reuss Voigt Hill
#
# Bulk Modulus (GPa) = 17.99473 67.58727 42.79100
# Shear Modulus (GPa) = 19.41071 39.94627 29.67849
#
# Velocity S-wave (km/s) = 2.77915 3.98684 3.43646
# Velocity P-wave (km/s) = 4.17833 6.93445 5.72473
#
# Compressibility (1/GPa) = 0.05557183
#
# Stress axis : x y z
#
# Youngs Moduli (GPa) = 88.90485 45.55271 56.49693
#
# Poissons Ratio (x) = -0.07464 -0.06051
# Poissons Ratio (y) = -0.14568 0.02113
# Poissons Ratio (z) = -0.09521 0.01703
#
# Static dielectric constant tensor:
#      x y z
#    x 5.793410 1.046450 -0.332450 
#    y 1.046450 5.437240 0.250710 
#    z -0.332450 0.250710 4.718210 
# 
# 
# High freq. dielectric constant tensor:
#      x y z
#    x 2.020130 0.022890 -0.016780 
#    y 0.022890 1.992330 0.011120 
#    z -0.016780 0.011120 1.988310 
# 
# From -- ./inp_files/392884.got.cif
#   From: 2010.06.25/outbox.cif.g09.slc.cpg/sg2_197_cif.got.tgz:392884.got - 2010.06.27 13:26:56.
