data_PCOD8015200
_publ_section_title
;
Structure prediction by ZEFSAII (Michael W. Deem and Ramdas Pophale) SiO2 
 PCOD8015200
Probable space group: P -1
;
_chemical_formula_sum "Si O2"
_cell_formula_units_Z 14
_cell_length_a 11.440418
_cell_length_b 6.379351
_cell_length_c 10.487781
_cell_angle_alpha 102.859141
_cell_angle_beta 115.088250
_cell_angle_gamma 63.473949
_cell_volume 619.716796
_symmetry_space_group_name_H-M "P -1"
_symmetry_group_IT_number 2
_symmetry_cell_setting 'triclinic'
loop_
_space_group_symop_operation_xyz
x,y,z
-x,-y,-z
loop_
_atom_site_type_symbol
_atom_site_label
_atom_site_fract_x
_atom_site_fract_y
_atom_site_fract_z
Si Si1 0.201581 0.925578 0.169863
Si Si2 0.230487 0.323480 0.851668
Si Si3 0.812639 0.814240 0.551904
Si Si4 0.426291 0.497700 0.102266
Si Si5 0.332764 0.882220 0.692105
Si Si6 0.872661 0.350275 0.386822
Si Si7 0.977356 0.744066 0.082618
O O1 0.356285 0.754864 0.168442
O O2 0.121982 0.776685 0.180446
O O3 0.206636 0.119171 0.298786
O O4 0.119457 0.046750 0.022936
O O5 0.168722 0.540001 0.757403
O O6 0.103610 0.250170 0.823483
O O7 0.344044 0.091565 0.808879
O O8 0.305109 0.399490 0.012398
O O9 0.812708 0.555917 0.494607
O O10 0.959467 0.794005 0.553283
O O11 0.684108 0.023787 0.448923
O O12 0.530518 0.347211 0.240993
O O13 0.500000 0.500000 0.000000
O O14 0.194884 0.835515 0.651532
O O15 0.000000 0.500000 0.000000
#
# Coordination Sequence:
#
# PCOD8015200 Si02
#       7
#     2   2   2   2   2   2   2
#     4  11  25  41  63  99 135 167 210 271 319 379
#     4  11  22  40  69  97 123 168 216 271 323 377
#     4  10  23  40  64  92 130 171 214 262 324 377
#     4  12  24  43  66  93 133 172 214 266 321 383
#     4  11  23  40  66  90 129 175 215 260 313 391
#     4  10  21  42  66  96 127 164 219 271 316 378
#     4  11  22  40  66  99 129 163 210 269 331 372
#
# _framework density 22.590962999999999
#
# number of rings (size 3 to 8) (size 9 to 14) (size 15 to 20)
#    0.000    1.143    2.857    3.429    2.000    4.000 
#    0.000    0.714    0.000    0.000    0.000    0.000 
#    0.000    0.000    0.000    0.000    0.000    0.000 
#
# Total GULP energy -173541.985350 kJ/mol
# GULP energy per Si atom -12395.856096 kJ/mol
# Density = 2.253955 g / cm^3
# Si number density = 22.590963 Si / 1000 Ang^3
#
#
#
# Elastic Constant Matrix: (Units=GPa)
#
#
# Indices 1 2 3 4 5 6 
#
# 1 58.3303 12.2554 6.4540 7.1078 -7.9300 -7.3488
# 2 12.2554 94.4459 26.8855 -2.6640 -3.9361 -22.0081
# 3 6.4540 26.8855 81.2440 14.5840 -3.7287 -16.2666
# 4 7.1078 -2.6640 14.5840 32.3652 -4.8980 4.5582
# 5 -7.9300 -3.9361 -3.7287 -4.8980 30.4047 4.4688
# 6 -7.3488 -22.0081 -16.2666 4.5582 4.4688 37.1861
#
#
#
# Elastic Compliance Matrix: (Units=1/GPa)
#
#
# Indices 1 2 3 4 5 6 
#
# 1 0.018889 -0.001928 0.000719 -0.004514 0.003593 0.003028
# 2 -0.001928 0.013218 -0.003513 0.002360 0.000338 0.005575
# 3 0.000719 -0.003513 0.016215 -0.008733 -0.000612 0.006300
# 4 -0.004514 0.002360 -0.008733 0.038061 0.005458 -0.008637
# 5 0.003593 0.000338 -0.000612 0.005458 0.035302 -0.004269
# 6 0.003028 0.005575 0.006300 -0.008637 -0.004269 0.035117
#
#
# Mechanical properties :
#
#
# Convention : Reuss Voigt Hill
#
# Bulk Modulus (GPa) = 25.72109 36.13446 30.92777
# Shear Modulus (GPa) = 27.90089 32.55289 30.22689
#
# Velocity S-wave (km/s) = 3.51814 3.80013 3.66185
# Velocity P-wave (km/s) = 5.28331 5.94007 5.62129
#
# Compressibility (1/GPa) = 0.03887860
#
# Stress axis : x y z
#
# Youngs Moduli (GPa) = 52.94037 75.65407 61.67111
#
# Poissons Ratio (x) = 0.14584 -0.04433
# Poissons Ratio (y) = 0.10205 0.21664
# Poissons Ratio (z) = -0.03805 0.26577
#
# Static dielectric constant tensor:
#      x y z
#    x 3.691050 0.143050 0.446850 
#    y 0.143050 4.143260 -0.017430 
#    z 0.446850 -0.017430 3.801500 
# 
# 
# High freq. dielectric constant tensor:
#      x y z
#    x 1.863470 0.003460 0.005560 
#    y 0.003460 1.906020 0.003050 
#    z 0.005560 0.003050 1.887640 
# 
# From -- ./inp_files/65654.got.cif
#   From: 2010.06.25/outbox.cif.g09.slc.cpg/sg2_33_cif.got.tgz:65654.got - 2010.06.27 13:26:56.
