data_PCOD8015848
_publ_section_title
;
Structure prediction by ZEFSAII (Michael W. Deem and Ramdas Pophale) SiO2 
 PCOD8015848
Probable space group: P -1
;
_chemical_formula_sum "Si O2"
_cell_formula_units_Z 16
_cell_length_a 9.520871
_cell_length_b 11.457869
_cell_length_c 14.767141
_cell_angle_alpha 150.789543
_cell_angle_beta 90.568475
_cell_angle_gamma 78.556802
_cell_volume 724.272785
_symmetry_space_group_name_H-M "P -1"
_symmetry_group_IT_number 2
_symmetry_cell_setting 'triclinic'
loop_
_space_group_symop_operation_xyz
x,y,z
-x,-y,-z
loop_
_atom_site_type_symbol
_atom_site_label
_atom_site_fract_x
_atom_site_fract_y
_atom_site_fract_z
Si Si1 0.685235 0.673164 0.291203
Si Si2 0.020473 0.721512 0.042268
Si Si3 0.459113 0.390691 0.250152
Si Si4 0.687284 0.596911 0.451168
Si Si5 0.072153 0.747681 0.265730
Si Si6 0.674929 0.906857 0.824024
Si Si7 0.013138 0.861169 0.811988
Si Si8 0.651158 0.220214 0.636447
O O1 0.801830 0.402621 0.069200
O O2 0.693814 0.681319 0.405496
O O3 0.519014 0.706975 0.277523
O O4 0.728960 0.906933 0.411250
O O5 0.948667 0.510612 0.874531
O O6 0.004766 0.807862 0.205081
O O7 0.939785 0.979345 0.157165
O O8 0.571367 0.450906 0.361468
O O9 0.352943 0.274767 0.222318
O O10 0.349771 0.650061 0.373569
O O11 0.570035 0.202335 0.046909
O O12 0.624470 0.849854 0.685915
O O13 0.853396 0.421175 0.372179
O O14 0.253398 0.683370 0.226233
O O15 0.000000 0.000000 0.500000
O O16 0.853365 0.843090 0.778138
O O17 0.000000 0.000000 0.000000
#
# Coordination Sequence:
#
# PCOD8015848 Si02
#       8
#     2   2   2   2   2   2   2   2
#     4  10  21  43  66  94 132 162 219 266 315 388
#     4  11  25  44  66  97 131 169 219 265 322 384
#     4  10  23  44  63  94 134 163 221 264 319 392
#     4  11  23  43  66  97 130 169 214 273 318 385
#     4  11  25  45  67  94 131 173 211 267 322 385
#     4  11  24  41  67  95 129 175 212 266 331 374
#     4  12  23  42  68  96 131 169 217 271 320 382
#     4  10  22  41  67  93 127 172 208 267 320 376
#
# _framework density 22.091124000000001
#
# number of rings (size 3 to 8) (size 9 to 14) (size 15 to 20)
#    0.000    1.250    3.750    1.500    3.500    1.500 
#    6.750    0.000    0.000    0.000    0.000    0.000 
#    0.000    0.000    0.000    0.000    0.000    0.000 
#
# Total GULP energy -198415.188349 kJ/mol
# GULP energy per Si atom -12400.949272 kJ/mol
# Density = 2.204084 g / cm^3
# Si number density = 22.091124 Si / 1000 Ang^3
#
#
#
# Elastic Constant Matrix: (Units=GPa)
#
#
# Indices 1 2 3 4 5 6 
#
# 1 105.3222 34.7243 37.5552 1.9219 28.3187 -2.7091
# 2 34.7243 115.6740 35.3850 7.7617 9.2409 2.4425
# 3 37.5552 35.3850 103.3439 -20.5181 20.8608 -16.4990
# 4 1.9219 7.7617 -20.5181 35.8134 -3.5059 -0.3519
# 5 28.3187 9.2409 20.8608 -3.5059 27.0487 4.0589
# 6 -2.7091 2.4425 -16.4990 -0.3519 4.0589 25.5916
#
#
#
# Elastic Compliance Matrix: (Units=1/GPa)
#
#
# Indices 1 2 3 4 5 6 
#
# 1 0.014923 -0.002740 -0.001636 -0.002505 -0.014201 0.003005
# 2 -0.002740 0.011335 -0.005471 -0.005168 0.003372 -0.005505
# 3 -0.001636 -0.005471 0.019129 0.011209 -0.011928 0.014727
# 4 -0.002505 -0.005168 0.011209 0.035595 -0.000856 0.008080
# 5 -0.014201 0.003372 -0.011928 -0.000856 0.062697 -0.019471
# 6 0.003005 -0.005505 0.014727 0.008080 -0.019471 0.052613
#
#
# Mechanical properties :
#
#
# Convention : Reuss Voigt Hill
#
# Bulk Modulus (GPa) = 38.92119 59.96323 49.44221
# Shear Modulus (GPa) = 22.26703 32.13578 27.20141
#
# Velocity S-wave (km/s) = 3.17829 3.81818 3.51283
# Velocity P-wave (km/s) = 5.57901 6.82939 6.23562
#
# Compressibility (1/GPa) = 0.02569295
#
# Stress axis : x y z
#
# Youngs Moduli (GPa) = 67.01176 88.22481 52.27790
#
# Poissons Ratio (x) = 0.24176 0.08551
# Poissons Ratio (y) = 0.18363 0.28600
# Poissons Ratio (z) = 0.10961 0.48265
#
# Static dielectric constant tensor:
#      x y z
#    x 4.617750 -0.113310 0.063940 
#    y -0.113310 3.960500 0.158630 
#    z 0.063940 0.158630 4.062730 
# 
# 
# High freq. dielectric constant tensor:
#      x y z
#    x 1.881590 0.004570 0.011260 
#    y 0.004570 1.866130 0.008810 
#    z 0.011260 0.008810 1.864750 
# 
# From -- ./inp_files/501185.got.cif
#   From: 2010.06.25/outbox.cif.g09.slc.cpg/sg2_251_cif.got.tgz:501185.got - 2010.06.27 13:26:56.
