data_PCOD8015903
_publ_section_title
;
Structure prediction by ZEFSAII (Michael W. Deem and Ramdas Pophale) SiO2 
 PCOD8015903
Probable space group: P -1
;
_chemical_formula_sum "Si O2"
_cell_formula_units_Z 14
_cell_length_a 16.530694
_cell_length_b 19.327903
_cell_length_c 8.178238
_cell_angle_alpha 52.274031
_cell_angle_beta 137.376766
_cell_angle_gamma 158.929652
_cell_volume 605.419796
_symmetry_space_group_name_H-M "P -1"
_symmetry_group_IT_number 2
_symmetry_cell_setting 'triclinic'
loop_
_space_group_symop_operation_xyz
x,y,z
-x,-y,-z
loop_
_atom_site_type_symbol
_atom_site_label
_atom_site_fract_x
_atom_site_fract_y
_atom_site_fract_z
Si Si1 0.099541 0.393196 0.682268
Si Si2 0.544589 0.214034 0.434689
Si Si3 0.886512 0.983145 0.710186
Si Si4 0.543792 0.022253 0.222142
Si Si5 0.422860 0.401529 0.788154
Si Si6 0.260603 0.253268 0.419680
Si Si7 0.805333 0.086723 0.934683
O O1 0.194914 0.557475 0.571885
O O2 0.871553 0.225736 0.445108
O O3 0.950496 0.269479 0.810302
O O4 0.370519 0.509838 0.903483
O O5 0.401094 0.163962 0.451755
O O6 0.632498 0.175204 0.679753
O O7 0.323107 0.060185 0.182901
O O8 0.853837 0.910855 0.592781
O O9 0.122480 0.211712 0.698415
O O10 0.000000 0.000000 0.000000
O O11 0.432826 0.038111 0.116741
O O12 0.500000 0.000000 0.000000
O O13 0.411489 0.335590 0.698138
O O14 0.529199 0.568383 0.660922
O O15 0.026506 0.171492 0.230954
#
# Coordination Sequence:
#
# PCOD8015903 Si02
#       7
#     2   2   2   2   2   2   2
#     4  10  21  43  67  93 124 168 216 257 315 382
#     4  11  23  42  66  96 127 172 210 259 319 374
#     4  12  22  38  64 100 136 164 207 260 320 380
#     4  11  27  46  66  93 124 166 218 269 320 371
#     4  10  22  40  63  97 132 173 208 255 316 381
#     4  10  22  40  64  97 132 171 209 255 318 376
#     4  10  22  43  67  89 128 174 212 256 313 379
#
# _framework density 23.124451000000001
#
# number of rings (size 3 to 8) (size 9 to 14) (size 15 to 20)
#    0.000    1.429    2.857    2.143    2.000    5.714 
#    5.143    0.000    0.000    0.000    0.000    0.000 
#    0.000    0.000    0.000    0.000    0.000    0.000 
#
# Total GULP energy -173550.771693 kJ/mol
# GULP energy per Si atom -12396.483692 kJ/mol
# Density = 2.307182 g / cm^3
# Si number density = 23.124451 Si / 1000 Ang^3
#
#
#
# Elastic Constant Matrix: (Units=GPa)
#
#
# Indices 1 2 3 4 5 6 
#
# 1 84.2079 10.6879 30.6920 14.8667 9.2875 3.6100
# 2 10.6879 144.2259 27.4436 0.4789 2.5474 -4.7186
# 3 30.6920 27.4436 94.5684 12.7325 -10.4334 -1.7619
# 4 14.8667 0.4789 12.7325 25.1765 -3.8074 2.0421
# 5 9.2875 2.5474 -10.4334 -3.8074 22.6062 -0.4238
# 6 3.6100 -4.7186 -1.7619 2.0421 -0.4238 24.0225
#
#
#
# Elastic Compliance Matrix: (Units=1/GPa)
#
#
# Indices 1 2 3 4 5 6 
#
# 1 0.016692 -0.000048 -0.005500 -0.008525 -0.010871 -0.002388
# 2 -0.000048 0.007468 -0.002427 0.000745 -0.001794 0.001201
# 3 -0.005500 -0.002427 0.014445 -0.002834 0.008756 0.001805
# 4 -0.008525 0.000745 -0.002834 0.047922 0.010131 -0.002675
# 5 -0.010871 -0.001794 0.008756 0.010131 0.054690 0.002027
# 6 -0.002388 0.001201 0.001805 -0.002675 0.002027 0.042618
#
#
# Mechanical properties :
#
#
# Convention : Reuss Voigt Hill
#
# Bulk Modulus (GPa) = 44.14150 51.18326 47.66238
# Shear Modulus (GPa) = 24.11546 31.30628 27.71087
#
# Velocity S-wave (km/s) = 3.23283 3.68342 3.46546
# Velocity P-wave (km/s) = 5.75022 6.34602 6.05545
#
# Compressibility (1/GPa) = 0.02265442
#
# Stress axis : x y z
#
# Youngs Moduli (GPa) = 59.90726 133.91333 69.22904
#
# Poissons Ratio (x) = 0.00647 0.38073
# Poissons Ratio (y) = 0.00290 0.16804
# Poissons Ratio (z) = 0.32947 0.32504
#
# Static dielectric constant tensor:
#      x y z
#    x 3.938710 0.064270 -0.005560 
#    y 0.064270 4.474050 0.068520 
#    z -0.005560 0.068520 4.126050 
# 
# 
# High freq. dielectric constant tensor:
#      x y z
#    x 1.889320 0.002780 -0.011680 
#    y 0.002780 1.926990 -0.001740 
#    z -0.011680 -0.001740 1.903030 
# 
# From -- ./inp_files/273824.got.cif
#   From: 2010.06.25/outbox.cif.g09.slc.cpg/sg2_137_cif.got.tgz:273824.got - 2010.06.27 13:26:56.
