data_PCOD8015474
_publ_section_title
;
Structure prediction by ZEFSAII (Michael W. Deem and Ramdas Pophale) SiO2 
 PCOD8015474
Probable space group: P -1
;
_chemical_formula_sum "Si O2"
_cell_formula_units_Z 16
_cell_length_a 16.508851
_cell_length_b 5.204595
_cell_length_c 11.906254
_cell_angle_alpha 55.770350
_cell_angle_beta 119.154860
_cell_angle_gamma 101.007535
_cell_volume 733.744458
_symmetry_space_group_name_H-M "P -1"
_symmetry_group_IT_number 2
_symmetry_cell_setting 'triclinic'
loop_
_space_group_symop_operation_xyz
x,y,z
-x,-y,-z
loop_
_atom_site_type_symbol
_atom_site_label
_atom_site_fract_x
_atom_site_fract_y
_atom_site_fract_z
Si Si1 0.152048 0.579812 0.544348
Si Si2 0.299531 0.406502 0.281886
Si Si3 0.186606 0.759687 0.940578
Si Si4 0.509200 0.414717 0.657424
Si Si5 0.251386 0.409860 0.860747
Si Si6 0.308750 0.683783 0.463742
Si Si7 0.970721 0.957862 0.363865
Si Si8 0.540725 0.822347 0.962344
O O1 0.206240 0.657632 0.675768
O O2 0.226453 0.523314 0.508280
O O3 0.108779 0.268449 0.624508
O O4 0.065638 0.838394 0.390153
O O5 0.396985 0.442350 0.271428
O O6 0.300655 0.611349 0.344912
O O7 0.291378 0.048755 0.390914
O O8 0.207943 0.532257 0.117341
O O9 0.257884 0.610284 0.929197
O O10 0.195768 0.105962 0.908481
O O11 0.082215 0.752233 0.815511
O O12 0.500000 0.500000 0.500000
O O13 0.411915 0.563614 0.612136
O O14 0.520797 0.044187 0.784272
O O15 0.350937 0.259402 0.923771
O O16 0.000000 0.000000 0.500000
O O17 0.500000 0.500000 0.000000
O O18 0.500000 0.000000 0.000000
#
# Coordination Sequence:
#
# PCOD8015474 Si02
#       8
#     2   2   2   2   2   2   2   2
#     4  10  23  41  66 100 131 163 225 275 346 400
#     4  11  24  43  67  95 132 186 224 265 327 400
#     4  11  22  40  68  91 127 165 227 261 330 398
#     4  10  24  45  68  96 138 190 230 267 331 410
#     4  11  22  39  65  92 127 173 208 279 326 402
#     4  11  25  42  68  98 135 175 226 279 320 396
#     4  10  21  42  69  95 125 174 211 281 347 414
#     4  12  26  41  63  99 140 174 225 286 338 386
#
# _framework density 21.805958
#
# number of rings (size 3 to 8) (size 9 to 14) (size 15 to 20)
#    0.000    1.250    2.500    2.625    3.500    5.000 
#    0.000    1.250    0.000    0.000    0.000    0.000 
#    0.000    0.000    0.000    0.000    0.000    0.000 
#
# Total GULP energy -198226.433381 kJ/mol
# GULP energy per Si atom -12389.152086 kJ/mol
# Density = 2.175633 g / cm^3
# Si number density = 21.805958 Si / 1000 Ang^3
#
#
#
# Elastic Constant Matrix: (Units=GPa)
#
#
# Indices 1 2 3 4 5 6 
#
# 1 112.5893 7.6787 37.8074 -6.9029 9.6346 -2.2911
# 2 7.6787 79.5645 27.7008 -1.8851 -2.1819 -7.8420
# 3 37.8074 27.7008 132.5538 -4.4385 19.2025 15.0032
# 4 -6.9029 -1.8851 -4.4385 33.4499 -3.0169 -0.5722
# 5 9.6346 -2.1819 19.2025 -3.0169 31.7107 1.5590
# 6 -2.2911 -7.8420 15.0032 -0.5722 1.5590 21.7448
#
#
#
# Elastic Compliance Matrix: (Units=1/GPa)
#
#
# Indices 1 2 3 4 5 6 
#
# 1 0.010194 0.000489 -0.003193 0.001665 -0.001148 0.003579
# 2 0.000489 0.015125 -0.004736 0.000779 0.003414 0.008550
# 3 -0.003193 -0.004736 0.011348 -0.000102 -0.005772 -0.009463
# 4 0.001665 0.000779 -0.000102 0.030511 0.002456 0.001154
# 5 -0.001148 0.003414 -0.005772 0.002456 0.035720 0.002597
# 6 0.003579 0.008550 -0.009463 0.001154 0.002597 0.055822
#
#
# Mechanical properties :
#
#
# Convention : Reuss Voigt Hill
#
# Bulk Modulus (GPa) = 45.90062 52.34239 49.12150
# Shear Modulus (GPa) = 27.64519 34.14913 30.89716
#
# Velocity S-wave (km/s) = 3.56445 3.96162 3.76828
# Velocity P-wave (km/s) = 6.16731 6.70684 6.44273
#
# Compressibility (1/GPa) = 0.02178620
#
# Stress axis : x y z
#
# Youngs Moduli (GPa) = 98.09924 66.11554 88.11786
#
# Poissons Ratio (x) = -0.03230 0.28133
# Poissons Ratio (y) = -0.04792 0.41736
# Poissons Ratio (z) = 0.31320 0.31315
#
# Static dielectric constant tensor:
#      x y z
#    x 3.601710 -0.754500 -0.275070 
#    y -0.754500 2.731950 -1.098700 
#    z -0.275070 -1.098700 3.311160 
# 
# 
# High freq. dielectric constant tensor:
#      x y z
#    x 1.843580 -0.006770 0.026070 
#    y -0.006770 1.846270 0.004190 
#    z 0.026070 0.004190 1.872140 
# 
# From -- ./inp_files/458989.got.cif
#   From: 2010.06.25/outbox.cif.g09.slc.cpg/sg2_230_cif.got.tgz:458989.got - 2010.06.27 13:26:56.
