data_PCOD8015445
_publ_section_title
;
Structure prediction by ZEFSAII (Michael W. Deem and Ramdas Pophale) SiO2 
 PCOD8015445
Probable space group: P -1
;
_chemical_formula_sum "Si O2"
_cell_formula_units_Z 14
_cell_length_a 18.814607
_cell_length_b 8.153555
_cell_length_c 9.267564
_cell_angle_alpha 88.682804
_cell_angle_beta 136.358158
_cell_angle_gamma 57.415988
_cell_volume 582.442483
_symmetry_space_group_name_H-M "P -1"
_symmetry_group_IT_number 2
_symmetry_cell_setting 'triclinic'
loop_
_space_group_symop_operation_xyz
x,y,z
-x,-y,-z
loop_
_atom_site_type_symbol
_atom_site_label
_atom_site_fract_x
_atom_site_fract_y
_atom_site_fract_z
Si Si1 0.672886 0.218240 0.676300
Si Si2 0.619228 0.026678 0.124549
Si Si3 0.865189 0.530301 0.291725
Si Si4 0.691076 0.805744 0.747986
Si Si5 0.292801 0.341965 0.530404
Si Si6 0.688895 0.249835 0.355753
Si Si7 0.964631 0.166674 0.675471
O O1 0.500000 0.500000 0.500000
O O2 0.669545 0.261195 0.500384
O O3 0.705358 0.983715 0.754158
O O4 0.832656 0.115370 0.984638
O O5 0.695181 0.813986 0.116461
O O6 0.593485 0.954553 0.235317
O O7 0.747066 0.006149 0.365634
O O8 0.424269 0.329382 0.766536
O O9 0.936368 0.266836 0.467529
O O10 0.000000 0.500000 0.500000
O O11 0.818452 0.562822 0.056769
O O12 0.748846 0.631440 0.696326
O O13 0.500000 0.000000 0.500000
O O14 0.107764 0.594989 0.331685
O O15 0.846988 0.161538 0.539262
O O16 0.500000 0.500000 0.000000
#
# Coordination Sequence:
#
# PCOD8015445 Si02
#       7
#     2   2   2   2   2   2   2
#     4  12  30  52  70 108 154 196 241 307 372 437
#     4  10  21  42  69 103 141 186 241 295 354 432
#     4  11  24  45  74 108 146 184 244 311 363 425
#     4  12  25  44  77 110 143 190 244 303 374 424
#     4  10  21  42  74 103 138 186 245 299 349 428
#     4  12  26  46  76 106 145 199 244 290 370 448
#     4  11  26  50  76 106 149 195 247 301 364 445
#
# _framework density 24.036708999999998
#
# number of rings (size 3 to 8) (size 9 to 14) (size 15 to 20)
#    0.000    0.857    5.714    0.429    6.000    1.714 
#    2.571    1.429    0.000    0.000    0.000    0.000 
#    0.000    0.000    0.000    0.000    0.000    0.000 
#
# Total GULP energy -173450.907079 kJ/mol
# GULP energy per Si atom -12389.350506 kJ/mol
# Density = 2.398200 g / cm^3
# Si number density = 24.036709 Si / 1000 Ang^3
#
#
#
# Elastic Constant Matrix: (Units=GPa)
#
#
# Indices 1 2 3 4 5 6 
#
# 1 150.5429 38.0897 80.0936 20.4286 -8.3665 15.2312
# 2 38.0897 63.8465 50.5641 22.9442 -5.4621 -0.2258
# 3 80.0936 50.5641 189.1483 23.9779 -5.9777 -3.7421
# 4 20.4286 22.9442 23.9779 38.0187 -8.3028 3.8771
# 5 -8.3665 -5.4621 -5.9777 -8.3028 59.5751 10.6816
# 6 15.2312 -0.2258 -3.7421 3.8771 10.6816 30.7993
#
#
#
# Elastic Compliance Matrix: (Units=1/GPa)
#
#
# Indices 1 2 3 4 5 6 
#
# 1 0.009978 -0.002941 -0.003447 -0.000414 0.001794 -0.005945
# 2 -0.002941 0.024419 -0.003832 -0.011157 -0.000613 0.002785
# 3 -0.003447 -0.003832 0.007979 -0.001351 -0.000776 0.003086
# 4 -0.000414 -0.011157 -0.001351 0.035817 0.004895 -0.006248
# 5 0.001794 -0.000613 -0.000776 0.004895 0.019058 -0.008212
# 6 -0.005945 0.002785 0.003086 -0.006248 -0.008212 0.039438
#
#
# Mechanical properties :
#
#
# Convention : Reuss Voigt Hill
#
# Bulk Modulus (GPa) = 45.59015 82.33694 63.96355
# Shear Modulus (GPa) = 30.40559 41.33130 35.86845
#
# Velocity S-wave (km/s) = 3.56049 4.15119 3.86714
# Velocity P-wave (km/s) = 5.99257 7.57004 6.82702
#
# Compressibility (1/GPa) = 0.02193456
#
# Stress axis : x y z
#
# Youngs Moduli (GPa) = 100.21684 40.95109 125.33083
#
# Poissons Ratio (x) = 0.12045 0.43206
# Poissons Ratio (y) = 0.29478 0.48030
# Poissons Ratio (z) = 0.34548 0.15694
#
# Static dielectric constant tensor:
#      x y z
#    x 4.514890 0.484880 -0.018650 
#    y 0.484880 4.874990 0.283070 
#    z -0.018650 0.283070 4.502760 
# 
# 
# High freq. dielectric constant tensor:
#      x y z
#    x 1.967170 0.004310 0.003550 
#    y 0.004310 1.951600 0.009030 
#    z 0.003550 0.009030 1.966670 
# 
# From -- ./inp_files/189511.got.cif
#   From: 2010.06.25/outbox.cif.g09.slc.cpg/sg2_95_cif.got.tgz:189511.got - 2010.06.27 13:26:56.
