data_PCOD8015422
_publ_section_title
;
Structure prediction by ZEFSAII (Michael W. Deem and Ramdas Pophale) SiO2 
 PCOD8015422
Probable space group: P -1
;
_chemical_formula_sum "Si O2"
_cell_formula_units_Z 16
_cell_length_a 22.608692
_cell_length_b 13.040962
_cell_length_c 8.669487
_cell_angle_alpha 116.624275
_cell_angle_beta 63.036714
_cell_angle_gamma 161.647633
_cell_volume 715.888222
_symmetry_space_group_name_H-M "P -1"
_symmetry_group_IT_number 2
_symmetry_cell_setting 'triclinic'
loop_
_space_group_symop_operation_xyz
x,y,z
-x,-y,-z
loop_
_atom_site_type_symbol
_atom_site_label
_atom_site_fract_x
_atom_site_fract_y
_atom_site_fract_z
Si Si1 0.264523 0.602906 0.668956
Si Si2 0.948663 0.179861 0.241105
Si Si3 0.929798 0.170281 0.608743
Si Si4 0.839563 0.227410 0.239628
Si Si5 0.331949 0.447424 0.990442
Si Si6 0.710777 0.384436 0.006002
Si Si7 0.647293 0.800016 0.914059
Si Si8 0.481553 0.785107 0.338122
O O1 0.201761 0.485218 0.839624
O O2 0.367685 0.654599 0.525883
O O3 0.076464 0.315721 0.598872
O O4 0.407419 0.940532 0.709961
O O5 0.887870 0.065537 0.412937
O O6 0.913061 0.254474 0.293891
O O7 0.167985 0.499096 0.175259
O O8 0.829925 0.907949 0.083558
O O9 0.008899 0.426622 0.704786
O O10 0.735437 0.852951 0.723031
O O11 0.631603 0.938653 0.336701
O O12 0.818961 0.135525 0.033511
O O13 0.333829 0.486421 0.194771
O O14 0.286160 0.478788 0.955084
O O15 0.535598 0.718639 0.896876
O O16 0.500000 0.000000 0.000000
O O17 0.500000 0.500000 0.000000
#
# Coordination Sequence:
#
# PCOD8015422 Si02
#       8
#     2   2   2   2   2   2   2   2
#     4  10  21  42  68  99 130 169 227 274 323 390
#     4  12  26  45  64  99 143 174 220 277 336 395
#     4  11  25  42  71  99 133 178 228 273 325 397
#     4  10  22  42  71  99 132 175 227 274 329 393
#     4  11  24  45  65  95 139 175 217 276 337 397
#     4  12  26  42  70  97 131 177 225 275 333 394
#     4  11  23  45  70  98 133 174 218 277 337 393
#     4   9  20  40  71  99 131 171 220 277 325 391
#
# _framework density 22.349857
#
# number of rings (size 3 to 8) (size 9 to 14) (size 15 to 20)
#    0.000    1.250    2.500    2.625    5.250    1.500 
#    4.500    1.250    0.000    0.000    0.000    0.000 
#    0.000    0.000    0.000    0.000    0.000    0.000 
#
# Total GULP energy -198438.451219 kJ/mol
# GULP energy per Si atom -12402.403201 kJ/mol
# Density = 2.229899 g / cm^3
# Si number density = 22.349857 Si / 1000 Ang^3
#
#
#
# Elastic Constant Matrix: (Units=GPa)
#
#
# Indices 1 2 3 4 5 6 
#
# 1 137.8122 16.4022 31.5739 -20.5707 -3.0987 19.7903
# 2 16.4022 77.0133 40.0415 -4.1732 -4.1568 8.6662
# 3 31.5739 40.0415 128.2394 -23.4614 -8.1159 16.6982
# 4 -20.5707 -4.1732 -23.4614 42.3824 5.5331 -5.8554
# 5 -3.0987 -4.1568 -8.1159 5.5331 34.4547 -0.0458
# 6 19.7903 8.6662 16.6982 -5.8554 -0.0458 29.3817
#
#
#
# Elastic Compliance Matrix: (Units=1/GPa)
#
#
# Indices 1 2 3 4 5 6 
#
# 1 0.008629 -0.000782 -0.000723 0.003080 0.000011 -0.004557
# 2 -0.000782 0.015791 -0.004781 -0.001848 0.001003 -0.001781
# 3 -0.000723 -0.004781 0.010809 0.004548 0.001170 -0.003338
# 4 0.003080 -0.001848 0.004548 0.028070 -0.003380 0.001474
# 5 0.000011 0.001003 0.001170 -0.003380 0.029962 -0.001595
# 6 -0.004557 -0.001781 -0.003338 0.001474 -0.001595 0.039818
#
#
# Mechanical properties :
#
#
# Convention : Reuss Voigt Hill
#
# Bulk Modulus (GPa) = 44.13271 57.67780 50.90525
# Shear Modulus (GPa) = 32.63608 38.24691 35.44150
#
# Velocity S-wave (km/s) = 3.82545 4.14125 3.98648
# Velocity P-wave (km/s) = 6.26907 6.98065 6.63441
#
# Compressibility (1/GPa) = 0.02265893
#
# Stress axis : x y z
#
# Youngs Moduli (GPa) = 115.88359 63.32552 92.51132
#
# Poissons Ratio (x) = 0.04950 0.06688
# Poissons Ratio (y) = 0.09058 0.44230
# Poissons Ratio (z) = 0.08378 0.30276
#
# Static dielectric constant tensor:
#      x y z
#    x 4.392210 0.079650 -0.039580 
#    y 0.079650 3.924140 -0.033480 
#    z -0.039580 -0.033480 4.054180 
# 
# 
# High freq. dielectric constant tensor:
#      x y z
#    x 1.895560 0.014380 -0.009850 
#    y 0.014380 1.867100 0.006060 
#    z -0.009850 0.006060 1.875110 
# 
# From -- ./inp_files/346229.got.cif
#   From: 2010.06.25/outbox.cif.g09.slc.cpg/sg2_174_cif.got.tgz:346229.got - 2010.06.27 13:26:56.
