data_PCOD8015419
_publ_section_title
;
Structure prediction by ZEFSAII (Michael W. Deem and Ramdas Pophale) SiO2 
 PCOD8015419
Probable space group: P -1
;
_chemical_formula_sum "Si O2"
_cell_formula_units_Z 16
_cell_length_a 7.281891
_cell_length_b 5.651329
_cell_length_c 17.862408
_cell_angle_alpha 101.148633
_cell_angle_beta 91.179727
_cell_angle_gamma 123.568810
_cell_volume 593.573171
_symmetry_space_group_name_H-M "P -1"
_symmetry_group_IT_number 2
_symmetry_cell_setting 'triclinic'
loop_
_space_group_symop_operation_xyz
x,y,z
-x,-y,-z
loop_
_atom_site_type_symbol
_atom_site_label
_atom_site_fract_x
_atom_site_fract_y
_atom_site_fract_z
Si Si1 0.952260 0.483678 0.911359
Si Si2 0.042414 0.578061 0.650740
Si Si3 0.477944 0.893956 0.409657
Si Si4 0.973111 0.972659 0.410208
Si Si5 0.762571 0.097707 0.182421
Si Si6 0.355415 0.094320 0.185492
Si Si7 0.443985 0.338082 0.354973
Si Si8 0.525642 0.491122 0.912269
O O1 0.739352 0.490140 0.896363
O O2 0.167658 0.744013 0.887664
O O3 0.893153 0.189289 0.849996
O O4 0.000000 0.500000 0.000000
O O5 0.781092 0.347307 0.622433
O O6 0.140814 0.853291 0.608098
O O7 0.056570 0.716486 0.740690
O O8 0.144928 0.376085 0.637034
O O9 0.585758 0.696679 0.392741
O O10 0.500000 0.000000 0.500000
O O11 0.568077 0.173737 0.369637
O O12 0.222903 0.169207 0.392728
O O13 0.000000 0.000000 0.500000
O O14 0.532225 0.027846 0.208669
O O15 0.704828 0.778201 0.143124
O O16 0.360643 0.290037 0.264929
O O17 0.437087 0.233083 0.112523
O O18 0.500000 0.500000 0.000000
#
# Coordination Sequence:
#
# PCOD8015419 Si02
#       8
#     2   2   2   2   2   2   2   2
#     4  11  24  45  76 107 147 193 243 304 374 449
#     4  10  23  42  67 101 138 187 245 299 371 439
#     4  10  21  43  69  98 140 189 243 309 370 444
#     4  10  21  42  68  98 139 184 243 307 364 445
#     4  11  26  46  72 104 148 194 246 310 372 449
#     4  11  26  46  72 104 149 192 246 310 370 451
#     4  10  23  42  69  99 140 190 242 302 374 437
#     4  11  26  46  71 111 149 191 246 303 372 450
#
# _framework density 26.955394999999999
#
# number of rings (size 3 to 8) (size 9 to 14) (size 15 to 20)
#    0.000    1.500    0.000    3.750    8.750    5.000 
#   13.500    0.000    0.000    0.000    0.000    0.000 
#    0.000    0.000    0.000    0.000    0.000    0.000 
#
# Total GULP energy -198282.036789 kJ/mol
# GULP energy per Si atom -12392.627299 kJ/mol
# Density = 2.689404 g / cm^3
# Si number density = 26.955395 Si / 1000 Ang^3
#
#
#
# Elastic Constant Matrix: (Units=GPa)
#
#
# Indices 1 2 3 4 5 6 
#
# 1 109.9444 39.2770 18.3211 6.3083 6.3553 -30.3309
# 2 39.2770 185.1049 28.0178 5.3178 3.1233 -17.5246
# 3 18.3211 28.0178 170.1568 5.2145 5.4648 -7.6494
# 4 6.3083 5.3178 5.2145 59.6780 4.6935 2.8405
# 5 6.3553 3.1233 5.4648 4.6935 33.8920 -1.9756
# 6 -30.3309 -17.5246 -7.6494 2.8405 -1.9756 33.4291
#
#
#
# Elastic Compliance Matrix: (Units=1/GPa)
#
#
# Indices 1 2 3 4 5 6 
#
# 1 0.012896 -0.001561 -0.000554 -0.001585 -0.001335 0.010812
# 2 -0.001561 0.006007 -0.000738 -0.000382 0.000004 0.001597
# 3 -0.000554 -0.000738 0.006116 -0.000376 -0.000733 0.000499
# 4 -0.001585 -0.000382 -0.000376 0.017322 -0.002200 -0.003327
# 5 -0.001335 0.000004 -0.000733 -0.002200 0.030213 0.000595
# 6 0.010812 0.001597 0.000499 -0.003327 0.000595 0.040993
#
#
# Mechanical properties :
#
#
# Convention : Reuss Voigt Hill
#
# Bulk Modulus (GPa) = 51.77638 70.71535 61.24586
# Shear Modulus (GPa) = 39.78017 50.70584 45.24301
#
# Velocity S-wave (km/s) = 3.84575 4.34187 4.10132
# Velocity P-wave (km/s) = 6.24257 7.17126 6.72297
#
# Compressibility (1/GPa) = 0.01931383
#
# Stress axis : x y z
#
# Youngs Moduli (GPa) = 77.54153 166.46402 163.51777
#
# Poissons Ratio (x) = 0.25984 0.09060
# Poissons Ratio (y) = 0.12104 0.12063
# Poissons Ratio (z) = 0.04296 0.12280
#
# Static dielectric constant tensor:
#      x y z
#    x 6.560440 -1.071210 1.637190 
#    y -1.071210 6.207940 -0.929810 
#    z 1.637190 -0.929810 6.857360 
# 
# 
# High freq. dielectric constant tensor:
#      x y z
#    x 2.118040 0.013020 -0.000600 
#    y 0.013020 2.122490 0.004030 
#    z -0.000600 0.004030 2.080020 
# 
# From -- ./inp_files/553631.got.cif
#   From: 2010.06.25/outbox.cif.g09.slc.cpg/sg2_277_cif.got.tgz:553631.got - 2010.06.27 13:26:56.
