data_PCOD8015567
_publ_section_title
;
Structure prediction by ZEFSAII (Michael W. Deem and Ramdas Pophale) SiO2 
 PCOD8015567
Probable space group: P -1
;
_chemical_formula_sum "Si O2"
_cell_formula_units_Z 16
_cell_length_a 5.468207
_cell_length_b 20.936539
_cell_length_c 17.940089
_cell_angle_alpha 19.852590
_cell_angle_beta 80.910132
_cell_angle_gamma 80.980495
_cell_volume 688.535343
_symmetry_space_group_name_H-M "P -1"
_symmetry_group_IT_number 2
_symmetry_cell_setting 'triclinic'
loop_
_space_group_symop_operation_xyz
x,y,z
-x,-y,-z
loop_
_atom_site_type_symbol
_atom_site_label
_atom_site_fract_x
_atom_site_fract_y
_atom_site_fract_z
Si Si1 0.658840 0.135591 0.699923
Si Si2 0.870833 0.993495 0.091929
Si Si3 0.725649 0.775141 0.011135
Si Si4 0.225672 0.536743 0.895823
Si Si5 0.601883 0.208945 0.274815
Si Si6 0.059883 0.613884 0.048926
Si Si7 0.619175 0.509551 0.708358
Si Si8 0.036659 0.604875 0.305296
O O1 0.616331 0.347454 0.440950
O O2 0.402701 0.093953 0.803523
O O3 0.922805 0.126154 0.739443
O O4 0.678719 0.996284 0.781783
O O5 0.820887 0.202417 0.897428
O O6 0.000000 0.000000 0.000000
O O7 0.479737 0.699301 0.068742
O O8 0.951227 0.742533 0.979238
O O9 0.781759 0.668877 0.204790
O O10 0.342872 0.733731 0.703634
O O11 0.129376 0.532989 0.819020
O O12 0.409974 0.360246 0.086070
O O13 0.000000 0.500000 0.000000
O O14 0.500000 0.000000 0.500000
O O15 0.843410 0.237329 0.180271
O O16 0.266779 0.478198 0.227548
O O17 0.813199 0.538667 0.599094
O O18 0.000000 0.500000 0.500000
#
# Coordination Sequence:
#
# PCOD8015567 Si02
#       8
#     2   2   2   2   2   2   2   2
#     4  11  25  43  65  94 133 180 230 293 350 417
#     4  11  23  42  64  99 135 171 232 299 354 425
#     4  10  23  44  61  91 136 174 229 287 336 423
#     4   9  20  41  66  97 139 168 217 272 334 406
#     4  10  21  42  71 103 137 174 220 276 342 409
#     4  10  22  42  67  96 135 183 226 278 344 415
#     4  11  23  42  67  88 134 179 230 283 346 416
#     4  10  22  39  65  94 128 176 227 290 353 409
#
# _framework density 23.237732000000001
#
# number of rings (size 3 to 8) (size 9 to 14) (size 15 to 20)
#    0.000    1.750    1.250    1.875    5.250    3.500 
#    0.000   16.250    0.000    0.000    0.000    0.000 
#    0.000    0.000    0.000    0.000    0.000    0.000 
#
# Total GULP energy -198223.808207 kJ/mol
# GULP energy per Si atom -12388.988013 kJ/mol
# Density = 2.318484 g / cm^3
# Si number density = 23.237732 Si / 1000 Ang^3
#
#
#
# Elastic Constant Matrix: (Units=GPa)
#
#
# Indices 1 2 3 4 5 6 
#
# 1 76.3386 25.5030 15.7938 -4.6144 2.6434 12.1201
# 2 25.5030 128.2060 52.9312 -7.5805 8.2835 20.3091
# 3 15.7938 52.9312 78.3760 -16.6172 3.2401 11.1718
# 4 -4.6144 -7.5805 -16.6172 37.7632 -3.2292 -2.4488
# 5 2.6434 8.2835 3.2401 -3.2292 33.7329 -1.7877
# 6 12.1201 20.3091 11.1718 -2.4488 -1.7877 44.8716
#
#
#
# Elastic Compliance Matrix: (Units=1/GPa)
#
#
# Indices 1 2 3 4 5 6 
#
# 1 0.014462 -0.001924 -0.001049 0.000685 -0.000641 -0.002762
# 2 -0.001924 0.011774 -0.007336 -0.001505 -0.002347 -0.003159
# 3 -0.001049 -0.007336 0.019499 0.006979 0.000634 -0.000845
# 4 0.000685 -0.001505 0.006979 0.029578 0.002502 0.000473
# 5 -0.000641 -0.002347 0.000634 0.002502 0.030579 0.002432
# 6 -0.002762 -0.003159 -0.000845 0.000473 0.002432 0.024795
#
#
# Mechanical properties :
#
#
# Convention : Reuss Voigt Hill
#
# Bulk Modulus (GPa) = 39.81531 52.37521 46.09526
# Shear Modulus (GPa) = 31.31330 35.85305 33.58317
#
# Velocity S-wave (km/s) = 3.67484 3.93221 3.80570
# Velocity P-wave (km/s) = 5.93102 6.57299 6.26024
#
# Compressibility (1/GPa) = 0.02511597
#
# Stress axis : x y z
#
# Youngs Moduli (GPa) = 69.14883 84.92952 51.28562
#
# Poissons Ratio (x) = 0.16341 0.05381
# Poissons Ratio (y) = 0.13304 0.37623
# Poissons Ratio (z) = 0.07256 0.62304
#
# Static dielectric constant tensor:
#      x y z
#    x 4.514380 0.137440 0.240880 
#    y 0.137440 4.752000 -0.376060 
#    z 0.240880 -0.376060 3.978730 
# 
# 
# High freq. dielectric constant tensor:
#      x y z
#    x 1.932830 0.001550 0.001430 
#    y 0.001550 1.934440 -0.015680 
#    z 0.001430 -0.015680 1.885350 
# 
# From -- ./inp_files/52690.got.cif
#   From: 2010.06.25/outbox.cif.g09.slc.cpg/sg2_27_cif.got.tgz:52690.got - 2010.06.27 13:26:56.
