data_PCOD8015800
_publ_section_title
;
Structure prediction by ZEFSAII (Michael W. Deem and Ramdas Pophale) SiO2 
 PCOD8015800
Probable space group: P -1
;
_chemical_formula_sum "Si O2"
_cell_formula_units_Z 14
_cell_length_a 21.389276
_cell_length_b 9.494717
_cell_length_c 11.358135
_cell_angle_alpha 142.576172
_cell_angle_beta 40.245433
_cell_angle_gamma 153.307968
_cell_volume 617.342415
_symmetry_space_group_name_H-M "P -1"
_symmetry_group_IT_number 2
_symmetry_cell_setting 'triclinic'
loop_
_space_group_symop_operation_xyz
x,y,z
-x,-y,-z
loop_
_atom_site_type_symbol
_atom_site_label
_atom_site_fract_x
_atom_site_fract_y
_atom_site_fract_z
Si Si1 0.924302 0.366710 0.897129
Si Si2 0.336501 0.437413 0.240778
Si Si3 0.128162 0.553682 0.372638
Si Si4 0.250922 0.624806 0.998330
Si Si5 0.897226 0.657869 0.494287
Si Si6 0.355964 0.299979 0.640521
Si Si7 0.512723 0.418383 0.115062
O O1 0.859080 0.491682 0.023811
O O2 0.050032 0.509217 0.721496
O O3 0.793502 0.965939 0.833464
O O4 0.000000 0.500000 0.000000
O O5 0.267320 0.569567 0.455018
O O6 0.451696 0.561063 0.254244
O O7 0.404838 0.562047 0.096156
O O8 0.175139 0.508489 0.156521
O O9 0.084727 0.279192 0.348165
O O10 0.000000 0.500000 0.500000
O O11 0.252060 0.913567 0.497318
O O12 0.388151 0.029373 0.077463
O O13 0.293525 0.438350 0.782338
O O14 0.000000 0.000000 0.500000
O O15 0.500000 0.500000 0.500000
O O16 0.380325 0.344551 0.775290
#
# Coordination Sequence:
#
# PCOD8015800 Si02
#       7
#     2   2   2   2   2   2   2
#     4  10  22  40  63  97 133 176 227 282 347 412
#     4   9  21  38  68  90 129 184 221 282 348 398
#     4  12  26  46  73 103 140 184 235 285 354 411
#     4  11  24  46  68  97 145 178 229 297 341 408
#     4  10  22  42  67  95 133 180 225 281 342 410
#     4  12  27  41  72 103 137 185 233 279 350 420
#     4  10  21  43  65  97 137 179 231 284 345 408
#
# _framework density 22.677852000000001
#
# number of rings (size 3 to 8) (size 9 to 14) (size 15 to 20)
#    0.000    1.429    2.857    1.286    4.000    4.000 
#    0.000    0.714    0.000    0.000    0.000    0.000 
#    0.000    0.000    0.000    0.000    0.000    0.000 
#
# Total GULP energy -173500.680011 kJ/mol
# GULP energy per Si atom -12392.905715 kJ/mol
# Density = 2.262624 g / cm^3
# Si number density = 22.677852 Si / 1000 Ang^3
#
#
#
# Elastic Constant Matrix: (Units=GPa)
#
#
# Indices 1 2 3 4 5 6 
#
# 1 179.4687 40.5793 57.1662 -11.7624 -10.5264 -2.6072
# 2 40.5793 64.6439 27.4571 -26.7772 2.0733 -7.8621
# 3 57.1662 27.4571 97.2301 -29.6263 -24.8385 -3.2823
# 4 -11.7624 -26.7772 -29.6263 40.4618 8.6995 6.1271
# 5 -10.5264 2.0733 -24.8385 8.6995 46.9346 -6.7253
# 6 -2.6072 -7.8621 -3.2823 6.1271 -6.7253 41.6266
#
#
#
# Elastic Compliance Matrix: (Units=1/GPa)
#
#
# Indices 1 2 3 4 5 6 
#
# 1 0.007811 -0.004790 -0.004426 -0.004212 0.000390 -0.000082
# 2 -0.004790 0.025845 -0.000976 0.015992 -0.005516 0.001259
# 3 -0.004426 -0.000976 0.017839 0.009569 0.006809 0.000637
# 4 -0.004212 0.015992 0.009569 0.042702 -0.005015 -0.003584
# 5 0.000390 -0.005516 0.006809 -0.005015 0.026828 0.004592
# 6 -0.000082 0.001259 0.000637 -0.003584 0.004592 0.025576
#
#
# Mechanical properties :
#
#
# Convention : Reuss Voigt Hill
#
# Bulk Modulus (GPa) = 32.14268 65.74978 48.94623
# Shear Modulus (GPa) = 28.19200 40.21394 34.20297
#
# Velocity S-wave (km/s) = 3.52966 4.21559 3.88778
# Velocity P-wave (km/s) = 5.55119 7.26298 6.46400
#
# Compressibility (1/GPa) = 0.03111128
#
# Stress axis : x y z
#
# Youngs Moduli (GPa) = 128.03239 38.69161 56.05584
#
# Poissons Ratio (x) = 0.18534 0.24810
# Poissons Ratio (y) = 0.61329 0.05471
# Poissons Ratio (z) = 0.56666 0.03776
#
# Static dielectric constant tensor:
#      x y z
#    x 6.981250 2.729260 -2.678650 
#    y 2.729260 7.528650 -3.259960 
#    z -2.678650 -3.259960 6.610360 
# 
# 
# High freq. dielectric constant tensor:
#      x y z
#    x 1.918520 -0.008190 -0.017900 
#    y -0.008190 1.893200 -0.035490 
#    z -0.017900 -0.035490 1.885750 
# 
# From -- ./inp_files/469651.got.cif
#   From: 2010.06.25/outbox.cif.g09.slc.cpg/sg2_235_cif.got.tgz:469651.got - 2010.06.27 13:26:56.
