data_PCOD8015582
_publ_section_title
;
Structure prediction by ZEFSAII (Michael W. Deem and Ramdas Pophale) SiO2 
 PCOD8015582
Probable space group: P -1
;
_chemical_formula_sum "Si O2"
_cell_formula_units_Z 16
_cell_length_a 20.189131
_cell_length_b 11.155847
_cell_length_c 9.210887
_cell_angle_alpha 48.714235
_cell_angle_beta 30.186549
_cell_angle_gamma 41.583992
_cell_volume 691.785516
_symmetry_space_group_name_H-M "P -1"
_symmetry_group_IT_number 2
_symmetry_cell_setting 'triclinic'
loop_
_space_group_symop_operation_xyz
x,y,z
-x,-y,-z
loop_
_atom_site_type_symbol
_atom_site_label
_atom_site_fract_x
_atom_site_fract_y
_atom_site_fract_z
Si Si1 0.865337 0.560791 0.097910
Si Si2 0.624837 0.644211 0.712896
Si Si3 0.350141 0.110008 0.285564
Si Si4 0.677142 0.403746 0.249047
Si Si5 0.870032 0.199872 0.295944
Si Si6 0.203269 0.921659 0.894845
Si Si7 0.848639 0.629125 0.762908
Si Si8 0.299679 0.763735 0.132757
O O1 0.714583 0.671687 0.386085
O O2 0.886443 0.378523 0.131833
O O3 0.871716 0.672282 0.853613
O O4 0.000000 0.500000 0.000000
O O5 0.647238 0.729044 0.751797
O O6 0.679850 0.431356 0.801483
O O7 0.454469 0.749123 0.903880
O O8 0.220742 0.189074 0.345586
O O9 0.314576 0.983350 0.559202
O O10 0.500000 0.000000 0.000000
O O11 0.500000 0.500000 0.500000
O O12 0.742887 0.248123 0.375199
O O13 0.744101 0.288504 0.069400
O O14 0.727906 0.555748 0.047691
O O15 0.817174 0.153362 0.582283
O O16 0.031817 0.038574 0.077352
O O17 0.228158 0.919404 0.022122
O O18 0.000000 0.500000 0.500000
#
# Coordination Sequence:
#
# PCOD8015582 Si02
#       8
#     2   2   2   2   2   2   2   2
#     4  10  21  42  71  96 134 184 231 285 343 422
#     4  10  23  45  68  98 136 181 241 284 343 426
#     4  12  27  44  65 102 144 179 228 294 353 412
#     4  11  25  43  74  96 138 189 238 282 340 429
#     4  10  23  43  65 104 133 170 231 292 348 410
#     4  12  25  43  67 101 142 180 224 290 364 408
#     4  11  24  45  71 102 137 188 241 280 347 424
#     4  10  24  41  74  97 133 181 234 286 347 426
#
# _framework density 23.128554999999999
#
# number of rings (size 3 to 8) (size 9 to 14) (size 15 to 20)
#    0.000    1.250    0.000    5.250   12.250    1.500 
#    2.250    0.000    0.000    0.000    0.000    0.000 
#    0.000    0.000    0.000    0.000    0.000    0.000 
#
# Total GULP energy -198365.815311 kJ/mol
# GULP energy per Si atom -12397.863457 kJ/mol
# Density = 2.307591 g / cm^3
# Si number density = 23.128555 Si / 1000 Ang^3
#
#
#
# Elastic Constant Matrix: (Units=GPa)
#
#
# Indices 1 2 3 4 5 6 
#
# 1 126.7683 17.9635 52.4368 3.7261 12.5756 -27.2999
# 2 17.9635 52.2158 35.6143 23.8675 3.8280 -18.2497
# 3 52.4368 35.6143 129.9332 17.1227 10.6935 -22.6895
# 4 3.7261 23.8675 17.1227 45.2038 -10.2605 3.1898
# 5 12.5756 3.8280 10.6935 -10.2605 43.2079 -1.0320
# 6 -27.2999 -18.2497 -22.6895 3.1898 -1.0320 47.1400
#
#
#
# Elastic Compliance Matrix: (Units=1/GPa)
#
#
# Indices 1 2 3 4 5 6 
#
# 1 0.010429 0.001020 -0.003301 -0.001045 -0.002441 0.004863
# 2 0.001020 0.036503 -0.004849 -0.020014 -0.006759 0.013595
# 3 -0.003301 -0.004849 0.011025 -0.001852 -0.001740 0.001605
# 4 -0.001045 -0.020014 -0.001852 0.036784 0.010996 -0.011493
# 5 -0.002441 -0.006759 -0.001740 0.010996 0.027375 -0.005012
# 6 0.004863 0.013595 0.001605 -0.011493 -0.005012 0.030733
#
#
# Mechanical properties :
#
#
# Convention : Reuss Voigt Hill
#
# Bulk Modulus (GPa) = 22.88487 57.88296 40.38392
# Shear Modulus (GPa) = 27.52152 40.63718 34.07935
#
# Velocity S-wave (km/s) = 3.45329 4.19622 3.84275
# Velocity P-wave (km/s) = 5.08098 6.96840 6.09816
#
# Compressibility (1/GPa) = 0.04369700
#
# Stress axis : x y z
#
# Youngs Moduli (GPa) = 95.88315 27.39488 90.70371
#
# Poissons Ratio (x) = -0.02793 0.29937
# Poissons Ratio (y) = -0.09776 0.43984
# Poissons Ratio (z) = 0.31647 0.13284
#
# Static dielectric constant tensor:
#      x y z
#    x 4.135150 0.017620 -0.125410 
#    y 0.017620 3.675100 0.153100 
#    z -0.125410 0.153100 4.155460 
# 
# 
# High freq. dielectric constant tensor:
#      x y z
#    x 1.930240 -0.011650 0.010390 
#    y -0.011650 1.900850 0.007720 
#    z 0.010390 0.007720 1.924630 
# 
# From -- ./inp_files/345917.got.cif
#   From: 2010.06.25/outbox.cif.g09.slc.cpg/sg2_173_cif.got.tgz:345917.got - 2010.06.27 13:26:56.
