data_PCOD8015110
_publ_section_title
;
Structure prediction by ZEFSAII (Michael W. Deem and Ramdas Pophale) SiO2 
 PCOD8015110
Probable space group: P -1
;
_chemical_formula_sum "Si O2"
_cell_formula_units_Z 14
_cell_length_a 7.064772
_cell_length_b 11.286606
_cell_length_c 12.690534
_cell_angle_alpha 110.853119
_cell_angle_beta 49.406759
_cell_angle_gamma 83.059285
_cell_volume 623.215105
_symmetry_space_group_name_H-M "P -1"
_symmetry_group_IT_number 2
_symmetry_cell_setting 'triclinic'
loop_
_space_group_symop_operation_xyz
x,y,z
-x,-y,-z
loop_
_atom_site_type_symbol
_atom_site_label
_atom_site_fract_x
_atom_site_fract_y
_atom_site_fract_z
Si Si1 0.680582 0.702402 0.090148
Si Si2 0.568725 0.764926 0.515096
Si Si3 0.694355 0.543020 0.231612
Si Si4 0.908140 0.900217 0.760486
Si Si5 0.458995 0.219355 0.062711
Si Si6 0.735873 0.976397 0.616775
Si Si7 0.664939 0.591721 0.637020
O O1 0.578696 0.622246 0.185695
O O2 0.560659 0.869376 0.222863
O O3 0.558036 0.703411 0.018480
O O4 0.025632 0.614652 0.935918
O O5 0.757722 0.644604 0.320176
O O6 0.578615 0.694337 0.600716
O O7 0.241319 0.849268 0.622130
O O8 0.694456 0.875431 0.514210
O O9 0.447669 0.523160 0.370631
O O10 0.826730 0.796685 0.826007
O O11 0.797799 0.897116 0.681889
O O12 0.744503 0.063029 0.918011
O O13 0.483029 0.316354 0.175741
O O14 0.000000 0.000000 0.500000
O O15 0.000000 0.500000 0.500000
#
# Coordination Sequence:
#
# PCOD8015110 Si02
#       7
#     2   2   2   2   2   2   2
#     4  10  24  46  66  97 141 180 225 282 338 407
#     4  12  25  44  74 100 135 181 228 288 340 401
#     4  11  25  44  67 102 141 182 231 271 343 418
#     4  10  22  42  68 102 136 174 228 286 340 401
#     4  10  21  42  66 100 138 177 227 282 338 400
#     4  11  25  45  72 102 137 177 231 288 343 404
#     4  12  25  41  71 100 139 185 227 279 343 405
#
# _framework density 22.464151999999999
#
# number of rings (size 3 to 8) (size 9 to 14) (size 15 to 20)
#    0.000    1.143    1.429    3.857    4.000    3.429 
#    7.714    0.000    0.000    0.000    0.000    0.000 
#    0.000    0.000    0.000    0.000    0.000    0.000 
#
# Total GULP energy -173653.364554 kJ/mol
# GULP energy per Si atom -12403.811754 kJ/mol
# Density = 2.241302 g / cm^3
# Si number density = 22.464152 Si / 1000 Ang^3
#
#
#
# Elastic Constant Matrix: (Units=GPa)
#
#
# Indices 1 2 3 4 5 6 
#
# 1 95.3201 55.0344 47.6052 14.9652 1.4687 9.5348
# 2 55.0344 114.8646 43.0057 -2.1102 6.5247 -8.0316
# 3 47.6052 43.0057 112.3394 10.6097 12.5052 7.8043
# 4 14.9652 -2.1102 10.6097 32.7570 -3.0127 1.2994
# 5 1.4687 6.5247 12.5052 -3.0127 44.5899 -4.9969
# 6 9.5348 -8.0316 7.8043 1.2994 -4.9969 37.1446
#
#
#
# Elastic Compliance Matrix: (Units=1/GPa)
#
#
# Indices 1 2 3 4 5 6 
#
# 1 0.018839 -0.008146 -0.003823 -0.007629 0.000516 -0.005458
# 2 -0.008146 0.014168 -0.002861 0.005338 -0.000018 0.005567
# 3 -0.003823 -0.002861 0.012431 -0.002675 -0.003416 -0.002615
# 4 -0.007629 0.005338 -0.002675 0.035381 0.002928 0.002831
# 5 0.000516 -0.000018 -0.003416 0.002928 0.023983 0.003705
# 6 -0.005458 0.005567 -0.002615 0.002831 0.003705 0.030475
#
#
# Mechanical properties :
#
#
# Convention : Reuss Voigt Hill
#
# Bulk Modulus (GPa) = 63.37321 68.20162 65.78742
# Shear Modulus (GPa) = 29.37778 34.69021 32.03400
#
# Velocity S-wave (km/s) = 3.62022 3.93395 3.78034
# Velocity P-wave (km/s) = 6.76363 7.14568 6.95728
#
# Compressibility (1/GPa) = 0.01577954
#
# Stress axis : x y z
#
# Youngs Moduli (GPa) = 53.08072 70.57973 80.44348
#
# Poissons Ratio (x) = 0.57496 0.30750
# Poissons Ratio (y) = 0.43241 0.23013
# Poissons Ratio (z) = 0.20291 0.20191
#
# Static dielectric constant tensor:
#      x y z
#    x 3.610160 -0.071780 0.131750 
#    y -0.071780 4.160820 0.107100 
#    z 0.131750 0.107100 4.267470 
# 
# 
# High freq. dielectric constant tensor:
#      x y z
#    x 1.868100 -0.012660 0.008140 
#    y -0.012660 1.894860 0.004710 
#    z 0.008140 0.004710 1.900060 
# 
# From -- ./inp_files/118552.got.cif
#   From: 2010.06.25/outbox.cif.g09.slc.cpg/sg2_60_cif.got.tgz:118552.got - 2010.06.27 13:26:56.
