data_PCOD8015287
_publ_section_title
;
Structure prediction by ZEFSAII (Michael W. Deem and Ramdas Pophale) SiO2 
 PCOD8015287
Probable space group: P -1
;
_chemical_formula_sum "Si O2"
_cell_formula_units_Z 16
_cell_length_a 13.988288
_cell_length_b 8.830954
_cell_length_c 8.264334
_cell_angle_alpha 82.249045
_cell_angle_beta 67.254682
_cell_angle_gamma 53.642658
_cell_volume 752.082209
_symmetry_space_group_name_H-M "P -1"
_symmetry_group_IT_number 2
_symmetry_cell_setting 'triclinic'
loop_
_space_group_symop_operation_xyz
x,y,z
-x,-y,-z
loop_
_atom_site_type_symbol
_atom_site_label
_atom_site_fract_x
_atom_site_fract_y
_atom_site_fract_z
Si Si1 0.179005 0.994003 0.682051
Si Si2 0.628060 0.442611 0.341240
Si Si3 0.990326 0.117727 0.261932
Si Si4 0.124850 0.441832 0.322628
Si Si5 0.242953 0.573769 0.450292
Si Si6 0.003279 0.334351 0.937110
Si Si7 0.553409 0.365460 0.834489
Si Si8 0.768652 0.970917 0.720770
O O1 0.281486 0.784308 0.716729
O O2 0.041128 0.028274 0.746431
O O3 0.147273 0.158774 0.805632
O O4 0.227380 0.016924 0.477305
O O5 0.500000 0.500000 0.500000
O O6 0.699915 0.509202 0.393949
O O7 0.576653 0.558524 0.191482
O O8 0.901195 0.237930 0.457386
O O9 0.135210 0.003717 0.245580
O O10 0.955198 0.254591 0.111319
O O11 0.231055 0.436346 0.364406
O O12 0.196749 0.233018 0.230100
O O13 0.000000 0.500000 0.500000
O O14 0.085756 0.582261 0.177246
O O15 0.335532 0.626766 0.319106
O O16 0.000000 0.500000 0.000000
O O17 0.625684 0.141201 0.853087
O O18 0.500000 0.500000 0.000000
#
# Coordination Sequence:
#
# PCOD8015287 Si02
#       8
#     2   2   2   2   2   2   2   2
#     4  11  22  37  67  91 128 171 218 269 322 386
#     4   9  19  41  62  92 123 164 228 264 311 372
#     4  11  22  38  61 102 130 163 216 271 337 388
#     4  12  23  40  64  98 142 173 209 253 347 406
#     4  10  21  42  67  94 129 171 215 272 321 397
#     4  12  24  38  56  96 141 170 200 263 330 407
#     4  11  25  42  70  95 128 172 224 279 320 368
#     4  12  22  40  66  96 135 170 213 267 330 394
#
# _framework density 21.274270000000001
#
# number of rings (size 3 to 8) (size 9 to 14) (size 15 to 20)
#    0.000    1.000    7.500    0.750    3.500    2.000 
#    0.000    1.250    0.000    0.000    0.000    0.000 
#    0.000    0.000    0.000    0.000    0.000    0.000 
#
# Total GULP energy -198232.048372 kJ/mol
# GULP energy per Si atom -12389.503023 kJ/mol
# Density = 2.122585 g / cm^3
# Si number density = 21.274270 Si / 1000 Ang^3
#
#
#
# Elastic Constant Matrix: (Units=GPa)
#
#
# Indices 1 2 3 4 5 6 
#
# 1 90.7036 33.8927 6.5521 10.5974 28.2945 -14.7315
# 2 33.8927 139.0486 35.0992 26.8899 14.2542 -18.2268
# 3 6.5521 35.0992 81.7503 11.7149 14.7542 -6.0079
# 4 10.5974 26.8899 11.7149 39.8765 4.2308 5.9123
# 5 28.2945 14.2542 14.7542 4.2308 26.1312 -5.1325
# 6 -14.7315 -18.2268 -6.0079 5.9123 -5.1325 33.5911
#
#
#
# Elastic Compliance Matrix: (Units=1/GPa)
#
#
# Indices 1 2 3 4 5 6 
#
# 1 0.019117 -0.002225 0.003935 -0.003406 -0.020094 0.005409
# 2 -0.002225 0.010377 -0.003078 -0.006348 0.000557 0.005307
# 3 0.003935 -0.003078 0.015674 -0.002697 -0.010661 0.001705
# 4 -0.003406 -0.006348 -0.002697 0.032547 0.001251 -0.010958
# 5 -0.020094 0.000557 -0.010661 0.001251 0.065412 -0.000642
# 6 0.005409 0.005307 0.001705 -0.010958 -0.000642 0.037157
#
#
# Mechanical properties :
#
#
# Convention : Reuss Voigt Hill
#
# Bulk Modulus (GPa) = 23.56697 51.39896 37.48297
# Shear Modulus (GPa) = 25.35948 35.65030 30.50489
#
# Velocity S-wave (km/s) = 3.45632 4.09803 3.79078
# Velocity P-wave (km/s) = 5.19903 6.82674 6.06771
#
# Compressibility (1/GPa) = 0.04243226
#
# Stress axis : x y z
#
# Youngs Moduli (GPa) = 52.31007 96.36488 63.79884
#
# Poissons Ratio (x) = 0.21446 -0.25108
# Poissons Ratio (y) = 0.11642 0.19637
# Poissons Ratio (z) = -0.20586 0.29661
#
# Static dielectric constant tensor:
#      x y z
#    x 4.920500 -1.102860 0.191110 
#    y -1.102860 4.969820 0.048220 
#    z 0.191110 0.048220 3.813440 
# 
# 
# High freq. dielectric constant tensor:
#      x y z
#    x 1.813900 -0.010330 0.024440 
#    y -0.010330 1.835570 0.007860 
#    z 0.024440 0.007860 1.830730 
# 
# From -- ./inp_files/187646.got.cif
#   From: 2010.06.25/outbox.cif.g09.slc.cpg/sg2_94_cif.got.tgz:187646.got - 2010.06.27 13:26:56.
