data_PCOD8015009
_publ_section_title
;
Structure prediction by ZEFSAII (Michael W. Deem and Ramdas Pophale) SiO2 
 PCOD8015009
Probable space group: P -1
;
_chemical_formula_sum "Si O2"
_cell_formula_units_Z 16
_cell_length_a 22.484544
_cell_length_b 25.216529
_cell_length_c 9.388105
_cell_angle_alpha 30.252366
_cell_angle_beta 30.353077
_cell_angle_gamma 16.374291
_cell_volume 733.829579
_symmetry_space_group_name_H-M "P -1"
_symmetry_group_IT_number 2
_symmetry_cell_setting 'triclinic'
loop_
_space_group_symop_operation_xyz
x,y,z
-x,-y,-z
loop_
_atom_site_type_symbol
_atom_site_label
_atom_site_fract_x
_atom_site_fract_y
_atom_site_fract_z
Si Si1 0.097298 0.999527 0.178724
Si Si2 0.975825 0.597575 0.037329
Si Si3 0.582477 0.112683 0.034854
Si Si4 0.360309 0.143752 0.631382
Si Si5 0.571890 0.391258 0.748635
Si Si6 0.784482 0.399676 0.797726
Si Si7 0.666786 0.516664 0.454430
Si Si8 0.182032 0.252802 0.285061
O O1 0.228978 0.834798 0.171763
O O2 0.243079 0.980027 0.994881
O O3 0.000000 0.000000 0.500000
O O4 0.900191 0.199122 0.034591
O O5 0.833283 0.673256 0.291946
O O6 0.169242 0.368902 0.135972
O O7 0.813739 0.723701 0.945240
O O8 0.093091 0.621561 0.761323
O O9 0.372829 0.219108 0.302392
O O10 0.690956 0.936688 0.127998
O O11 0.515704 0.261935 0.729670
O O12 0.594410 0.973758 0.618952
O O13 0.500000 0.500000 0.500000
O O14 0.638817 0.428124 0.638603
O O15 0.379106 0.465889 0.042100
O O16 0.648643 0.510994 0.674124
O O17 0.966264 0.352090 0.543408
#
# Coordination Sequence:
#
# PCOD8015009 Si02
#       8
#     2   2   2   2   2   2   2   2
#     4  12  25  45  69  97 132 172 224 277 323 391
#     4  10  23  39  67  95 130 173 210 270 332 388
#     4  11  24  43  64  99 134 170 220 273 329 386
#     4  11  23  41  66  94 135 171 216 269 324 396
#     4  12  25  43  72  98 129 177 220 271 337 385
#     4  11  25  45  70  95 135 174 216 278 327 394
#     4  11  24  47  65  99 137 169 223 274 329 391
#     4  10  21  42  64  97 130 166 219 267 327 394
#
# _framework density 21.803428
#
# number of rings (size 3 to 8) (size 9 to 14) (size 15 to 20)
#    0.000    1.000    5.000    0.750    3.500    1.000 
#    4.500    0.000    0.000    0.000    0.000    0.000 
#    0.000    0.000    0.000    0.000    0.000    0.000 
#
# Total GULP energy -198431.601442 kJ/mol
# GULP energy per Si atom -12401.975090 kJ/mol
# Density = 2.175380 g / cm^3
# Si number density = 21.803428 Si / 1000 Ang^3
#
#
#
# Elastic Constant Matrix: (Units=GPa)
#
#
# Indices 1 2 3 4 5 6 
#
# 1 78.1153 5.9171 22.6702 4.5595 1.1221 1.0694
# 2 5.9171 72.0963 19.3073 0.8750 13.6054 13.7491
# 3 22.6702 19.3073 91.8354 1.5376 14.6891 7.1560
# 4 4.5595 0.8750 1.5376 42.4983 -2.2367 9.0492
# 5 1.1221 13.6054 14.6891 -2.2367 46.0515 -1.6192
# 6 1.0694 13.7491 7.1560 9.0492 -1.6192 29.8953
#
#
#
# Elastic Compliance Matrix: (Units=1/GPa)
#
#
# Indices 1 2 3 4 5 6 
#
# 1 0.013930 -0.000567 -0.003528 -0.001546 0.000918 0.001125
# 2 -0.000567 0.016801 -0.002083 0.001219 -0.004501 -0.007821
# 3 -0.003528 -0.002083 0.012929 0.000255 -0.003490 -0.002277
# 4 -0.001546 0.001219 0.000255 0.025445 0.000543 -0.008239
# 5 0.000918 -0.004501 -0.003490 0.000543 0.024303 0.004025
# 6 0.001125 -0.007821 -0.002277 -0.008239 0.004025 0.040263
#
#
# Mechanical properties :
#
#
# Convention : Reuss Voigt Hill
#
# Bulk Modulus (GPa) = 31.94586 37.53735 34.74161
# Shear Modulus (GPa) = 31.95632 36.63253 34.29443
#
# Velocity S-wave (km/s) = 3.83254 4.10338 3.97027
# Velocity P-wave (km/s) = 5.85389 6.30111 6.08161
#
# Compressibility (1/GPa) = 0.03130296
#
# Stress axis : x y z
#
# Youngs Moduli (GPa) = 71.78684 59.52086 77.34340
#
# Poissons Ratio (x) = 0.03378 0.27287
# Poissons Ratio (y) = 0.04074 0.16112
# Poissons Ratio (z) = 0.25327 0.12399
#
# Static dielectric constant tensor:
#      x y z
#    x 4.133700 -0.038790 0.052950 
#    y -0.038790 3.808840 -0.028490 
#    z 0.052950 -0.028490 4.168620 
# 
# 
# High freq. dielectric constant tensor:
#      x y z
#    x 1.862310 -0.011590 0.002580 
#    y -0.011590 1.844360 -0.000470 
#    z 0.002580 -0.000470 1.872250 
# 
# From -- ./inp_files/349948.got.cif
#   From: 2010.06.25/outbox.cif.g09.slc.cpg/sg2_175_cif.got.tgz:349948.got - 2010.06.27 13:26:56.
