data_PCOD8015779
_publ_section_title
;
Structure prediction by ZEFSAII (Michael W. Deem and Ramdas Pophale) SiO2 
 PCOD8015779
Probable space group: P -1
;
_chemical_formula_sum "Si O2"
_cell_formula_units_Z 14
_cell_length_a 11.723919
_cell_length_b 11.628274
_cell_length_c 8.815380
_cell_angle_alpha 40.371654
_cell_angle_beta 70.393289
_cell_angle_gamma 69.845429
_cell_volume 725.490791
_symmetry_space_group_name_H-M "P -1"
_symmetry_group_IT_number 2
_symmetry_cell_setting 'triclinic'
loop_
_space_group_symop_operation_xyz
x,y,z
-x,-y,-z
loop_
_atom_site_type_symbol
_atom_site_label
_atom_site_fract_x
_atom_site_fract_y
_atom_site_fract_z
Si Si1 0.723918 0.816363 0.240172
Si Si2 0.543329 0.053625 0.264429
Si Si3 0.876769 0.456695 0.172934
Si Si4 0.705748 0.821393 0.891443
Si Si5 0.879376 0.448406 0.532968
Si Si6 0.801720 0.117638 0.072004
Si Si7 0.131062 0.915175 0.588382
O O1 0.766912 0.606053 0.455413
O O2 0.593314 0.873290 0.325739
O O3 0.711920 0.868587 0.017246
O O4 0.823691 0.930947 0.154268
O O5 0.434152 0.171364 0.104588
O O6 0.500000 0.000000 0.500000
O O7 0.655386 0.169576 0.116991
O O8 0.902202 0.416707 0.377476
O O9 0.831659 0.285376 0.288416
O O10 0.771498 0.622760 0.025047
O O11 0.000000 0.500000 0.000000
O O12 0.766213 0.966845 0.623340
O O13 0.848202 0.269100 0.800221
O O14 0.000000 0.500000 0.500000
O O15 0.877727 0.091381 0.219525
O O16 0.000000 0.000000 0.500000
#
# Coordination Sequence:
#
# PCOD8015779 Si02
#       7
#     2   2   2   2   2   2   2
#     4   9  23  41  65  91 127 162 213 260 313 372
#     4  10  21  43  65  92 128 164 213 261 309 378
#     4  11  24  41  62  95 127 166 210 259 313 377
#     4  11  21  44  64  91 125 170 206 262 317 367
#     4  11  24  41  65  92 131 166 208 261 317 374
#     4  10  24  42  62  97 124 164 214 256 319 367
#     4  12  24  38  66  92 129 165 209 259 317 376
#
# _framework density 19.297281000000002
#
# number of rings (size 3 to 8) (size 9 to 14) (size 15 to 20)
#    0.857    0.571    2.857    2.143    4.000    4.000 
#    2.571    2.857    0.000    0.000    0.000    0.000 
#    0.000    0.000    0.000    0.000    0.000    0.000 
#
# Total GULP energy -173600.547987 kJ/mol
# GULP energy per Si atom -12400.039142 kJ/mol
# Density = 1.925336 g / cm^3
# Si number density = 19.297281 Si / 1000 Ang^3
#
#
#
# Elastic Constant Matrix: (Units=GPa)
#
#
# Indices 1 2 3 4 5 6 
#
# 1 99.3300 31.0740 33.9594 2.6634 15.0974 2.9425
# 2 31.0740 123.4194 55.5794 6.9367 13.8045 7.7768
# 3 33.9594 55.5794 118.0685 13.6425 3.0189 10.4896
# 4 2.6634 6.9367 13.6425 29.4376 3.5885 -3.2287
# 5 15.0974 13.8045 3.0189 3.5885 39.9338 2.8781
# 6 2.9425 7.7768 10.4896 -3.2287 2.8781 37.8592
#
#
#
# Elastic Compliance Matrix: (Units=1/GPa)
#
#
# Indices 1 2 3 4 5 6 
#
# 1 0.012050 -0.001382 -0.002891 0.001123 -0.004000 0.000548
# 2 -0.001382 0.010877 -0.004589 -0.000035 -0.002841 -0.000642
# 3 -0.002891 -0.004589 0.012219 -0.004922 0.002401 -0.002821
# 4 0.001123 -0.000035 -0.004922 0.037130 -0.003718 0.004733
# 5 -0.004000 -0.002841 0.002401 -0.003718 0.027847 -0.002205
# 6 0.000548 -0.000642 -0.002821 0.004733 -0.002205 0.027856
#
#
# Mechanical properties :
#
#
# Convention : Reuss Voigt Hill
#
# Bulk Modulus (GPa) = 57.40023 64.67152 61.03587
# Shear Modulus (GPa) = 33.00063 36.12646 34.56354
#
# Velocity S-wave (km/s) = 4.13984 4.33147 4.23674
# Velocity P-wave (km/s) = 7.25678 7.65517 7.45863
#
# Compressibility (1/GPa) = 0.01742153
#
# Stress axis : x y z
#
# Youngs Moduli (GPa) = 82.98802 91.93499 81.83658
#
# Poissons Ratio (x) = 0.12706 0.23663
# Poissons Ratio (y) = 0.11470 0.37555
# Poissons Ratio (z) = 0.23996 0.42189
#
# Static dielectric constant tensor:
#      x y z
#    x 3.848210 0.000710 0.086220 
#    y 0.000710 3.729680 -0.004160 
#    z 0.086220 -0.004160 3.555350 
# 
# 
# High freq. dielectric constant tensor:
#      x y z
#    x 1.749240 0.002840 0.009960 
#    y 0.002840 1.760690 0.009370 
#    z 0.009960 0.009370 1.757420 
# 
# From -- ./inp_files/255730.got.cif
#   From: 2010.06.25/outbox.cif.g09.slc.cpg/sg2_128_cif.got.tgz:255730.got - 2010.06.27 13:26:56.
