data_PCOD8015425
_publ_section_title
;
Structure prediction by ZEFSAII (Michael W. Deem and Ramdas Pophale) SiO2 
 PCOD8015425
Probable space group: P -1
;
_chemical_formula_sum "Si O2"
_cell_formula_units_Z 16
_cell_length_a 8.933108
_cell_length_b 15.366749
_cell_length_c 13.015655
_cell_angle_alpha 28.664209
_cell_angle_beta 63.963170
_cell_angle_gamma 76.792953
_cell_volume 717.367511
_symmetry_space_group_name_H-M "P -1"
_symmetry_group_IT_number 2
_symmetry_cell_setting 'triclinic'
loop_
_space_group_symop_operation_xyz
x,y,z
-x,-y,-z
loop_
_atom_site_type_symbol
_atom_site_label
_atom_site_fract_x
_atom_site_fract_y
_atom_site_fract_z
Si Si1 0.643899 0.352093 0.307216
Si Si2 0.959769 0.442449 0.688850
Si Si3 0.729792 0.641528 0.652654
Si Si4 0.843268 0.725450 0.755840
Si Si5 0.322282 0.615785 0.504849
Si Si6 0.003046 0.959832 0.921148
Si Si7 0.642483 0.796857 0.084614
Si Si8 0.248700 0.982334 0.384110
O O1 0.470220 0.394537 0.283482
O O2 0.647331 0.293020 0.486189
O O3 0.655891 0.158678 0.450380
O O4 0.814574 0.547839 0.028265
O O5 0.785178 0.480218 0.742149
O O6 0.000000 0.500000 0.500000
O O7 0.123350 0.581853 0.562871
O O8 0.934030 0.217996 0.941182
O O9 0.740723 0.620102 0.793536
O O10 0.854354 0.857834 0.363976
O O11 0.050774 0.845002 0.549334
O O12 0.754302 0.872947 0.673947
O O13 0.458733 0.771055 0.225716
O O14 0.354588 0.415926 0.711165
O O15 0.807594 0.925398 0.971654
O O16 0.000000 0.000000 0.000000
O O17 0.645001 0.894599 0.872593
#
# Coordination Sequence:
#
# PCOD8015425 Si02
#       8
#     2   2   2   2   2   2   2   2
#     4  12  26  43  69 102 135 178 229 279 337 398
#     4  11  25  42  69  98 138 183 213 273 346 398
#     4  12  26  44  66  99 137 179 223 280 337 400
#     4  11  25  47  69  95 138 173 236 279 335 400
#     4  10  23  41  69 100 135 174 223 276 331 414
#     4  11  22  41  66  97 135 173 221 267 333 412
#     4  10  21  42  68  99 135 172 222 277 339 395
#     4  11  24  44  73  97 129 183 224 285 336 397
#
# _framework density 22.303771000000001
#
# number of rings (size 3 to 8) (size 9 to 14) (size 15 to 20)
#    0.000    1.000    3.750    2.250    3.500    4.000 
#    0.000    0.000    0.000    0.000    0.000    0.000 
#    0.000    0.000    0.000    0.000    0.000    0.000 
#
# Total GULP energy -198455.834566 kJ/mol
# GULP energy per Si atom -12403.489660 kJ/mol
# Density = 2.225301 g / cm^3
# Si number density = 22.303771 Si / 1000 Ang^3
#
#
#
# Elastic Constant Matrix: (Units=GPa)
#
#
# Indices 1 2 3 4 5 6 
#
# 1 76.7508 34.4736 11.7357 5.2226 7.5407 -6.1439
# 2 34.4736 122.6387 27.2151 6.4821 7.9341 -5.2694
# 3 11.7357 27.2151 104.6197 6.1472 -14.8602 -18.7542
# 4 5.2226 6.4821 6.1472 34.9499 0.5167 2.0678
# 5 7.5407 7.9341 -14.8602 0.5167 24.3782 -2.6003
# 6 -6.1439 -5.2694 -18.7542 2.0678 -2.6003 30.8884
#
#
#
# Elastic Compliance Matrix: (Units=1/GPa)
#
#
# Indices 1 2 3 4 5 6 
#
# 1 0.015471 -0.003736 -0.000942 -0.001492 -0.003937 0.001636
# 2 -0.003736 0.010105 -0.002939 -0.000675 -0.004028 -0.001097
# 3 -0.000942 -0.002939 0.013605 -0.002372 0.010510 0.008616
# 4 -0.001492 -0.000675 -0.002372 0.029641 -0.001819 -0.003990
# 5 -0.003937 -0.004028 0.010510 -0.001819 0.050989 0.009325
# 6 0.001636 -0.001097 0.008616 -0.003990 0.009325 0.038796
#
#
# Mechanical properties :
#
#
# Convention : Reuss Voigt Hill
#
# Bulk Modulus (GPa) = 41.75685 50.09533 45.92609
# Shear Modulus (GPa) = 27.49929 33.41562 30.45745
#
# Velocity S-wave (km/s) = 3.51514 3.87486 3.69938
# Velocity P-wave (km/s) = 5.93611 6.52140 6.23563
#
# Compressibility (1/GPa) = 0.02394817
#
# Stress axis : x y z
#
# Youngs Moduli (GPa) = 64.63887 98.95691 73.50079
#
# Poissons Ratio (x) = 0.36969 0.06923
# Poissons Ratio (y) = 0.24148 0.21601
# Poissons Ratio (z) = 0.06088 0.29082
#
# Static dielectric constant tensor:
#      x y z
#    x 3.964230 -0.175930 -0.038430 
#    y -0.175930 4.087520 -0.136780 
#    z -0.038430 -0.136780 4.178840 
# 
# 
# High freq. dielectric constant tensor:
#      x y z
#    x 1.867120 -0.005830 0.000750 
#    y -0.005830 1.889000 -0.003690 
#    z 0.000750 -0.003690 1.893490 
# 
# From -- ./inp_files/398094.got.cif
#   From: 2010.06.25/outbox.cif.g09.slc.cpg/sg2_200_cif.got.tgz:398094.got - 2010.06.27 13:26:56.
