data_PCOD8015896
_publ_section_title
;
Structure prediction by ZEFSAII (Michael W. Deem and Ramdas Pophale) SiO2 
 PCOD8015896
Probable space group: P -1
;
_chemical_formula_sum "Si O2"
_cell_formula_units_Z 16
_cell_length_a 11.152393
_cell_length_b 16.172964
_cell_length_c 9.223639
_cell_angle_alpha 28.976333
_cell_angle_beta 92.038454
_cell_angle_gamma 101.180021
_cell_volume 758.550891
_symmetry_space_group_name_H-M "P -1"
_symmetry_group_IT_number 2
_symmetry_cell_setting 'triclinic'
loop_
_space_group_symop_operation_xyz
x,y,z
-x,-y,-z
loop_
_atom_site_type_symbol
_atom_site_label
_atom_site_fract_x
_atom_site_fract_y
_atom_site_fract_z
Si Si1 0.858925 0.752114 0.780051
Si Si2 0.011877 0.008728 0.159237
Si Si3 0.037434 0.688793 0.127003
Si Si4 0.568844 0.116514 0.485303
Si Si5 0.246318 0.111916 0.188655
Si Si6 0.399763 0.562516 0.810338
Si Si7 0.608535 0.476243 0.447071
Si Si8 0.670541 0.200855 0.066253
O O1 0.827958 0.917270 0.613146
O O2 0.925123 0.828501 0.513512
O O3 0.736939 0.590292 0.968045
O O4 0.947704 0.675567 0.003251
O O5 0.156821 0.031027 0.172671
O O6 0.976885 0.178077 0.953487
O O7 0.000000 0.000000 0.000000
O O8 0.000000 0.500000 0.500000
O O9 0.181578 0.766898 0.951193
O O10 0.613674 0.251775 0.413763
O O11 0.605377 0.240265 0.151878
O O12 0.639126 0.966707 0.698655
O O13 0.416949 0.006886 0.661682
O O14 0.284162 0.329201 0.856230
O O15 0.452009 0.604234 0.585908
O O16 0.500000 0.500000 0.000000
O O17 0.500000 0.500000 0.500000
O O18 0.668170 0.336892 0.731138
#
# Coordination Sequence:
#
# PCOD8015896 Si02
#       8
#     2   2   2   2   2   2   2   2
#     4  10  23  45  67  90 131 178 215 265 328 394
#     4  11  24  40  65  97 130 170 217 272 322 383
#     4  11  23  44  70  95 128 176 221 263 326 400
#     4  11  24  41  66 100 129 168 219 271 322 392
#     4  10  21  43  67  91 129 174 217 259 332 392
#     4  11  26  41  66  95 132 168 219 270 326 375
#     4  11  22  43  63  93 132 173 210 265 325 389
#     4  11  23  40  70  97 131 169 218 265 332 391
#
# _framework density 21.092851
#
# number of rings (size 3 to 8) (size 9 to 14) (size 15 to 20)
#    0.000    1.250    1.250    6.000    7.000    5.500 
#    0.000    1.875    0.000    0.000    0.000    0.000 
#    0.000    0.000    0.000    0.000    0.000    0.000 
#
# Total GULP energy -198291.260560 kJ/mol
# GULP energy per Si atom -12393.203785 kJ/mol
# Density = 2.104484 g / cm^3
# Si number density = 21.092851 Si / 1000 Ang^3
#
#
#
# Elastic Constant Matrix: (Units=GPa)
#
#
# Indices 1 2 3 4 5 6 
#
# 1 130.7577 57.4184 50.1638 0.5409 -6.1814 21.5330
# 2 57.4184 172.1894 68.6971 9.2249 -7.3537 14.4827
# 3 50.1638 68.6971 118.8203 14.5134 6.2696 7.2735
# 4 0.5409 9.2249 14.5134 38.6126 0.3124 -0.4297
# 5 -6.1814 -7.3537 6.2696 0.3124 26.3779 -0.5546
# 6 21.5330 14.4827 7.2735 -0.4297 -0.5546 35.4861
#
#
#
# Elastic Compliance Matrix: (Units=1/GPa)
#
#
# Indices 1 2 3 4 5 6 
#
# 1 0.010709 -0.001688 -0.003569 0.001517 0.002764 -0.005016
# 2 -0.001688 0.008265 -0.004069 -0.000461 0.002850 -0.001475
# 3 -0.003569 -0.004069 0.012936 -0.003788 -0.004979 0.001051
# 4 0.001517 -0.000461 -0.003788 0.027409 0.000811 0.000389
# 5 0.002764 0.002850 -0.004979 0.000811 0.040502 -0.001177
# 6 -0.005016 -0.001475 0.001051 0.000389 -0.001177 0.031597
#
#
# Mechanical properties :
#
#
# Convention : Reuss Voigt Hill
#
# Bulk Modulus (GPa) = 75.43305 86.03622 80.73463
# Shear Modulus (GPa) = 32.36481 36.46120 34.41301
#
# Velocity S-wave (km/s) = 3.92139 4.16216 4.04357
# Velocity P-wave (km/s) = 7.50620 7.99850 7.75626
#
# Compressibility (1/GPa) = 0.01325679
#
# Stress axis : x y z
#
# Youngs Moduli (GPa) = 93.38208 120.99911 77.30077
#
# Poissons Ratio (x) = 0.20430 0.27588
# Poissons Ratio (y) = 0.15767 0.31455
# Poissons Ratio (z) = 0.33327 0.49237
#
# Static dielectric constant tensor:
#      x y z
#    x 4.394470 0.131950 -0.079570 
#    y 0.131950 3.852360 0.041630 
#    z -0.079570 0.041630 3.524770 
# 
# 
# High freq. dielectric constant tensor:
#      x y z
#    x 1.839240 0.008480 -0.007310 
#    y 0.008480 1.817340 0.008210 
#    z -0.007310 0.008210 1.838950 
# 
# From -- ./inp_files/217839.got.cif
#   From: 2010.06.25/outbox.cif.g09.slc.cpg/sg2_109_cif.got.tgz:217839.got - 2010.06.27 13:26:56.
