data_PCOD8015946
_publ_section_title
;
Structure prediction by ZEFSAII (Michael W. Deem and Ramdas Pophale) SiO2 
 PCOD8015946
Probable space group: P -1
;
_chemical_formula_sum "Si O2"
_cell_formula_units_Z 16
_cell_length_a 9.272950
_cell_length_b 17.695222
_cell_length_c 12.198704
_cell_angle_alpha 41.049412
_cell_angle_beta 110.743352
_cell_angle_gamma 77.355546
_cell_volume 751.528472
_symmetry_space_group_name_H-M "P -1"
_symmetry_group_IT_number 2
_symmetry_cell_setting 'triclinic'
loop_
_space_group_symop_operation_xyz
x,y,z
-x,-y,-z
loop_
_atom_site_type_symbol
_atom_site_label
_atom_site_fract_x
_atom_site_fract_y
_atom_site_fract_z
Si Si1 0.127536 0.299923 0.263438
Si Si2 0.954098 0.804786 0.855235
Si Si3 0.509736 0.536010 0.341975
Si Si4 0.493378 0.225359 0.991554
Si Si5 0.247687 0.856262 0.650925
Si Si6 0.975037 0.146305 0.795505
Si Si7 0.301825 0.093425 0.106085
Si Si8 0.988427 0.182591 0.501785
O O1 0.994891 0.310185 0.318643
O O2 0.085979 0.262939 0.177063
O O3 0.429008 0.124603 0.556518
O O4 0.000000 0.500000 0.000000
O O5 0.896066 0.787547 0.977472
O O6 0.236111 0.687313 0.047805
O O7 0.757018 0.025461 0.552075
O O8 0.500000 0.500000 0.500000
O O9 0.694154 0.348328 0.527805
O O10 0.602584 0.614398 0.286655
O O11 0.503828 0.278098 0.058685
O O12 0.316468 0.219382 0.940734
O O13 0.772636 0.023210 0.257391
O O14 0.256196 0.739364 0.700908
O O15 0.000000 0.000000 0.500000
O O16 0.005495 0.156227 0.664969
O O17 0.186526 0.094707 0.971031
O O18 0.000000 0.000000 0.000000
#
# Coordination Sequence:
#
# PCOD8015946 Si02
#       8
#     2   2   2   2   2   2   2   2
#     4  11  25  42  65 103 138 172 212 274 347 393
#     4  12  21  44  71  97 128 173 226 276 325 393
#     4  12  24  44  68  97 126 175 232 271 316 404
#     4  10  21  41  71  97 125 171 227 281 326 383
#     4  10  16  38  71  93 122 166 225 268 326 384
#     4  12  27  45  65  98 139 180 221 267 341 402
#     4  11  25  45  69  97 136 178 221 273 333 393
#     4  10  20  43  66  96 136 173 216 275 334 394
#
# _framework density 21.289946
#
# number of rings (size 3 to 8) (size 9 to 14) (size 15 to 20)
#    0.000    1.000    7.500    1.875    1.750    3.500 
#    2.250    1.250    0.000    0.000    0.000    0.000 
#    0.000    0.000    0.000    0.000    0.000    0.000 
#
# Total GULP energy -198298.894586 kJ/mol
# GULP energy per Si atom -12393.680912 kJ/mol
# Density = 2.124149 g / cm^3
# Si number density = 21.289946 Si / 1000 Ang^3
#
#
#
# Elastic Constant Matrix: (Units=GPa)
#
#
# Indices 1 2 3 4 5 6 
#
# 1 147.0714 76.8493 61.3538 3.2641 -31.5371 19.1208
# 2 76.8493 117.1289 30.7316 32.8456 -13.3498 14.6240
# 3 61.3538 30.7316 85.5021 -1.1638 -32.5341 11.4588
# 4 3.2641 32.8456 -1.1638 35.8744 2.7702 0.9978
# 5 -31.5371 -13.3498 -32.5341 2.7702 45.8612 4.4716
# 6 19.1208 14.6240 11.4588 0.9978 4.4716 34.7419
#
#
#
# Elastic Compliance Matrix: (Units=1/GPa)
#
#
# Indices 1 2 3 4 5 6 
#
# 1 0.015211 -0.009741 -0.005545 0.007166 0.003561 -0.003107
# 2 -0.009741 0.020271 0.000051 -0.017639 0.000572 -0.002755
# 3 -0.005545 0.000051 0.020696 0.000398 0.011373 -0.005271
# 4 0.007166 -0.017639 0.000398 0.043533 -0.002794 0.002459
# 5 0.003561 0.000572 0.011373 -0.002794 0.033652 -0.010203
# 6 -0.003107 -0.002755 -0.005271 0.002459 -0.010203 0.034634
#
#
# Mechanical properties :
#
#
# Convention : Reuss Voigt Hill
#
# Bulk Modulus (GPa) = 38.89887 76.39685 57.64786
# Shear Modulus (GPa) = 24.15025 35.34669 29.74847
#
# Velocity S-wave (km/s) = 3.37167 4.07904 3.74210
# Velocity P-wave (km/s) = 5.78517 7.62540 6.76812
#
# Compressibility (1/GPa) = 0.02570769
#
# Stress axis : x y z
#
# Youngs Moduli (GPa) = 65.74154 49.33105 48.31951
#
# Poissons Ratio (x) = 0.48054 0.26793
# Poissons Ratio (y) = 0.64040 -0.00246
# Poissons Ratio (z) = 0.36453 -0.00252
#
# Static dielectric constant tensor:
#      x y z
#    x 4.382440 0.234360 -0.050930 
#    y 0.234360 3.743890 0.243930 
#    z -0.050930 0.243930 4.052270 
# 
# 
# High freq. dielectric constant tensor:
#      x y z
#    x 1.846990 0.005690 -0.015820 
#    y 0.005690 1.831030 0.016720 
#    z -0.015820 0.016720 1.828710 
# 
# From -- ./inp_files/401852.got.cif
#   From: 2010.06.25/outbox.cif.g09.slc.cpg/sg2_201_cif.got.tgz:401852.got - 2010.06.27 13:26:56.
