data_PCOD8015523
_publ_section_title
;
Structure prediction by ZEFSAII (Michael W. Deem and Ramdas Pophale) SiO2 
 PCOD8015523
Probable space group: P -1
;
_chemical_formula_sum "Si O2"
_cell_formula_units_Z 16
_cell_length_a 8.783301
_cell_length_b 15.472141
_cell_length_c 11.637289
_cell_angle_alpha 30.694097
_cell_angle_beta 80.903460
_cell_angle_gamma 93.129676
_cell_volume 737.959069
_symmetry_space_group_name_H-M "P -1"
_symmetry_group_IT_number 2
_symmetry_cell_setting 'triclinic'
loop_
_space_group_symop_operation_xyz
x,y,z
-x,-y,-z
loop_
_atom_site_type_symbol
_atom_site_label
_atom_site_fract_x
_atom_site_fract_y
_atom_site_fract_z
Si Si1 0.720316 0.753297 0.128144
Si Si2 0.206752 0.328822 0.206760
Si Si3 0.412805 0.134703 0.317172
Si Si4 0.754954 0.403014 0.305093
Si Si5 0.971542 0.573093 0.296173
Si Si6 0.723414 0.429846 0.859463
Si Si7 0.546224 0.606995 0.538172
Si Si8 0.844946 0.085513 0.572885
O O1 0.895346 0.726210 0.153393
O O2 0.624295 0.748429 0.264211
O O3 0.592616 0.589969 0.255273
O O4 0.771318 0.954595 0.840245
O O5 0.361973 0.258909 0.274927
O O6 0.228368 0.491854 0.107591
O O7 0.042765 0.153477 0.458266
O O8 0.194351 0.407568 0.990499
O O9 0.500000 0.000000 0.500000
O O10 0.237113 0.023685 0.406292
O O11 0.544079 0.268348 0.060977
O O12 0.846896 0.424002 0.393991
O O13 0.555069 0.314403 0.452495
O O14 0.797086 0.261043 0.385127
O O15 0.000000 0.500000 0.500000
O O16 0.146215 0.649030 0.119846
O O17 0.706524 0.588141 0.600323
#
# Coordination Sequence:
#
# PCOD8015523 Si02
#       8
#     2   2   2   2   2   2   2   2
#     4  10  22  43  66  96 133 178 227 274 330 397
#     4  12  26  46  68  96 142 182 217 269 345 410
#     4  12  27  40  66 102 135 169 226 280 332 391
#     4  11  24  44  69  97 134 186 222 265 339 415
#     4  11  23  42  69  97 128 178 228 266 329 405
#     4  12  23  44  67 100 131 180 226 273 328 405
#     4  10  21  42  70  92 132 183 221 270 333 401
#     4  12  25  44  66 101 137 177 220 282 337 389
#
# _framework density 21.681421
#
# number of rings (size 3 to 8) (size 9 to 14) (size 15 to 20)
#    0.000    0.750    5.000    2.625    5.250    0.500 
#    0.000    2.500    0.000    0.000    0.000    0.000 
#    0.000    0.000    0.000    0.000    0.000    0.000 
#
# Total GULP energy -198303.501018 kJ/mol
# GULP energy per Si atom -12393.968814 kJ/mol
# Density = 2.163207 g / cm^3
# Si number density = 21.681421 Si / 1000 Ang^3
#
#
#
# Elastic Constant Matrix: (Units=GPa)
#
#
# Indices 1 2 3 4 5 6 
#
# 1 117.4277 28.2359 41.3393 12.2871 -5.5402 -25.6275
# 2 28.2359 72.4594 29.1777 16.2075 -1.7917 -10.4653
# 3 41.3393 29.1777 113.0933 17.3060 -0.7652 -11.8769
# 4 12.2871 16.2075 17.3060 30.9506 -2.3689 0.4322
# 5 -5.5402 -1.7917 -0.7652 -2.3689 35.4241 10.5658
# 6 -25.6275 -10.4653 -11.8769 0.4322 10.5658 47.4636
#
#
#
# Elastic Compliance Matrix: (Units=1/GPa)
#
#
# Indices 1 2 3 4 5 6 
#
# 1 0.011280 -0.002150 -0.002762 -0.001877 -0.000004 0.004944
# 2 -0.002150 0.017503 -0.002414 -0.007045 -0.000662 0.002306
# 3 -0.002762 -0.002414 0.011183 -0.003973 -0.000878 0.001006
# 4 -0.001877 -0.007045 -0.003973 0.039281 0.003278 -0.004649
# 5 -0.000004 -0.000662 -0.000878 0.003278 0.030542 -0.007197
# 6 0.004944 0.002306 0.001006 -0.004649 -0.007197 0.026143
#
#
# Mechanical properties :
#
#
# Convention : Reuss Voigt Hill
#
# Bulk Modulus (GPa) = 39.50416 55.60957 47.55687
# Shear Modulus (GPa) = 31.44212 36.38282 33.91247
#
# Velocity S-wave (km/s) = 3.81226 4.10086 3.95919
# Velocity P-wave (km/s) = 6.13495 6.93736 6.54846
#
# Compressibility (1/GPa) = 0.02531379
#
# Stress axis : x y z
#
# Youngs Moduli (GPa) = 88.64986 57.13250 89.42507
#
# Poissons Ratio (x) = 0.12281 0.24702
# Poissons Ratio (y) = 0.19056 0.21589
# Poissons Ratio (z) = 0.24488 0.13793
#
# Static dielectric constant tensor:
#      x y z
#    x 4.201820 -0.181000 0.058880 
#    y -0.181000 3.878710 0.182420 
#    z 0.058880 0.182420 3.826370 
# 
# 
# High freq. dielectric constant tensor:
#      x y z
#    x 1.871330 -0.015510 0.001880 
#    y -0.015510 1.844100 0.018560 
#    z 0.001880 0.018560 1.833470 
# 
# From -- ./inp_files/274424.got.cif
#   From: 2010.06.25/outbox.cif.g09.slc.cpg/sg2_138_cif.got.tgz:274424.got - 2010.06.27 13:26:56.
