data_PCOD8015352
_publ_section_title
;
Structure prediction by ZEFSAII (Michael W. Deem and Ramdas Pophale) SiO2 
 PCOD8015352
Probable space group: P -1
;
_chemical_formula_sum "Si O2"
_cell_formula_units_Z 16
_cell_length_a 15.284670
_cell_length_b 13.138075
_cell_length_c 13.697151
_cell_angle_alpha 21.396442
_cell_angle_beta 141.061503
_cell_angle_gamma 143.100512
_cell_volume 595.503630
_symmetry_space_group_name_H-M "P -1"
_symmetry_group_IT_number 2
_symmetry_cell_setting 'triclinic'
loop_
_space_group_symop_operation_xyz
x,y,z
-x,-y,-z
loop_
_atom_site_type_symbol
_atom_site_label
_atom_site_fract_x
_atom_site_fract_y
_atom_site_fract_z
Si Si1 0.043763 0.064504 0.641149
Si Si2 0.796352 0.982775 0.631197
Si Si3 0.921493 0.648672 0.188013
Si Si4 0.520853 0.143536 0.496144
Si Si5 0.190719 0.610756 0.154871
Si Si6 0.532129 0.970781 0.863855
Si Si7 0.592025 0.556210 0.628153
Si Si8 0.829432 0.601610 0.360494
O O1 0.076089 0.337881 0.353370
O O2 0.138271 0.158474 0.739611
O O3 0.868475 0.956433 0.611616
O O4 0.094679 0.813904 0.856411
O O5 0.807248 0.318742 0.364116
O O6 0.627000 0.777190 0.676234
O O7 0.896846 0.880275 0.885248
O O8 0.891253 0.758431 0.170801
O O9 0.087210 0.636718 0.331895
O O10 0.549516 0.930799 0.797192
O O11 0.500000 0.000000 0.500000
O O12 0.654765 0.447646 0.340068
O O13 0.252986 0.492378 0.218842
O O14 0.321211 0.788617 0.181829
O O15 0.398042 0.112253 0.627750
O O16 0.493266 0.669822 0.159193
O O17 0.500000 0.500000 0.500000
#
# Coordination Sequence:
#
# PCOD8015352 Si02
#       8
#     2   2   2   2   2   2   2   2
#     4  11  22  37  66  99 133 168 225 285 337 397
#     4  11  25  44  62  94 141 184 227 282 344 398
#     4  10  23  44  65  90 128 186 238 294 330 391
#     4  12  26  47  67 103 145 198 233 273 339 421
#     4  11  20  39  71 101 126 168 225 284 348 407
#     4  11  23  40  66 101 145 174 221 287 349 404
#     4  10  21  42  68 104 138 167 217 300 364 398
#     4  10  22  42  67  96 133 180 242 288 337 394
#
# _framework density 26.868013999999999
#
# number of rings (size 3 to 8) (size 9 to 14) (size 15 to 20)
#    0.000    1.250    2.500    5.250    0.000    8.000 
#    0.000    0.000    0.000    4.500    0.000    0.000 
#    0.000    0.000    0.000    0.000    0.000    0.000 
#
# Total GULP energy -198351.103583 kJ/mol
# GULP energy per Si atom -12396.943974 kJ/mol
# Density = 2.680686 g / cm^3
# Si number density = 26.868014 Si / 1000 Ang^3
#
#
#
# Elastic Constant Matrix: (Units=GPa)
#
#
# Indices 1 2 3 4 5 6 
#
# 1 119.0634 40.5563 22.9645 -1.7532 -8.5271 23.3690
# 2 40.5563 68.5234 -2.2040 6.1380 4.6962 25.9369
# 3 22.9645 -2.2040 88.5891 -9.2870 -10.0597 0.7072
# 4 -1.7532 6.1380 -9.2870 23.2817 -5.1710 5.4524
# 5 -8.5271 4.6962 -10.0597 -5.1710 55.1214 8.6916
# 6 23.3690 25.9369 0.7072 5.4524 8.6916 63.5370
#
#
#
# Elastic Compliance Matrix: (Units=1/GPa)
#
#
# Indices 1 2 3 4 5 6 
#
# 1 0.011828 -0.006675 -0.002652 0.002657 0.002505 -0.002166
# 2 -0.006675 0.021258 0.001576 -0.004648 -0.002117 -0.005552
# 3 -0.002652 0.001576 0.012830 0.005165 0.002373 -0.000579
# 4 0.002657 -0.004648 0.005165 0.049006 0.007026 -0.004304
# 5 0.002505 -0.002117 0.002373 0.007026 0.020349 -0.003470
# 6 -0.002166 -0.005552 -0.000579 -0.004304 -0.003470 0.019652
#
#
# Mechanical properties :
#
#
# Convention : Reuss Voigt Hill
#
# Bulk Modulus (GPa) = 32.88014 44.31217 38.59616
# Shear Modulus (GPa) = 31.14007 42.71195 36.92601
#
# Velocity S-wave (km/s) = 3.40810 3.99142 3.71124
# Velocity P-wave (km/s) = 5.26793 6.14575 5.72370
#
# Compressibility (1/GPa) = 0.03041350
#
# Stress axis : x y z
#
# Youngs Moduli (GPa) = 84.54526 47.04098 77.94072
#
# Poissons Ratio (x) = 0.31402 0.20669
# Poissons Ratio (y) = 0.56438 -0.12283
# Poissons Ratio (z) = 0.22421 -0.07413
#
# Static dielectric constant tensor:
#      x y z
#    x 5.636050 -0.044670 0.209650 
#    y -0.044670 4.785350 0.125420 
#    z 0.209650 0.125420 4.692280 
# 
# 
# High freq. dielectric constant tensor:
#      x y z
#    x 2.098280 0.001790 -0.000450 
#    y 0.001790 2.078160 0.004670 
#    z -0.000450 0.004670 2.071720 
# 
# From -- ./inp_files/534030.got.cif
#   From: 2010.06.25/outbox.cif.g09.slc.cpg/sg2_268_cif.got.tgz:534030.got - 2010.06.27 13:26:56.
