data_PCOD8015453
_publ_section_title
;
Structure prediction by ZEFSAII (Michael W. Deem and Ramdas Pophale) SiO2 
 PCOD8015453
Probable space group: P -1
;
_chemical_formula_sum "Si O2"
_cell_formula_units_Z 16
_cell_length_a 16.923267
_cell_length_b 8.596336
_cell_length_c 8.904881
_cell_angle_alpha 129.674291
_cell_angle_beta 79.125025
_cell_angle_gamma 67.889085
_cell_volume 737.926207
_symmetry_space_group_name_H-M "P -1"
_symmetry_group_IT_number 2
_symmetry_cell_setting 'triclinic'
loop_
_space_group_symop_operation_xyz
x,y,z
-x,-y,-z
loop_
_atom_site_type_symbol
_atom_site_label
_atom_site_fract_x
_atom_site_fract_y
_atom_site_fract_z
Si Si1 0.350344 0.220096 0.914091
Si Si2 0.335119 0.404723 0.347051
Si Si3 0.416127 0.181731 0.496486
Si Si4 0.752971 0.025098 0.245240
Si Si5 0.279917 0.683006 0.042744
Si Si6 0.738976 0.921967 0.508733
Si Si7 0.103399 0.028360 0.087685
Si Si8 0.872404 0.424135 0.353649
O O1 0.262432 0.513071 0.049543
O O2 0.455965 0.051988 0.662081
O O3 0.307654 0.066429 0.859710
O O4 0.388128 0.247952 0.076545
O O5 0.404709 0.204660 0.334876
O O6 0.330971 0.653232 0.516056
O O7 0.215799 0.505455 0.452948
O O8 0.367784 0.473615 0.757143
O O9 0.348031 0.100231 0.526730
O O10 0.850483 0.917806 0.034451
O O11 0.793900 0.912856 0.330513
O O12 0.171788 0.939500 0.160009
O O13 0.319560 0.800925 0.207220
O O14 0.831858 0.680723 0.431089
O O15 0.104341 0.789587 0.905954
O O16 0.981345 0.302408 0.327550
#
# Coordination Sequence:
#
# PCOD8015453 Si02
#       8
#     2   2   2   2   2   2   2   2
#     4  12  25  40  65  90 127 168 205 258 308 360
#     4  10  22  43  62  95 123 158 209 258 306 371
#     4  11  24  44  61  91 128 166 208 252 312 365
#     4  11  22  40  62  91 129 157 209 257 302 362
#     4  12  23  41  63  91 127 166 208 249 309 370
#     4  11  23  40  65  90 128 165 205 257 302 371
#     4  10  21  42  69  91 122 166 202 256 313 369
#     4   9  20  42  70  88 126 162 202 252 321 363
#
# _framework density 21.682382
#
# number of rings (size 3 to 8) (size 9 to 14) (size 15 to 20)
#    0.000    1.250    6.250    0.750    3.500    3.000 
#    0.000    1.875    0.000    0.000    0.000    0.000 
#    0.000    0.000    0.000    0.000    0.000    0.000 
#
# Total GULP energy -198389.188370 kJ/mol
# GULP energy per Si atom -12399.324273 kJ/mol
# Density = 2.163303 g / cm^3
# Si number density = 21.682382 Si / 1000 Ang^3
#
#
#
# Elastic Constant Matrix: (Units=GPa)
#
#
# Indices 1 2 3 4 5 6 
#
# 1 92.8270 46.9932 49.4655 18.7934 4.5649 0.8707
# 2 46.9932 123.8602 27.2795 1.8854 -1.1988 5.7881
# 3 49.4655 27.2795 77.8170 4.2655 9.6340 0.3192
# 4 18.7934 1.8854 4.2655 30.6379 -6.4065 -0.8036
# 5 4.5649 -1.1988 9.6340 -6.4065 31.9187 4.8490
# 6 0.8707 5.7881 0.3192 -0.8036 4.8490 35.9080
#
#
#
# Elastic Compliance Matrix: (Units=1/GPa)
#
#
# Indices 1 2 3 4 5 6 
#
# 1 0.022272 -0.005870 -0.011106 -0.012285 -0.002608 0.000582
# 2 -0.005870 0.010441 -0.000397 0.003450 0.002313 -0.001772
# 3 -0.011106 -0.000397 0.020375 0.003172 -0.004057 0.000771
# 4 -0.012285 0.003450 0.003172 0.041458 0.009344 -0.000621
# 5 -0.002608 0.002313 -0.004057 0.009344 0.035630 -0.004876
# 6 0.000582 -0.001772 0.000771 -0.000621 -0.004876 0.028758
#
#
# Mechanical properties :
#
#
# Convention : Reuss Voigt Hill
#
# Bulk Modulus (GPa) = 54.52034 60.22007 57.37020
# Shear Modulus (GPa) = 25.02564 31.07731 28.05147
#
# Velocity S-wave (km/s) = 3.40103 3.79000 3.60077
# Velocity P-wave (km/s) = 6.37356 6.85464 6.61847
#
# Compressibility (1/GPa) = 0.01834178
#
# Stress axis : x y z
#
# Youngs Moduli (GPa) = 44.89878 95.77847 49.07983
#
# Poissons Ratio (x) = 0.56218 0.54509
# Poissons Ratio (y) = 0.26354 0.01950
# Poissons Ratio (z) = 0.49866 0.03805
#
# Static dielectric constant tensor:
#      x y z
#    x 3.784660 -0.009900 0.083570 
#    y -0.009900 4.050220 0.005180 
#    z 0.083570 0.005180 3.913630 
# 
# 
# High freq. dielectric constant tensor:
#      x y z
#    x 1.832360 -0.000460 0.022950 
#    y -0.000460 1.870390 -0.005580 
#    z 0.022950 -0.005580 1.849140 
# 
# From -- ./inp_files/217614.got.cif
#   From: 2010.06.25/outbox.cif.g09.slc.cpg/sg2_109_cif.got.tgz:217614.got - 2010.06.27 13:26:56.
