data_PCOD8015428
_publ_section_title
;
Structure prediction by ZEFSAII (Michael W. Deem and Ramdas Pophale) SiO2 
 PCOD8015428
Probable space group: P -1
;
_chemical_formula_sum "Si O2"
_cell_formula_units_Z 14
_cell_length_a 23.742147
_cell_length_b 8.749853
_cell_length_c 9.214834
_cell_angle_alpha 131.248852
_cell_angle_beta 36.536851
_cell_angle_gamma 147.561153
_cell_volume 610.252313
_symmetry_space_group_name_H-M "P -1"
_symmetry_group_IT_number 2
_symmetry_cell_setting 'triclinic'
loop_
_space_group_symop_operation_xyz
x,y,z
-x,-y,-z
loop_
_atom_site_type_symbol
_atom_site_label
_atom_site_fract_x
_atom_site_fract_y
_atom_site_fract_z
Si Si1 0.431508 0.105435 0.244100
Si Si2 0.455582 0.529629 0.302023
Si Si3 0.803031 0.510564 0.672448
Si Si4 0.244585 0.378239 0.467520
Si Si5 0.644063 0.397751 0.197826
Si Si6 0.064123 0.751654 0.411349
Si Si7 0.708216 0.171062 0.142015
O O1 0.475491 0.323045 0.160867
O O2 0.497683 0.253173 0.354958
O O3 0.274560 0.822391 0.394358
O O4 0.500000 0.000000 0.000000
O O5 0.387839 0.476416 0.252531
O O6 0.337627 0.416299 0.591428
O O7 0.587490 0.859488 0.263386
O O8 0.779697 0.613730 0.645425
O O9 0.955419 0.681067 0.483234
O O10 0.752777 0.568740 0.951482
O O11 0.242010 0.581814 0.693365
O O12 0.131872 0.044191 0.538380
O O13 0.652585 0.185078 0.116534
O O14 0.000000 0.500000 0.500000
O O15 0.169918 0.793372 0.119586
#
# Coordination Sequence:
#
# PCOD8015428 Si02
#       7
#     2   2   2   2   2   2   2
#     4  10  22  38  68 102 136 177 223 284 343 408
#     4  11  23  44  70 106 135 180 231 284 352 401
#     4  11  23  46  65 104 141 180 230 280 341 407
#     4  11  26  46  72 103 139 182 233 288 341 409
#     4  10  21  42  68  99 140 174 224 289 334 409
#     4  12  26  47  71  99 141 188 234 278 345 411
#     4  11  25  46  72 103 139 181 233 286 339 416
#
# _framework density 22.941330000000001
#
# number of rings (size 3 to 8) (size 9 to 14) (size 15 to 20)
#    0.000    1.143    1.429    5.143    6.000    1.714 
#    2.571    0.000    0.000    0.000    0.000    0.000 
#    0.000    0.000    0.000    0.000    0.000    0.000 
#
# Total GULP energy -173458.844898 kJ/mol
# GULP energy per Si atom -12389.917493 kJ/mol
# Density = 2.288911 g / cm^3
# Si number density = 22.941330 Si / 1000 Ang^3
#
#
#
# Elastic Constant Matrix: (Units=GPa)
#
#
# Indices 1 2 3 4 5 6 
#
# 1 154.2346 64.2018 59.1174 -5.8022 -7.9942 -6.3112
# 2 64.2018 171.3263 45.1210 -1.9864 -9.8079 -10.7797
# 3 59.1174 45.1210 80.3356 -11.8496 -3.5269 -10.9279
# 4 -5.8022 -1.9864 -11.8496 24.4100 -0.2980 -9.8721
# 5 -7.9942 -9.8079 -3.5269 -0.2980 36.4134 -9.1244
# 6 -6.3112 -10.7797 -10.9279 -9.8721 -9.1244 36.5122
#
#
#
# Elastic Compliance Matrix: (Units=1/GPa)
#
#
# Indices 1 2 3 4 5 6 
#
# 1 0.009677 -0.002005 -0.006287 -0.001299 0.000721 -0.000972
# 2 -0.002005 0.007425 -0.002512 -0.000519 0.001654 0.001366
# 3 -0.006287 -0.002512 0.021541 0.012217 0.002256 0.008486
# 4 -0.001299 -0.000519 0.012217 0.054526 0.006102 0.019546
# 5 0.000721 0.001654 0.002256 0.006102 0.031013 0.010688
# 6 -0.000972 0.001366 0.008486 0.019546 0.010688 0.038119
#
#
# Mechanical properties :
#
#
# Convention : Reuss Voigt Hill
#
# Bulk Modulus (GPa) = 58.71072 82.53075 70.62074
# Shear Modulus (GPa) = 26.37304 35.29753 30.83529
#
# Velocity S-wave (km/s) = 3.39423 3.92675 3.67017
# Velocity P-wave (km/s) = 6.40378 7.52409 6.98643
#
# Compressibility (1/GPa) = 0.01703266
#
# Stress axis : x y z
#
# Youngs Moduli (GPa) = 103.33912 134.68600 46.42386
#
# Poissons Ratio (x) = 0.27011 0.29186
# Poissons Ratio (y) = 0.20724 0.11664
# Poissons Ratio (z) = 0.64968 0.33839
#
# Static dielectric constant tensor:
#      x y z
#    x 3.680290 -0.731870 -0.273560 
#    y -0.731870 3.792490 -0.247580 
#    z -0.273560 -0.247580 3.956160 
# 
# 
# High freq. dielectric constant tensor:
#      x y z
#    x 1.930220 -0.003580 0.000680 
#    y -0.003580 1.900550 0.008150 
#    z 0.000680 0.008150 1.891910 
# 
# From -- ./inp_files/352394.got.cif
#   From: 2010.06.25/outbox.cif.g09.slc.cpg/sg2_177_cif.got.tgz:352394.got - 2010.06.27 13:26:56.
