data_PCOD8015597
_publ_section_title
;
Structure prediction by ZEFSAII (Michael W. Deem and Ramdas Pophale) SiO2 
 PCOD8015597
Probable space group: P -1
;
_chemical_formula_sum "Si O2"
_cell_formula_units_Z 16
_cell_length_a 18.180002
_cell_length_b 8.589849
_cell_length_c 11.465662
_cell_angle_alpha 81.416576
_cell_angle_beta 30.079438
_cell_angle_gamma 70.500971
_cell_volume 808.172685
_symmetry_space_group_name_H-M "P -1"
_symmetry_group_IT_number 2
_symmetry_cell_setting 'triclinic'
loop_
_space_group_symop_operation_xyz
x,y,z
-x,-y,-z
loop_
_atom_site_type_symbol
_atom_site_label
_atom_site_fract_x
_atom_site_fract_y
_atom_site_fract_z
Si Si1 0.789382 0.716932 0.980741
Si Si2 0.048615 0.649580 0.464507
Si Si3 0.473115 0.810139 0.277534
Si Si4 0.723753 0.805617 0.547506
Si Si5 0.818032 0.619688 0.203341
Si Si6 0.920851 0.310261 0.829079
Si Si7 0.666351 0.375428 0.344110
Si Si8 0.613557 0.581943 0.887710
O O1 0.830951 0.516672 0.926559
O O2 0.912094 0.769423 0.729528
O O3 0.609497 0.829124 0.169682
O O4 0.807740 0.740683 0.091303
O O5 0.061532 0.758944 0.321256
O O6 0.213125 0.574695 0.318311
O O7 0.000000 0.500000 0.500000
O O8 0.354710 0.760285 0.525100
O O9 0.370758 0.989552 0.334605
O O10 0.551681 0.664762 0.088582
O O11 0.724817 0.748739 0.419464
O O12 0.628125 0.722849 0.765794
O O13 0.904926 0.751798 0.346817
O O14 0.730241 0.494278 0.316175
O O15 0.000000 0.500000 0.000000
O O16 0.799908 0.257262 0.078529
O O17 0.500000 0.500000 0.500000
O O18 0.500000 0.500000 0.000000
#
# Coordination Sequence:
#
# PCOD8015597 Si02
#       8
#     2   2   2   2   2   2   2   2
#     4  10  18  36  63  88 115 167 215 235 303 374
#     4  10  16  36  69  85 111 161 217 245 283 379
#     4  12  24  39  62  97 129 160 201 270 320 356
#     4  12  24  39  62  97 129 160 201 270 320 356
#     4  11  20  38  63  88 119 164 218 248 293 377
#     4  10  18  36  63  88 115 167 215 235 303 374
#     4  11  20  38  63  88 119 164 218 248 293 377
#     4  12  23  40  66  98 123 160 211 258 306 378
#
# _framework density 19.797749
#
# number of rings (size 3 to 8) (size 9 to 14) (size 15 to 20)
#    0.000    1.000   10.000    1.125    0.000    1.000 
#    0.000    0.000    0.000    1.500    0.000    0.000 
#    0.000    0.000    0.000    0.000    0.000    0.000 
#
# Total GULP energy -198368.294924 kJ/mol
# GULP energy per Si atom -12398.018433 kJ/mol
# Density = 1.975269 g / cm^3
# Si number density = 19.797749 Si / 1000 Ang^3
#
#
#
# Elastic Constant Matrix: (Units=GPa)
#
#
# Indices 1 2 3 4 5 6 
#
# 1 109.7889 27.3891 46.0535 -17.4772 -0.5644 -11.7918
# 2 27.3891 57.8671 41.7873 -12.1037 -4.9589 -14.8445
# 3 46.0535 41.7873 132.9491 -29.5343 4.2864 -13.3297
# 4 -17.4772 -12.1037 -29.5343 20.9081 -8.2193 7.6984
# 5 -0.5644 -4.9589 4.2864 -8.2193 53.6525 -10.8444
# 6 -11.7918 -14.8445 -13.3297 7.6984 -10.8444 16.5508
#
#
#
# Elastic Compliance Matrix: (Units=1/GPa)
#
#
# Indices 1 2 3 4 5 6 
#
# 1 0.011633 -0.001939 -0.001971 0.005111 0.001620 0.003645
# 2 -0.001939 0.030402 -0.006374 0.000788 0.008691 0.026080
# 3 -0.001971 -0.006374 0.013047 0.014267 -0.000142 -0.003343
# 4 0.005111 0.000788 0.014267 0.082189 0.008129 -0.017064
# 5 0.001620 0.008691 -0.000142 0.008129 0.025055 0.021470
# 6 0.003645 0.026080 -0.003343 -0.017064 0.021470 0.105721
#
#
# Mechanical properties :
#
#
# Convention : Reuss Voigt Hill
#
# Bulk Modulus (GPa) = 28.97577 59.00722 43.99150
# Shear Modulus (GPa) = 16.66006 30.58061 23.62034
#
# Velocity S-wave (km/s) = 2.90403 3.93447 3.45785
# Velocity P-wave (km/s) = 5.09040 7.10702 6.18150
#
# Compressibility (1/GPa) = 0.03451159
#
# Stress axis : x y z
#
# Youngs Moduli (GPa) = 85.96542 32.89308 76.64793
#
# Poissons Ratio (x) = 0.06379 0.15110
# Poissons Ratio (y) = 0.16671 0.48855
# Poissons Ratio (z) = 0.16946 0.20966
#
# Static dielectric constant tensor:
#      x y z
#    x 4.199180 -0.535840 0.691420 
#    y -0.535840 3.278890 -0.238590 
#    z 0.691420 -0.238590 4.678820 
# 
# 
# High freq. dielectric constant tensor:
#      x y z
#    x 1.784450 -0.027230 0.006680 
#    y -0.027230 1.717930 -0.010070 
#    z 0.006680 -0.010070 1.798360 
# 
# From -- ./inp_files/462078.got.cif
#   From: 2010.06.25/outbox.cif.g09.slc.cpg/sg2_232_cif.got.tgz:462078.got - 2010.06.27 13:26:56.
