data_PCOD8015690
_publ_section_title
;
Structure prediction by ZEFSAII (Michael W. Deem and Ramdas Pophale) SiO2 
 PCOD8015690
Probable space group: P -1
;
_chemical_formula_sum "Si O2"
_cell_formula_units_Z 14
_cell_length_a 9.503279
_cell_length_b 8.829017
_cell_length_c 15.328575
_cell_angle_alpha 95.683902
_cell_angle_beta 124.862324
_cell_angle_gamma 45.800874
_cell_volume 651.207404
_symmetry_space_group_name_H-M "P -1"
_symmetry_group_IT_number 2
_symmetry_cell_setting 'triclinic'
loop_
_space_group_symop_operation_xyz
x,y,z
-x,-y,-z
loop_
_atom_site_type_symbol
_atom_site_label
_atom_site_fract_x
_atom_site_fract_y
_atom_site_fract_z
Si Si1 0.219179 0.851258 0.891226
Si Si2 0.425761 0.449941 0.552331
Si Si3 0.154682 0.093699 0.353555
Si Si4 0.786005 0.389987 0.795522
Si Si5 0.891095 0.744675 0.463733
Si Si6 0.199861 0.602893 0.996475
Si Si7 0.270496 0.233381 0.253877
O O1 0.164253 0.800051 0.959860
O O2 0.087218 0.847106 0.764443
O O3 0.543385 0.650808 0.978745
O O4 0.088604 0.109281 0.868521
O O5 0.500000 0.500000 0.500000
O O6 0.560069 0.426243 0.685660
O O7 0.096022 0.679582 0.462346
O O8 0.546931 0.196243 0.565899
O O9 0.092964 0.174193 0.435868
O O10 0.173329 0.236491 0.313167
O O11 0.755885 0.566555 0.740940
O O12 0.734066 0.451104 0.881958
O O13 0.000000 0.500000 0.500000
O O14 0.583798 0.964610 0.327873
O O15 0.923198 0.698955 0.886768
#
# Coordination Sequence:
#
# PCOD8015690 Si02
#       7
#     2   2   2   2   2   2   2
#     4   9  21  41  67  91 124 173 216 266 326 377
#     4  11  25  43  68  97 128 171 222 272 324 382
#     4  10  22  44  64  94 132 166 221 270 320 394
#     4  11  23  40  65  94 132 168 214 273 321 382
#     4  12  25  43  70  95 128 181 215 265 337 384
#     4  10  21  43  62  94 131 169 218 264 318 393
#     4  11  24  41  64  97 137 171 215 273 321 391
#
# _framework density 21.498528
#
# number of rings (size 3 to 8) (size 9 to 14) (size 15 to 20)
#    0.000    1.429    1.429    3.000    2.000    5.143 
#    7.714    0.000    0.000    0.000    0.000    0.000 
#    0.000    0.000    0.000    0.000    0.000    0.000 
#
# Total GULP energy -173662.214516 kJ/mol
# GULP energy per Si atom -12404.443894 kJ/mol
# Density = 2.144960 g / cm^3
# Si number density = 21.498528 Si / 1000 Ang^3
#
#
#
# Elastic Constant Matrix: (Units=GPa)
#
#
# Indices 1 2 3 4 5 6 
#
# 1 96.9130 59.8379 31.0073 -7.3525 2.4367 -7.0268
# 2 59.8379 124.5771 31.5156 -21.3240 4.1120 9.2769
# 3 31.0073 31.5156 70.5441 -15.2618 4.8224 -15.0506
# 4 -7.3525 -21.3240 -15.2618 41.4299 -8.0158 -4.6271
# 5 2.4367 4.1120 4.8224 -8.0158 27.4714 -8.2824
# 6 -7.0268 9.2769 -15.0506 -4.6271 -8.2824 40.3794
#
#
#
# Elastic Compliance Matrix: (Units=1/GPa)
#
#
# Indices 1 2 3 4 5 6 
#
# 1 0.016088 -0.007392 -0.003532 -0.001760 0.000729 0.003129
# 2 -0.007392 0.013401 -0.003003 0.003613 -0.001383 -0.005354
# 3 -0.003532 -0.003003 0.020242 0.006603 0.001771 0.008740
# 4 -0.001760 0.003613 0.006603 0.030705 0.009461 0.006784
# 5 0.000729 -0.001383 0.001771 0.009461 0.042267 0.010859
# 6 0.003129 -0.005354 0.008740 0.006784 0.010859 0.032802
#
#
# Mechanical properties :
#
#
# Convention : Reuss Voigt Hill
#
# Bulk Modulus (GPa) = 45.71428 59.63954 52.67691
# Shear Modulus (GPa) = 26.22583 33.16770 29.69676
#
# Velocity S-wave (km/s) = 3.49648 3.93210 3.72067
# Velocity P-wave (km/s) = 6.13275 6.95821 6.55848
#
# Compressibility (1/GPa) = 0.02187500
#
# Stress axis : x y z
#
# Youngs Moduli (GPa) = 62.15838 74.62326 49.40272
#
# Poissons Ratio (x) = 0.55165 0.17448
# Poissons Ratio (y) = 0.45950 0.14838
# Poissons Ratio (z) = 0.21953 0.22413
#
# Static dielectric constant tensor:
#      x y z
#    x 3.838810 0.044320 0.061470 
#    y 0.044320 3.922870 -0.217930 
#    z 0.061470 -0.217930 4.056910 
# 
# 
# High freq. dielectric constant tensor:
#      x y z
#    x 1.840940 0.002440 -0.000640 
#    y 0.002440 1.842900 -0.009460 
#    z -0.000640 -0.009460 1.851430 
# 
# From -- ./inp_files/26862.got.cif
#   From: 2010.06.25/outbox.cif.g09.slc.cpg/sg2_14_cif.got.tgz:26862.got - 2010.06.27 13:26:56.
