data_PCOD8015629
_publ_section_title
;
Structure prediction by ZEFSAII (Michael W. Deem and Ramdas Pophale) SiO2 
 PCOD8015629
Probable space group: P -1
;
_chemical_formula_sum "Si O2"
_cell_formula_units_Z 14
_cell_length_a 11.939583
_cell_length_b 8.470463
_cell_length_c 14.172677
_cell_angle_alpha 62.909470
_cell_angle_beta 150.387986
_cell_angle_gamma 128.864022
_cell_volume 536.124303
_symmetry_space_group_name_H-M "P -1"
_symmetry_group_IT_number 2
_symmetry_cell_setting 'triclinic'
loop_
_space_group_symop_operation_xyz
x,y,z
-x,-y,-z
loop_
_atom_site_type_symbol
_atom_site_label
_atom_site_fract_x
_atom_site_fract_y
_atom_site_fract_z
Si Si1 0.518497 0.027760 0.791022
Si Si2 0.641579 0.842822 0.686871
Si Si3 0.950102 0.247311 0.902427
Si Si4 0.865383 0.907404 0.631792
Si Si5 0.594152 0.686104 0.087799
Si Si6 0.194597 0.715858 0.896225
Si Si7 0.701753 0.399228 0.343124
O O1 0.794847 0.198848 0.899491
O O2 0.273914 0.037621 0.566243
O O3 0.472529 0.797055 0.804382
O O4 0.569896 0.106544 0.914220
O O5 0.670297 0.802157 0.608947
O O6 0.346211 0.693920 0.558402
O O7 0.745831 0.088463 0.713959
O O8 0.806195 0.785866 0.894981
O O9 0.052672 0.482023 0.891209
O O10 0.954168 0.756218 0.692682
O O11 0.135348 0.114355 0.806817
O O12 0.636488 0.583412 0.241561
O O13 0.500000 0.500000 0.000000
O O14 0.361942 0.737273 0.918822
O O15 0.000000 0.500000 0.500000
#
# Coordination Sequence:
#
# PCOD8015629 Si02
#       7
#     2   2   2   2   2   2   2
#     4  11  25  44  74 106 148 190 240 302 361 430
#     4  10  22  44  75 102 140 194 242 301 352 427
#     4  10  21  42  72  99 138 198 236 282 367 422
#     4  12  26  45  71 113 147 181 248 296 362 436
#     4  12  26  48  74 103 140 196 245 298 359 436
#     4  12  25  47  72 102 153 192 229 304 372 429
#     4  11  23  48  73 103 143 193 246 293 356 419
#
# _framework density 26.113346
#
# number of rings (size 3 to 8) (size 9 to 14) (size 15 to 20)
#    0.000    0.857    4.286    2.571    2.000    3.429 
#    5.143    0.000    0.000    0.000    0.000    0.000 
#    0.000    0.000    0.000    0.000    0.000    0.000 
#
# Total GULP energy -173537.595212 kJ/mol
# GULP energy per Si atom -12395.542515 kJ/mol
# Density = 2.605391 g / cm^3
# Si number density = 26.113346 Si / 1000 Ang^3
#
#
#
# Elastic Constant Matrix: (Units=GPa)
#
#
# Indices 1 2 3 4 5 6 
#
# 1 138.0800 27.3127 17.2670 1.3607 32.3703 -4.2855
# 2 27.3127 154.6828 15.6298 -4.2187 23.5120 3.8105
# 3 17.2670 15.6298 39.9715 -3.4522 26.0164 -5.1863
# 4 1.3607 -4.2187 -3.4522 40.3574 -1.3316 14.7102
# 5 32.3703 23.5120 26.0164 -1.3316 40.3686 4.1573
# 6 -4.2855 3.8105 -5.1863 14.7102 4.1573 42.5034
#
#
#
# Elastic Compliance Matrix: (Units=1/GPa)
#
#
# Indices 1 2 3 4 5 6 
#
# 1 0.009243 -0.000622 0.002168 -0.001430 -0.008761 0.002604
# 2 -0.000622 0.007161 -0.000394 0.000896 -0.003312 -0.000739
# 3 0.002168 -0.000394 0.046529 -0.000601 -0.032474 0.009316
# 4 -0.001430 0.000896 -0.000601 0.028823 0.003051 -0.010572
# 5 -0.008761 -0.003312 -0.032474 0.003051 0.055896 -0.011072
# 6 0.002604 -0.000739 0.009316 -0.010572 -0.011072 0.029735
#
#
# Mechanical properties :
#
#
# Convention : Reuss Voigt Hill
#
# Bulk Modulus (GPa) = 15.32920 50.35034 32.83977
# Shear Modulus (GPa) = 25.40272 42.81421 34.10847
#
# Velocity S-wave (km/s) = 3.12234 4.05353 3.61802
# Velocity P-wave (km/s) = 4.34530 6.42117 5.48239
#
# Compressibility (1/GPa) = 0.06523498
#
# Stress axis : x y z
#
# Youngs Moduli (GPa) = 108.18860 139.65284 21.49196
#
# Poissons Ratio (x) = 0.08693 -0.04658
# Poissons Ratio (y) = 0.06734 0.00847
# Poissons Ratio (z) = -0.23450 0.05501
#
# Static dielectric constant tensor:
#      x y z
#    x 4.864870 0.401930 0.050580 
#    y 0.401930 6.418310 -1.187580 
#    z 0.050580 -1.187580 5.336510 
# 
# 
# High freq. dielectric constant tensor:
#      x y z
#    x 2.046380 0.011450 0.020240 
#    y 0.011450 2.068490 -0.012310 
#    z 0.020240 -0.012310 2.035650 
# 
# From -- ./inp_files/503364.got.cif
#   From: 2010.06.25/outbox.cif.g09.slc.cpg/sg2_252_cif.got.tgz:503364.got - 2010.06.27 13:26:56.
