data_PCOD8015330
_publ_section_title
;
Structure prediction by ZEFSAII (Michael W. Deem and Ramdas Pophale) SiO2 
 PCOD8015330
Probable space group: P -1
;
_chemical_formula_sum "Si O2"
_cell_formula_units_Z 14
_cell_length_a 5.217245
_cell_length_b 13.006102
_cell_length_c 8.823751
_cell_angle_alpha 106.417491
_cell_angle_beta 90.093834
_cell_angle_gamma 91.911851
_cell_volume 573.974500
_symmetry_space_group_name_H-M "P -1"
_symmetry_group_IT_number 2
_symmetry_cell_setting 'triclinic'
loop_
_space_group_symop_operation_xyz
x,y,z
-x,-y,-z
loop_
_atom_site_type_symbol
_atom_site_label
_atom_site_fract_x
_atom_site_fract_y
_atom_site_fract_z
Si Si1 0.925432 0.171417 0.080178
Si Si2 0.346065 0.685871 0.059059
Si Si3 0.155304 0.385413 0.096991
Si Si4 0.265126 0.100233 0.507729
Si Si5 0.920774 0.993411 0.239622
Si Si6 0.760217 0.232190 0.577665
Si Si7 0.749248 0.463663 0.570672
O O1 0.118281 0.275432 0.152385
O O2 0.856456 0.107546 0.207870
O O3 0.666799 0.217820 0.025825
O O4 0.058573 0.095347 0.926027
O O5 0.109673 0.598713 0.990230
O O6 0.312930 0.738970 0.241422
O O7 0.614944 0.628908 0.027985
O O8 0.235916 0.487845 0.240384
O O9 0.290503 0.043512 0.649779
O O10 0.541373 0.149061 0.481605
O O11 0.043757 0.187372 0.551461
O O12 0.186297 0.011791 0.342669
O O13 0.745680 0.336093 0.516728
O O14 0.500000 0.500000 0.500000
O O15 0.000000 0.500000 0.500000
#
# Coordination Sequence:
#
# PCOD8015330 Si02
#       7
#     2   2   2   2   2   2   2
#     4   9  21  42  66 100 135 178 228 281 325 396
#     4  10  21  42  67  98 135 173 222 274 341 386
#     4  10  23  43  68  96 137 167 228 278 333 404
#     4  11  25  44  65 103 138 183 228 271 346 392
#     4  10  21  43  67  99 136 187 226 278 329 406
#     4  12  25  45  71  96 142 174 221 293 326 409
#     4  12  28  46  71 103 131 178 225 272 353 413
#
# _framework density 24.391324999999998
#
# number of rings (size 3 to 8) (size 9 to 14) (size 15 to 20)
#    0.857    0.571    1.429    3.429    4.000    3.429 
#    5.143    2.143    0.000    0.000    0.000    0.000 
#    0.000    0.000    0.000    0.000    0.000    0.000 
#
# Total GULP energy -173528.592418 kJ/mol
# GULP energy per Si atom -12394.899458 kJ/mol
# Density = 2.433581 g / cm^3
# Si number density = 24.391325 Si / 1000 Ang^3
#
#
#
# Elastic Constant Matrix: (Units=GPa)
#
#
# Indices 1 2 3 4 5 6 
#
# 1 131.0172 23.8184 3.1061 -5.9616 -3.4482 -1.8287
# 2 23.8184 87.5166 -4.7204 -3.0597 -0.6987 15.7088
# 3 3.1061 -4.7204 57.3200 -2.2115 7.0475 2.1521
# 4 -5.9616 -3.0597 -2.2115 44.4740 -0.4841 1.4695
# 5 -3.4482 -0.6987 7.0475 -0.4841 26.4883 7.0999
# 6 -1.8287 15.7088 2.1521 1.4695 7.0999 34.3585
#
#
#
# Elastic Compliance Matrix: (Units=1/GPa)
#
#
# Indices 1 2 3 4 5 6 
#
# 1 0.008183 -0.002485 -0.000772 0.000850 0.000843 0.001410
# 2 -0.002485 0.013421 0.001343 0.000894 0.001485 -0.006697
# 3 -0.000772 0.001343 0.018239 0.000874 -0.004668 -0.000870
# 4 0.000850 0.000894 0.000874 0.022763 0.000731 -0.001543
# 5 0.000843 0.001485 -0.004668 0.000731 0.041559 -0.008960
# 6 0.001410 -0.006697 -0.000870 -0.001543 -0.008960 0.034214
#
#
# Mechanical properties :
#
#
# Convention : Reuss Voigt Hill
#
# Bulk Modulus (GPa) = 27.76642 35.58466 31.67554
# Shear Modulus (GPa) = 32.42314 37.97413 35.19864
#
# Velocity S-wave (km/s) = 3.64990 3.95000 3.80291
# Velocity P-wave (km/s) = 5.40100 5.95181 5.68308
#
# Compressibility (1/GPa) = 0.03601473
#
# Stress axis : x y z
#
# Youngs Moduli (GPa) = 122.20074 74.51278 54.82834
#
# Poissons Ratio (x) = 0.18519 0.04232
# Poissons Ratio (y) = 0.30371 -0.07365
# Poissons Ratio (z) = 0.09432 -0.10009
#
# Static dielectric constant tensor:
#      x y z
#    x 4.680780 -0.949920 -0.354650 
#    y -0.949920 6.667130 1.082920 
#    z -0.354650 1.082920 4.854790 
# 
# 
# High freq. dielectric constant tensor:
#      x y z
#    x 1.960220 -0.000630 0.000340 
#    y -0.000630 1.983550 0.006540 
#    z 0.000340 0.006540 1.968730 
# 
# From -- ./inp_files/131775.got.cif
#   From: 2010.06.25/outbox.cif.g09.slc.cpg/sg2_66_cif.got.tgz:131775.got - 2010.06.27 13:26:56.
