data_PCOD8015543
_publ_section_title
;
Structure prediction by ZEFSAII (Michael W. Deem and Ramdas Pophale) SiO2 
 PCOD8015543
Probable space group: P -1
;
_chemical_formula_sum "Si O2"
_cell_formula_units_Z 16
_cell_length_a 11.188672
_cell_length_b 6.172686
_cell_length_c 14.282952
_cell_angle_alpha 44.071568
_cell_angle_beta 91.265191
_cell_angle_gamma 93.581065
_cell_volume 684.415628
_symmetry_space_group_name_H-M "P -1"
_symmetry_group_IT_number 2
_symmetry_cell_setting 'triclinic'
loop_
_space_group_symop_operation_xyz
x,y,z
-x,-y,-z
loop_
_atom_site_type_symbol
_atom_site_label
_atom_site_fract_x
_atom_site_fract_y
_atom_site_fract_z
Si Si1 0.235065 0.614217 0.964534
Si Si2 0.697543 0.385632 0.747658
Si Si3 0.427053 0.208920 0.131812
Si Si4 0.495658 0.206250 0.333673
Si Si5 0.927414 0.307901 0.899866
Si Si6 0.684411 0.754122 0.462826
Si Si7 0.320759 0.301345 0.733222
Si Si8 0.842181 0.369445 0.247282
O O1 0.210557 0.513250 0.888501
O O2 0.322496 0.932860 0.867538
O O3 0.296981 0.342272 0.106347
O O4 0.111690 0.647674 0.007374
O O5 0.642095 0.709706 0.679398
O O6 0.811212 0.285455 0.837954
O O7 0.727888 0.466494 0.613829
O O8 0.595458 0.098378 0.837871
O O9 0.500446 0.115490 0.252680
O O10 0.500000 0.500000 0.000000
O O11 0.577875 0.516536 0.260325
O O12 0.563751 0.899342 0.468119
O O13 0.013759 0.596982 0.771998
O O14 0.000000 0.000000 0.000000
O O15 0.658117 0.617246 0.401342
O O16 0.794221 0.015068 0.376631
O O17 0.194166 0.412107 0.735100
#
# Coordination Sequence:
#
# PCOD8015543 Si02
#       8
#     2   2   2   2   2   2   2   2
#     4  11  22  41  68 101 134 170 222 272 335 395
#     4  12  27  44  65 103 135 175 222 274 325 397
#     4  12  25  39  64 104 138 173 217 267 336 400
#     4  11  23  42  69  97 134 179 215 273 332 391
#     4  12  24  44  72  97 136 173 220 276 333 392
#     4  10  24  45  68  96 136 174 226 269 328 393
#     4  10  21  42  70  97 133 177 221 273 327 394
#     4  10  22  42  71  97 127 182 220 275 331 381
#
# _framework density 23.377607000000001
#
# number of rings (size 3 to 8) (size 9 to 14) (size 15 to 20)
#    0.000    1.000    2.500    5.250    1.750    5.500 
#    0.000    0.625    0.000    0.000    0.000    0.000 
#    0.000    0.000    0.000    0.000    0.000    0.000 
#
# Total GULP energy -198232.066435 kJ/mol
# GULP energy per Si atom -12389.504152 kJ/mol
# Density = 2.332440 g / cm^3
# Si number density = 23.377607 Si / 1000 Ang^3
#
#
#
# Elastic Constant Matrix: (Units=GPa)
#
#
# Indices 1 2 3 4 5 6 
#
# 1 101.5862 39.1136 37.3691 -0.4949 5.7838 2.3383
# 2 39.1136 96.2566 24.7254 8.0178 11.5096 -0.1339
# 3 37.3691 24.7254 99.8912 -3.0296 18.9277 -1.1756
# 4 -0.4949 8.0178 -3.0296 21.5995 5.5917 -4.3680
# 5 5.7838 11.5096 18.9277 5.5917 32.5628 -0.4288
# 6 2.3383 -0.1339 -1.1756 -4.3680 -0.4288 45.9050
#
#
#
# Elastic Compliance Matrix: (Units=1/GPa)
#
#
# Indices 1 2 3 4 5 6 
#
# 1 0.012984 -0.004497 -0.003999 0.000895 0.001445 -0.000678
# 2 -0.004497 0.013211 -0.001290 -0.004631 -0.002329 -0.000228
# 3 -0.003999 -0.001290 0.013357 0.004338 -0.007331 0.000886
# 4 0.000895 -0.004631 0.004338 0.052216 -0.009945 0.004928
# 5 0.001445 -0.002329 -0.007331 -0.009945 0.037234 -0.000867
# 6 -0.000678 -0.000228 0.000886 0.004928 -0.000867 0.022301
#
#
# Mechanical properties :
#
#
# Convention : Reuss Voigt Hill
#
# Bulk Modulus (GPa) = 50.04611 55.57223 52.80917
# Shear Modulus (GPa) = 28.16324 33.11520 30.63922
#
# Velocity S-wave (km/s) = 3.47466 3.76777 3.62418
# Velocity P-wave (km/s) = 6.12796 6.53845 6.33653
#
# Compressibility (1/GPa) = 0.01998157
#
# Stress axis : x y z
#
# Youngs Moduli (GPa) = 77.01742 75.69167 74.86610
#
# Poissons Ratio (x) = 0.34039 0.29938
# Poissons Ratio (y) = 0.34636 0.09655
# Poissons Ratio (z) = 0.30798 0.09761
#
# Static dielectric constant tensor:
#      x y z
#    x 4.606050 -0.235540 0.179160 
#    y -0.235540 4.425440 0.069910 
#    z 0.179160 0.069910 4.531760 
# 
# 
# High freq. dielectric constant tensor:
#      x y z
#    x 1.917110 -0.006900 -0.005510 
#    y -0.006900 1.934060 0.005340 
#    z -0.005510 0.005340 1.924070 
# 
# From -- ./inp_files/510119.got.cif
#   From: 2010.06.25/outbox.cif.g09.slc.cpg/sg2_256_cif.got.tgz:510119.got - 2010.06.27 13:26:56.
