data_PCOD8015005
_publ_section_title
;
Structure prediction by ZEFSAII (Michael W. Deem and Ramdas Pophale) SiO2 
 PCOD8015005
Probable space group: P -1
;
_chemical_formula_sum "Si O2"
_cell_formula_units_Z 16
_cell_length_a 10.592262
_cell_length_b 18.296070
_cell_length_c 12.608952
_cell_angle_alpha 149.648176
_cell_angle_beta 45.751946
_cell_angle_gamma 145.545010
_cell_volume 697.762302
_symmetry_space_group_name_H-M "P -1"
_symmetry_group_IT_number 2
_symmetry_cell_setting 'triclinic'
loop_
_space_group_symop_operation_xyz
x,y,z
-x,-y,-z
loop_
_atom_site_type_symbol
_atom_site_label
_atom_site_fract_x
_atom_site_fract_y
_atom_site_fract_z
Si Si1 0.088113 0.514027 0.704567
Si Si2 0.992066 0.015852 0.656914
Si Si3 0.670628 0.221165 0.459719
Si Si4 0.513412 0.165175 0.245274
Si Si5 0.004965 0.702355 0.309482
Si Si6 0.832047 0.642313 0.121769
Si Si7 0.590355 0.706167 0.135592
Si Si8 0.489292 0.885455 0.265529
O O1 0.338952 0.659372 0.697721
O O2 0.098142 0.393819 0.637697
O O3 0.928460 0.381487 0.537002
O O4 0.001442 0.623992 0.936993
O O5 0.733712 0.894560 0.682522
O O6 0.084148 0.909431 0.511012
O O7 0.061597 0.136727 0.655131
O O8 0.155580 0.209809 0.874309
O O9 0.627369 0.227985 0.371205
O O10 0.511002 0.240378 0.648140
O O11 0.619816 0.024779 0.265573
O O12 0.500000 0.000000 0.000000
O O13 0.824455 0.582230 0.172164
O O14 0.230244 0.723520 0.184826
O O15 0.580918 0.516897 0.061562
O O16 0.596586 0.788998 0.120743
O O17 0.500000 0.000000 0.500000
#
# Coordination Sequence:
#
# PCOD8015005 Si02
#       8
#     2   2   2   2   2   2   2   2
#     4  11  23  44  63  90 125 172 207 243 304 379
#     4  12  24  41  61  93 131 159 206 255 314 366
#     4  10  20  39  67  92 120 159 211 253 308 369
#     4  12  27  42  60  88 125 176 209 248 299 374
#     4  12  22  38  68  98 123 158 205 260 316 356
#     4  11  23  38  65 101 127 153 202 265 313 361
#     4  10  21  37  66  99 123 157 196 264 320 357
#     4  10  16  35  64  99 118 152 197 252 320 362
#
# _framework density 22.930444999999999
#
# number of rings (size 3 to 8) (size 9 to 14) (size 15 to 20)
#    0.000    1.000    7.500    2.250    1.750    0.500 
#    0.000    0.000    0.000    3.750    0.000    0.000 
#    0.000    0.000    0.000    0.000    0.000    0.000 
#
# Total GULP energy -198275.795616 kJ/mol
# GULP energy per Si atom -12392.237226 kJ/mol
# Density = 2.287825 g / cm^3
# Si number density = 22.930445 Si / 1000 Ang^3
#
#
#
# Elastic Constant Matrix: (Units=GPa)
#
#
# Indices 1 2 3 4 5 6 
#
# 1 128.9479 68.0460 18.9048 6.6264 10.8075 -3.6451
# 2 68.0460 161.8003 26.7660 28.9994 1.5702 -0.7192
# 3 18.9048 26.7660 57.1907 16.9702 -0.8799 -14.1703
# 4 6.6264 28.9994 16.9702 28.0128 -0.9330 -8.9594
# 5 10.8075 1.5702 -0.8799 -0.9330 33.1443 12.6038
# 6 -3.6451 -0.7192 -14.1703 -8.9594 12.6038 38.9731
#
#
#
# Elastic Compliance Matrix: (Units=1/GPa)
#
#
# Indices 1 2 3 4 5 6 
#
# 1 0.010886 -0.005001 -0.002019 0.004515 -0.004226 0.002596
# 2 -0.005001 0.010179 -0.001072 -0.009795 0.002229 -0.003643
# 3 -0.002019 -0.001072 0.023330 -0.010582 -0.001357 0.006280
# 4 0.004515 -0.009795 -0.010582 0.054268 -0.003574 0.010025
# 5 -0.004226 0.002229 -0.001357 -0.003574 0.036421 -0.013448
# 6 0.002596 -0.003643 0.006280 0.010025 -0.013448 0.034771
#
#
# Mechanical properties :
#
#
# Convention : Reuss Voigt Hill
#
# Bulk Modulus (GPa) = 35.44900 63.93028 49.68964
# Shear Modulus (GPa) = 25.58301 35.64086 30.61194
#
# Velocity S-wave (km/s) = 3.34380 3.94674 3.65772
# Velocity P-wave (km/s) = 5.51370 6.97923 6.28930
#
# Compressibility (1/GPa) = 0.02820954
#
# Stress axis : x y z
#
# Youngs Moduli (GPa) = 91.86524 98.24490 42.86334
#
# Poissons Ratio (x) = 0.49127 0.08656
# Poissons Ratio (y) = 0.45937 0.04597
# Poissons Ratio (z) = 0.18551 0.10536
#
# Static dielectric constant tensor:
#      x y z
#    x 4.798700 -0.143220 0.025320 
#    y -0.143220 4.321330 0.657250 
#    z 0.025320 0.657250 4.089970 
# 
# 
# High freq. dielectric constant tensor:
#      x y z
#    x 1.942540 -0.006420 0.007010 
#    y -0.006420 1.889880 0.062290 
#    z 0.007010 0.062290 1.881520 
# 
# From -- ./inp_files/523817.got.cif
#   From: 2010.06.25/outbox.cif.g09.slc.cpg/sg2_262_cif.got.tgz:523817.got - 2010.06.27 13:26:56.
