data_PCOD8015266
_publ_section_title
;
Structure prediction by ZEFSAII (Michael W. Deem and Ramdas Pophale) SiO2 
 PCOD8015266
Probable space group: P -1
;
_chemical_formula_sum "Si O2"
_cell_formula_units_Z 14
_cell_length_a 12.222406
_cell_length_b 7.827185
_cell_length_c 9.398960
_cell_angle_alpha 113.493653
_cell_angle_beta 58.644858
_cell_angle_gamma 127.157574
_cell_volume 607.243596
_symmetry_space_group_name_H-M "P -1"
_symmetry_group_IT_number 2
_symmetry_cell_setting 'triclinic'
loop_
_space_group_symop_operation_xyz
x,y,z
-x,-y,-z
loop_
_atom_site_type_symbol
_atom_site_label
_atom_site_fract_x
_atom_site_fract_y
_atom_site_fract_z
Si Si1 0.219757 0.529297 0.758305
Si Si2 0.605437 0.274255 0.864295
Si Si3 0.988919 0.078346 0.688187
Si Si4 0.282284 0.914677 0.031947
Si Si5 0.348864 0.782470 0.504575
Si Si6 0.783328 0.679319 0.032997
Si Si7 0.100674 0.885033 0.785925
O O1 0.340243 0.615185 0.575780
O O2 0.066142 0.338691 0.733460
O O3 0.206375 0.731369 0.898021
O O4 0.277600 0.435109 0.810898
O O5 0.686087 0.186000 0.883182
O O6 0.661603 0.298602 0.673817
O O7 0.657971 0.521824 0.954101
O O8 0.430188 0.117869 0.937818
O O9 0.819444 0.987551 0.818812
O O10 0.066734 0.991428 0.711074
O O11 0.000000 0.000000 0.500000
O O12 0.500000 0.000000 0.500000
O O13 0.198125 0.786824 0.634874
O O14 0.804942 0.919889 0.098550
O O15 0.945136 0.703110 0.900516
#
# Coordination Sequence:
#
# PCOD8015266 Si02
#       7
#     2   2   2   2   2   2   2
#     4  10  23  40  66  92 123 171 210 252 312 377
#     4  10  22  40  65  95 125 167 213 259 307 374
#     4  11  24  42  65  99 128 162 210 266 314 368
#     4  10  21  42  67  91 126 169 213 254 310 379
#     4  12  25  41  64  96 129 161 212 265 312 370
#     4   9  22  43  65  91 125 169 213 253 317 376
#     4  10  24  42  64  91 129 166 208 264 314 373
#
# _framework density 23.055
#
# number of rings (size 3 to 8) (size 9 to 14) (size 15 to 20)
#    0.000    1.714    1.429    1.286   12.000    0.571 
#    2.571    2.857    0.000    0.000    0.000    0.000 
#    0.000    0.000    0.000    0.000    0.000    0.000 
#
# Total GULP energy -173566.478161 kJ/mol
# GULP energy per Si atom -12397.605583 kJ/mol
# Density = 2.300253 g / cm^3
# Si number density = 23.055000 Si / 1000 Ang^3
#
#
#
# Elastic Constant Matrix: (Units=GPa)
#
#
# Indices 1 2 3 4 5 6 
#
# 1 43.9747 28.9033 39.5089 3.1706 1.4116 20.0960
# 2 28.9033 141.0491 64.9888 2.8603 11.2229 21.6746
# 3 39.5089 64.9888 180.5525 -2.6329 24.8241 15.8336
# 4 3.1706 2.8603 -2.6329 48.3524 1.9024 9.3668
# 5 1.4116 11.2229 24.8241 1.9024 31.4087 -0.0042
# 6 20.0960 21.6746 15.8336 9.3668 -0.0042 26.8250
#
#
#
# Elastic Compliance Matrix: (Units=1/GPa)
#
#
# Indices 1 2 3 4 5 6 
#
# 1 0.041814 -0.001737 -0.006693 0.002010 0.003906 -0.026672
# 2 -0.001737 0.009419 -0.002358 0.000470 -0.001453 -0.005082
# 3 -0.006693 -0.002358 0.008504 0.000960 -0.005635 0.001564
# 4 0.002010 0.000470 0.000960 0.022677 -0.002392 -0.010371
# 5 0.003906 -0.001453 -0.005635 -0.002392 0.036781 0.002415
# 6 -0.026672 -0.005082 0.001564 -0.010371 0.002415 0.064064
#
#
# Mechanical properties :
#
#
# Convention : Reuss Voigt Hill
#
# Bulk Modulus (GPa) = 26.20577 70.26426 48.23502
# Shear Modulus (GPa) = 22.98251 36.79558 29.88904
#
# Velocity S-wave (km/s) = 3.16073 3.99932 3.60449
# Velocity P-wave (km/s) = 4.97107 7.20202 6.18792
#
# Compressibility (1/GPa) = 0.03815953
#
# Stress axis : x y z
#
# Youngs Moduli (GPa) = 23.91532 106.16684 117.59765
#
# Poissons Ratio (x) = 0.18446 0.78712
# Poissons Ratio (y) = 0.04155 0.27728
# Poissons Ratio (z) = 0.16007 0.25033
#
# Static dielectric constant tensor:
#      x y z
#    x 3.928850 0.058030 0.340530 
#    y 0.058030 4.540210 -0.094790 
#    z 0.340530 -0.094790 4.382850 
# 
# 
# High freq. dielectric constant tensor:
#      x y z
#    x 1.896500 0.003550 0.027950 
#    y 0.003550 1.925220 -0.012060 
#    z 0.027950 -0.012060 1.916610 
# 
# From -- ./inp_files/244932.got.cif
#   From: 2010.06.25/outbox.cif.g09.slc.cpg/sg2_123_cif.got.tgz:244932.got - 2010.06.27 13:26:56.
