data_PCOD8015011
_publ_section_title
;
Structure prediction by ZEFSAII (Michael W. Deem and Ramdas Pophale) SiO2 
 PCOD8015011
Probable space group: P -1
;
_chemical_formula_sum "Si O2"
_cell_formula_units_Z 16
_cell_length_a 21.084616
_cell_length_b 27.025706
_cell_length_c 9.203581
_cell_angle_alpha 151.025270
_cell_angle_beta 142.421859
_cell_angle_gamma 18.036604
_cell_volume 759.100176
_symmetry_space_group_name_H-M "P -1"
_symmetry_group_IT_number 2
_symmetry_cell_setting 'triclinic'
loop_
_space_group_symop_operation_xyz
x,y,z
-x,-y,-z
loop_
_atom_site_type_symbol
_atom_site_label
_atom_site_fract_x
_atom_site_fract_y
_atom_site_fract_z
Si Si1 0.561622 0.776603 0.322409
Si Si2 0.710403 0.109664 0.094858
Si Si3 0.782383 0.194034 0.192111
Si Si4 0.669137 0.123609 0.604922
Si Si5 0.376191 0.070228 0.314758
Si Si6 0.547113 0.705351 0.633499
Si Si7 0.858663 0.344614 0.799852
Si Si8 0.969315 0.295953 0.201487
O O1 0.481544 0.835239 0.494390
O O2 0.629847 0.834417 0.569638
O O3 0.367404 0.913209 0.213630
O O4 0.761322 0.529112 0.023171
O O5 0.790665 0.139202 0.228473
O O6 0.515828 0.296415 0.334308
O O7 0.907732 0.905046 0.024473
O O8 0.717015 0.368109 0.547998
O O9 0.623367 0.262162 0.980798
O O10 0.000000 0.000000 0.000000
O O11 0.598681 0.218150 0.560743
O O12 0.906213 0.876813 0.402007
O O13 0.130417 0.252798 0.365235
O O14 0.500000 0.000000 0.500000
O O15 0.500161 0.866154 0.956785
O O16 0.793695 0.478341 0.468096
O O17 0.861727 0.354583 0.005266
#
# Coordination Sequence:
#
# PCOD8015011 Si02
#       8
#     2   2   2   2   2   2   2   2
#     4  11  23  41  68  95 125 173 219 260 332 379
#     4  10  22  43  66  92 136 167 213 270 317 386
#     4   9  22  42  70  96 130 174 215 259 334 380
#     4  10  21  42  64  97 135 166 209 276 317 383
#     4  11  23  45  65  93 132 172 215 272 324 379
#     4  11  22  42  66  94 136 169 213 269 323 381
#     4  11  22  43  67  95 132 168 216 272 318 385
#     4  11  23  42  66  96 134 168 219 267 320 385
#
# _framework density 21.077587000000001
#
# number of rings (size 3 to 8) (size 9 to 14) (size 15 to 20)
#    0.000    1.500    6.250    0.000    0.000    8.000 
#    0.000    1.875    0.000    0.000    0.000    0.000 
#    0.000    0.000    0.000    0.000    0.000    0.000 
#
# Total GULP energy -198322.634802 kJ/mol
# GULP energy per Si atom -12395.164675 kJ/mol
# Density = 2.102961 g / cm^3
# Si number density = 21.077587 Si / 1000 Ang^3
#
#
#
# Elastic Constant Matrix: (Units=GPa)
#
#
# Indices 1 2 3 4 5 6 
#
# 1 132.7068 13.5634 50.7684 -2.5933 -6.1846 -14.3198
# 2 13.5634 53.8830 28.0055 -2.6272 -3.9360 1.5571
# 3 50.7684 28.0055 96.6648 6.0436 -6.4538 -9.7649
# 4 -2.5933 -2.6272 6.0436 37.4979 -2.5229 -12.2536
# 5 -6.1846 -3.9360 -6.4538 -2.5229 35.4331 0.9995
# 6 -14.3198 1.5571 -9.7649 -12.2536 0.9995 31.9087
#
#
#
# Elastic Compliance Matrix: (Units=1/GPa)
#
#
# Indices 1 2 3 4 5 6 
#
# 1 0.009961 0.000183 -0.004997 0.002880 0.000941 0.004009
# 2 0.000183 0.022339 -0.006835 0.002002 0.001478 -0.002377
# 3 -0.004997 -0.006835 0.015354 -0.002670 0.000926 0.001736
# 4 0.002880 0.002002 -0.002670 0.031656 0.002141 0.012467
# 5 0.000941 0.001478 0.000926 0.002141 0.028856 0.000552
# 6 0.004009 -0.002377 0.001736 0.012467 0.000552 0.038556
#
#
# Mechanical properties :
#
#
# Convention : Reuss Voigt Hill
#
# Bulk Modulus (GPa) = 41.05662 51.99214 46.52438
# Shear Modulus (GPa) = 28.06806 33.69577 30.88191
#
# Velocity S-wave (km/s) = 3.65314 4.00265 3.83189
# Velocity P-wave (km/s) = 6.10860 6.78839 6.45745
#
# Compressibility (1/GPa) = 0.02435661
#
# Stress axis : x y z
#
# Youngs Moduli (GPa) = 100.39138 44.76411 65.13124
#
# Poissons Ratio (x) = -0.00819 0.32545
# Poissons Ratio (y) = -0.01837 0.44516
# Poissons Ratio (z) = 0.50164 0.30596
#
# Static dielectric constant tensor:
#      x y z
#    x 4.102330 -0.106130 -0.102480 
#    y -0.106130 3.817760 -0.194090 
#    z -0.102480 -0.194090 4.388870 
# 
# 
# High freq. dielectric constant tensor:
#      x y z
#    x 1.830310 -0.003920 -0.015520 
#    y -0.003920 1.827490 -0.000110 
#    z -0.015520 -0.000110 1.821050 
# 
# From -- ./inp_files/202299.got.cif
#   From: 2010.06.25/outbox.cif.g09.slc.cpg/sg2_102_cif.got.tgz:202299.got - 2010.06.27 13:26:56.
