data_PCOD8015611
_publ_section_title
;
Structure prediction by ZEFSAII (Michael W. Deem and Ramdas Pophale) SiO2 
 PCOD8015611
Probable space group: P -1
;
_chemical_formula_sum "Si O2"
_cell_formula_units_Z 16
_cell_length_a 5.596979
_cell_length_b 5.298688
_cell_length_c 24.231671
_cell_angle_alpha 60.496934
_cell_angle_beta 97.321496
_cell_angle_gamma 92.380700
_cell_volume 620.157952
_symmetry_space_group_name_H-M "P -1"
_symmetry_group_IT_number 2
_symmetry_cell_setting 'triclinic'
loop_
_space_group_symop_operation_xyz
x,y,z
-x,-y,-z
loop_
_atom_site_type_symbol
_atom_site_label
_atom_site_fract_x
_atom_site_fract_y
_atom_site_fract_z
Si Si1 0.771212 0.917822 0.038684
Si Si2 0.459893 0.999478 0.199727
Si Si3 0.550506 0.815644 0.628097
Si Si4 0.790367 0.827261 0.484997
Si Si5 0.886540 0.330715 0.713072
Si Si6 0.301205 0.625984 0.743671
Si Si7 0.067354 0.720999 0.397948
Si Si8 0.624116 0.335326 0.072349
O O1 0.800160 0.079411 0.080909
O O2 0.782752 0.569570 0.084641
O O3 0.500000 0.000000 0.000000
O O4 0.000000 0.000000 0.000000
O O5 0.655390 0.175277 0.222630
O O6 0.427805 0.190814 0.122498
O O7 0.205042 0.965274 0.228230
O O8 0.542835 0.674652 0.219322
O O9 0.643747 0.482574 0.663808
O O10 0.360184 0.831856 0.671041
O O11 0.436106 0.947520 0.553900
O O12 0.790365 0.986621 0.628383
O O13 0.746388 0.552909 0.553265
O O14 0.856182 0.711468 0.437897
O O15 0.000000 0.000000 0.500000
O O16 0.048160 0.282917 0.667303
O O17 0.024012 0.527887 0.740424
O O18 0.500000 0.500000 0.000000
#
# Coordination Sequence:
#
# PCOD8015611 Si02
#       8
#     2   2   2   2   2   2   2   2
#     4  10  21  42  72 106 152 198 247 300 376 452
#     4  11  25  48  72 108 148 191 245 305 367 443
#     4  11  23  42  67  93 138 181 235 294 365 426
#     4  11  25  41  63  99 137 177 236 294 372 437
#     4  11  26  45  72  97 141 188 247 296 369 430
#     4  11  25  44  73 104 144 191 247 301 360 442
#     4  11  23  41  66  95 134 182 235 298 363 436
#     4  10  22  45  74 109 151 190 246 305 377 454
#
# _framework density 25.799880999999999
#
# number of rings (size 3 to 8) (size 9 to 14) (size 15 to 20)
#    0.000    1.250    1.250    3.750    3.500    4.000 
#   13.500    0.000    0.000    0.000    0.000    0.000 
#    0.000    0.000    0.000    0.000    0.000    0.000 
#
# Total GULP energy -198216.005227 kJ/mol
# GULP energy per Si atom -12388.500327 kJ/mol
# Density = 2.574116 g / cm^3
# Si number density = 25.799881 Si / 1000 Ang^3
#
#
#
# Elastic Constant Matrix: (Units=GPa)
#
#
# Indices 1 2 3 4 5 6 
#
# 1 66.1186 5.6961 17.3539 -0.8545 -16.0351 18.3395
# 2 5.6961 134.8438 24.1989 -3.1011 -15.3165 9.6611
# 3 17.3539 24.1989 168.6674 -16.6429 -31.9777 11.4776
# 4 -0.8545 -3.1011 -16.6429 37.1467 4.3703 -7.0448
# 5 -16.0351 -15.3165 -31.9777 4.3703 41.9701 -3.6461
# 6 18.3395 9.6611 11.4776 -7.0448 -3.6461 29.4177
#
#
#
# Elastic Compliance Matrix: (Units=1/GPa)
#
#
# Indices 1 2 3 4 5 6 
#
# 1 0.020298 0.000833 -0.000294 -0.002815 0.007032 -0.012616
# 2 0.000833 0.007963 -0.000596 -0.000394 0.002579 -0.002677
# 3 -0.000294 -0.000596 0.007291 0.002393 0.004864 -0.001290
# 4 -0.002815 -0.000394 0.002393 0.029588 -0.001798 0.007813
# 5 0.007032 0.002579 0.004864 -0.001798 0.031025 -0.003714
# 6 -0.012616 -0.002677 -0.001290 0.007813 -0.003714 0.044651
#
#
# Mechanical properties :
#
#
# Convention : Reuss Voigt Hill
#
# Bulk Modulus (GPa) = 28.21800 51.56973 39.89386
# Shear Modulus (GPa) = 32.73483 43.19897 37.96690
#
# Velocity S-wave (km/s) = 3.56588 4.09637 3.84030
# Velocity P-wave (km/s) = 5.28347 6.51194 5.92960
#
# Compressibility (1/GPa) = 0.03543838
#
# Stress axis : x y z
#
# Youngs Moduli (GPa) = 49.26581 125.57444 137.16284
#
# Poissons Ratio (x) = -0.10463 0.04033
# Poissons Ratio (y) = -0.04105 0.08176
# Poissons Ratio (z) = 0.01448 0.07485
#
# Static dielectric constant tensor:
#      x y z
#    x 3.678830 -2.190940 -0.003110 
#    y -2.190940 0.460300 0.233380 
#    z -0.003110 0.233380 4.917080 
# 
# 
# High freq. dielectric constant tensor:
#      x y z
#    x 1.999870 -0.006030 -0.015290 
#    y -0.006030 2.048660 -0.010630 
#    z -0.015290 -0.010630 2.035480 
# 
# From -- ./inp_files/11451.got.cif
#   From: 2010.06.25/outbox.cif.g09.slc.cpg/sg2_6_cif.got.tgz:11451.got - 2010.06.27 13:26:56.
