data_PCOD8015521
_publ_section_title
;
Structure prediction by ZEFSAII (Michael W. Deem and Ramdas Pophale) SiO2 
 PCOD8015521
Probable space group: P -1
;
_chemical_formula_sum "Si O2"
_cell_formula_units_Z 16
_cell_length_a 11.064048
_cell_length_b 21.936959
_cell_length_c 8.540207
_cell_angle_alpha 129.272085
_cell_angle_beta 39.929637
_cell_angle_gamma 145.792239
_cell_volume 747.954137
_symmetry_space_group_name_H-M "P -1"
_symmetry_group_IT_number 2
_symmetry_cell_setting 'triclinic'
loop_
_space_group_symop_operation_xyz
x,y,z
-x,-y,-z
loop_
_atom_site_type_symbol
_atom_site_label
_atom_site_fract_x
_atom_site_fract_y
_atom_site_fract_z
Si Si1 0.788832 0.102243 0.695013
Si Si2 0.412269 0.595329 0.143532
Si Si3 0.875301 0.975194 0.249248
Si Si4 0.698398 0.954892 0.813145
Si Si5 0.145698 0.367450 0.118365
Si Si6 0.556903 0.224609 0.481965
Si Si7 0.744961 0.647741 0.356945
Si Si8 0.254710 0.529345 0.847928
O O1 0.787352 0.040232 0.453745
O O2 0.028435 0.227042 0.627791
O O3 0.802428 0.057820 0.773052
O O4 0.529068 0.079165 0.904934
O O5 0.206712 0.478127 0.242513
O O6 0.417788 0.674160 0.375485
O O7 0.696112 0.634930 0.910366
O O8 0.331174 0.589298 0.036312
O O9 0.069216 0.010424 0.256296
O O10 0.615138 0.848004 0.314131
O O11 0.000000 0.000000 0.000000
O O12 0.587143 0.850159 0.650412
O O13 0.839819 0.264979 0.273479
O O14 0.271872 0.367629 0.836638
O O15 0.480575 0.608290 0.624548
O O16 0.807865 0.581301 0.262374
O O17 0.000000 0.500000 0.000000
#
# Coordination Sequence:
#
# PCOD8015521 Si02
#       8
#     2   2   2   2   2   2   2   2
#     4  10  21  42  70  92 126 168 218 269 318 376
#     4  10  24  40  65  97 134 167 210 274 318 384
#     4  11  27  44  62 102 134 167 217 267 331 396
#     4  10  23  43  69  99 125 169 222 268 325 385
#     4  10  22  42  65 100 127 166 224 265 322 377
#     4  11  22  40  66  96 130 173 218 266 323 377
#     4  10  22  40  68  96 123 175 217 261 322 384
#     4  10  24  45  63  95 138 173 214 260 325 396
#
# _framework density 21.391684999999999
#
# number of rings (size 3 to 8) (size 9 to 14) (size 15 to 20)
#    0.000    1.750    1.250    1.875    5.250    7.500 
#    2.250    0.000    0.000    0.000    0.000    0.000 
#    0.000    0.000    0.000    0.000    0.000    0.000 
#
# Total GULP energy -198376.705054 kJ/mol
# GULP energy per Si atom -12398.544066 kJ/mol
# Density = 2.134300 g / cm^3
# Si number density = 21.391685 Si / 1000 Ang^3
#
#
#
# Elastic Constant Matrix: (Units=GPa)
#
#
# Indices 1 2 3 4 5 6 
#
# 1 87.6695 36.9492 47.4357 -13.3053 -12.8737 19.0406
# 2 36.9492 126.3679 58.3415 -12.7138 -10.3251 6.4200
# 3 47.4357 58.3415 149.3176 -16.6656 -13.6941 3.2473
# 4 -13.3053 -12.7138 -16.6656 44.9972 1.8232 -8.1568
# 5 -12.8737 -10.3251 -13.6941 1.8232 32.0394 -4.6520
# 6 19.0406 6.4200 3.2473 -8.1568 -4.6520 21.8635
#
#
#
# Elastic Compliance Matrix: (Units=1/GPa)
#
#
# Indices 1 2 3 4 5 6 
#
# 1 0.018155 -0.002385 -0.004231 0.000533 0.002697 -0.013710
# 2 -0.002385 0.010182 -0.003017 0.001039 0.000994 0.000134
# 3 -0.004231 -0.003017 0.009540 0.002143 0.001917 0.004361
# 4 0.000533 0.001039 0.002143 0.024956 0.001278 0.008495
# 5 0.002697 0.000994 0.001917 0.001278 0.034059 0.004798
# 6 -0.013710 0.000134 0.004361 0.008495 0.004798 0.061181
#
#
# Mechanical properties :
#
#
# Convention : Reuss Voigt Hill
#
# Bulk Modulus (GPa) = 53.72554 72.08977 62.90766
# Shear Modulus (GPa) = 27.24159 34.48859 30.86509
#
# Velocity S-wave (km/s) = 3.57244 4.01963 3.80261
# Velocity P-wave (km/s) = 6.49508 7.43749 6.98221
#
# Compressibility (1/GPa) = 0.01861312
#
# Stress axis : x y z
#
# Youngs Moduli (GPa) = 55.08049 98.20941 104.82184
#
# Poissons Ratio (x) = 0.23419 0.44349
# Poissons Ratio (y) = 0.13135 0.31622
# Poissons Ratio (z) = 0.23304 0.29627
#
# Static dielectric constant tensor:
#      x y z
#    x 3.609750 -0.004030 -0.096340 
#    y -0.004030 4.062040 0.014620 
#    z -0.096340 0.014620 4.160580 
# 
# 
# High freq. dielectric constant tensor:
#      x y z
#    x 1.814060 0.002900 -0.016420 
#    y 0.002900 1.849980 -0.001120 
#    z -0.016420 -0.001120 1.854000 
# 
# From -- ./inp_files/284901.got.cif
#   From: 2010.06.25/outbox.cif.g09.slc.cpg/sg2_143_cif.got.tgz:284901.got - 2010.06.27 13:26:56.
