data_PCOD8015558
_publ_section_title
;
Structure prediction by ZEFSAII (Michael W. Deem and Ramdas Pophale) SiO2 
 PCOD8015558
Probable space group: P -1
;
_chemical_formula_sum "Si O2"
_cell_formula_units_Z 12
_cell_length_a 15.413467
_cell_length_b 8.654618
_cell_length_c 9.101697
_cell_angle_alpha 49.905260
_cell_angle_beta 74.727540
_cell_angle_gamma 39.100051
_cell_volume 510.627747
_symmetry_space_group_name_H-M "P -1"
_symmetry_group_IT_number 2
_symmetry_cell_setting 'triclinic'
loop_
_space_group_symop_operation_xyz
x,y,z
-x,-y,-z
loop_
_atom_site_type_symbol
_atom_site_label
_atom_site_fract_x
_atom_site_fract_y
_atom_site_fract_z
Si Si1 0.267832 0.708247 0.318476
Si Si2 0.964304 0.830893 0.620656
Si Si3 0.487391 0.019412 0.820006
Si Si4 0.173500 0.142956 0.583612
Si Si5 0.675377 0.717913 0.659959
Si Si6 0.714452 0.991280 0.087750
O O1 0.385445 0.398523 0.576749
O O2 0.214597 0.643833 0.256076
O O3 0.111563 0.076949 0.243435
O O4 0.348630 0.749238 0.173772
O O5 0.835066 0.016787 0.437155
O O6 0.119646 0.412129 0.787362
O O7 0.000000 0.000000 0.500000
O O8 0.405884 0.961732 0.847153
O O9 0.657157 0.714829 0.846650
O O10 0.500000 0.000000 0.000000
O O11 0.252609 0.194803 0.445719
O O12 0.272009 0.901174 0.834006
O O13 0.000000 0.500000 0.500000
O O14 0.500000 0.000000 0.500000
#
# Coordination Sequence:
#
# PCOD8015558 Si02
#       6
#     2   2   2   2   2   2
#     4  11  23  43  68 101 138 180 232 288 347 407
#     4  11  22  44  72 101 143 179 235 294 344 410
#     4  11  25  45  69  99 142 184 236 285 343 416
#     4  10  21  42  71 101 136 184 232 282 344 415
#     4  10  21  46  68  96 143 181 229 283 345 421
#     4  11  23  44  69 102 140 184 230 288 348 413
#
# _framework density 23.500485000000001
#
# number of rings (size 3 to 8) (size 9 to 14) (size 15 to 20)
#    0.000    1.333    5.000    1.500    2.333    2.667 
#    3.000    4.167    0.000    0.000    0.000    0.000 
#    0.000    0.000    0.000    0.000    0.000    0.000 
#
# Total GULP energy -148689.473195 kJ/mol
# GULP energy per Si atom -12390.789433 kJ/mol
# Density = 2.344700 g / cm^3
# Si number density = 23.500485 Si / 1000 Ang^3
#
#
#
# Elastic Constant Matrix: (Units=GPa)
#
#
# Indices 1 2 3 4 5 6 
#
# 1 148.8885 53.8309 57.3985 18.0636 -4.6069 3.6583
# 2 53.8309 131.5651 40.2335 49.0745 -3.0641 10.1633
# 3 57.3985 40.2335 146.7801 35.9945 -16.3439 3.2212
# 4 18.0636 49.0745 35.9945 40.0074 4.7560 -3.7127
# 5 -4.6069 -3.0641 -16.3439 4.7560 33.2845 12.0342
# 6 3.6583 10.1633 3.2212 -3.7127 12.0342 42.6917
#
#
#
# Elastic Compliance Matrix: (Units=1/GPa)
#
#
# Indices 1 2 3 4 5 6 
#
# 1 0.009255 -0.005135 -0.004151 0.006398 -0.002911 0.002120
# 2 -0.005135 0.020274 0.005298 -0.029724 0.011880 -0.010720
# 3 -0.004151 0.005298 0.012808 -0.018088 0.011171 -0.006594
# 4 0.006398 -0.029724 -0.018088 0.080690 -0.030791 0.023590
# 5 -0.002911 0.011880 0.011171 -0.030791 0.047685 -0.019541
# 6 0.002120 -0.010720 -0.006594 0.023590 -0.019541 0.033852
#
#
# Mechanical properties :
#
#
# Convention : Reuss Voigt Hill
#
# Bulk Modulus (GPa) = 29.10330 81.12885 55.11607
# Shear Modulus (GPa) = 22.32201 41.58143 31.95172
#
# Velocity S-wave (km/s) = 3.08531 4.21097 3.69130
# Velocity P-wave (km/s) = 5.01031 7.63153 6.45536
#
# Compressibility (1/GPa) = 0.03436037
#
# Stress axis : x y z
#
# Youngs Moduli (GPa) = 108.04862 49.32528 78.07434
#
# Poissons Ratio (x) = 0.25330 0.32410
# Poissons Ratio (y) = 0.55487 -0.41365
# Poissons Ratio (z) = 0.44853 -0.26133
#
# Static dielectric constant tensor:
#      x y z
#    x 4.645000 0.363480 0.252790 
#    y 0.363480 5.201040 0.610400 
#    z 0.252790 0.610400 4.361100 
# 
# 
# High freq. dielectric constant tensor:
#      x y z
#    x 1.925630 0.007120 -0.014060 
#    y 0.007120 1.951260 0.033920 
#    z -0.014060 0.033920 1.911580 
# 
# From -- ./inp_files/189709.got.cif
#   From: 2010.06.25/outbox.cif.g09.slc.cpg/sg2_95_cif.got.tgz:189709.got - 2010.06.27 13:26:56.
