data_PCOD8015423
_publ_section_title
;
Structure prediction by ZEFSAII (Michael W. Deem and Ramdas Pophale) SiO2 
 PCOD8015423
Probable space group: P -1
;
_chemical_formula_sum "Si O2"
_cell_formula_units_Z 16
_cell_length_a 11.629005
_cell_length_b 19.439732
_cell_length_c 8.356586
_cell_angle_alpha 139.262513
_cell_angle_beta 70.534193
_cell_angle_gamma 137.495376
_cell_volume 715.952879
_symmetry_space_group_name_H-M "P -1"
_symmetry_group_IT_number 2
_symmetry_cell_setting 'triclinic'
loop_
_space_group_symop_operation_xyz
x,y,z
-x,-y,-z
loop_
_atom_site_type_symbol
_atom_site_label
_atom_site_fract_x
_atom_site_fract_y
_atom_site_fract_z
Si Si1 0.547779 0.766010 0.866945
Si Si2 0.630246 0.159479 0.340924
Si Si3 0.008898 0.208491 0.916762
Si Si4 0.168527 0.193114 0.318189
Si Si5 0.330118 0.303977 0.780968
Si Si6 0.614616 0.868907 0.378604
Si Si7 0.122993 0.863817 0.788833
Si Si8 0.175489 0.544920 0.445699
O O1 0.545054 0.793166 0.100964
O O2 0.688251 0.939632 0.007265
O O3 0.628636 0.701505 0.682797
O O4 0.321312 0.618927 0.656188
O O5 0.505435 0.110545 0.466768
O O6 0.820628 0.220107 0.413891
O O7 0.700894 0.315655 0.504395
O O8 0.500000 0.000000 0.000000
O O9 0.080109 0.372661 0.121600
O O10 0.911265 0.137534 0.010899
O O11 0.196246 0.257612 0.906012
O O12 0.844961 0.057906 0.600614
O O13 0.191004 0.195439 0.500589
O O14 0.082951 0.250690 0.411853
O O15 0.000000 0.000000 0.000000
O O16 0.422790 0.256762 0.709930
O O17 0.500000 0.500000 0.000000
O O18 0.000000 0.500000 0.500000
#
# Coordination Sequence:
#
# PCOD8015423 Si02
#       8
#     2   2   2   2   2   2   2   2
#     4  11  24  44  70 101 139 180 232 288 342 410
#     4  12  22  46  70  99 139 188 229 279 349 412
#     4  12  23  42  73 103 134 184 230 283 343 412
#     4  10  21  42  68  99 132 176 226 281 342 402
#     4  12  26  46  71 103 141 179 229 290 346 412
#     4  12  25  45  72 104 135 182 232 285 345 411
#     4  11  22  41  70  99 136 181 229 280 341 406
#     4  12  24  45  69 103 138 184 230 279 347 412
#
# _framework density 22.347840000000001
#
# number of rings (size 3 to 8) (size 9 to 14) (size 15 to 20)
#    0.000    0.500    3.750    6.375    0.000    1.500 
#    2.250    4.375    0.000    0.000    0.000    0.000 
#    0.000    0.000    0.000    0.000    0.000    0.000 
#
# Total GULP energy -198409.507706 kJ/mol
# GULP energy per Si atom -12400.594232 kJ/mol
# Density = 2.229697 g / cm^3
# Si number density = 22.347840 Si / 1000 Ang^3
#
#
#
# Elastic Constant Matrix: (Units=GPa)
#
#
# Indices 1 2 3 4 5 6 
#
# 1 168.8376 51.8147 52.7127 -10.3737 3.3381 23.6731
# 2 51.8147 105.5186 39.3639 -8.9772 -2.8340 16.9406
# 3 52.7127 39.3639 92.7881 11.7516 -2.6115 -6.7605
# 4 -10.3737 -8.9772 11.7516 34.6744 3.9558 -11.5678
# 5 3.3381 -2.8340 -2.6115 3.9558 35.3837 2.7392
# 6 23.6731 16.9406 -6.7605 -11.5678 2.7392 50.0376
#
#
#
# Elastic Compliance Matrix: (Units=1/GPa)
#
#
# Indices 1 2 3 4 5 6 
#
# 1 0.008628 -0.001680 -0.004831 0.002787 -0.001350 -0.003448
# 2 -0.001680 0.013177 -0.005313 0.003415 0.000721 -0.003634
# 3 -0.004831 -0.005313 0.017082 -0.007269 0.001746 0.004616
# 4 0.002787 0.003415 -0.007269 0.035226 -0.004848 0.004952
# 5 -0.001350 0.000721 0.001746 -0.004848 0.029280 -0.002093
# 6 -0.003448 -0.003634 0.004616 0.004952 -0.002093 0.024730
#
#
# Mechanical properties :
#
#
# Convention : Reuss Voigt Hill
#
# Bulk Modulus (GPa) = 65.62002 72.76965 69.19483
# Shear Modulus (GPa) = 31.87750 38.90267 35.39008
#
# Velocity S-wave (km/s) = 3.78090 4.17679 3.98377
# Velocity P-wave (km/s) = 6.96326 7.47621 7.22429
#
# Compressibility (1/GPa) = 0.01523925
#
# Stress axis : x y z
#
# Youngs Moduli (GPa) = 115.90001 75.88784 58.54221
#
# Poissons Ratio (x) = 0.12751 0.28282
# Poissons Ratio (y) = 0.19474 0.31102
# Poissons Ratio (z) = 0.55992 0.40317
#
# Static dielectric constant tensor:
#      x y z
#    x 4.931860 0.362240 -0.124270 
#    y 0.362240 3.934850 0.108050 
#    z -0.124270 0.108050 3.981460 
# 
# 
# High freq. dielectric constant tensor:
#      x y z
#    x 1.896830 0.017720 -0.004220 
#    y 0.017720 1.882590 0.000290 
#    z -0.004220 0.000290 1.865850 
# 
# From -- ./inp_files/283362.got.cif
#   From: 2010.06.25/outbox.cif.g09.slc.cpg/sg2_142_cif.got.tgz:283362.got - 2010.06.27 13:26:56.
