data_PCOD8015782
_publ_section_title
;
Structure prediction by ZEFSAII (Michael W. Deem and Ramdas Pophale) SiO2 
 PCOD8015782
Probable space group: P -1
;
_chemical_formula_sum "Si O2"
_cell_formula_units_Z 16
_cell_length_a 11.483247
_cell_length_b 10.687691
_cell_length_c 6.927989
_cell_angle_alpha 75.779657
_cell_angle_beta 58.309661
_cell_angle_gamma 76.909320
_cell_volume 696.412158
_symmetry_space_group_name_H-M "P -1"
_symmetry_group_IT_number 2
_symmetry_cell_setting 'triclinic'
loop_
_space_group_symop_operation_xyz
x,y,z
-x,-y,-z
loop_
_atom_site_type_symbol
_atom_site_label
_atom_site_fract_x
_atom_site_fract_y
_atom_site_fract_z
Si Si1 0.386799 0.835791 0.786769
Si Si2 0.825705 0.700830 0.233382
Si Si3 0.847372 0.490775 0.589581
Si Si4 0.225486 0.709943 0.561452
Si Si5 0.575410 0.881676 0.270208
Si Si6 0.077881 0.857664 0.941617
Si Si7 0.283231 0.488573 0.896463
Si Si8 0.509772 0.282192 0.894136
O O1 0.446344 0.828967 0.519281
O O2 0.221023 0.836855 0.945352
O O3 0.434597 0.965038 0.790050
O O4 0.466607 0.721488 0.893934
O O5 0.783740 0.622295 0.487102
O O6 0.718330 0.829849 0.270908
O O7 0.812481 0.608345 0.090902
O O8 0.978672 0.744924 0.110986
O O9 0.857296 0.371106 0.480007
O O10 0.000000 0.500000 0.500000
O O11 0.767221 0.470585 0.861965
O O12 0.124548 0.833952 0.685343
O O13 0.287610 0.621617 0.723930
O O14 0.343867 0.759197 0.314464
O O15 0.581005 0.826957 0.067424
O O16 0.000000 0.000000 0.000000
O O17 0.439298 0.420970 0.823523
#
# Coordination Sequence:
#
# PCOD8015782 Si02
#       8
#     2   2   2   2   2   2   2   2
#     4  11  23  40  68  94 130 178 216 269 326 385
#     4  10  22  41  67  97 132 173 219 263 328 394
#     4  11  23  40  67  95 131 176 218 269 325 392
#     4  11  25  42  65  98 136 170 219 273 329 388
#     4  10  21  43  65  92 133 172 218 269 324 386
#     4  12  24  45  67  97 134 179 216 270 331 386
#     4  10  23  44  68  97 133 174 216 272 330 392
#     4  11  23  40  68 101 129 168 221 273 327 391
#
# _framework density 22.974900999999999
#
# number of rings (size 3 to 8) (size 9 to 14) (size 15 to 20)
#    0.000    1.250    2.500    3.000    3.500    2.500 
#    0.000    1.875    0.000    0.000    0.000    0.000 
#    0.000    0.000    0.000    0.000    0.000    0.000 
#
# Total GULP energy -198261.065247 kJ/mol
# GULP energy per Si atom -12391.316578 kJ/mol
# Density = 2.292261 g / cm^3
# Si number density = 22.974901 Si / 1000 Ang^3
#
#
#
# Elastic Constant Matrix: (Units=GPa)
#
#
# Indices 1 2 3 4 5 6 
#
# 1 113.0696 15.5736 25.7872 -5.2777 4.2225 -7.4035
# 2 15.5736 80.1271 15.5505 10.8667 4.7684 -1.8549
# 3 25.7872 15.5505 81.4738 8.2157 7.5984 -1.7980
# 4 -5.2777 10.8667 8.2157 33.4683 -0.0797 -7.7186
# 5 4.2225 4.7684 7.5984 -0.0797 43.9708 -0.0539
# 6 -7.4035 -1.8549 -1.7980 -7.7186 -0.0539 18.1879
#
#
#
# Elastic Compliance Matrix: (Units=1/GPa)
#
#
# Indices 1 2 3 4 5 6 
#
# 1 0.010409 -0.001838 -0.003235 0.004314 -0.000227 0.005560
# 2 -0.001838 0.013803 -0.001507 -0.004752 -0.001070 -0.001509
# 3 -0.003235 -0.001507 0.014124 -0.003892 -0.001976 -0.001732
# 4 0.004314 -0.004752 -0.003892 0.036874 0.000861 0.016538
# 5 -0.000227 -0.001070 -0.001976 0.000861 0.023223 0.000037
# 6 0.005560 -0.001509 -0.001732 0.016538 0.000037 0.063938
#
#
# Mechanical properties :
#
#
# Convention : Reuss Voigt Hill
#
# Bulk Modulus (GPa) = 39.72053 43.16590 41.44321
# Shear Modulus (GPa) = 27.18530 33.64269 30.41400
#
# Velocity S-wave (km/s) = 3.44359 3.83080 3.64234
# Velocity P-wave (km/s) = 5.75650 6.19643 5.98051
#
# Compressibility (1/GPa) = 0.02517590
#
# Stress axis : x y z
#
# Youngs Moduli (GPa) = 96.07148 72.44719 70.80202
#
# Poissons Ratio (x) = 0.13317 0.22904
# Poissons Ratio (y) = 0.17659 0.10670
# Poissons Ratio (z) = 0.31078 0.10918
#
# Static dielectric constant tensor:
#      x y z
#    x 4.349600 0.130630 0.146520 
#    y 0.130630 3.706800 0.003700 
#    z 0.146520 0.003700 3.888230 
# 
# 
# High freq. dielectric constant tensor:
#      x y z
#    x 1.921240 0.015350 0.004450 
#    y 0.015350 1.907360 0.011440 
#    z 0.004450 0.011440 1.894940 
# 
# From -- ./inp_files/69575.got.cif
#   From: 2010.06.25/outbox.cif.g09.slc.cpg/sg2_35_cif.got.tgz:69575.got - 2010.06.27 13:26:56.
