data_PCOD8015000
_publ_section_title
;
Structure prediction by ZEFSAII (Michael W. Deem and Ramdas Pophale) SiO2 
 PCOD8015000
Probable space group: P -1
;
_chemical_formula_sum "Si O2"
_cell_formula_units_Z 16
_cell_length_a 9.065951
_cell_length_b 23.444498
_cell_length_c 11.677694
_cell_angle_alpha 152.927695
_cell_angle_beta 39.072197
_cell_angle_gamma 135.415470
_cell_volume 710.101135
_symmetry_space_group_name_H-M "P -1"
_symmetry_group_IT_number 2
_symmetry_cell_setting 'triclinic'
loop_
_space_group_symop_operation_xyz
x,y,z
-x,-y,-z
loop_
_atom_site_type_symbol
_atom_site_label
_atom_site_fract_x
_atom_site_fract_y
_atom_site_fract_z
Si Si1 0.265064 0.468781 0.930337
Si Si2 0.566684 0.841098 0.472401
Si Si3 0.227726 0.026146 0.219651
Si Si4 0.690311 0.360653 0.579816
Si Si5 0.761169 0.433592 0.117592
Si Si6 0.666779 0.701922 0.750131
Si Si7 0.091767 0.223601 0.032346
Si Si8 0.765006 0.943338 0.981110
O O1 0.483181 0.381900 0.652180
O O2 0.312437 0.570084 0.979333
O O3 0.242822 0.523418 0.169326
O O4 0.022632 0.389180 0.900847
O O5 0.783703 0.881698 0.499942
O O6 0.372426 0.757021 0.509348
O O7 0.436459 0.958116 0.709135
O O8 0.682980 0.761427 0.159958
O O9 0.162436 0.086094 0.245537
O O10 0.500000 0.000000 0.000000
O O11 0.048241 0.908358 0.142831
O O12 0.913525 0.333269 0.317129
O O13 0.769155 0.577903 0.414666
O O14 0.592390 0.336520 0.115721
O O15 0.829535 0.763041 0.860349
O O16 0.656028 0.810848 0.858098
O O17 0.000000 0.000000 0.000000
#
# Coordination Sequence:
#
# PCOD8015000 Si02
#       8
#     2   2   2   2   2   2   2   2
#     4  10  23  44  70  96 131 183 226 281 350 398
#     4  11  25  42  67 103 138 177 225 280 339 407
#     4  10  21  42  64  96 134 175 219 272 334 398
#     4  11  22  45  70 100 133 181 226 278 349 404
#     4  10  23  45  67 100 135 172 231 287 331 400
#     4  11  23  42  69 103 134 178 228 283 335 404
#     4  12  22  44  69  95 144 177 221 283 338 405
#     4  11  22  44  72  97 136 186 223 277 343 409
#
# _framework density 22.532001999999999
#
# number of rings (size 3 to 8) (size 9 to 14) (size 15 to 20)
#    0.000    1.250    5.000    1.125    1.750    0.500 
#   11.250    1.875    0.000    0.000    0.000    0.000 
#    0.000    0.000    0.000    0.000    0.000    0.000 
#
# Total GULP energy -198325.715819 kJ/mol
# GULP energy per Si atom -12395.357239 kJ/mol
# Density = 2.248072 g / cm^3
# Si number density = 22.532002 Si / 1000 Ang^3
#
#
#
# Elastic Constant Matrix: (Units=GPa)
#
#
# Indices 1 2 3 4 5 6 
#
# 1 134.1237 28.2884 35.1174 -6.1756 -12.8040 -6.7080
# 2 28.2884 84.4307 13.5468 1.8869 -8.2841 -1.3066
# 3 35.1174 13.5468 93.0586 -17.4187 -14.5505 -4.5073
# 4 -6.1756 1.8869 -17.4187 31.6567 -2.1041 2.9341
# 5 -12.8040 -8.2841 -14.5505 -2.1041 29.9520 4.9196
# 6 -6.7080 -1.3066 -4.5073 2.9341 4.9196 29.4556
#
#
#
# Elastic Compliance Matrix: (Units=1/GPa)
#
#
# Indices 1 2 3 4 5 6 
#
# 1 0.008882 -0.002383 -0.002595 0.000451 0.001713 0.001189
# 2 -0.002383 0.013034 -0.000999 -0.001629 0.002035 -0.000295
# 3 -0.002595 -0.000999 0.014289 0.007848 0.006149 -0.000258
# 4 0.000451 -0.001629 0.007848 0.036870 0.006730 -0.003566
# 5 0.001713 0.002035 0.006149 0.006730 0.039091 -0.005778
# 6 0.001189 -0.000295 -0.000258 -0.003566 -0.005778 0.035488
#
#
# Mechanical properties :
#
#
# Convention : Reuss Voigt Hill
#
# Bulk Modulus (GPa) = 41.23648 51.72423 46.48036
# Shear Modulus (GPa) = 29.81671 33.85687 31.83679
#
# Velocity S-wave (km/s) = 3.64167 3.88056 3.76301
# Velocity P-wave (km/s) = 6.00195 6.56384 6.28918
#
# Compressibility (1/GPa) = 0.02425037
#
# Stress axis : x y z
#
# Youngs Moduli (GPa) = 112.59228 76.72088 69.98562
#
# Poissons Ratio (x) = 0.18282 0.18161
# Poissons Ratio (y) = 0.26830 0.06993
# Poissons Ratio (z) = 0.29217 0.07666
#
# Static dielectric constant tensor:
#      x y z
#    x 4.493810 -0.032740 0.271230 
#    y -0.032740 3.869910 -0.142610 
#    z 0.271230 -0.142610 4.148860 
# 
# 
# High freq. dielectric constant tensor:
#      x y z
#    x 1.905730 0.008740 0.009560 
#    y 0.008740 1.879070 -0.008740 
#    z 0.009560 -0.008740 1.876090 
# 
# From -- ./inp_files/406732.got.cif
#   From: 2010.06.25/outbox.cif.g09.slc.cpg/sg2_204_cif.got.tgz:406732.got - 2010.06.27 13:26:56.
