data_PCOD8015829
_publ_section_title
;
Structure prediction by ZEFSAII (Michael W. Deem and Ramdas Pophale) SiO2 
 PCOD8015829
Probable space group: P -1
;
_chemical_formula_sum "Si O2"
_cell_formula_units_Z 12
_cell_length_a 8.905995
_cell_length_b 13.432897
_cell_length_c 11.946362
_cell_angle_alpha 141.172299
_cell_angle_beta 114.491640
_cell_angle_gamma 95.308173
_cell_volume 558.900784
_symmetry_space_group_name_H-M "P -1"
_symmetry_group_IT_number 2
_symmetry_cell_setting 'triclinic'
loop_
_space_group_symop_operation_xyz
x,y,z
-x,-y,-z
loop_
_atom_site_type_symbol
_atom_site_label
_atom_site_fract_x
_atom_site_fract_y
_atom_site_fract_z
Si Si1 0.478941 0.298232 0.810541
Si Si2 0.142370 0.124858 0.377105
Si Si3 0.998767 0.525297 0.153617
Si Si4 0.816342 0.631143 0.782975
Si Si5 0.249125 0.014553 0.708119
Si Si6 0.390823 0.535607 0.657761
O O1 0.369936 0.189017 0.557002
O O2 0.291979 0.108883 0.679921
O O3 0.500000 0.500000 0.000000
O O4 0.732831 0.392314 0.990065
O O5 0.211612 0.333965 0.516603
O O6 0.981551 0.060196 0.377428
O O7 0.998278 0.905759 0.058871
O O8 0.055863 0.403196 0.127005
O O9 0.200465 0.792624 0.489891
O O10 0.000000 0.500000 0.000000
O O11 0.575481 0.524474 0.674591
O O12 0.755126 0.511839 0.539031
O O13 0.481014 0.218217 0.036118
#
# Coordination Sequence:
#
# PCOD8015829 Si02
#       6
#     2   2   2   2   2   2
#     4  12  23  40  66  93 125 168 208 253 318 377
#     4  11  21  40  68  91 124 171 213 253 309 381
#     4  12  26  41  62 100 130 160 207 267 316 367
#     4  10  24  40  64  95 131 161 213 263 308 371
#     4  11  23  40  65  93 125 168 210 255 314 378
#     4  10  21  43  66  92 122 175 212 251 315 375
#
# _framework density 21.470715999999999
#
# number of rings (size 3 to 8) (size 9 to 14) (size 15 to 20)
#    0.000    1.000    3.333    3.000    2.333    4.667 
#    0.000    3.333    0.000    0.000    0.000    0.000 
#    0.000    0.000    0.000    0.000    0.000    0.000 
#
# Total GULP energy -148807.416078 kJ/mol
# GULP energy per Si atom -12400.618007 kJ/mol
# Density = 2.142185 g / cm^3
# Si number density = 21.470716 Si / 1000 Ang^3
#
#
#
# Elastic Constant Matrix: (Units=GPa)
#
#
# Indices 1 2 3 4 5 6 
#
# 1 66.8973 38.8978 29.1830 -0.7129 4.5401 -0.5858
# 2 38.8978 114.9714 45.8929 -10.2089 8.3264 9.2034
# 3 29.1830 45.8929 149.9401 -2.0068 -14.8386 7.5323
# 4 -0.7129 -10.2089 -2.0068 45.1529 3.9405 2.1880
# 5 4.5401 8.3264 -14.8386 3.9405 33.8866 -0.9706
# 6 -0.5858 9.2034 7.5323 2.1880 -0.9706 31.7143
#
#
#
# Elastic Compliance Matrix: (Units=1/GPa)
#
#
# Indices 1 2 3 4 5 6 
#
# 1 0.019509 -0.005815 -0.002363 -0.001062 -0.002021 0.002621
# 2 -0.005815 0.012693 -0.002944 0.003171 -0.004096 -0.003436
# 3 -0.002363 -0.002944 0.008551 -0.000695 0.004836 -0.001024
# 4 -0.001062 0.003171 -0.000695 0.023262 -0.003718 -0.002493
# 5 -0.002021 -0.004096 0.004836 -0.003718 0.033374 0.001281
# 6 0.002621 -0.003436 -0.001024 -0.002493 0.001281 0.033032
#
#
# Mechanical properties :
#
#
# Convention : Reuss Voigt Hill
#
# Bulk Modulus (GPa) = 54.02468 62.19513 58.10991
# Shear Modulus (GPa) = 31.47939 36.67312 34.07625
#
# Velocity S-wave (km/s) = 3.83319 4.13734 3.98817
# Velocity P-wave (km/s) = 6.69386 7.20096 6.95204
#
# Compressibility (1/GPa) = 0.01851006
#
# Stress axis : x y z
#
# Youngs Moduli (GPa) = 51.25821 78.78090 116.94536
#
# Poissons Ratio (x) = 0.45810 0.27637
# Poissons Ratio (y) = 0.29806 0.34425
# Poissons Ratio (z) = 0.12113 0.23191
#
# Static dielectric constant tensor:
#      x y z
#    x 3.905080 -0.009510 0.256230 
#    y -0.009510 3.973850 -0.187950 
#    z 0.256230 -0.187950 4.731140 
# 
# 
# High freq. dielectric constant tensor:
#      x y z
#    x 1.820620 0.017210 0.001460 
#    y 0.017210 1.838760 -0.000760 
#    z 0.001460 -0.000760 1.868820 
# 
# From -- ./inp_files/21166.got.cif
#   From: 2010.06.25/outbox.cif.g09.slc.cpg/sg2_11_cif.got.tgz:21166.got - 2010.06.27 13:26:56.
