data_PCOD8015658
_publ_section_title
;
Structure prediction by ZEFSAII (Michael W. Deem and Ramdas Pophale) SiO2 
 PCOD8015658
Probable space group: P -1
;
_chemical_formula_sum "Si O2"
_cell_formula_units_Z 12
_cell_length_a 8.742035
_cell_length_b 10.140318
_cell_length_c 9.381647
_cell_angle_alpha 43.210582
_cell_angle_beta 92.500712
_cell_angle_gamma 110.695668
_cell_volume 502.079885
_symmetry_space_group_name_H-M "P -1"
_symmetry_group_IT_number 2
_symmetry_cell_setting 'triclinic'
loop_
_space_group_symop_operation_xyz
x,y,z
-x,-y,-z
loop_
_atom_site_type_symbol
_atom_site_label
_atom_site_fract_x
_atom_site_fract_y
_atom_site_fract_z
Si Si1 0.860345 0.462070 0.832345
Si Si2 0.577883 0.745783 0.744146
Si Si3 0.219710 0.216298 0.556412
Si Si4 0.173653 0.082494 0.146830
Si Si5 0.784433 0.463782 0.152507
Si Si6 0.321657 0.992299 0.950942
O O1 0.779666 0.550111 0.635872
O O2 0.069607 0.580530 0.731822
O O3 0.823359 0.522814 0.939870
O O4 0.778556 0.204406 0.008783
O O5 0.713099 0.814074 0.568333
O O6 0.685141 0.919339 0.734385
O O7 0.403948 0.753761 0.675116
O O8 0.500000 0.500000 0.000000
O O9 0.343976 0.205807 0.694905
O O10 0.021732 0.035209 0.712458
O O11 0.220422 0.334454 0.924588
O O12 0.196568 0.967722 0.097150
O O13 0.500000 0.000000 0.000000
#
# Coordination Sequence:
#
# PCOD8015658 Si02
#       6
#     2   2   2   2   2   2
#     4  11  24  45  73 105 142 184 240 287 355 419
#     4  10  21  42  74 107 138 184 240 291 344 415
#     4  12  25  45  78 102 142 195 233 290 364 417
#     4  11  23  47  72 104 148 186 232 297 352 417
#     4  10  22  44  74 103 147 180 232 304 337 415
#     4  12  29  48  70 107 149 182 239 302 352 426
#
# _framework density 23.900576999999998
#
# number of rings (size 3 to 8) (size 9 to 14) (size 15 to 20)
#    0.000    1.000    5.000    2.000    2.333    2.667 
#    0.000    2.500    0.000    0.000    0.000    0.000 
#    0.000    0.000    0.000    0.000    0.000    0.000 
#
# Total GULP energy -148690.506257 kJ/mol
# GULP energy per Si atom -12390.875521 kJ/mol
# Density = 2.384618 g / cm^3
# Si number density = 23.900577 Si / 1000 Ang^3
#
#
#
# Elastic Constant Matrix: (Units=GPa)
#
#
# Indices 1 2 3 4 5 6 
#
# 1 168.8195 27.0257 53.9104 10.2065 19.0437 5.7109
# 2 27.0257 78.9668 20.6708 11.5463 2.8297 -7.5670
# 3 53.9104 20.6708 86.5202 20.9874 10.1558 -1.4299
# 4 10.2065 11.5463 20.9874 22.1432 0.2046 -2.6262
# 5 19.0437 2.8297 10.1558 0.2046 41.6338 3.1395
# 6 5.7109 -7.5670 -1.4299 -2.6262 3.1395 29.1859
#
#
#
# Elastic Compliance Matrix: (Units=1/GPa)
#
#
# Indices 1 2 3 4 5 6 
#
# 1 0.007918 -0.001814 -0.004628 0.001481 -0.002235 -0.001873
# 2 -0.001814 0.014694 -0.000972 -0.005471 -0.000180 0.003644
# 3 -0.004628 -0.000972 0.018561 -0.014875 -0.002307 0.000473
# 4 0.001481 -0.005471 -0.014875 0.061737 0.002807 0.002816
# 5 -0.002235 -0.000180 -0.002307 0.002807 0.025772 -0.002242
# 6 -0.001873 0.003644 0.000473 0.002816 -0.002242 0.036092
#
#
# Mechanical properties :
#
#
# Convention : Reuss Voigt Hill
#
# Bulk Modulus (GPa) = 37.95816 59.72446 48.84131
# Shear Modulus (GPa) = 26.54166 34.10591 30.32379
#
# Velocity S-wave (km/s) = 3.33604 3.78165 3.56581
# Velocity P-wave (km/s) = 5.54572 6.64160 6.11824
#
# Compressibility (1/GPa) = 0.02634479
#
# Stress axis : x y z
#
# Youngs Moduli (GPa) = 126.29811 68.05286 53.87747
#
# Poissons Ratio (x) = 0.12347 0.24934
# Poissons Ratio (y) = 0.22914 0.05236
# Poissons Ratio (z) = 0.58451 0.06613
#
# Static dielectric constant tensor:
#      x y z
#    x 5.191750 0.150960 0.133400 
#    y 0.150960 4.045730 0.016340 
#    z 0.133400 0.016340 4.101250 
# 
# 
# High freq. dielectric constant tensor:
#      x y z
#    x 1.982000 0.001510 0.003020 
#    y 0.001510 1.928940 0.004790 
#    z 0.003020 0.004790 1.924880 
# 
# From -- ./inp_files/148654.got.cif
#   From: 2010.06.25/outbox.cif.g09.slc.cpg/sg2_75_cif.got.tgz:148654.got - 2010.06.27 13:26:56.
