data_PCOD8015710
_publ_section_title
;
Structure prediction by ZEFSAII (Michael W. Deem and Ramdas Pophale) SiO2 
 PCOD8015710
Probable space group: P -1
;
_chemical_formula_sum "Si O2"
_cell_formula_units_Z 16
_cell_length_a 23.580138
_cell_length_b 9.098022
_cell_length_c 6.693021
_cell_angle_alpha 92.563773
_cell_angle_beta 62.407898
_cell_angle_gamma 136.166355
_cell_volume 777.240906
_symmetry_space_group_name_H-M "P -1"
_symmetry_group_IT_number 2
_symmetry_cell_setting 'triclinic'
loop_
_space_group_symop_operation_xyz
x,y,z
-x,-y,-z
loop_
_atom_site_type_symbol
_atom_site_label
_atom_site_fract_x
_atom_site_fract_y
_atom_site_fract_z
Si Si1 0.451010 0.042924 0.456862
Si Si2 0.291388 0.672589 0.355246
Si Si3 0.726705 0.185087 0.994969
Si Si4 0.843667 0.887359 0.005606
Si Si5 0.058536 0.742715 0.823233
Si Si6 0.665391 0.528620 0.000275
Si Si7 0.187745 0.962103 0.254970
Si Si8 0.124794 0.366706 0.946082
O O1 0.542505 0.311132 0.232766
O O2 0.500000 0.000000 0.500000
O O3 0.386795 0.863175 0.363886
O O4 0.381774 0.015541 0.717360
O O5 0.290992 0.808005 0.208687
O O6 0.182838 0.471630 0.643136
O O7 0.304949 0.548577 0.201548
O O8 0.779570 0.122162 0.927299
O O9 0.800953 0.441022 0.987916
O O10 0.885244 0.058100 0.757688
O O11 0.849494 0.015330 0.182840
O O12 0.724895 0.620265 0.125729
O O13 0.910253 0.863005 0.949208
O O14 0.117642 0.782634 0.540885
O O15 0.000000 0.500000 0.000000
O O16 0.977800 0.722983 0.900596
O O17 0.705436 0.753627 0.845282
#
# Coordination Sequence:
#
# PCOD8015710 Si02
#       8
#     2   2   2   2   2   2   2   2
#     4  11  22  39  69 100 124 165 218 259 313 377
#     4  11  21  40  67  97 125 166 215 258 317 374
#     4  11  22  41  62  98 129 169 210 261 317 385
#     4  10  23  44  62  94 128 165 214 271 314 368
#     4  12  25  43  66  94 128 173 215 263 324 383
#     4  10  21  43  63  92 132 166 204 268 314 371
#     4  10  25  42  63  90 132 171 207 257 331 376
#     4  11  23  39  69  94 129 166 219 268 311 370
#
# _framework density 20.585636999999998
#
# number of rings (size 3 to 8) (size 9 to 14) (size 15 to 20)
#    0.750    0.500    2.500    3.750    0.000    5.000 
#    0.000    0.625    0.000    0.000    0.000    0.000 
#    0.000    0.000    0.000    0.000    0.000    0.000 
#
# Total GULP energy -198283.163540 kJ/mol
# GULP energy per Si atom -12392.697721 kJ/mol
# Density = 2.053878 g / cm^3
# Si number density = 20.585637 Si / 1000 Ang^3
#
#
#
# Elastic Constant Matrix: (Units=GPa)
#
#
# Indices 1 2 3 4 5 6 
#
# 1 89.0756 42.6777 53.4672 8.3431 5.2620 -14.5920
# 2 42.6777 84.2795 49.8503 6.2660 -5.1416 -12.5059
# 3 53.4672 49.8503 140.7827 0.7087 -8.7738 -7.9457
# 4 8.3431 6.2660 0.7087 27.9886 -2.9764 5.8351
# 5 5.2620 -5.1416 -8.7738 -2.9764 32.1532 1.5192
# 6 -14.5920 -12.5059 -7.9457 5.8351 1.5192 43.1538
#
#
#
# Elastic Compliance Matrix: (Units=1/GPa)
#
#
# Indices 1 2 3 4 5 6 
#
# 1 0.018746 -0.005651 -0.005205 -0.005836 -0.006157 0.004749
# 2 -0.005651 0.017727 -0.003814 -0.002517 0.002354 0.002781
# 3 -0.005205 -0.003814 0.010551 0.002801 0.003447 -0.001423
# 4 -0.005836 -0.002517 0.002801 0.040163 0.005404 -0.007808
# 5 -0.006157 0.002354 0.003447 0.005404 0.034053 -0.002694
# 6 0.004749 0.002781 -0.001423 -0.007808 -0.002694 0.026473
#
#
# Mechanical properties :
#
#
# Convention : Reuss Voigt Hill
#
# Bulk Modulus (GPa) = 56.55099 67.34757 61.94928
# Shear Modulus (GPa) = 27.32999 31.86861 29.59930
#
# Velocity S-wave (km/s) = 3.64761 3.93886 3.79603
# Velocity P-wave (km/s) = 6.72836 7.31252 7.02651
#
# Compressibility (1/GPa) = 0.01768316
#
# Stress axis : x y z
#
# Youngs Moduli (GPa) = 53.34343 56.41254 94.77883
#
# Poissons Ratio (x) = 0.31881 0.49330
# Poissons Ratio (y) = 0.30146 0.36150
# Poissons Ratio (z) = 0.27764 0.21517
#
# Static dielectric constant tensor:
#      x y z
#    x 3.718100 0.067960 0.121110 
#    y 0.067960 3.856450 0.008340 
#    z 0.121110 0.008340 3.753530 
# 
# 
# High freq. dielectric constant tensor:
#      x y z
#    x 1.798220 -0.001960 0.009260 
#    y -0.001960 1.813590 0.006160 
#    z 0.009260 0.006160 1.801880 
# 
# From -- ./inp_files/122911.got.cif
#   From: 2010.06.25/outbox.cif.g09.slc.cpg/sg2_62_cif.got.tgz:122911.got - 2010.06.27 13:26:56.
