data_PCOD8015323
_publ_section_title
;
Structure prediction by ZEFSAII (Michael W. Deem and Ramdas Pophale) SiO2 
 PCOD8015323
Probable space group: P -1
;
_chemical_formula_sum "Si O2"
_cell_formula_units_Z 16
_cell_length_a 11.569364
_cell_length_b 12.257718
_cell_length_c 8.756036
_cell_angle_alpha 51.528566
_cell_angle_beta 133.521427
_cell_angle_gamma 112.942927
_cell_volume 703.307338
_symmetry_space_group_name_H-M "P -1"
_symmetry_group_IT_number 2
_symmetry_cell_setting 'triclinic'
loop_
_space_group_symop_operation_xyz
x,y,z
-x,-y,-z
loop_
_atom_site_type_symbol
_atom_site_label
_atom_site_fract_x
_atom_site_fract_y
_atom_site_fract_z
Si Si1 0.512929 0.426720 0.236165
Si Si2 0.021806 0.254290 0.516304
Si Si3 0.265078 0.271091 0.311745
Si Si4 0.243652 0.797502 0.469252
Si Si5 0.552556 0.012136 0.363018
Si Si6 0.093824 0.714638 0.956183
Si Si7 0.786592 0.028874 0.993810
Si Si8 0.727469 0.567630 0.523843
O O1 0.342201 0.371002 0.171000
O O2 0.649050 0.300814 0.461396
O O3 0.565086 0.532429 0.322369
O O4 0.500000 0.500000 0.000000
O O5 0.157479 0.364746 0.555007
O O6 0.898883 0.285663 0.516875
O O7 0.932715 0.272634 0.258756
O O8 0.089372 0.094782 0.733831
O O9 0.330581 0.113473 0.482277
O O10 0.316523 0.316778 0.488001
O O11 0.074392 0.280400 0.110073
O O12 0.179200 0.926161 0.189781
O O13 0.345300 0.850498 0.661229
O O14 0.392516 0.024517 0.104309
O O15 0.500000 0.000000 0.500000
O O16 0.196882 0.840259 0.993454
O O17 0.185750 0.566817 0.200562
#
# Coordination Sequence:
#
# PCOD8015323 Si02
#       8
#     2   2   2   2   2   2   2   2
#     4  12  27  42  69 102 137 178 230 278 342 408
#     4  11  25  41  69 101 135 179 231 278 331 407
#     4  11  22  45  72  95 134 184 218 282 339 397
#     4  11  24  45  66 100 139 178 221 287 341 398
#     4  10  21  42  67  97 135 170 222 274 342 397
#     4  11  24  46  69  98 139 180 229 276 337 403
#     4  11  22  44  70  99 136 178 225 281 338 403
#     4  11  26  48  68 100 138 183 229 276 339 405
#
# _framework density 22.749656999999999
#
# number of rings (size 3 to 8) (size 9 to 14) (size 15 to 20)
#    0.000    1.000    3.750    3.375    5.250    3.500 
#    0.000    3.125    0.000    0.000    0.000    0.000 
#    0.000    0.000    0.000    0.000    0.000    0.000 
#
# Total GULP energy -198414.354013 kJ/mol
# GULP energy per Si atom -12400.897126 kJ/mol
# Density = 2.269788 g / cm^3
# Si number density = 22.749657 Si / 1000 Ang^3
#
#
#
# Elastic Constant Matrix: (Units=GPa)
#
#
# Indices 1 2 3 4 5 6 
#
# 1 60.2385 -12.3012 9.7083 -7.4677 -8.0236 -1.8906
# 2 -12.3012 92.7233 2.3844 2.0518 0.5854 -11.5861
# 3 9.7083 2.3844 83.8871 -2.7903 -14.1598 -3.3863
# 4 -7.4677 2.0518 -2.7903 28.6595 2.1058 -0.1620
# 5 -8.0236 0.5854 -14.1598 2.1058 25.6842 -11.5553
# 6 -1.8906 -11.5861 -3.3863 -0.1620 -11.5553 35.8955
#
#
#
# Elastic Compliance Matrix: (Units=1/GPa)
#
#
# Indices 1 2 3 4 5 6 
#
# 1 0.018884 0.002902 -0.000801 0.004151 0.006893 0.004093
# 2 0.002902 0.011766 -0.000002 -0.000268 0.002849 0.004866
# 3 -0.000801 -0.000002 0.013750 0.000479 0.009187 0.004214
# 4 0.004151 -0.000268 0.000479 0.036146 -0.001454 -0.000128
# 5 0.006893 0.002849 0.009187 -0.001454 0.055159 0.019899
# 6 0.004093 0.004866 0.004214 -0.000128 0.019899 0.036448
#
#
# Mechanical properties :
#
#
# Convention : Reuss Voigt Hill
#
# Bulk Modulus (GPa) = 20.57725 26.27020 23.42373
# Shear Modulus (GPa) = 27.15114 33.85165 30.50140
#
# Velocity S-wave (km/s) = 3.45842 3.86165 3.66559
# Velocity P-wave (km/s) = 5.00123 5.60854 5.31357
#
# Compressibility (1/GPa) = 0.04859735
#
# Stress axis : x y z
#
# Youngs Moduli (GPa) = 52.95609 84.99210 72.72564
#
# Poissons Ratio (x) = -0.24664 0.05826
# Poissons Ratio (y) = -0.15367 0.00014
# Poissons Ratio (z) = 0.04242 0.00016
#
# Static dielectric constant tensor:
#      x y z
#    x 4.235080 0.292740 0.124430 
#    y 0.292740 4.620690 0.103680 
#    z 0.124430 0.103680 4.032360 
# 
# 
# High freq. dielectric constant tensor:
#      x y z
#    x 1.897190 0.008400 0.003860 
#    y 0.008400 1.911040 0.001860 
#    z 0.003860 0.001860 1.886970 
# 
# From -- ./inp_files/184249.got.cif
#   From: 2010.06.25/outbox.cif.g09.slc.cpg/sg2_93_cif.got.tgz:184249.got - 2010.06.27 13:26:56.
