data_PCOD8015420
_publ_section_title
;
Structure prediction by ZEFSAII (Michael W. Deem and Ramdas Pophale) SiO2 
 PCOD8015420
Probable space group: P -1
;
_chemical_formula_sum "Si O2"
_cell_formula_units_Z 12
_cell_length_a 7.086851
_cell_length_b 12.861921
_cell_length_c 8.715633
_cell_angle_alpha 68.173976
_cell_angle_beta 47.765943
_cell_angle_gamma 66.185474
_cell_volume 532.179836
_symmetry_space_group_name_H-M "P -1"
_symmetry_group_IT_number 2
_symmetry_cell_setting 'triclinic'
loop_
_space_group_symop_operation_xyz
x,y,z
-x,-y,-z
loop_
_atom_site_type_symbol
_atom_site_label
_atom_site_fract_x
_atom_site_fract_y
_atom_site_fract_z
Si Si1 0.796289 0.402921 0.265382
Si Si2 0.097356 0.210897 0.005061
Si Si3 0.714005 0.831143 0.401056
Si Si4 0.021449 0.380867 0.469289
Si Si5 0.510563 0.647062 0.269946
Si Si6 0.136978 0.966608 0.604501
O O1 0.723435 0.532077 0.165434
O O2 0.544148 0.371620 0.507060
O O3 0.871480 0.316007 0.130756
O O4 0.027700 0.392807 0.273515
O O5 0.064767 0.091791 0.160451
O O6 0.089532 0.199954 0.832494
O O7 0.375469 0.240299 0.882440
O O8 0.730605 0.716081 0.556967
O O9 0.417069 0.878387 0.481292
O O10 0.822174 0.921347 0.394302
O O11 0.000000 0.500000 0.500000
O O12 0.758461 0.337783 0.685240
O O13 0.000000 0.000000 0.500000
#
# Coordination Sequence:
#
# PCOD8015420 Si02
#       6
#     2   2   2   2   2   2
#     4   9  20  40  65  95 140 185 211 266 339 392
#     4  12  22  41  71  99 131 172 233 281 332 400
#     4  11  26  46  67 106 131 174 233 276 334 409
#     4  10  21  42  68  98 144 177 216 277 335 400
#     4   9  21  39  68  98 138 184 223 260 336 402
#     4  11  27  50  73  90 135 184 224 284 342 391
#
# _framework density 22.548767999999999
#
# number of rings (size 3 to 8) (size 9 to 14) (size 15 to 20)
#    1.000    0.667    0.000    4.000    4.667    0.667 
#    9.000    1.667    0.000    0.000    0.000    0.000 
#    0.000    0.000    0.000    0.000    0.000    0.000 
#
# Total GULP energy -148723.298712 kJ/mol
# GULP energy per Si atom -12393.608226 kJ/mol
# Density = 2.249745 g / cm^3
# Si number density = 22.548768 Si / 1000 Ang^3
#
#
#
# Elastic Constant Matrix: (Units=GPa)
#
#
# Indices 1 2 3 4 5 6 
#
# 1 124.7986 50.7459 34.3141 -2.6783 2.9042 -10.0808
# 2 50.7459 134.1028 35.3137 7.5829 5.4057 -3.8070
# 3 34.3141 35.3137 84.1386 -4.2348 2.0151 6.3198
# 4 -2.6783 7.5829 -4.2348 49.1548 11.9659 1.8638
# 5 2.9042 5.4057 2.0151 11.9659 32.0868 -13.5267
# 6 -10.0808 -3.8070 6.3198 1.8638 -13.5267 30.6302
#
#
#
# Elastic Compliance Matrix: (Units=1/GPa)
#
#
# Indices 1 2 3 4 5 6 
#
# 1 0.010502 -0.003034 -0.003373 0.000196 0.001580 0.004461
# 2 -0.003034 0.009507 -0.002912 -0.001899 -0.000070 0.000868
# 3 -0.003373 -0.002912 0.015207 0.002784 -0.003947 -0.006522
# 4 0.000196 -0.001899 0.002784 0.024102 -0.012034 -0.007527
# 5 0.001580 -0.000070 -0.003947 -0.012034 0.045018 0.021939
# 6 0.004461 0.000868 -0.006522 -0.007527 0.021939 0.045716
#
#
# Mechanical properties :
#
#
# Convention : Reuss Voigt Hill
#
# Bulk Modulus (GPa) = 60.31768 64.86526 62.59147
# Shear Modulus (GPa) = 28.70027 37.21877 32.95952
#
# Velocity S-wave (km/s) = 3.57152 4.06715 3.82737
# Velocity P-wave (km/s) = 6.61933 7.13335 6.88115
#
# Compressibility (1/GPa) = 0.01657889
#
# Stress axis : x y z
#
# Youngs Moduli (GPa) = 95.22317 105.18946 65.75853
#
# Poissons Ratio (x) = 0.31914 0.22177
# Poissons Ratio (y) = 0.28890 0.19148
# Poissons Ratio (z) = 0.32114 0.30629
#
# Static dielectric constant tensor:
#      x y z
#    x 3.885720 0.088780 -0.133740 
#    y 0.088780 4.137700 -0.016270 
#    z -0.133740 -0.016270 3.998280 
# 
# 
# High freq. dielectric constant tensor:
#      x y z
#    x 1.875840 0.014050 -0.007950 
#    y 0.014050 1.902830 -0.000280 
#    z -0.007950 -0.000280 1.876520 
# 
# From -- ./inp_files/184660.got.cif
#   From: 2010.06.25/outbox.cif.g09.slc.cpg/sg2_93_cif.got.tgz:184660.got - 2010.06.27 13:26:56.
