data_PCOD8015882
_publ_section_title
;
Structure prediction by ZEFSAII (Michael W. Deem and Ramdas Pophale) SiO2 
 PCOD8015882
Probable space group: P -1
;
_chemical_formula_sum "Si O2"
_cell_formula_units_Z 16
_cell_length_a 19.913311
_cell_length_b 17.606195
_cell_length_c 11.545046
_cell_angle_alpha 136.510717
_cell_angle_beta 31.652125
_cell_angle_gamma 158.609165
_cell_volume 725.521027
_symmetry_space_group_name_H-M "P -1"
_symmetry_group_IT_number 2
_symmetry_cell_setting 'triclinic'
loop_
_space_group_symop_operation_xyz
x,y,z
-x,-y,-z
loop_
_atom_site_type_symbol
_atom_site_label
_atom_site_fract_x
_atom_site_fract_y
_atom_site_fract_z
Si Si1 0.057065 0.073166 0.365372
Si Si2 0.727141 0.123443 0.147716
Si Si3 0.966585 0.132214 0.166746
Si Si4 0.385562 0.155571 0.840123
Si Si5 0.096390 0.502549 0.644193
Si Si6 0.154019 0.713193 0.447619
Si Si7 0.853867 0.622083 0.361125
Si Si8 0.719323 0.801317 0.344037
O O1 0.143901 0.265233 0.441760
O O2 0.300172 0.183431 0.088198
O O3 0.000000 0.000000 0.500000
O O4 0.806850 0.860073 0.415606
O O5 0.857503 0.335013 0.223018
O O6 0.693353 0.026519 0.205666
O O7 0.452573 0.939112 0.289514
O O8 0.915966 0.196804 0.868234
O O9 0.984703 0.277123 0.300683
O O10 0.735780 0.914218 0.183989
O O11 0.894635 0.030749 0.286481
O O12 0.226418 0.273115 0.886895
O O13 0.689723 0.391732 0.637153
O O14 0.080699 0.431646 0.711762
O O15 0.844332 0.300556 0.710259
O O16 0.000000 0.500000 0.500000
O O17 0.584771 0.401704 0.444314
#
# Coordination Sequence:
#
# PCOD8015882 Si02
#       8
#     2   2   2   2   2   2   2   2
#     4  11  25  45  65 100 141 174 222 279 338 404
#     4  12  25  45  64  99 146 174 223 281 332 403
#     4  10  21  43  67 103 133 167 229 286 324 390
#     4  11  21  44  70  94 140 174 218 288 324 391
#     4  12  25  42  70 101 130 182 231 273 335 398
#     4  12  24  39  67  99 133 179 225 275 334 393
#     4  12  26  44  70  99 138 182 220 275 347 405
#     4  10  23  43  71  97 134 176 221 279 339 394
#
# _framework density 22.053114999999998
#
# number of rings (size 3 to 8) (size 9 to 14) (size 15 to 20)
#    0.000    0.750    5.000    2.250    1.750    2.500 
#    0.000    0.000    0.000    0.000    0.000    0.000 
#    0.000    0.000    0.000    0.000    0.000    0.000 
#
# Total GULP energy -198433.920450 kJ/mol
# GULP energy per Si atom -12402.120028 kJ/mol
# Density = 2.200292 g / cm^3
# Si number density = 22.053115 Si / 1000 Ang^3
#
#
#
# Elastic Constant Matrix: (Units=GPa)
#
#
# Indices 1 2 3 4 5 6 
#
# 1 113.3573 15.0616 20.1021 -1.4399 4.3491 12.0452
# 2 15.0616 61.2138 20.2008 18.5969 -3.3909 3.3406
# 3 20.1021 20.2008 73.8739 11.0425 -3.4948 0.4043
# 4 -1.4399 18.5969 11.0425 23.7173 -7.8935 5.9857
# 5 4.3491 -3.3909 -3.4948 -7.8935 32.9174 6.3024
# 6 12.0452 3.3406 0.4043 5.9857 6.3024 30.9984
#
#
#
# Elastic Compliance Matrix: (Units=1/GPa)
#
#
# Indices 1 2 3 4 5 6 
#
# 1 0.010283 -0.003042 -0.002763 0.005597 0.000290 -0.004772
# 2 -0.003042 0.023457 -0.002915 -0.018780 -0.002537 0.002834
# 3 -0.002763 -0.002915 0.015955 -0.005943 -0.000116 0.002351
# 4 0.005597 -0.018780 -0.005943 0.069826 0.016684 -0.016949
# 5 0.000290 -0.002537 -0.000116 0.016684 0.036057 -0.010390
# 6 -0.004772 0.002834 0.002351 -0.016949 -0.010390 0.039163
#
#
# Mechanical properties :
#
#
# Convention : Reuss Voigt Hill
#
# Bulk Modulus (GPa) = 31.00283 39.90822 35.45553
# Shear Modulus (GPa) = 22.42836 30.39866 26.41351
#
# Velocity S-wave (km/s) = 3.19253 3.71675 3.46457
# Velocity P-wave (km/s) = 5.26103 6.04604 5.66715
#
# Compressibility (1/GPa) = 0.03225512
#
# Stress axis : x y z
#
# Youngs Moduli (GPa) = 97.24957 42.63168 62.67454
#
# Poissons Ratio (x) = 0.12969 0.17317
# Poissons Ratio (y) = 0.29585 0.18268
# Poissons Ratio (z) = 0.26870 0.12426
#
# Static dielectric constant tensor:
#      x y z
#    x 4.276020 0.039120 -0.197020 
#    y 0.039120 3.835170 0.120390 
#    z -0.197020 0.120390 4.072500 
# 
# 
# High freq. dielectric constant tensor:
#      x y z
#    x 1.887000 0.001430 -0.009410 
#    y 0.001430 1.858910 0.014510 
#    z -0.009410 0.014510 1.865800 
# 
# From -- ./inp_files/307032.got.cif
#   From: 2010.06.25/outbox.cif.g09.slc.cpg/sg2_154_cif.got.tgz:307032.got - 2010.06.27 13:26:56.
