data_PCOD8015130
_publ_section_title
;
Structure prediction by ZEFSAII (Michael W. Deem and Ramdas Pophale) SiO2 
 PCOD8015130
Probable space group: P -1
;
_chemical_formula_sum "Si O2"
_cell_formula_units_Z 14
_cell_length_a 14.957515
_cell_length_b 6.774242
_cell_length_c 15.023993
_cell_angle_alpha 137.682295
_cell_angle_beta 40.855766
_cell_angle_gamma 119.368044
_cell_volume 662.193501
_symmetry_space_group_name_H-M "P -1"
_symmetry_group_IT_number 2
_symmetry_cell_setting 'triclinic'
loop_
_space_group_symop_operation_xyz
x,y,z
-x,-y,-z
loop_
_atom_site_type_symbol
_atom_site_label
_atom_site_fract_x
_atom_site_fract_y
_atom_site_fract_z
Si Si1 0.017849 0.781533 0.679833
Si Si2 0.506181 0.369606 0.352528
Si Si3 0.907107 0.197248 0.564782
Si Si4 0.993679 0.221913 0.998412
Si Si5 0.764867 0.615833 0.223069
Si Si6 0.675496 0.285383 0.544789
Si Si7 0.409140 0.743927 0.210108
O O1 0.026038 0.903208 0.614284
O O2 0.171271 0.628532 0.543336
O O3 0.914407 0.544589 0.689409
O O4 0.963985 0.059451 0.874934
O O5 0.500000 0.500000 0.500000
O O6 0.658061 0.392582 0.206181
O O7 0.396354 0.569979 0.440364
O O8 0.484948 0.030823 0.252194
O O9 0.745833 0.161682 0.680905
O O10 0.000000 0.000000 0.500000
O O11 0.139928 0.343616 0.921449
O O12 0.864297 0.489029 0.189703
O O13 0.000000 0.000000 0.000000
O O14 0.680597 0.930005 0.421301
O O15 0.597626 0.394845 0.731849
O O16 0.500000 0.500000 0.000000
#
# Coordination Sequence:
#
# PCOD8015130 Si02
#       7
#     2   2   2   2   2   2   2
#     4   9  21  39  64  90 124 165 218 266 323 385
#     4  12  25  41  71  95 130 180 221 266 335 397
#     4  10  21  42  66  89 123 172 221 266 324 389
#     4  10  23  40  64  96 134 166 213 283 330 383
#     4  10  23  39  62 101 126 170 223 261 328 396
#     4  10  22  44  67  94 135 168 226 274 320 405
#     4  11  26  44  65  99 136 173 223 274 339 395
#
# _framework density 21.141857999999999
#
# number of rings (size 3 to 8) (size 9 to 14) (size 15 to 20)
#    0.000    1.714    1.429    1.286    6.000    5.143 
#    2.571    0.000    0.000    0.000    0.000    0.000 
#    0.000    0.000    0.000    0.000    0.000    0.000 
#
# Total GULP energy -173566.085217 kJ/mol
# GULP energy per Si atom -12397.577515 kJ/mol
# Density = 2.109374 g / cm^3
# Si number density = 21.141858 Si / 1000 Ang^3
#
#
#
# Elastic Constant Matrix: (Units=GPa)
#
#
# Indices 1 2 3 4 5 6 
#
# 1 124.8877 59.8824 36.6985 -3.7450 -2.7059 -9.9131
# 2 59.8824 115.1243 34.1774 -3.7876 -3.0275 2.1895
# 3 36.6985 34.1774 78.9888 4.7313 9.4038 -7.6855
# 4 -3.7450 -3.7876 4.7313 25.8713 7.0545 -6.4511
# 5 -2.7059 -3.0275 9.4038 7.0545 29.0184 3.3698
# 6 -9.9131 2.1895 -7.6855 -6.4511 3.3698 63.7373
#
#
#
# Elastic Compliance Matrix: (Units=1/GPa)
#
#
# Indices 1 2 3 4 5 6 
#
# 1 0.011572 -0.004998 -0.003270 0.001689 0.001010 0.001695
# 2 -0.004998 0.012434 -0.003500 0.000789 0.001965 -0.001651
# 3 -0.003270 -0.003500 0.016671 -0.002029 -0.005779 0.001722
# 4 0.001689 0.000789 -0.002029 0.043400 -0.010225 0.004924
# 5 0.001010 0.001965 -0.005779 -0.010225 0.039552 -0.003733
# 6 0.001695 -0.001651 0.001722 0.004924 -0.003733 0.016913
#
#
# Mechanical properties :
#
#
# Convention : Reuss Voigt Hill
#
# Bulk Modulus (GPa) = 58.34166 64.50194 61.42180
# Shear Modulus (GPa) = 29.44786 36.27491 32.86138
#
# Velocity S-wave (km/s) = 3.73617 4.14670 3.94677
# Velocity P-wave (km/s) = 6.80200 7.31452 7.06291
#
# Compressibility (1/GPa) = 0.01714041
#
# Stress axis : x y z
#
# Youngs Moduli (GPa) = 86.41663 80.42314 59.98576
#
# Poissons Ratio (x) = 0.40199 0.19616
# Poissons Ratio (y) = 0.43195 0.20993
# Poissons Ratio (z) = 0.28259 0.28145
#
# Static dielectric constant tensor:
#      x y z
#    x 3.977960 0.222830 -0.001820 
#    y 0.222830 3.995720 -0.139920 
#    z -0.001820 -0.139920 3.701520 
# 
# 
# High freq. dielectric constant tensor:
#      x y z
#    x 1.828280 0.009460 -0.006790 
#    y 0.009460 1.844140 -0.005660 
#    z -0.006790 -0.005660 1.814640 
# 
# From -- ./inp_files/526043.got.cif
#   From: 2010.06.25/outbox.cif.g09.slc.cpg/sg2_264_cif.got.tgz:526043.got - 2010.06.27 13:26:56.
