data_PCOD8015122
_publ_section_title
;
Structure prediction by ZEFSAII (Michael W. Deem and Ramdas Pophale) SiO2 
 PCOD8015122
Probable space group: P -1
;
_chemical_formula_sum "Si O2"
_cell_formula_units_Z 16
_cell_length_a 10.719866
_cell_length_b 22.117673
_cell_length_c 10.933966
_cell_angle_alpha 30.951854
_cell_angle_beta 132.811608
_cell_angle_gamma 147.249887
_cell_volume 713.159382
_symmetry_space_group_name_H-M "P -1"
_symmetry_group_IT_number 2
_symmetry_cell_setting 'triclinic'
loop_
_space_group_symop_operation_xyz
x,y,z
-x,-y,-z
loop_
_atom_site_type_symbol
_atom_site_label
_atom_site_fract_x
_atom_site_fract_y
_atom_site_fract_z
Si Si1 0.953991 0.841619 0.227251
Si Si2 0.671438 0.888770 0.574499
Si Si3 0.532658 0.697372 0.042255
Si Si4 0.659980 0.622452 0.623079
Si Si5 0.862134 0.762170 0.774273
Si Si6 0.724638 0.400458 0.719429
Si Si7 0.807314 0.234949 0.620535
Si Si8 0.082248 0.665021 0.219670
O O1 0.739460 0.720757 0.201529
O O2 0.890944 0.758422 0.461417
O O3 0.170820 0.876229 0.249189
O O4 0.000000 0.000000 0.000000
O O5 0.744699 0.800600 0.717041
O O6 0.436425 0.821365 0.473570
O O7 0.630500 0.849101 0.760802
O O8 0.873616 0.079462 0.360101
O O9 0.386650 0.538545 0.137085
O O10 0.373548 0.677288 0.077651
O O11 0.702800 0.674896 0.700657
O O12 0.441179 0.591618 0.480817
O O13 0.872566 0.643961 0.060277
O O14 0.737292 0.281915 0.860972
O O15 0.979112 0.578785 0.596940
O O16 0.805829 0.209781 0.809831
O O17 0.000000 0.500000 0.500000
#
# Coordination Sequence:
#
# PCOD8015122 Si02
#       8
#     2   2   2   2   2   2   2   2
#     4  11  22  41  69 102 140 181 223 273 337 408
#     4  11  27  43  70  97 139 186 217 286 344 397
#     4  11  22  42  69  99 134 182 223 273 337 401
#     4  11  22  40  70  96 136 180 221 282 330 398
#     4  11  26  48  63 100 138 175 236 276 342 410
#     4  10  21  42  66 106 135 170 230 276 332 399
#     4  11  22  44  66 102 136 174 230 275 338 400
#     4  10  24  41  70  98 132 177 225 285 334 391
#
# _framework density 22.435376999999999
#
# number of rings (size 3 to 8) (size 9 to 14) (size 15 to 20)
#    0.000    1.250    2.500    3.000    5.250    5.500 
#    0.000    1.875    0.000    0.000    0.000    0.000 
#    0.000    0.000    0.000    0.000    0.000    0.000 
#
# Total GULP energy -198412.446633 kJ/mol
# GULP energy per Si atom -12400.777915 kJ/mol
# Density = 2.238431 g / cm^3
# Si number density = 22.435377 Si / 1000 Ang^3
#
#
#
# Elastic Constant Matrix: (Units=GPa)
#
#
# Indices 1 2 3 4 5 6 
#
# 1 132.7271 37.9588 39.3139 -2.1166 8.5500 -0.2719
# 2 37.9588 86.5430 34.8205 10.5289 -4.2534 8.7850
# 3 39.3139 34.8205 90.8583 0.6419 1.8487 -2.4983
# 4 -2.1166 10.5289 0.6419 29.6080 -2.7778 -0.7142
# 5 8.5500 -4.2534 1.8487 -2.7778 41.3856 4.0623
# 6 -0.2719 8.7850 -2.4983 -0.7142 4.0623 36.1558
#
#
#
# Elastic Compliance Matrix: (Units=1/GPa)
#
#
# Indices 1 2 3 4 5 6 
#
# 1 0.009513 -0.003513 -0.002710 0.001808 -0.002184 0.001019
# 2 -0.003513 0.016398 -0.004910 -0.005837 0.002707 -0.004770
# 3 -0.002710 -0.004910 0.014128 0.001233 -0.000714 0.002253
# 4 0.001808 -0.005837 0.001233 0.036115 0.001190 0.002097
# 5 -0.002184 0.002707 -0.000714 0.001190 0.025352 -0.003548
# 6 0.001019 -0.004770 0.002253 0.002097 -0.003548 0.029420
#
#
# Mechanical properties :
#
#
# Convention : Reuss Voigt Hill
#
# Bulk Modulus (GPa) = 56.26060 59.36831 57.81445
# Shear Modulus (GPa) = 31.42316 34.63223 33.02769
#
# Velocity S-wave (km/s) = 3.74653 3.93319 3.84099
# Velocity P-wave (km/s) = 6.62167 6.86629 6.74509
#
# Compressibility (1/GPa) = 0.01777443
#
# Stress axis : x y z
#
# Youngs Moduli (GPa) = 105.11576 60.98153 70.78014
#
# Poissons Ratio (x) = 0.21422 0.19184
# Poissons Ratio (y) = 0.36925 0.34750
# Poissons Ratio (z) = 0.28491 0.29939
#
# Static dielectric constant tensor:
#      x y z
#    x 4.668520 -0.103180 -0.146090 
#    y -0.103180 3.924380 -0.014330 
#    z -0.146090 -0.014330 3.883450 
# 
# 
# High freq. dielectric constant tensor:
#      x y z
#    x 1.907450 -0.007530 -0.005080 
#    y -0.007530 1.873480 0.003820 
#    z -0.005080 0.003820 1.872410 
# 
# From -- ./inp_files/274249.got.cif
#   From: 2010.06.25/outbox.cif.g09.slc.cpg/sg2_138_cif.got.tgz:274249.got - 2010.06.27 13:26:56.
