data_PCOD8015808
_publ_section_title
;
Structure prediction by ZEFSAII (Michael W. Deem and Ramdas Pophale) SiO2 
 PCOD8015808
Probable space group: P -1
;
_chemical_formula_sum "Si O2"
_cell_formula_units_Z 16
_cell_length_a 13.992122
_cell_length_b 6.868040
_cell_length_c 17.842955
_cell_angle_alpha 98.014794
_cell_angle_beta 29.936424
_cell_angle_gamma 111.387348
_cell_volume 736.989178
_symmetry_space_group_name_H-M "P -1"
_symmetry_group_IT_number 2
_symmetry_cell_setting 'triclinic'
loop_
_space_group_symop_operation_xyz
x,y,z
-x,-y,-z
loop_
_atom_site_type_symbol
_atom_site_label
_atom_site_fract_x
_atom_site_fract_y
_atom_site_fract_z
Si Si1 0.317773 0.195712 0.340961
Si Si2 0.961821 0.692247 0.569047
Si Si3 0.850027 0.785699 0.042440
Si Si4 0.552205 0.803167 0.470289
Si Si5 0.196880 0.591756 0.035532
Si Si6 0.473850 0.453941 0.388671
Si Si7 0.250374 0.378190 0.136278
Si Si8 0.067031 0.964836 0.140061
O O1 0.240183 0.304488 0.335123
O O2 0.568052 0.264348 0.156873
O O3 0.286281 0.285361 0.449016
O O4 0.182885 0.926961 0.418593
O O5 0.907124 0.637718 0.690169
O O6 0.000000 0.500000 0.500000
O O7 0.947924 0.635215 0.929079
O O8 0.662874 0.623826 0.215729
O O9 0.777626 0.885491 0.026688
O O10 0.000000 0.000000 0.000000
O O11 0.413919 0.605385 0.492339
O O12 0.465482 0.699209 0.606475
O O13 0.814134 0.896781 0.291977
O O14 0.500000 0.000000 0.500000
O O15 0.222074 0.524014 0.098485
O O16 0.071791 0.733783 0.132953
O O17 0.167763 0.119682 0.153285
O O18 0.500000 0.500000 0.000000
#
# Coordination Sequence:
#
# PCOD8015808 Si02
#       8
#     2   2   2   2   2   2   2   2
#     4  10  23  44  63 100 131 173 224 281 339 410
#     4  11  25  42  71  96 135 176 226 281 348 405
#     4  10  21  43  66 100 133 172 223 279 333 403
#     4  11  25  45  67  97 136 180 226 283 346 414
#     4  10  24  42  72  97 139 178 229 280 340 409
#     4  10  23  42  68  95 132 173 224 275 345 406
#     4  11  24  44  68 102 139 177 231 283 342 412
#     4  11  25  44  68  99 135 181 229 280 349 404
#
# _framework density 21.709949999999999
#
# number of rings (size 3 to 8) (size 9 to 14) (size 15 to 20)
#    0.000    1.500    2.500    0.750    1.750   12.000 
#    0.000    0.000    0.000    0.000    0.000    0.000 
#    0.000    0.000    0.000    0.000    0.000    0.000 
#
# Total GULP energy -198273.707362 kJ/mol
# GULP energy per Si atom -12392.106710 kJ/mol
# Density = 2.166054 g / cm^3
# Si number density = 21.709950 Si / 1000 Ang^3
#
#
#
# Elastic Constant Matrix: (Units=GPa)
#
#
# Indices 1 2 3 4 5 6 
#
# 1 115.8999 83.7473 50.6507 7.5990 20.5574 10.5880
# 2 83.7473 202.2219 47.9653 12.3409 1.8367 2.3917
# 3 50.6507 47.9653 81.6951 0.4435 15.7967 -9.6400
# 4 7.5990 12.3409 0.4435 27.8949 -2.3862 7.4190
# 5 20.5574 1.8367 15.7967 -2.3862 46.9355 -1.6925
# 6 10.5880 2.3917 -9.6400 7.4190 -1.6925 47.8435
#
#
#
# Elastic Compliance Matrix: (Units=1/GPa)
#
#
# Indices 1 2 3 4 5 6 
#
# 1 0.016815 -0.005115 -0.007010 -0.001349 -0.005049 -0.004847
# 2 -0.005115 0.007532 -0.001612 -0.001923 0.002420 0.000814
# 3 -0.007010 -0.001612 0.018711 0.000693 -0.002941 0.005190
# 4 -0.001349 -0.001923 0.000693 0.038677 0.002205 -0.005385
# 5 -0.005049 0.002420 -0.002941 0.002205 0.024558 0.000931
# 6 -0.004847 0.000814 0.005190 -0.005385 0.000931 0.023847
#
#
# Mechanical properties :
#
#
# Convention : Reuss Voigt Hill
#
# Bulk Modulus (GPa) = 64.17544 84.94928 74.56236
# Shear Modulus (GPa) = 30.71106 39.03169 34.87138
#
# Velocity S-wave (km/s) = 3.76521 4.24473 4.01214
# Velocity P-wave (km/s) = 6.96613 7.95222 7.47545
#
# Compressibility (1/GPa) = 0.01558229
#
# Stress axis : x y z
#
# Youngs Moduli (GPa) = 59.47174 132.77517 53.44520
#
# Poissons Ratio (x) = 0.67919 0.37466
# Poissons Ratio (y) = 0.30422 0.08614
# Poissons Ratio (z) = 0.41691 0.21401
#
# Static dielectric constant tensor:
#      x y z
#    x 4.412190 0.312260 0.496730 
#    y 0.312260 4.310950 -0.132100 
#    z 0.496730 -0.132100 3.853630 
# 
# 
# High freq. dielectric constant tensor:
#      x y z
#    x 1.855850 0.014850 0.030190 
#    y 0.014850 1.872900 -0.020200 
#    z 0.030190 -0.020200 1.847780 
# 
# From -- ./inp_files/571721.got.cif
#   From: 2010.06.25/outbox.cif.g09.slc.cpg/sg2_286_cif.got.tgz:571721.got - 2010.06.27 13:26:56.
