data_PCOD8015774
_publ_section_title
;
Structure prediction by ZEFSAII (Michael W. Deem and Ramdas Pophale) SiO2 
 PCOD8015774
Probable space group: P -1
;
_chemical_formula_sum "Si O2"
_cell_formula_units_Z 14
_cell_length_a 14.188544
_cell_length_b 26.584973
_cell_length_c 14.685251
_cell_angle_alpha 16.637111
_cell_angle_beta 150.232182
_cell_angle_gamma 156.222186
_cell_volume 637.597424
_symmetry_space_group_name_H-M "P -1"
_symmetry_group_IT_number 2
_symmetry_cell_setting 'triclinic'
loop_
_space_group_symop_operation_xyz
x,y,z
-x,-y,-z
loop_
_atom_site_type_symbol
_atom_site_label
_atom_site_fract_x
_atom_site_fract_y
_atom_site_fract_z
Si Si1 0.890276 0.713931 0.819151
Si Si2 0.279693 0.468345 0.461960
Si Si3 0.067359 0.786108 0.229182
Si Si4 0.522050 0.241652 0.340198
Si Si5 0.803507 0.755990 0.395656
Si Si6 0.921940 0.826202 0.846823
Si Si7 0.806744 0.203563 0.231068
O O1 0.934430 0.705928 0.978216
O O2 0.108170 0.758202 0.868607
O O3 0.656797 0.483170 0.991685
O O4 0.871300 0.913552 0.437156
O O5 0.544253 0.569209 0.539980
O O6 0.185511 0.265190 0.667565
O O7 0.114667 0.397351 0.534251
O O8 0.289084 0.651485 0.090115
O O9 0.292076 0.783774 0.409696
O O10 0.946235 0.729770 0.126750
O O11 0.136003 0.013256 0.929112
O O12 0.329505 0.210915 0.302533
O O13 0.395599 0.056256 0.476373
O O14 0.985119 0.721298 0.654854
#
# Coordination Sequence:
#
# PCOD8015774 Si02
#       7
#     2   2   2   2   2   2   2
#     4  10  21  43  65  89 129 166 208 255 303 372
#     4  11  25  42  66  92 125 163 210 266 305 367
#     4  12  23  40  65  95 127 161 206 260 314 367
#     4  11  22  40  64  92 132 159 208 256 307 372
#     4  11  24  44  64  91 124 166 215 253 313 369
#     4  10  24  42  64  93 126 167 211 250 309 371
#     4  11  22  43  64  92 127 166 207 256 310 372
#
# _framework density 21.957429000000001
#
# number of rings (size 3 to 8) (size 9 to 14) (size 15 to 20)
#    0.000    1.143    5.714    1.286    2.000    0.571 
#    0.000    7.143    0.000    0.000    0.000    0.000 
#    0.000    0.000    0.000    0.000    0.000    0.000 
#
# Total GULP energy -173537.125971 kJ/mol
# GULP energy per Si atom -12395.508998 kJ/mol
# Density = 2.190745 g / cm^3
# Si number density = 21.957429 Si / 1000 Ang^3
#
#
#
# Elastic Constant Matrix: (Units=GPa)
#
#
# Indices 1 2 3 4 5 6 
#
# 1 53.1051 34.7731 11.8681 8.4674 -12.0482 -0.6008
# 2 34.7731 128.6087 48.4172 3.3362 -12.0559 5.0721
# 3 11.8681 48.4172 74.8337 -5.3543 -9.2974 -2.6094
# 4 8.4674 3.3362 -5.3543 38.6093 -0.0173 3.0719
# 5 -12.0482 -12.0559 -9.2974 -0.0173 22.2052 0.4592
# 6 -0.6008 5.0721 -2.6094 3.0719 0.4592 24.4211
#
#
#
# Elastic Compliance Matrix: (Units=1/GPa)
#
#
# Indices 1 2 3 4 5 6 
#
# 1 0.026168 -0.006409 0.001092 -0.005231 0.011120 0.002540
# 2 -0.006409 0.012350 -0.007079 -0.000370 0.000335 -0.003439
# 3 0.001092 -0.007079 0.018628 0.002714 0.004488 0.003062
# 4 -0.005231 -0.000370 0.002714 0.027711 -0.001814 -0.003214
# 5 0.011120 0.000335 0.004488 -0.001814 0.053129 -0.000087
# 6 0.002540 -0.003439 0.003062 -0.003214 -0.000087 0.042458
#
#
# Mechanical properties :
#
#
# Convention : Reuss Voigt Hill
#
# Bulk Modulus (GPa) = 30.90625 49.62937 40.26781
# Shear Modulus (GPa) = 23.14600 27.81307 25.47953
#
# Velocity S-wave (km/s) = 3.25026 3.56291 3.41017
# Velocity P-wave (km/s) = 5.30958 6.29105 5.82104
#
# Compressibility (1/GPa) = 0.03235591
#
# Stress axis : x y z
#
# Youngs Moduli (GPa) = 38.21393 80.97305 53.68223
#
# Poissons Ratio (x) = 0.51893 -0.05863
# Poissons Ratio (y) = 0.24490 0.38000
# Poissons Ratio (z) = -0.04173 0.57318
#
# Static dielectric constant tensor:
#      x y z
#    x 3.867190 0.038320 0.112540 
#    y 0.038320 3.989300 -0.289380 
#    z 0.112540 -0.289380 4.053560 
# 
# 
# High freq. dielectric constant tensor:
#      x y z
#    x 1.852980 0.002580 0.014260 
#    y 0.002580 1.858860 -0.017850 
#    z 0.014260 -0.017850 1.864970 
# 
# From -- ./inp_files/314894.got.cif
#   From: 2010.06.25/outbox.cif.g09.slc.cpg/sg2_158_cif.got.tgz:314894.got - 2010.06.27 13:26:56.
