data_PCOD8015872
_publ_section_title
;
Structure prediction by ZEFSAII (Michael W. Deem and Ramdas Pophale) SiO2 
 PCOD8015872
Probable space group: P -1
;
_chemical_formula_sum "Si O2"
_cell_formula_units_Z 12
_cell_length_a 4.818956
_cell_length_b 11.133637
_cell_length_c 10.729711
_cell_angle_alpha 128.253227
_cell_angle_beta 117.983390
_cell_angle_gamma 71.667899
_cell_volume 398.974367
_symmetry_space_group_name_H-M "P -1"
_symmetry_group_IT_number 2
_symmetry_cell_setting 'triclinic'
loop_
_space_group_symop_operation_xyz
x,y,z
-x,-y,-z
loop_
_atom_site_type_symbol
_atom_site_label
_atom_site_fract_x
_atom_site_fract_y
_atom_site_fract_z
Si Si1 0.457720 0.956012 0.168980
Si Si2 0.140489 0.051288 0.394216
Si Si3 0.356642 0.344957 0.418830
Si Si4 0.185163 0.755312 0.356976
Si Si5 0.636135 0.636127 0.038905
Si Si6 0.335273 0.743401 0.809214
O O1 0.817130 0.985646 0.233737
O O2 0.473643 0.798221 0.155841
O O3 0.299175 0.086085 0.312517
O O4 0.275332 0.908017 0.972210
O O5 0.309734 0.915634 0.427131
O O6 0.065873 0.202382 0.557781
O O7 0.500000 0.500000 0.500000
O O8 0.498380 0.323809 0.573822
O O9 0.485279 0.219487 0.260231
O O10 0.979118 0.347884 0.344747
O O11 0.015323 0.642733 0.151373
O O12 0.500000 0.500000 0.000000
O O13 0.562035 0.630598 0.870561
#
# Coordination Sequence:
#
# PCOD8015872 Si02
#       6
#     2   2   2   2   2   2
#     4   9  21  40  68  90 132 169 215 274 318 383
#     4  10  21  43  66  98 128 169 228 272 313 385
#     4  12  25  44  64  97 137 173 211 270 335 395
#     4  10  24  40  71  98 130 174 224 272 325 383
#     4   9  20  40  67  96 128 174 223 267 318 385
#     4  10  24  43  63  93 136 168 218 262 334 391
#
# _framework density 30.077121999999999
#
# number of rings (size 3 to 8) (size 9 to 14) (size 15 to 20)
#    1.000    1.000    0.000    2.500    0.000   11.333 
#    0.000    8.333    0.000    0.000    0.000    0.000 
#    0.000    0.000    0.000    0.000    0.000    0.000 
#
# Total GULP energy -148737.156155 kJ/mol
# GULP energy per Si atom -12394.763013 kJ/mol
# Density = 3.000867 g / cm^3
# Si number density = 30.077122 Si / 1000 Ang^3
#
#
#
# Elastic Constant Matrix: (Units=GPa)
#
#
# Indices 1 2 3 4 5 6 
#
# 1 171.5344 5.6233 59.3592 -25.3880 -0.4876 22.1818
# 2 5.6233 69.0117 40.9041 -47.5835 21.1283 17.4440
# 3 59.3592 40.9041 182.4149 -41.5070 28.8387 1.0620
# 4 -25.3880 -47.5835 -41.5070 63.6998 -3.5683 0.0817
# 5 -0.4876 21.1283 28.8387 -3.5683 57.2127 0.8220
# 6 22.1818 17.4440 1.0620 0.0817 0.8220 30.7443
#
#
#
# Elastic Compliance Matrix: (Units=1/GPa)
#
#
# Indices 1 2 3 4 5 6 
#
# 1 0.010438 0.014925 -0.003245 0.013061 -0.002745 -0.015848
# 2 0.014925 0.077475 -0.004994 0.059434 -0.021482 -0.054138
# 3 -0.003245 -0.004994 0.008003 0.000056 -0.002285 0.004960
# 4 0.013061 0.059434 0.000056 0.064427 -0.017231 -0.042858
# 5 -0.002745 -0.021482 -0.002285 -0.017231 0.025270 0.013618
# 6 -0.015848 -0.054138 0.004960 -0.042858 0.013618 0.074257
#
#
# Mechanical properties :
#
#
# Convention : Reuss Voigt Hill
#
# Bulk Modulus (GPa) = 9.15026 70.52603 39.83815
# Shear Modulus (GPa) = 17.67228 51.46967 34.57097
#
# Velocity S-wave (km/s) = 2.42660 4.14122 3.39397
# Velocity P-wave (km/s) = 3.30153 6.80923 5.35097
#
# Compressibility (1/GPa) = 0.10928646
#
# Stress axis : x y z
#
# Youngs Moduli (GPa) = 95.80186 12.90738 124.95040
#
# Poissons Ratio (x) = -0.19264 0.40550
# Poissons Ratio (y) = -1.42982 0.62406
# Poissons Ratio (z) = 0.31091 0.06447
#
# Static dielectric constant tensor:
#      x y z
#    x 5.583210 -0.032050 -0.126210 
#    y -0.032050 6.112090 0.069740 
#    z -0.126210 0.069740 6.107900 
# 
# 
# High freq. dielectric constant tensor:
#      x y z
#    x 2.224850 0.023260 0.016810 
#    y 0.023260 2.241010 -0.009320 
#    z 0.016810 -0.009320 2.258020 
# 
# From -- ./inp_files/365879.got.cif
#   From: 2010.06.25/outbox.cif.g09.slc.cpg/sg2_183_cif.got.tgz:365879.got - 2010.06.27 13:26:56.
