data_PCOD8015112
_publ_section_title
;
Structure prediction by ZEFSAII (Michael W. Deem and Ramdas Pophale) SiO2 
 PCOD8015112
Probable space group: P -1
;
_chemical_formula_sum "Si O2"
_cell_formula_units_Z 16
_cell_length_a 12.625345
_cell_length_b 9.703159
_cell_length_c 15.480474
_cell_angle_alpha 144.985012
_cell_angle_beta 59.757292
_cell_angle_gamma 135.381171
_cell_volume 749.371337
_symmetry_space_group_name_H-M "P -1"
_symmetry_group_IT_number 2
_symmetry_cell_setting 'triclinic'
loop_
_space_group_symop_operation_xyz
x,y,z
-x,-y,-z
loop_
_atom_site_type_symbol
_atom_site_label
_atom_site_fract_x
_atom_site_fract_y
_atom_site_fract_z
Si Si1 0.093902 0.096449 0.599998
Si Si2 0.383532 0.387149 0.913885
Si Si3 0.934391 0.687330 0.617537
Si Si4 0.944947 0.850138 0.037935
Si Si5 0.104355 0.630129 0.938710
Si Si6 0.408042 0.219763 0.564549
Si Si7 0.372202 0.895458 0.588882
Si Si8 0.558182 0.805353 0.891790
O O1 0.150667 0.424856 0.776948
O O2 0.240336 0.088568 0.528345
O O3 0.000000 0.000000 0.500000
O O4 0.983754 0.867602 0.601111
O O5 0.239033 0.378982 0.995325
O O6 0.474796 0.608053 0.910098
O O7 0.315204 0.035718 0.748921
O O8 0.500000 0.500000 0.000000
O O9 0.751666 0.448539 0.565868
O O10 0.000000 0.500000 0.500000
O O11 0.983409 0.901204 0.788753
O O12 0.002896 0.645996 0.917184
O O13 0.000000 0.000000 0.000000
O O14 0.000000 0.500000 0.000000
O O15 0.257138 0.970213 0.064554
O O16 0.493583 0.105717 0.418167
O O17 0.508071 0.581630 0.716068
O O18 0.417684 0.107686 0.596810
O O19 0.500000 0.000000 0.000000
#
# Coordination Sequence:
#
# PCOD8015112 Si02
#       8
#     2   2   2   2   2   2   2   2
#     4  12  27  44  67 101 143 184 231 285 344 413
#     4  11  24  43  63 101 137 173 227 285 340 407
#     4  12  22  45  72  96 137 181 232 285 345 411
#     4  12  26  43  72 106 137 179 234 289 348 413
#     4  12  25  44  68 101 141 183 229 284 352 416
#     4  10  21  42  66 101 128 174 231 278 341 406
#     4  10  22  40  73  94 132 177 230 285 341 402
#     4  11  21  41  71  92 130 182 222 278 342 405
#
# _framework density 21.351230999999999
#
# number of rings (size 3 to 8) (size 9 to 14) (size 15 to 20)
#    0.000    0.750    5.000    3.000    1.750    4.000 
#    0.000    0.625    0.000    0.000    0.000    0.000 
#    0.000    0.000    0.000    0.000    0.000    0.000 
#
# Total GULP energy -198263.852281 kJ/mol
# GULP energy per Si atom -12391.490768 kJ/mol
# Density = 2.130263 g / cm^3
# Si number density = 21.351231 Si / 1000 Ang^3
#
#
#
# Elastic Constant Matrix: (Units=GPa)
#
#
# Indices 1 2 3 4 5 6 
#
# 1 165.4558 43.3018 33.6632 3.3991 -11.8078 6.9015
# 2 43.3018 126.8401 27.5468 8.6412 6.9168 1.2086
# 3 33.6632 27.5468 67.9926 12.1581 2.7680 -9.2726
# 4 3.3991 8.6412 12.1581 32.6404 0.5208 5.5632
# 5 -11.8078 6.9168 2.7680 0.5208 39.1603 2.3766
# 6 6.9015 1.2086 -9.2726 5.5632 2.3766 44.7666
#
#
#
# Elastic Compliance Matrix: (Units=1/GPa)
#
#
# Indices 1 2 3 4 5 6 
#
# 1 0.007592 -0.002049 -0.003606 0.001422 0.003021 -0.002199
# 2 -0.002049 0.009322 -0.002476 -0.001268 -0.002062 -0.000182
# 3 -0.003606 -0.002476 0.019661 -0.007230 -0.002290 0.005715
# 4 0.001422 -0.001268 -0.007230 0.034528 0.001070 -0.006030
# 5 0.003021 -0.002062 -0.002290 0.001070 0.027108 -0.002457
# 6 -0.002199 -0.000182 0.005715 -0.006030 -0.002457 0.024746
#
#
# Mechanical properties :
#
#
# Convention : Reuss Voigt Hill
#
# Bulk Modulus (GPa) = 49.22931 63.25688 56.24310
# Shear Modulus (GPa) = 34.24900 40.36525 37.30713
#
# Velocity S-wave (km/s) = 4.00944 4.35275 4.18461
# Velocity P-wave (km/s) = 6.67391 7.41303 7.05316
#
# Compressibility (1/GPa) = 0.02031310
#
# Stress axis : x y z
#
# Youngs Moduli (GPa) = 131.71944 107.27448 50.86143
#
# Poissons Ratio (x) = 0.21984 0.18338
# Poissons Ratio (y) = 0.26994 0.12594
# Poissons Ratio (z) = 0.47492 0.26562
#
# Static dielectric constant tensor:
#      x y z
#    x 4.059030 -0.117170 -0.766690 
#    y -0.117170 3.359140 -0.371360 
#    z -0.766690 -0.371360 3.706100 
# 
# 
# High freq. dielectric constant tensor:
#      x y z
#    x 1.859750 0.009980 -0.018410 
#    y 0.009980 1.829280 0.017360 
#    z -0.018410 0.017360 1.837540 
# 
# From -- ./inp_files/516381.got.cif
#   From: 2010.06.25/outbox.cif.g09.slc.cpg/sg2_259_cif.got.tgz:516381.got - 2010.06.27 13:26:56.
