data_PCOD8015089
_publ_section_title
;
Structure prediction by ZEFSAII (Michael W. Deem and Ramdas Pophale) SiO2 
 PCOD8015089
Probable space group: P -1
;
_chemical_formula_sum "Si O2"
_cell_formula_units_Z 16
_cell_length_a 10.842198
_cell_length_b 8.748012
_cell_length_c 11.134727
_cell_angle_alpha 77.576396
_cell_angle_beta 61.446870
_cell_angle_gamma 121.237426
_cell_volume 624.507617
_symmetry_space_group_name_H-M "P -1"
_symmetry_group_IT_number 2
_symmetry_cell_setting 'triclinic'
loop_
_space_group_symop_operation_xyz
x,y,z
-x,-y,-z
loop_
_atom_site_type_symbol
_atom_site_label
_atom_site_fract_x
_atom_site_fract_y
_atom_site_fract_z
Si Si1 0.952428 0.748227 0.667850
Si Si2 0.559102 0.370826 0.515995
Si Si3 0.649220 0.298747 0.017574
Si Si4 0.288481 0.906755 0.653173
Si Si5 0.822905 0.499848 0.148826
Si Si6 0.676661 0.766468 0.899415
Si Si7 0.940348 0.617747 0.450099
Si Si8 0.187284 0.896348 0.049304
O O1 0.883635 0.861520 0.733620
O O2 0.975736 0.778510 0.508307
O O3 0.170901 0.878998 0.597881
O O4 0.785148 0.475835 0.815295
O O5 0.500000 0.500000 0.500000
O O6 0.648821 0.392240 0.343389
O O7 0.705493 0.445761 0.545881
O O8 0.351254 0.100667 0.680452
O O9 0.739548 0.467656 0.061152
O O10 0.409327 0.146032 0.141165
O O11 0.654257 0.114416 0.054109
O O12 0.137073 0.658335 0.831423
O O13 0.500000 0.000000 0.500000
O O14 0.021145 0.765759 0.041377
O O15 0.710300 0.850733 0.010376
O O16 0.500000 0.500000 0.000000
O O17 0.000000 0.500000 0.500000
O O18 0.075942 0.764368 0.247888
#
# Coordination Sequence:
#
# PCOD8015089 Si02
#       8
#     2   2   2   2   2   2   2   2
#     4  11  23  43  66  95 141 168 219 284 333 394
#     4  10  24  41  66 101 138 171 224 279 337 403
#     4  11  22  44  68  95 134 172 227 272 327 407
#     4  10  21  42  65  96 132 174 218 275 333 396
#     4  10  22  41  68  99 128 173 227 271 336 399
#     4  10  26  44  60  97 136 175 218 273 339 395
#     4  11  22  42  70 101 133 176 228 274 341 402
#     4  11  22  42  69  95 129 177 225 275 328 405
#
# _framework density 25.620184999999999
#
# number of rings (size 3 to 8) (size 9 to 14) (size 15 to 20)
#    0.000    1.500    2.500    2.250    5.250    3.500 
#    4.500    2.500    0.000    0.000    0.000    0.000 
#    0.000    0.000    0.000    0.000    0.000    0.000 
#
# Total GULP energy -198241.440730 kJ/mol
# GULP energy per Si atom -12390.090046 kJ/mol
# Density = 2.556187 g / cm^3
# Si number density = 25.620185 Si / 1000 Ang^3
#
#
#
# Elastic Constant Matrix: (Units=GPa)
#
#
# Indices 1 2 3 4 5 6 
#
# 1 125.8928 50.5899 24.5505 6.8641 -27.6958 17.6185
# 2 50.5899 191.2440 9.6094 1.5832 -15.6456 11.6847
# 3 24.5505 9.6094 17.1289 -2.4836 -9.6417 9.3481
# 4 6.8641 1.5832 -2.4836 44.7616 -4.8680 4.1589
# 5 -27.6958 -15.6456 -9.6417 -4.8680 32.6450 3.7719
# 6 17.6185 11.6847 9.3481 4.1589 3.7719 49.5120
#
#
#
# Elastic Compliance Matrix: (Units=1/GPa)
#
#
# Indices 1 2 3 4 5 6 
#
# 1 0.013142 -0.002170 -0.013383 -0.001836 0.006108 -0.001949
# 2 -0.002170 0.005925 0.001299 0.000462 0.001570 -0.001030
# 3 -0.013383 0.001299 0.100781 0.011681 0.022774 -0.017288
# 4 -0.001836 0.000462 0.011681 0.024319 0.006223 -0.004178
# 5 0.006108 0.001570 0.022774 0.006223 0.045473 -0.010831
# 6 -0.001949 -0.001030 -0.017288 -0.004178 -0.010831 0.025574
#
#
# Mechanical properties :
#
#
# Convention : Reuss Voigt Hill
#
# Bulk Modulus (GPa) = 10.94808 55.97393 33.46100
# Shear Modulus (GPa) = 18.23704 42.01812 30.12758
#
# Velocity S-wave (km/s) = 2.67090 4.05413 3.43291
# Velocity P-wave (km/s) = 3.71404 6.61889 5.36674
#
# Compressibility (1/GPa) = 0.09134025
#
# Stress axis : x y z
#
# Youngs Moduli (GPa) = 76.09430 168.76970 9.92251
#
# Poissons Ratio (x) = 0.36622 0.13279
# Poissons Ratio (y) = 0.16512 -0.01289
# Poissons Ratio (z) = 1.01835 -0.21922
#
# Static dielectric constant tensor:
#      x y z
#    x 4.105750 1.813440 -0.655390 
#    y 1.813440 0.139920 1.139050 
#    z -0.655390 1.139050 4.294930 
# 
# 
# High freq. dielectric constant tensor:
#      x y z
#    x 2.020650 0.006570 -0.018410 
#    y 0.006570 2.045340 0.008560 
#    z -0.018410 0.008560 2.006800 
# 
# From -- ./inp_files/419448.got.cif
#   From: 2010.06.25/outbox.cif.g09.slc.cpg/sg2_210_cif.got.tgz:419448.got - 2010.06.27 13:26:56.
