data_PCOD8015421
_publ_section_title
;
Structure prediction by ZEFSAII (Michael W. Deem and Ramdas Pophale) SiO2 
 PCOD8015421
Probable space group: P -1
;
_chemical_formula_sum "Si O2"
_cell_formula_units_Z 16
_cell_length_a 19.398088
_cell_length_b 8.979541
_cell_length_c 9.825240
_cell_angle_alpha 135.395420
_cell_angle_beta 132.022878
_cell_angle_gamma 36.054402
_cell_volume 688.838983
_symmetry_space_group_name_H-M "P -1"
_symmetry_group_IT_number 2
_symmetry_cell_setting 'triclinic'
loop_
_space_group_symop_operation_xyz
x,y,z
-x,-y,-z
loop_
_atom_site_type_symbol
_atom_site_label
_atom_site_fract_x
_atom_site_fract_y
_atom_site_fract_z
Si Si1 0.106125 0.822065 0.634324
Si Si2 0.930016 0.748918 0.966023
Si Si3 0.584643 0.661932 0.526224
Si Si4 0.577601 0.934399 0.196612
Si Si5 0.384290 0.489624 0.817063
Si Si6 0.267308 0.981615 0.699559
Si Si7 0.002821 0.421268 0.601470
Si Si8 0.691880 0.959308 0.904448
O O1 0.244315 0.694858 0.702839
O O2 0.109360 0.571541 0.515221
O O3 0.000000 0.000000 0.500000
O O4 0.058419 0.023418 0.831395
O O5 0.985426 0.647773 0.823961
O O6 0.000000 0.500000 0.000000
O O7 0.791874 0.878251 0.875187
O O8 0.537409 0.718928 0.342445
O O9 0.655792 0.340248 0.436862
O O10 0.483789 0.822904 0.614447
O O11 0.661372 0.763468 0.704659
O O12 0.604815 0.670074 0.136896
O O13 0.696325 0.888161 0.276976
O O14 0.500000 0.000000 0.000000
O O15 0.412155 0.702290 0.025766
O O16 0.275594 0.081793 0.921287
O O17 0.128521 0.117634 0.592174
O O18 0.000000 0.500000 0.500000
#
# Coordination Sequence:
#
# PCOD8015421 Si02
#       8
#     2   2   2   2   2   2   2   2
#     4  11  21  41  70 100 132 172 213 265 325 394
#     4  11  21  37  67  93 131 171 215 255 318 398
#     4  11  23  44  71  92 126 174 221 272 332 382
#     4  12  25  48  66  92 134 176 217 282 332 377
#     4  10  24  43  69 101 131 166 226 269 319 401
#     4  11  24  43  65  97 133 170 223 270 325 398
#     4  12  25  40  62  99 139 169 213 270 326 389
#     4  10  21  42  68  99 124 170 220 268 322 395
#
# _framework density 23.227488999999998
#
# number of rings (size 3 to 8) (size 9 to 14) (size 15 to 20)
#    0.000    1.000    3.750    3.750    1.750    1.000 
#    9.000    0.000    0.000    0.000    0.000    0.000 
#    0.000    0.000    0.000    0.000    0.000    0.000 
#
# Total GULP energy -198221.732998 kJ/mol
# GULP energy per Si atom -12388.858312 kJ/mol
# Density = 2.317462 g / cm^3
# Si number density = 23.227489 Si / 1000 Ang^3
#
#
#
# Elastic Constant Matrix: (Units=GPa)
#
#
# Indices 1 2 3 4 5 6 
#
# 1 91.6049 -0.6435 52.1266 3.4237 -14.8472 18.6477
# 2 -0.6435 59.0444 34.7500 0.3826 -13.8540 15.4269
# 3 52.1266 34.7500 163.2601 7.0561 -10.1128 12.2450
# 4 3.4237 0.3826 7.0561 32.0559 7.5354 -1.4430
# 5 -14.8472 -13.8540 -10.1128 7.5354 48.1833 5.1162
# 6 18.6477 15.4269 12.2450 -1.4430 5.1162 39.3847
#
#
#
# Elastic Compliance Matrix: (Units=1/GPa)
#
#
# Indices 1 2 3 4 5 6 
#
# 1 0.018395 0.008930 -0.006234 -0.003253 0.008659 -0.011513
# 2 0.008930 0.027457 -0.006783 -0.003081 0.011239 -0.014447
# 3 -0.006234 -0.006783 0.009229 -0.000644 -0.002151 0.002995
# 4 -0.003253 -0.003081 -0.000644 0.033804 -0.007863 0.005207
# 5 0.008659 0.011239 -0.002151 -0.007863 0.028690 -0.011848
# 6 -0.011513 -0.014447 0.002995 0.005207 -0.011848 0.037300
#
#
# Mechanical properties :
#
#
# Convention : Reuss Voigt Hill
#
# Bulk Modulus (GPa) = 21.31772 54.04173 37.67973
# Shear Modulus (GPa) = 27.98235 39.10321 33.54278
#
# Velocity S-wave (km/s) = 3.47466 4.10748 3.80425
# Velocity P-wave (km/s) = 5.02945 6.76846 5.96269
#
# Compressibility (1/GPa) = 0.04690933
#
# Stress axis : x y z
#
# Youngs Moduli (GPa) = 54.36238 36.42021 108.35214
#
# Poissons Ratio (x) = -0.32524 0.67542
# Poissons Ratio (y) = -0.48546 0.73492
# Poissons Ratio (z) = 0.33887 0.24703
#
# Static dielectric constant tensor:
#      x y z
#    x 4.337250 -0.178160 -0.373220 
#    y -0.178160 4.208090 0.262550 
#    z -0.373220 0.262550 4.833570 
# 
# 
# High freq. dielectric constant tensor:
#      x y z
#    x 1.926450 -0.007540 0.004560 
#    y -0.007540 1.919080 0.008610 
#    z 0.004560 0.008610 1.937230 
# 
# From -- ./inp_files/343041.got.cif
#   From: 2010.06.25/outbox.cif.g09.slc.cpg/sg2_172_cif.got.tgz:343041.got - 2010.06.27 13:26:56.
