data_PCOD8015546
_publ_section_title
;
Structure prediction by ZEFSAII (Michael W. Deem and Ramdas Pophale) SiO2 
 PCOD8015546
Probable space group: P -1
;
_chemical_formula_sum "Si O2"
_cell_formula_units_Z 16
_cell_length_a 8.998713
_cell_length_b 11.765809
_cell_length_c 9.641368
_cell_angle_alpha 59.472100
_cell_angle_beta 79.260732
_cell_angle_gamma 115.567609
_cell_volume 676.582583
_symmetry_space_group_name_H-M "P -1"
_symmetry_group_IT_number 2
_symmetry_cell_setting 'triclinic'
loop_
_space_group_symop_operation_xyz
x,y,z
-x,-y,-z
loop_
_atom_site_type_symbol
_atom_site_label
_atom_site_fract_x
_atom_site_fract_y
_atom_site_fract_z
Si Si1 0.979134 0.266943 0.717685
Si Si2 0.622186 0.139860 0.006855
Si Si3 0.886710 0.034247 0.396897
Si Si4 0.300077 0.880161 0.406684
Si Si5 0.771360 0.626558 0.988708
Si Si6 0.708721 0.423590 0.394559
Si Si7 0.299270 0.286477 0.541639
Si Si8 0.383739 0.559061 0.145640
O O1 0.125646 0.471513 0.581529
O O2 0.126481 0.219981 0.724165
O O3 0.856542 0.198177 0.641035
O O4 0.836830 0.193256 0.922166
O O5 0.513604 0.050985 0.224637
O O6 0.632004 0.301984 0.876754
O O7 0.500000 0.000000 0.000000
O O8 0.765823 0.073343 0.480065
O O9 0.029061 0.186979 0.173575
O O10 0.736687 0.868117 0.437602
O O11 0.000000 0.000000 0.500000
O O12 0.324125 0.744289 0.535045
O O13 0.739579 0.518216 0.926150
O O14 0.777515 0.535978 0.175711
O O15 0.605566 0.647104 0.018601
O O16 0.510474 0.381981 0.515083
O O17 0.293112 0.407055 0.363495
#
# Coordination Sequence:
#
# PCOD8015546 Si02
#       8
#     2   2   2   2   2   2   2   2
#     4  11  24  46  71  97 134 188 233 274 340 419
#     4  10  25  41  70 103 134 179 233 283 334 410
#     4  12  22  43  76 106 131 179 237 282 340 413
#     4  11  25  45  73  99 139 182 229 290 343 405
#     4  10  23  41  69 103 138 180 224 284 342 407
#     4  11  27  45  65 106 141 182 225 288 348 403
#     4  11  25  44  74 102 136 180 231 287 342 408
#     4  10  21  42  70  98 137 179 228 280 341 412
#
# _framework density 23.648257999999998
#
# number of rings (size 3 to 8) (size 9 to 14) (size 15 to 20)
#    0.000    1.250    2.500    1.500   12.250    2.000 
#    0.000    1.250    0.000    0.000    0.000    0.000 
#    0.000    0.000    0.000    0.000    0.000    0.000 
#
# Total GULP energy -198360.719621 kJ/mol
# GULP energy per Si atom -12397.544976 kJ/mol
# Density = 2.359443 g / cm^3
# Si number density = 23.648258 Si / 1000 Ang^3
#
#
#
# Elastic Constant Matrix: (Units=GPa)
#
#
# Indices 1 2 3 4 5 6 
#
# 1 101.5760 43.0825 72.0454 -4.0120 -28.1812 -22.4539
# 2 43.0825 110.8058 41.5791 -22.7854 -14.0838 -31.0484
# 3 72.0454 41.5791 140.1068 -21.2827 -29.1664 -17.0565
# 4 -4.0120 -22.7854 -21.2827 29.7898 -7.2085 -3.4508
# 5 -28.1812 -14.0838 -29.1664 -7.2085 45.6047 -0.5907
# 6 -22.4539 -31.0484 -17.0565 -3.4508 -0.5907 44.3362
#
#
#
# Elastic Compliance Matrix: (Units=1/GPa)
#
#
# Indices 1 2 3 4 5 6 
#
# 1 0.018985 -0.003569 -0.007802 -0.004078 0.005045 0.003864
# 2 -0.003569 0.018109 0.002685 0.018849 0.008258 0.013484
# 3 -0.007802 0.002685 0.014610 0.013827 0.007599 0.004727
# 4 -0.004078 0.018849 0.013827 0.065351 0.022757 0.021843
# 5 0.005045 0.008258 0.007599 0.022757 0.036227 0.013515
# 6 0.003864 0.013484 0.004727 0.021843 0.013515 0.037653
#
#
# Mechanical properties :
#
#
# Convention : Reuss Voigt Hill
#
# Bulk Modulus (GPa) = 29.12714 73.98917 51.55815
# Shear Modulus (GPa) = 22.75283 36.99827 29.87555
#
# Velocity S-wave (km/s) = 3.10520 3.95970 3.55819
# Velocity P-wave (km/s) = 5.01995 7.22917 6.22337
#
# Compressibility (1/GPa) = 0.03433224
#
# Stress axis : x y z
#
# Youngs Moduli (GPa) = 52.67239 55.22204 68.44427
#
# Poissons Ratio (x) = 0.19706 0.53403
# Poissons Ratio (y) = 0.18796 -0.18376
# Poissons Ratio (z) = 0.41097 -0.14826
#
# Static dielectric constant tensor:
#      x y z
#    x 4.227790 -0.110960 -0.479380 
#    y -0.110960 4.517970 0.144340 
#    z -0.479380 0.144340 5.252750 
# 
# 
# High freq. dielectric constant tensor:
#      x y z
#    x 1.927500 -0.008750 -0.027980 
#    y -0.008750 1.950350 -0.007010 
#    z -0.027980 -0.007010 1.938440 
# 
# From -- ./inp_files/389387.got.cif
#   From: 2010.06.25/outbox.cif.g09.slc.cpg/sg2_195_cif.got.tgz:389387.got - 2010.06.27 13:26:56.
