data_PCOD8015748
_publ_section_title
;
Structure prediction by ZEFSAII (Michael W. Deem and Ramdas Pophale) SiO2 
 PCOD8015748
Probable space group: P -1
;
_chemical_formula_sum "Si O2"
_cell_formula_units_Z 16
_cell_length_a 8.699265
_cell_length_b 12.742896
_cell_length_c 18.418717
_cell_angle_alpha 41.837372
_cell_angle_beta 53.753685
_cell_angle_gamma 86.848681
_cell_volume 765.978622
_symmetry_space_group_name_H-M "P -1"
_symmetry_group_IT_number 2
_symmetry_cell_setting 'triclinic'
loop_
_space_group_symop_operation_xyz
x,y,z
-x,-y,-z
loop_
_atom_site_type_symbol
_atom_site_label
_atom_site_fract_x
_atom_site_fract_y
_atom_site_fract_z
Si Si1 0.103165 0.475417 0.103815
Si Si2 0.532980 0.976930 0.768358
Si Si3 0.009088 0.688919 0.416081
Si Si4 0.433359 0.405011 0.786758
Si Si5 0.946627 0.143038 0.969982
Si Si6 0.831664 0.061176 0.498518
Si Si7 0.671119 0.411457 0.171147
Si Si8 0.233545 0.935727 0.088761
O O1 0.004467 0.280370 0.286201
O O2 0.875210 0.465581 0.147594
O O3 0.353226 0.710604 0.953864
O O4 0.201310 0.461509 0.006892
O O5 0.728018 0.102008 0.719255
O O6 0.727669 0.095587 0.581373
O O7 0.310118 0.988634 0.833462
O O8 0.004679 0.772321 0.297096
O O9 0.000000 0.500000 0.500000
O O10 0.740390 0.588399 0.581288
O O11 0.446329 0.494354 0.815160
O O12 0.227573 0.377530 0.804308
O O13 0.300309 0.157267 0.956520
O O14 0.873051 0.195990 0.890351
O O15 0.000000 0.000000 0.000000
O O16 0.563234 0.856815 0.634016
O O17 0.000000 0.000000 0.500000
O O18 0.500000 0.000000 0.000000
#
# Coordination Sequence:
#
# PCOD8015748 Si02
#       8
#     2   2   2   2   2   2   2   2
#     4  10  23  45  69  94 135 174 217 278 334 398
#     4  11  23  42  69  96 132 180 220 269 342 389
#     4  12  24  41  64  98 133 172 223 273 325 390
#     4  11  23  41  66  97 131 168 225 272 325 400
#     4  10  21  43  64  92 133 169 220 270 323 394
#     4  11  25  43  66 103 137 170 223 279 334 409
#     4  10  22  43  68  97 131 175 220 275 333 391
#     4  11  22  42  67  92 130 181 217 274 333 385
#
# _framework density 20.888313
#
# number of rings (size 3 to 8) (size 9 to 14) (size 15 to 20)
#    0.000    1.250    3.750    1.875    0.000    7.500 
#    4.500    0.000    0.000    0.000    0.000    0.000 
#    0.000    0.000    0.000    0.000    0.000    0.000 
#
# Total GULP energy -198233.323631 kJ/mol
# GULP energy per Si atom -12389.582727 kJ/mol
# Density = 2.084077 g / cm^3
# Si number density = 20.888313 Si / 1000 Ang^3
#
#
#
# Elastic Constant Matrix: (Units=GPa)
#
#
# Indices 1 2 3 4 5 6 
#
# 1 104.8633 48.2377 53.6272 9.7383 -8.2632 8.6501
# 2 48.2377 137.5915 49.8231 25.2516 -1.8891 -1.4546
# 3 53.6272 49.8231 135.8696 11.3767 7.7542 -3.2446
# 4 9.7383 25.2516 11.3767 33.7493 -2.6024 -17.8104
# 5 -8.2632 -1.8891 7.7542 -2.6024 41.1186 3.4714
# 6 8.6501 -1.4546 -3.2446 -17.8104 3.4714 28.7426
#
#
#
# Elastic Compliance Matrix: (Units=1/GPa)
#
#
# Indices 1 2 3 4 5 6 
#
# 1 0.014713 -0.002494 -0.004921 -0.004994 0.004189 -0.008710
# 2 -0.002494 0.010509 -0.002261 -0.008672 0.000228 -0.004374
# 3 -0.004921 -0.002261 0.010292 0.001386 -0.003265 0.003782
# 4 -0.004994 -0.008672 0.001386 0.056050 -0.001163 0.036092
# 5 0.004189 0.000228 -0.003265 -0.001163 0.026179 -0.005500
# 6 -0.008710 -0.004374 0.003782 0.036092 -0.005500 0.060647
#
#
# Mechanical properties :
#
#
# Convention : Reuss Voigt Hill
#
# Bulk Modulus (GPa) = 61.87470 75.74450 68.80960
# Shear Modulus (GPa) = 24.61486 35.83120 30.22303
#
# Velocity S-wave (km/s) = 3.43651 4.14620 3.80792
# Velocity P-wave (km/s) = 6.74034 7.69816 7.23512
#
# Compressibility (1/GPa) = 0.01616169
#
# Stress axis : x y z
#
# Youngs Moduli (GPa) = 67.96860 95.15328 97.16230
#
# Poissons Ratio (x) = 0.23732 0.47818
# Poissons Ratio (y) = 0.16952 0.21965
# Poissons Ratio (z) = 0.33450 0.21511
#
# Static dielectric constant tensor:
#      x y z
#    x -2.285080 -1.320940 -4.657780 
#    y -1.320940 3.785090 -0.836570 
#    z -4.657780 -0.836570 0.882450 
# 
# 
# High freq. dielectric constant tensor:
#      x y z
#    x 1.819360 0.011460 -0.023590 
#    y 0.011460 1.842220 0.014730 
#    z -0.023590 0.014730 1.807610 
# 
# From -- ./inp_files/519509.got.cif
#   From: 2010.06.25/outbox.cif.g09.slc.cpg/sg2_260_cif.got.tgz:519509.got - 2010.06.27 13:26:56.
