data_PCOD8015834
_publ_section_title
;
Structure prediction by ZEFSAII (Michael W. Deem and Ramdas Pophale) SiO2 
 PCOD8015834
Probable space group: P -1
;
_chemical_formula_sum "Si O2"
_cell_formula_units_Z 14
_cell_length_a 15.272634
_cell_length_b 15.965988
_cell_length_c 15.048897
_cell_angle_alpha 161.491439
_cell_angle_beta 32.737950
_cell_angle_gamma 146.422079
_cell_volume 616.361612
_symmetry_space_group_name_H-M "P -1"
_symmetry_group_IT_number 2
_symmetry_cell_setting 'triclinic'
loop_
_space_group_symop_operation_xyz
x,y,z
-x,-y,-z
loop_
_atom_site_type_symbol
_atom_site_label
_atom_site_fract_x
_atom_site_fract_y
_atom_site_fract_z
Si Si1 0.842709 0.109506 0.049571
Si Si2 0.176426 0.836868 0.251185
Si Si3 0.480800 0.857202 0.120236
Si Si4 0.982408 0.267304 0.899723
Si Si5 0.554949 0.640053 0.228383
Si Si6 0.797980 0.385815 0.538521
Si Si7 0.856197 0.889196 0.101172
O O1 0.820582 0.349511 0.377114
O O2 0.674201 0.882044 0.955461
O O3 0.890986 0.236260 0.040386
O O4 0.989663 0.979004 0.834806
O O5 0.367859 0.833584 0.104401
O O6 0.154525 0.840065 0.166964
O O7 0.128340 0.100490 0.601717
O O8 0.055496 0.581528 0.140927
O O9 0.457932 0.117186 0.453012
O O10 0.412403 0.604598 0.986443
O O11 0.386340 0.554949 0.230102
O O12 0.710645 0.719727 0.112200
O O13 0.797460 0.111446 0.316456
O O14 0.916987 0.662478 0.755317
#
# Coordination Sequence:
#
# PCOD8015834 Si02
#       7
#     2   2   2   2   2   2   2
#     4  11  25  40  60  92 124 159 198 247 306 355
#     4  10  21  43  66  93 120 155 198 244 293 360
#     4  11  23  39  62  91 127 155 195 247 301 357
#     4  10  23  41  68  92 119 155 201 244 295 360
#     4  11  23  41  63  88 118 162 207 247 294 353
#     4  11  24  40  59  88 121 158 204 256 298 346
#     4  12  23  40  63  84 119 163 209 249 293 349
#
# _framework density 22.713940000000001
#
# number of rings (size 3 to 8) (size 9 to 14) (size 15 to 20)
#    0.000    1.143    0.000    6.857    0.000    7.429 
#    0.000    0.000    0.000    9.429    0.000    0.000 
#    0.000    0.000    0.000    0.000    0.000    0.000 
#
# Total GULP energy -173641.707833 kJ/mol
# GULP energy per Si atom -12402.979131 kJ/mol
# Density = 2.266224 g / cm^3
# Si number density = 22.713940 Si / 1000 Ang^3
#
#
#
# Elastic Constant Matrix: (Units=GPa)
#
#
# Indices 1 2 3 4 5 6 
#
# 1 164.0784 75.1142 31.7663 -6.4977 -14.3089 4.8739
# 2 75.1142 107.0185 -3.4022 -18.5045 -6.1060 -5.8347
# 3 31.7663 -3.4022 80.1779 8.4245 -23.4519 -6.6518
# 4 -6.4977 -18.5045 8.4245 26.3675 -5.1464 2.8883
# 5 -14.3089 -6.1060 -23.4519 -5.1464 27.3163 7.4282
# 6 4.8739 -5.8347 -6.6518 2.8883 7.4282 34.2093
#
#
#
# Elastic Compliance Matrix: (Units=1/GPa)
#
#
# Indices 1 2 3 4 5 6 
#
# 1 0.010843 -0.008090 -0.004638 -0.000943 0.000777 -0.003915
# 2 -0.008090 0.017160 0.004504 0.009091 0.004292 0.003256
# 3 -0.004638 0.004504 0.018921 -0.001552 0.013927 0.002215
# 4 -0.000943 0.009091 -0.001552 0.047132 0.010406 -0.004856
# 5 0.000777 0.004292 0.013927 0.010406 0.054440 -0.009370
# 6 -0.003915 0.003256 0.002215 -0.004856 -0.009370 0.033220
#
#
# Mechanical properties :
#
#
# Convention : Reuss Voigt Hill
#
# Bulk Modulus (GPa) = 32.81286 62.02574 47.41930
# Shear Modulus (GPa) = 24.00123 34.09839 29.04981
#
# Velocity S-wave (km/s) = 3.25418 3.87875 3.58011
# Velocity P-wave (km/s) = 5.34762 6.88667 6.16536
#
# Compressibility (1/GPa) = 0.03047586
#
# Stress axis : x y z
#
# Youngs Moduli (GPa) = 92.22725 58.27535 52.85049
#
# Poissons Ratio (x) = 0.47145 0.24510
# Poissons Ratio (y) = 0.74612 -0.23802
# Poissons Ratio (z) = 0.42772 -0.26245
#
# Static dielectric constant tensor:
#      x y z
#    x 4.576580 0.382770 -0.105350 
#    y 0.382770 4.275800 -0.161030 
#    z -0.105350 -0.161030 4.079590 
# 
# 
# High freq. dielectric constant tensor:
#      x y z
#    x 1.912840 0.013550 -0.008180 
#    y 0.013550 1.897480 0.003930 
#    z -0.008180 0.003930 1.897370 
# 
# From -- ./inp_files/105631.got.cif
#   From: 2010.06.25/outbox.cif.g09.slc.cpg/sg2_53_cif.got.tgz:105631.got - 2010.06.27 13:26:56.
