data_PCOD8015906
_publ_section_title
;
Structure prediction by ZEFSAII (Michael W. Deem and Ramdas Pophale) SiO2 
 PCOD8015906
Probable space group: P -1
;
_chemical_formula_sum "Si O2"
_cell_formula_units_Z 16
_cell_length_a 11.483047
_cell_length_b 10.106365
_cell_length_c 8.084175
_cell_angle_alpha 99.449157
_cell_angle_beta 49.812105
_cell_angle_gamma 95.970644
_cell_volume 706.981977
_symmetry_space_group_name_H-M "P -1"
_symmetry_group_IT_number 2
_symmetry_cell_setting 'triclinic'
loop_
_space_group_symop_operation_xyz
x,y,z
-x,-y,-z
loop_
_atom_site_type_symbol
_atom_site_label
_atom_site_fract_x
_atom_site_fract_y
_atom_site_fract_z
Si Si1 0.629026 0.925797 0.533419
Si Si2 0.949027 0.528058 0.826052
Si Si3 0.165475 0.358157 0.377221
Si Si4 0.494903 0.344173 0.003893
Si Si5 0.153634 0.073742 0.382452
Si Si6 0.547327 0.217596 0.583076
Si Si7 0.327787 0.854068 0.986586
Si Si8 0.184012 0.669348 0.838255
O O1 0.607728 0.816850 0.383635
O O2 0.477478 0.909391 0.776268
O O3 0.783695 0.894291 0.484458
O O4 0.641751 0.078592 0.487589
O O5 0.849680 0.559328 0.761866
O O6 0.085224 0.428337 0.621565
O O7 0.035648 0.659263 0.851357
O O8 0.835117 0.460975 0.050546
O O9 0.100629 0.211009 0.372316
O O10 0.342580 0.326410 0.248794
O O11 0.485179 0.273137 0.822028
O O12 0.500000 0.500000 0.000000
O O13 0.635116 0.276696 0.960415
O O14 0.278929 0.983932 0.158969
O O15 0.000000 0.000000 0.500000
O O16 0.658686 0.327382 0.413557
O O17 0.195468 0.803445 0.970196
#
# Coordination Sequence:
#
# PCOD8015906 Si02
#       8
#     2   2   2   2   2   2   2   2
#     4  10  21  43  67  93 131 174 211 275 328 380
#     4  10  23  46  65  91 139 168 219 268 327 388
#     4  11  24  43  68  96 124 178 218 271 322 392
#     4  12  23  40  68 102 125 173 224 265 323 387
#     4  12  24  39  68  99 128 171 220 268 330 388
#     4  10  22  40  69  95 131 170 218 265 332 380
#     4  11  22  44  66  93 136 167 222 274 320 385
#     4  10  22  42  68  92 130 184 202 268 337 381
#
# _framework density 22.631409999999999
#
# number of rings (size 3 to 8) (size 9 to 14) (size 15 to 20)
#    0.000    1.250    2.500    3.375    1.750    2.000 
#    9.000    4.375    0.000    0.000    0.000    0.000 
#    0.000    0.000    0.000    0.000    0.000    0.000 
#
# Total GULP energy -198224.637213 kJ/mol
# GULP energy per Si atom -12389.039826 kJ/mol
# Density = 2.257990 g / cm^3
# Si number density = 22.631410 Si / 1000 Ang^3
#
#
#
# Elastic Constant Matrix: (Units=GPa)
#
#
# Indices 1 2 3 4 5 6 
#
# 1 93.6113 26.7961 30.9001 3.4691 4.9894 18.7277
# 2 26.7961 104.7185 36.0073 -8.0329 1.0579 8.3183
# 3 30.9001 36.0073 79.1558 -5.4141 3.9286 -0.2382
# 4 3.4691 -8.0329 -5.4141 38.8817 6.1166 -4.1359
# 5 4.9894 1.0579 3.9286 6.1166 24.7782 -5.2993
# 6 18.7277 8.3183 -0.2382 -4.1359 -5.2993 36.7251
#
#
#
# Elastic Compliance Matrix: (Units=1/GPa)
#
#
# Indices 1 2 3 4 5 6 
#
# 1 0.014644 -0.001553 -0.005063 -0.002684 -0.003106 -0.007899
# 2 -0.001553 0.011822 -0.004641 0.001791 -0.000273 -0.001753
# 3 -0.005063 -0.004641 0.016963 0.002461 -0.001258 0.003839
# 4 -0.002684 0.001791 0.002461 0.027982 -0.006140 0.003244
# 5 -0.003106 -0.000273 -0.001258 -0.006140 0.044279 0.007336
# 6 -0.007899 -0.001753 0.003839 0.003244 0.007336 0.033103
#
#
# Mechanical properties :
#
#
# Convention : Reuss Voigt Hill
#
# Bulk Modulus (GPa) = 47.81264 51.65474 49.73369
# Shear Modulus (GPa) = 28.04592 32.32915 30.18753
#
# Velocity S-wave (km/s) = 3.52411 3.78366 3.65619
# Velocity P-wave (km/s) = 6.14261 6.47781 6.31244
#
# Compressibility (1/GPa) = 0.02091497
#
# Stress axis : x y z
#
# Youngs Moduli (GPa) = 68.28907 84.58830 58.95154
#
# Poissons Ratio (x) = 0.13139 0.29848
# Poissons Ratio (y) = 0.10607 0.27357
# Poissons Ratio (z) = 0.34575 0.39254
#
# Static dielectric constant tensor:
#      x y z
#    x 4.286510 0.241840 0.148970 
#    y 0.241840 4.058400 -0.280730 
#    z 0.148970 -0.280730 3.778500 
# 
# 
# High freq. dielectric constant tensor:
#      x y z
#    x 1.890620 0.020330 0.016450 
#    y 0.020330 1.900200 -0.015580 
#    z 0.016450 -0.015580 1.883460 
# 
# From -- ./inp_files/244389.got.cif
#   From: 2010.06.25/outbox.cif.g09.slc.cpg/sg2_123_cif.got.tgz:244389.got - 2010.06.27 13:26:56.
