data_PCOD8015689
_publ_section_title
;
Structure prediction by ZEFSAII (Michael W. Deem and Ramdas Pophale) SiO2 
 PCOD8015689
Probable space group: P -1
;
_chemical_formula_sum "Si O2"
_cell_formula_units_Z 14
_cell_length_a 9.942078
_cell_length_b 8.716814
_cell_length_c 26.809983
_cell_angle_alpha 29.915166
_cell_angle_beta 34.186437
_cell_angle_gamma 43.881817
_cell_volume 651.022368
_symmetry_space_group_name_H-M "P -1"
_symmetry_group_IT_number 2
_symmetry_cell_setting 'triclinic'
loop_
_space_group_symop_operation_xyz
x,y,z
-x,-y,-z
loop_
_atom_site_type_symbol
_atom_site_label
_atom_site_fract_x
_atom_site_fract_y
_atom_site_fract_z
Si Si1 0.974275 0.026260 0.558884
Si Si2 0.943645 0.701297 0.362029
Si Si3 0.334295 0.442657 0.824781
Si Si4 0.523202 0.975075 0.558490
Si Si5 0.712019 0.460347 0.787160
Si Si6 0.142317 0.324435 0.137274
Si Si7 0.662471 0.246665 0.967366
O O1 0.217180 0.897447 0.544951
O O2 0.932799 0.383543 0.486504
O O3 0.000000 0.000000 0.500000
O O4 0.759276 0.796189 0.703363
O O5 0.067634 0.646418 0.285729
O O6 0.669944 0.822017 0.408297
O O7 0.097919 0.967474 0.267329
O O8 0.498842 0.618707 0.684091
O O9 0.459556 0.481448 0.829501
O O10 0.064653 0.578763 0.866026
O O11 0.320690 0.082683 0.918052
O O12 0.500000 0.000000 0.500000
O O13 0.707524 0.218688 0.902158
O O14 0.142925 0.531751 0.128706
O O15 0.393444 0.378604 0.017993
#
# Coordination Sequence:
#
# PCOD8015689 Si02
#       7
#     2   2   2   2   2   2   2
#     4  10  21  43  62  93 129 166 208 267 308 378
#     4  10  22  44  65  92 129 170 207 268 316 377
#     4  11  22  44  64  92 131 165 212 266 310 380
#     4  11  24  42  67  94 127 168 215 262 324 376
#     4  11  23  42  68  93 133 170 212 258 320 381
#     4  10  23  41  67  91 129 166 217 259 317 375
#     4  11  23  44  65  95 128 169 212 266 314 374
#
# _framework density 21.504638
#
# number of rings (size 3 to 8) (size 9 to 14) (size 15 to 20)
#    0.000    1.429    4.286    0.857    4.000    3.429 
#    7.714    0.000    0.000    0.000    0.000    0.000 
#    0.000    0.000    0.000    0.000    0.000    0.000 
#
# Total GULP energy -173496.114140 kJ/mol
# GULP energy per Si atom -12392.579581 kJ/mol
# Density = 2.145569 g / cm^3
# Si number density = 21.504638 Si / 1000 Ang^3
#
#
#
# Elastic Constant Matrix: (Units=GPa)
#
#
# Indices 1 2 3 4 5 6 
#
# 1 129.1813 47.0141 47.2698 -6.6975 -15.8922 -7.5341
# 2 47.0141 86.5129 36.5709 -12.6447 -9.8457 -6.6495
# 3 47.2698 36.5709 99.4313 -31.0388 -17.5329 4.7417
# 4 -6.6975 -12.6447 -31.0388 34.7557 8.1143 -4.2781
# 5 -15.8922 -9.8457 -17.5329 8.1143 44.0211 1.6260
# 6 -7.5341 -6.6495 4.7417 -4.2781 1.6260 24.0204
#
#
#
# Elastic Compliance Matrix: (Units=1/GPa)
#
#
# Indices 1 2 3 4 5 6 
#
# 1 0.011181 -0.004227 -0.004721 -0.003714 0.001804 0.002485
# 2 -0.004227 0.015930 -0.003217 0.002593 0.000123 0.004172
# 3 -0.004721 -0.003217 0.018212 0.013120 0.002552 -0.003802
# 4 -0.003714 0.002593 0.013120 0.042105 -0.003470 0.004697
# 5 0.001804 0.000123 0.002552 -0.003470 0.025133 -0.002223
# 6 0.002485 0.004172 -0.003802 0.004697 -0.002223 0.045303
#
#
# Mechanical properties :
#
#
# Convention : Reuss Voigt Hill
#
# Bulk Modulus (GPa) = 47.63696 64.09279 55.86487
# Shear Modulus (GPa) = 26.42816 32.84415 29.63616
#
# Velocity S-wave (km/s) = 3.50944 3.91232 3.71634
# Velocity P-wave (km/s) = 6.21463 7.09064 6.66704
#
# Compressibility (1/GPa) = 0.02099210
#
# Stress axis : x y z
#
# Youngs Moduli (GPa) = 89.43586 62.77491 54.91015
#
# Poissons Ratio (x) = 0.26537 0.25921
# Poissons Ratio (y) = 0.37807 0.17666
# Poissons Ratio (z) = 0.42220 0.20196
#
# Static dielectric constant tensor:
#      x y z
#    x 3.783690 -0.122440 -0.233080 
#    y -0.122440 3.957580 -0.450570 
#    z -0.233080 -0.450570 4.484670 
# 
# 
# High freq. dielectric constant tensor:
#      x y z
#    x 1.838240 -0.011100 -0.017890 
#    y -0.011100 1.822120 -0.015850 
#    z -0.017890 -0.015850 1.859580 
# 
# From -- ./inp_files/203857.got.cif
#   From: 2010.06.25/outbox.cif.g09.slc.cpg/sg2_102_cif.got.tgz:203857.got - 2010.06.27 13:26:56.
