data_PCOD8015940
_publ_section_title
;
Structure prediction by ZEFSAII (Michael W. Deem and Ramdas Pophale) SiO2 
 PCOD8015940
Probable space group: P -1
;
_chemical_formula_sum "Si O2"
_cell_formula_units_Z 16
_cell_length_a 9.264050
_cell_length_b 15.759604
_cell_length_c 9.355134
_cell_angle_alpha 130.208541
_cell_angle_beta 84.008442
_cell_angle_gamma 64.184241
_cell_volume 777.454972
_symmetry_space_group_name_H-M "P -1"
_symmetry_group_IT_number 2
_symmetry_cell_setting 'triclinic'
loop_
_space_group_symop_operation_xyz
x,y,z
-x,-y,-z
loop_
_atom_site_type_symbol
_atom_site_label
_atom_site_fract_x
_atom_site_fract_y
_atom_site_fract_z
Si Si1 0.755628 0.179806 0.592046
Si Si2 0.253134 0.598481 0.327040
Si Si3 0.080732 0.369921 0.739590
Si Si4 0.147266 0.877272 0.164677
Si Si5 0.568764 0.841902 0.340135
Si Si6 0.820123 0.568292 0.494574
Si Si7 0.268162 0.624360 0.668444
Si Si8 0.558288 0.720297 0.944242
O O1 0.663270 0.334988 0.691554
O O2 0.839930 0.175970 0.732620
O O3 0.594917 0.163717 0.597996
O O4 0.942631 0.040533 0.332844
O O5 0.178226 0.676352 0.574650
O O6 0.412673 0.420802 0.148536
O O7 0.080502 0.639223 0.291307
O O8 0.265408 0.222018 0.631738
O O9 0.165926 0.373942 0.589299
O O10 0.000000 0.500000 0.000000
O O11 0.180154 0.768136 0.923640
O O12 0.331035 0.867105 0.120017
O O13 0.500000 0.000000 0.500000
O O14 0.659030 0.751966 0.082373
O O15 0.807433 0.446465 0.320868
O O16 0.636823 0.696047 0.750049
O O17 0.000000 0.500000 0.500000
O O18 0.500000 0.500000 0.500000
#
# Coordination Sequence:
#
# PCOD8015940 Si02
#       8
#     2   2   2   2   2   2   2   2
#     4  10  26  42  67  97 132 177 220 274 330 394
#     4  11  23  43  62 105 128 165 227 267 334 387
#     4  12  25  42  67  99 133 175 219 282 327 402
#     4  10  22  42  65  95 127 179 216 268 335 386
#     4  11  26  45  66  97 136 176 231 268 337 397
#     4  11  21  40  62 100 133 168 217 271 347 378
#     4  11  22  39  68  95 132 174 216 275 326 400
#     4  10  21  43  67  97 135 167 218 287 317 405
#
# _framework density 20.579969999999999
#
# number of rings (size 3 to 8) (size 9 to 14) (size 15 to 20)
#    0.000    1.250    6.250    0.000    8.750    3.500 
#    0.000    0.625    0.000    0.000    0.000    0.000 
#    0.000    0.000    0.000    0.000    0.000    0.000 
#
# Total GULP energy -198260.037062 kJ/mol
# GULP energy per Si atom -12391.252316 kJ/mol
# Density = 2.053313 g / cm^3
# Si number density = 20.579970 Si / 1000 Ang^3
#
#
#
# Elastic Constant Matrix: (Units=GPa)
#
#
# Indices 1 2 3 4 5 6 
#
# 1 107.6105 31.5571 27.6728 2.5812 7.1025 -2.9593
# 2 31.5571 95.4739 40.2224 -1.0303 5.0043 8.0811
# 3 27.6728 40.2224 124.4269 -8.8889 10.4009 -2.9539
# 4 2.5812 -1.0303 -8.8889 27.9100 -4.1484 0.4835
# 5 7.1025 5.0043 10.4009 -4.1484 40.8125 -0.9230
# 6 -2.9593 8.0811 -2.9539 0.4835 -0.9230 42.8879
#
#
#
# Elastic Compliance Matrix: (Units=1/GPa)
#
#
# Indices 1 2 3 4 5 6 
#
# 1 0.010692 -0.002998 -0.001398 -0.001757 -0.001288 0.001198
# 2 -0.002998 0.013287 -0.003705 -0.000401 -0.000271 -0.002967
# 3 -0.001398 -0.003705 0.009908 0.002903 -0.001505 0.001219
# 4 -0.001757 -0.000401 0.002903 0.037412 0.003413 -0.000194
# 5 -0.001288 -0.000271 -0.001505 0.003413 0.025498 0.000369
# 6 0.001198 -0.002967 0.001219 -0.000194 0.000369 0.024052
#
#
# Mechanical properties :
#
#
# Convention : Reuss Voigt Hill
#
# Bulk Modulus (GPa) = 56.54694 58.49065 57.51880
# Shear Modulus (GPa) = 34.97842 37.52602 36.25222
#
# Velocity S-wave (km/s) = 4.12713 4.27479 4.20161
# Velocity P-wave (km/s) = 7.08853 7.26966 7.17967
#
# Compressibility (1/GPa) = 0.01768442
#
# Stress axis : x y z
#
# Youngs Moduli (GPa) = 93.53195 75.26318 100.93335
#
# Poissons Ratio (x) = 0.22562 0.14112
# Poissons Ratio (y) = 0.28038 0.37394
# Poissons Ratio (z) = 0.13077 0.27883
#
# Static dielectric constant tensor:
#      x y z
#    x 4.056420 -0.104500 0.057790 
#    y -0.104500 3.499870 -0.108540 
#    z 0.057790 -0.108540 4.025510 
# 
# 
# High freq. dielectric constant tensor:
#      x y z
#    x 1.812330 -0.010180 0.006240 
#    y -0.010180 1.788410 -0.014600 
#    z 0.006240 -0.014600 1.813280 
# 
# From -- ./inp_files/208962.got.cif
#   From: 2010.06.25/outbox.cif.g09.slc.cpg/sg2_105_cif.got.tgz:208962.got - 2010.06.27 13:26:56.
