data_PCOD8015172
_publ_section_title
;
Structure prediction by ZEFSAII (Michael W. Deem and Ramdas Pophale) SiO2 
 PCOD8015172
Probable space group: P -1
;
_chemical_formula_sum "Si O2"
_cell_formula_units_Z 16
_cell_length_a 4.917636
_cell_length_b 18.711047
_cell_length_c 8.271518
_cell_angle_alpha 67.228420
_cell_angle_beta 86.503924
_cell_angle_gamma 77.206459
_cell_volume 684.092109
_symmetry_space_group_name_H-M "P -1"
_symmetry_group_IT_number 2
_symmetry_cell_setting 'triclinic'
loop_
_space_group_symop_operation_xyz
x,y,z
-x,-y,-z
loop_
_atom_site_type_symbol
_atom_site_label
_atom_site_fract_x
_atom_site_fract_y
_atom_site_fract_z
Si Si1 0.577874 0.727194 0.950831
Si Si2 0.006431 0.812987 0.983888
Si Si3 0.009131 0.463190 0.209215
Si Si4 0.171689 0.393827 0.706958
Si Si5 0.016958 0.908441 0.604577
Si Si6 0.537028 0.381298 0.411732
Si Si7 0.400930 0.185500 0.429748
Si Si8 0.017953 0.743160 0.361314
O O1 0.702537 0.792654 0.991444
O O2 0.702203 0.641211 0.094009
O O3 0.243909 0.742736 0.961069
O O4 0.660909 0.737933 0.753242
O O5 0.071980 0.812126 0.175439
O O6 0.033067 0.891955 0.813880
O O7 0.274434 0.389760 0.290132
O O8 0.036239 0.525424 0.298673
O O9 0.724512 0.435876 0.277757
O O10 0.000000 0.500000 0.000000
O O11 0.422945 0.408733 0.571083
O O12 0.009923 0.335579 0.669110
O O13 0.743470 0.884430 0.566202
O O14 0.272586 0.855721 0.539998
O O15 0.000000 0.000000 0.500000
O O16 0.717541 0.288920 0.499656
O O17 0.272972 0.220038 0.573799
#
# Coordination Sequence:
#
# PCOD8015172 Si02
#       8
#     2   2   2   2   2   2   2   2
#     4   9  19  36  57  88 114 164 201 259 307 369
#     4   9  19  37  59  90 126 156 207 253 303 372
#     4  12  29  46  62  92 127 169 221 272 319 394
#     4  11  24  42  68  87 127 168 214 264 339 378
#     4  10  21  42  66  93 132 177 205 246 313 381
#     4  12  25  45  65  90 126 169 214 268 334 386
#     4  10  23  38  64  95 130 158 218 263 303 374
#     4  11  24  41  66  98 126 166 214 273 327 366
#
# _framework density 23.388660999999999
#
# number of rings (size 3 to 8) (size 9 to 14) (size 15 to 20)
#    0.000    1.500    2.500    1.500    5.250    0.000 
#    4.500    1.250    0.000    0.000    0.000    0.000 
#    0.000    0.000    0.000    0.000    0.000    0.000 
#
# Total GULP energy -198243.543476 kJ/mol
# GULP energy per Si atom -12390.221467 kJ/mol
# Density = 2.333543 g / cm^3
# Si number density = 23.388661 Si / 1000 Ang^3
#
#
#
# Elastic Constant Matrix: (Units=GPa)
#
#
# Indices 1 2 3 4 5 6 
#
# 1 72.8359 7.2053 21.0390 -3.4336 -11.5113 -19.4891
# 2 7.2053 68.6845 40.2990 -1.1502 -5.6499 -12.5420
# 3 21.0390 40.2990 167.1862 -3.0337 -20.2178 -18.8497
# 4 -3.4336 -1.1502 -3.0337 28.6140 -4.6867 -0.3651
# 5 -11.5113 -5.6499 -20.2178 -4.6867 34.3407 -3.0928
# 6 -19.4891 -12.5420 -18.8497 -0.3651 -3.0928 19.5470
#
#
#
# Elastic Compliance Matrix: (Units=1/GPa)
#
#
# Indices 1 2 3 4 5 6 
#
# 1 0.022616 0.003110 0.001043 0.005250 0.011903 0.027532
# 2 0.003110 0.018646 -0.002958 0.001586 0.003741 0.012834
# 3 0.001043 -0.002958 0.008179 0.001901 0.005655 0.007959
# 4 0.005250 0.001586 0.001901 0.037477 0.009177 0.010238
# 5 0.011903 0.003741 0.005655 0.009177 0.040678 0.026329
# 6 0.027532 0.012834 0.007959 0.010238 0.026329 0.098876
#
#
# Mechanical properties :
#
#
# Convention : Reuss Voigt Hill
#
# Bulk Modulus (GPa) = 19.29324 49.53257 34.41290
# Shear Modulus (GPa) = 20.71603 32.51123 26.61363
#
# Velocity S-wave (km/s) = 2.97935 3.73237 3.37692
# Velocity P-wave (km/s) = 4.48355 6.30858 5.47268
#
# Compressibility (1/GPa) = 0.05183164
#
# Stress axis : x y z
#
# Youngs Moduli (GPa) = 44.21635 53.63001 122.26854
#
# Poissons Ratio (x) = -0.16678 -0.12755
# Poissons Ratio (y) = -0.13751 0.36164
# Poissons Ratio (z) = -0.04613 0.15862
#
# Static dielectric constant tensor:
#      x y z
#    x 4.243850 -0.209220 -0.022590 
#    y -0.209220 3.631380 -0.115630 
#    z -0.022590 -0.115630 4.702140 
# 
# 
# High freq. dielectric constant tensor:
#      x y z
#    x 1.933260 -0.020120 -0.008670 
#    y -0.020120 1.872840 -0.002440 
#    z -0.008670 -0.002440 1.950650 
# 
# From -- ./inp_files/140540.got.cif
#   From: 2010.06.25/outbox.cif.g09.slc.cpg/sg2_71_cif.got.tgz:140540.got - 2010.06.27 13:26:56.
