data_PCOD8015170
_publ_section_title
;
Structure prediction by ZEFSAII (Michael W. Deem and Ramdas Pophale) SiO2 
 PCOD8015170
Probable space group: P -1
;
_chemical_formula_sum "Si O2"
_cell_formula_units_Z 16
_cell_length_a 8.356632
_cell_length_b 12.828402
_cell_length_c 13.309787
_cell_angle_alpha 136.243019
_cell_angle_beta 88.744417
_cell_angle_gamma 60.342374
_cell_volume 665.167393
_symmetry_space_group_name_H-M "P -1"
_symmetry_group_IT_number 2
_symmetry_cell_setting 'triclinic'
loop_
_space_group_symop_operation_xyz
x,y,z
-x,-y,-z
loop_
_atom_site_type_symbol
_atom_site_label
_atom_site_fract_x
_atom_site_fract_y
_atom_site_fract_z
Si Si1 0.296463 0.963750 0.339710
Si Si2 0.729906 0.055390 0.277574
Si Si3 0.783334 0.672366 0.033768
Si Si4 0.338830 0.467191 0.461127
Si Si5 0.437978 0.358253 0.159263
Si Si6 0.739849 0.739860 0.338811
Si Si7 0.401670 0.723808 0.362403
Si Si8 0.073249 0.048154 0.191058
O O1 0.256016 0.875512 0.370603
O O2 0.189940 0.973295 0.247466
O O3 0.166817 0.215575 0.540909
O O4 0.589635 0.770883 0.192060
O O5 0.456686 0.251313 0.374877
O O6 0.748923 0.126676 0.433628
O O7 0.901751 0.022116 0.174211
O O8 0.813089 0.828647 0.129282
O O9 0.691213 0.674565 0.930140
O O10 0.054805 0.412834 0.859167
O O11 0.500000 0.500000 0.500000
O O12 0.317627 0.441583 0.326893
O O13 0.071601 0.698822 0.659869
O O14 0.433422 0.523117 0.218833
O O15 0.714227 0.120846 0.008116
O O16 0.659472 0.629495 0.299029
O O17 0.500000 0.000000 0.500000
#
# Coordination Sequence:
#
# PCOD8015170 Si02
#       8
#     2   2   2   2   2   2   2   2
#     4  10  23  43  63  97 132 168 214 265 320 383
#     4  11  23  43  66  96 129 173 216 265 323 381
#     4  11  24  43  66  93 135 166 214 271 316 384
#     4  10  21  42  66  93 131 165 215 273 319 373
#     4  11  23  43  66  99 125 170 221 262 323 382
#     4  10  22  41  63  93 129 171 210 260 319 378
#     4  11  22  42  65  95 130 170 218 255 322 392
#     4  10  22  41  67  95 131 167 216 268 323 377
#
# _framework density 24.054096999999999
#
# number of rings (size 3 to 8) (size 9 to 14) (size 15 to 20)
#    0.000    1.500    3.750    1.500    0.000    7.000 
#    9.000    2.500    0.000    0.000    0.000    0.000 
#    0.000    0.000    0.000    0.000    0.000    0.000 
#
# Total GULP energy -198305.413227 kJ/mol
# GULP energy per Si atom -12394.088327 kJ/mol
# Density = 2.399935 g / cm^3
# Si number density = 24.054097 Si / 1000 Ang^3
#
#
#
# Elastic Constant Matrix: (Units=GPa)
#
#
# Indices 1 2 3 4 5 6 
#
# 1 40.1911 -5.2746 22.8035 14.5927 -0.4790 -0.9431
# 2 -5.2746 64.2367 7.9549 23.8679 3.2816 -4.1043
# 3 22.8035 7.9549 135.5648 18.6978 -1.4579 -3.1180
# 4 14.5927 23.8679 18.6978 42.3794 -4.0330 -2.6811
# 5 -0.4790 3.2816 -1.4579 -4.0330 32.9918 1.5705
# 6 -0.9431 -4.1043 -3.1180 -2.6811 1.5705 18.9530
#
#
#
# Elastic Compliance Matrix: (Units=1/GPa)
#
#
# Indices 1 2 3 4 5 6 
#
# 1 0.033940 0.009132 -0.004156 -0.015168 -0.002503 0.001044
# 2 0.009132 0.022717 -0.000652 -0.015842 -0.004253 0.003378
# 3 -0.004156 -0.000652 0.008387 -0.001843 0.000114 0.000762
# 4 -0.015168 -0.015842 -0.001843 0.039164 0.006035 0.000551
# 5 -0.002503 -0.004253 0.000114 0.006035 0.031573 -0.002789
# 6 0.001044 0.003378 0.000762 0.000551 -0.002789 0.053980
#
#
# Mechanical properties :
#
#
# Convention : Reuss Voigt Hill
#
# Bulk Modulus (GPa) = 13.56996 32.32893 22.94944
# Shear Modulus (GPa) = 24.31003 33.16542 28.73772
#
# Velocity S-wave (km/s) = 3.18250 3.71723 3.46021
# Velocity P-wave (km/s) = 4.37700 5.64739 5.05228
#
# Compressibility (1/GPa) = 0.07369218
#
# Stress axis : x y z
#
# Youngs Moduli (GPa) = 29.46417 44.01894 119.23526
#
# Poissons Ratio (x) = -0.40198 0.49550
# Poissons Ratio (y) = -0.26907 0.07776
# Poissons Ratio (z) = 0.12244 0.02871
#
# Static dielectric constant tensor:
#      x y z
#    x 4.593170 -0.464460 0.100210 
#    y -0.464460 4.509040 0.024620 
#    z 0.100210 0.024620 5.004440 
# 
# 
# High freq. dielectric constant tensor:
#      x y z
#    x 1.942160 -0.026130 0.003370 
#    y -0.026130 1.941960 -0.003400 
#    z 0.003370 -0.003400 1.978020 
# 
# From -- ./inp_files/504429.got.cif
#   From: 2010.06.25/outbox.cif.g09.slc.cpg/sg2_253_cif.got.tgz:504429.got - 2010.06.27 13:26:56.
