data_PCOD8015806
_publ_section_title
;
Structure prediction by ZEFSAII (Michael W. Deem and Ramdas Pophale) SiO2 
 PCOD8015806
Probable space group: P -1
;
_chemical_formula_sum "Si O2"
_cell_formula_units_Z 12
_cell_length_a 5.385045
_cell_length_b 13.261214
_cell_length_c 11.273155
_cell_angle_alpha 45.968599
_cell_angle_beta 79.532907
_cell_angle_gamma 63.474536
_cell_volume 507.389354
_symmetry_space_group_name_H-M "P -1"
_symmetry_group_IT_number 2
_symmetry_cell_setting 'triclinic'
loop_
_space_group_symop_operation_xyz
x,y,z
-x,-y,-z
loop_
_atom_site_type_symbol
_atom_site_label
_atom_site_fract_x
_atom_site_fract_y
_atom_site_fract_z
Si Si1 0.388750 0.376261 0.096635
Si Si2 0.886209 0.550062 0.170673
Si Si3 0.124656 0.052684 0.812945
Si Si4 0.902639 0.068468 0.325247
Si Si5 0.166445 0.583573 0.480161
Si Si6 0.221731 0.120504 0.058304
O O1 0.606785 0.212687 0.264075
O O2 0.110934 0.433753 0.152882
O O3 0.500000 0.500000 0.000000
O O4 0.377784 0.353482 0.973286
O O5 0.859813 0.432048 0.363394
O O6 0.915716 0.693651 0.117774
O O7 0.964497 0.238253 0.701982
O O8 0.147908 0.043020 0.674754
O O9 0.437647 0.975420 0.908468
O O10 0.934196 0.961326 0.943912
O O11 0.132174 0.117838 0.206154
O O12 0.000000 0.000000 0.500000
O O13 0.500000 0.500000 0.500000
O O14 0.000000 0.500000 0.500000
#
# Coordination Sequence:
#
# PCOD8015806 Si02
#       6
#     2   2   2   2   2   2
#     4  11  22  40  69 109 145 191 225 290 372 423
#     4  11  25  43  72 104 151 181 245 293 351 439
#     4  10  23  44  67  95 144 171 245 282 353 421
#     4  10  23  35  67 101 149 180 233 273 364 423
#     4  12  30  50  74 103 138 195 247 302 360 412
#     4  10  21  43  65  99 138 186 219 294 341 427
#
# _framework density 23.650476000000001
#
# number of rings (size 3 to 8) (size 9 to 14) (size 15 to 20)
#    1.000    0.333    3.333    1.000    7.000    0.667 
#    0.000    5.000    0.000    0.000    0.000    0.000 
#    0.000    0.000    0.000    0.000    0.000    0.000 
#
# Total GULP energy -148670.132945 kJ/mol
# GULP energy per Si atom -12389.177745 kJ/mol
# Density = 2.359665 g / cm^3
# Si number density = 23.650476 Si / 1000 Ang^3
#
#
#
# Elastic Constant Matrix: (Units=GPa)
#
#
# Indices 1 2 3 4 5 6 
#
# 1 138.0304 46.4957 24.0882 -1.9098 1.6947 -0.5133
# 2 46.4957 91.6686 13.2023 -30.1209 -1.7975 -2.0427
# 3 24.0882 13.2023 64.4827 -15.1722 -8.6595 -6.4288
# 4 -1.9098 -30.1209 -15.1722 47.0415 -3.5010 -1.1580
# 5 1.6947 -1.7975 -8.6595 -3.5010 36.9021 -2.3904
# 6 -0.5133 -2.0427 -6.4288 -1.1580 -2.3904 42.4038
#
#
#
# Elastic Compliance Matrix: (Units=1/GPa)
#
#
# Indices 1 2 3 4 5 6 
#
# 1 0.010008 -0.006231 -0.004072 -0.005092 -0.002271 -0.001063
# 2 -0.006231 0.017836 0.002067 0.012088 0.002890 0.001590
# 3 -0.004072 0.002067 0.019640 0.008019 0.005889 0.003579
# 4 -0.005092 0.012088 0.008019 0.031891 0.005921 0.002941
# 5 -0.002271 0.002890 0.005889 0.005921 0.029471 0.002828
# 6 -0.001063 0.001590 0.003579 0.002941 0.002828 0.024429
#
#
# Mechanical properties :
#
#
# Convention : Reuss Voigt Hill
#
# Bulk Modulus (GPa) = 32.24566 51.30601 41.77583
# Shear Modulus (GPa) = 31.23378 39.29585 35.26482
#
# Velocity S-wave (km/s) = 3.63800 4.08060 3.86564
# Velocity P-wave (km/s) = 5.59559 6.62890 6.13404
#
# Compressibility (1/GPa) = 0.03101193
#
# Stress axis : x y z
#
# Youngs Moduli (GPa) = 99.92270 56.06734 50.91545
#
# Poissons Ratio (x) = 0.34935 0.20732
# Poissons Ratio (y) = 0.62261 -0.10523
# Poissons Ratio (z) = 0.40686 -0.11588
#
# Static dielectric constant tensor:
#      x y z
#    x 4.367160 0.051480 0.050070 
#    y 0.051480 3.989140 -0.002960 
#    z 0.050070 -0.002960 4.262060 
# 
# 
# High freq. dielectric constant tensor:
#      x y z
#    x 1.938600 0.003800 0.005810 
#    y 0.003800 1.956980 0.004520 
#    z 0.005810 0.004520 1.935470 
# 
# From -- ./inp_files/366603.got.cif
#   From: 2010.06.25/outbox.cif.g09.slc.cpg/sg2_184_cif.got.tgz:366603.got - 2010.06.27 13:26:56.
