data_PCOD8015991
_publ_section_title
;
Structure prediction by ZEFSAII (Michael W. Deem and Ramdas Pophale) SiO2 
 PCOD8015991
Probable space group: P -1
;
_chemical_formula_sum "Si O2"
_cell_formula_units_Z 12
_cell_length_a 8.263332
_cell_length_b 9.473985
_cell_length_c 14.167291
_cell_angle_alpha 105.177741
_cell_angle_beta 45.726651
_cell_angle_gamma 131.166518
_cell_volume 556.167181
_symmetry_space_group_name_H-M "P -1"
_symmetry_group_IT_number 2
_symmetry_cell_setting 'triclinic'
loop_
_space_group_symop_operation_xyz
x,y,z
-x,-y,-z
loop_
_atom_site_type_symbol
_atom_site_label
_atom_site_fract_x
_atom_site_fract_y
_atom_site_fract_z
Si Si1 0.518860 0.323562 0.212770
Si Si2 0.704788 0.369082 0.940565
Si Si3 0.712374 0.204720 0.269951
Si Si4 0.122129 0.054483 0.566094
Si Si5 0.899050 0.723697 0.235744
Si Si6 0.020095 0.045459 0.107050
O O1 0.586092 0.198912 0.216914
O O2 0.609953 0.493370 0.278863
O O3 0.722740 0.427599 0.053302
O O4 0.148708 0.159339 0.306127
O O5 0.956470 0.567243 0.809554
O O6 0.786466 0.232778 0.878914
O O7 0.368929 0.257191 0.018112
O O8 0.463843 0.133465 0.441026
O O9 0.763679 0.055309 0.232599
O O10 0.161844 0.232292 0.628729
O O11 0.000000 0.000000 0.500000
O O12 0.939945 0.871030 0.171216
O O13 0.000000 0.000000 0.000000
#
# Coordination Sequence:
#
# PCOD8015991 Si02
#       6
#     2   2   2   2   2   2
#     4  10  21  43  68  94 123 167 216 259 310 375
#     4  11  22  41  69  90 127 168 214 264 310 370
#     4  10  23  40  62  93 130 161 208 259 318 366
#     4  10  23  41  66  92 130 169 210 257 309 378
#     4  11  23  41  68  96 124 168 217 253 313 381
#     4  12  24  38  64  98 129 161 212 265 321 368
#
# _framework density 21.576246000000001
#
# number of rings (size 3 to 8) (size 9 to 14) (size 15 to 20)
#    0.000    1.333    1.667    5.000    4.667    6.667 
#    0.000    0.833    0.000    0.000    0.000    0.000 
#    0.000    0.000    0.000    0.000    0.000    0.000 
#
# Total GULP energy -148726.067495 kJ/mol
# GULP energy per Si atom -12393.838958 kJ/mol
# Density = 2.152714 g / cm^3
# Si number density = 21.576246 Si / 1000 Ang^3
#
#
#
# Elastic Constant Matrix: (Units=GPa)
#
#
# Indices 1 2 3 4 5 6 
#
# 1 64.5610 36.2280 35.4871 11.9958 -8.5805 3.1184
# 2 36.2280 105.9579 53.8747 22.4504 -15.0182 6.1630
# 3 35.4871 53.8747 135.2437 21.9205 -25.0890 7.2474
# 4 11.9958 22.4504 21.9205 48.2828 8.2865 2.3370
# 5 -8.5805 -15.0182 -25.0890 8.2865 32.4088 1.0330
# 6 3.1184 6.1630 7.2474 2.3370 1.0330 40.2617
#
#
#
# Elastic Compliance Matrix: (Units=1/GPa)
#
#
# Indices 1 2 3 4 5 6 
#
# 1 0.020323 -0.004952 -0.002827 -0.001681 0.001335 -0.000244
# 2 -0.004952 0.014234 -0.002684 -0.004885 0.004492 -0.001144
# 3 -0.002827 -0.002684 0.011546 -0.004627 0.008173 -0.001390
# 4 -0.001681 -0.004885 -0.004627 0.027781 -0.013408 0.000442
# 5 0.001335 0.004492 0.008173 -0.013408 0.043129 -0.002591
# 6 -0.000244 -0.001144 -0.001390 0.000442 -0.002591 0.025322
#
#
# Mechanical properties :
#
#
# Convention : Reuss Voigt Hill
#
# Bulk Modulus (GPa) = 39.71930 61.88247 50.80088
# Shear Modulus (GPa) = 29.12851 36.20218 32.66534
#
# Velocity S-wave (km/s) = 3.67826 4.10063 3.89517
# Velocity P-wave (km/s) = 6.04055 7.15285 6.62010
#
# Compressibility (1/GPa) = 0.02517668
#
# Stress axis : x y z
#
# Youngs Moduli (GPa) = 49.20459 70.25438 86.61274
#
# Poissons Ratio (x) = 0.34789 0.24485
# Poissons Ratio (y) = 0.24365 0.23250
# Poissons Ratio (z) = 0.13910 0.18859
#
# Static dielectric constant tensor:
#      x y z
#    x 4.175250 -0.034110 -0.351210 
#    y -0.034110 4.010430 -0.078760 
#    z -0.351210 -0.078760 4.497990 
# 
# 
# High freq. dielectric constant tensor:
#      x y z
#    x 1.833460 0.009790 -0.007590 
#    y 0.009790 1.842810 -0.002260 
#    z -0.007590 -0.002260 1.859200 
# 
# From -- ./inp_files/149084.got.cif
#   From: 2010.06.25/outbox.cif.g09.slc.cpg/sg2_75_cif.got.tgz:149084.got - 2010.06.27 13:26:56.
