data_PCOD8015120
_publ_section_title
;
Structure prediction by ZEFSAII (Michael W. Deem and Ramdas Pophale) SiO2 
 PCOD8015120
Probable space group: P -1
;
_chemical_formula_sum "Si O2"
_cell_formula_units_Z 12
_cell_length_a 9.770880
_cell_length_b 20.173896
_cell_length_c 15.815390
_cell_angle_alpha 161.740735
_cell_angle_beta 144.080828
_cell_angle_gamma 34.338767
_cell_volume 545.117040
_symmetry_space_group_name_H-M "P -1"
_symmetry_group_IT_number 2
_symmetry_cell_setting 'triclinic'
loop_
_space_group_symop_operation_xyz
x,y,z
-x,-y,-z
loop_
_atom_site_type_symbol
_atom_site_label
_atom_site_fract_x
_atom_site_fract_y
_atom_site_fract_z
Si Si1 0.746288 0.296783 0.381845
Si Si2 0.198761 0.161467 0.189298
Si Si3 0.966171 0.380295 0.083320
Si Si4 0.298723 0.914542 0.722567
Si Si5 0.819743 0.401996 0.844621
Si Si6 0.719680 0.446416 0.204990
O O1 0.500000 0.500000 0.500000
O O2 0.789075 0.180570 0.353522
O O3 0.971404 0.391313 0.595098
O O4 0.763758 0.098513 0.081677
O O5 0.404721 0.155525 0.213333
O O6 0.249621 0.307368 0.468628
O O7 0.928484 0.268061 0.145992
O O8 0.742091 0.392848 0.050910
O O9 0.905968 0.344637 0.913752
O O10 0.198927 0.179376 0.986105
O O11 0.187447 0.823201 0.475786
O O12 0.540349 0.569879 0.911097
O O13 0.000000 0.500000 0.000000
#
# Coordination Sequence:
#
# PCOD8015120 Si02
#       6
#     2   2   2   2   2   2
#     4  12  22  37  70 104 133 172 227 270 331 410
#     4  10  21  42  66 102 136 181 210 280 344 387
#     4  12  23  42  69 101 133 181 223 276 337 395
#     4  11  22  43  68  97 140 174 225 280 329 404
#     4  11  24  45  68  97 133 184 234 270 330 405
#     4  10  23  42  70  96 145 171 221 284 336 396
#
# _framework density 22.013621000000001
#
# number of rings (size 3 to 8) (size 9 to 14) (size 15 to 20)
#    0.000    1.000    5.000    2.500    0.000    0.667 
#    0.000    8.333    0.000    0.000    0.000    0.000 
#    0.000    0.000    0.000    0.000    0.000    0.000 
#
# Total GULP energy -148741.961213 kJ/mol
# GULP energy per Si atom -12395.163434 kJ/mol
# Density = 2.196352 g / cm^3
# Si number density = 22.013621 Si / 1000 Ang^3
#
#
#
# Elastic Constant Matrix: (Units=GPa)
#
#
# Indices 1 2 3 4 5 6 
#
# 1 121.5420 53.4464 30.9834 -6.0820 3.6308 -6.5534
# 2 53.4464 112.8879 43.9260 3.6784 1.3457 -6.3771
# 3 30.9834 43.9260 126.8803 13.1950 1.4327 -8.0660
# 4 -6.0820 3.6784 13.1950 32.6939 -5.9603 -1.4095
# 5 3.6308 1.3457 1.4327 -5.9603 35.0076 -6.2812
# 6 -6.5534 -6.3771 -8.0660 -1.4095 -6.2812 36.7716
#
#
#
# Elastic Compliance Matrix: (Units=1/GPa)
#
#
# Indices 1 2 3 4 5 6 
#
# 1 0.010815 -0.004667 -0.001283 0.003057 -0.000204 0.000919
# 2 -0.004667 0.012291 -0.002972 -0.001012 0.000072 0.000622
# 3 -0.001283 -0.002972 0.009706 -0.003884 -0.000608 0.001132
# 4 0.003057 -0.001012 -0.003884 0.034011 0.006003 0.001847
# 5 -0.000204 0.000072 -0.000608 0.006003 0.030581 0.005297
# 6 0.000919 0.000622 0.001132 0.001847 0.005297 0.028690
#
#
# Mechanical properties :
#
#
# Convention : Reuss Voigt Hill
#
# Bulk Modulus (GPa) = 66.79689 68.66907 67.73298
# Shear Modulus (GPa) = 33.57350 36.42493 34.99921
#
# Velocity S-wave (km/s) = 3.90952 4.07216 3.99167
# Velocity P-wave (km/s) = 7.12660 7.30558 7.21665
#
# Compressibility (1/GPa) = 0.01497076
#
# Stress axis : x y z
#
# Youngs Moduli (GPa) = 92.46169 81.35819 103.02671
#
# Poissons Ratio (x) = 0.37967 0.13214
# Poissons Ratio (y) = 0.43148 0.30617
# Poissons Ratio (z) = 0.11859 0.24178
#
# Static dielectric constant tensor:
#      x y z
#    x 4.100650 -0.142190 -0.246980 
#    y -0.142190 3.736790 -0.017210 
#    z -0.246980 -0.017210 4.422220 
# 
# 
# High freq. dielectric constant tensor:
#      x y z
#    x 1.869090 -0.008970 -0.014570 
#    y -0.008970 1.851740 -0.005640 
#    z -0.014570 -0.005640 1.875570 
# 
# From -- ./inp_files/26122.got.cif
#   From: 2010.06.25/outbox.cif.g09.slc.cpg/sg2_14_cif.got.tgz:26122.got - 2010.06.27 13:26:56.
