data_PCOD8015580
_publ_section_title
;
Structure prediction by ZEFSAII (Michael W. Deem and Ramdas Pophale) SiO2 
 PCOD8015580
Probable space group: P -1
;
_chemical_formula_sum "Si O2"
_cell_formula_units_Z 16
_cell_length_a 9.104397
_cell_length_b 15.652616
_cell_length_c 10.057026
_cell_angle_alpha 33.653537
_cell_angle_beta 109.081459
_cell_angle_gamma 102.576214
_cell_volume 746.539938
_symmetry_space_group_name_H-M "P -1"
_symmetry_group_IT_number 2
_symmetry_cell_setting 'triclinic'
loop_
_space_group_symop_operation_xyz
x,y,z
-x,-y,-z
loop_
_atom_site_type_symbol
_atom_site_label
_atom_site_fract_x
_atom_site_fract_y
_atom_site_fract_z
Si Si1 0.817930 0.524230 0.453043
Si Si2 0.161503 0.876137 0.348727
Si Si3 0.511599 0.282103 0.357443
Si Si4 0.030586 0.847360 0.624443
Si Si5 0.466832 0.410728 0.896976
Si Si6 0.715096 0.923379 0.321957
Si Si7 0.269217 0.722378 0.048623
Si Si8 0.831155 0.836740 0.190677
O O1 0.711061 0.551896 0.254490
O O2 0.763304 0.375722 0.704450
O O3 0.783517 0.670481 0.350739
O O4 0.000000 0.500000 0.500000
O O5 0.303524 0.747861 0.527188
O O6 0.141812 0.885909 0.487532
O O7 0.013115 0.818986 0.305596
O O8 0.195514 0.046697 0.091739
O O9 0.457817 0.438129 0.221157
O O10 0.439002 0.135537 0.587600
O O11 0.465449 0.293470 0.173100
O O12 0.862288 0.808193 0.572131
O O13 0.122383 0.713651 0.915343
O O14 0.000000 0.000000 0.500000
O O15 0.571399 0.340728 0.896032
O O16 0.719232 0.905873 0.186746
O O17 0.719714 0.102107 0.128986
#
# Coordination Sequence:
#
# PCOD8015580 Si02
#       8
#     2   2   2   2   2   2   2   2
#     4  12  28  43  68  97 133 175 219 271 335 392
#     4  10  21  42  71  95 130 168 227 269 322 386
#     4  11  24  44  70  98 130 174 220 271 330 390
#     4   9  20  40  65  95 132 169 213 275 321 382
#     4  11  26  46  65  98 139 170 216 275 331 396
#     4  10  24  41  70  99 130 176 222 268 324 393
#     4  11  24  45  65  97 136 175 214 276 330 388
#     4  10  24  43  67  98 130 175 218 272 324 396
#
# _framework density 21.432210000000001
#
# number of rings (size 3 to 8) (size 9 to 14) (size 15 to 20)
#    0.000    1.500    1.250    1.875   12.250    2.000 
#    0.000    1.875    0.000    0.000    0.000    0.000 
#    0.000    0.000    0.000    0.000    0.000    0.000 
#
# Total GULP energy -198419.872156 kJ/mol
# GULP energy per Si atom -12401.242010 kJ/mol
# Density = 2.138343 g / cm^3
# Si number density = 21.432210 Si / 1000 Ang^3
#
#
#
# Elastic Constant Matrix: (Units=GPa)
#
#
# Indices 1 2 3 4 5 6 
#
# 1 116.8227 37.7155 46.5012 3.3656 -4.1375 -12.3010
# 2 37.7155 96.3158 35.7502 -5.8826 -8.4568 -8.1823
# 3 46.5012 35.7502 112.0482 6.4283 -1.3125 3.3073
# 4 3.3656 -5.8826 6.4283 32.7318 4.6651 -1.5002
# 5 -4.1375 -8.4568 -1.3125 4.6651 37.2869 -0.8388
# 6 -12.3010 -8.1823 3.3073 -1.5002 -0.8388 29.6893
#
#
#
# Elastic Compliance Matrix: (Units=1/GPa)
#
#
# Indices 1 2 3 4 5 6 
#
# 1 0.011530 -0.002620 -0.004029 -0.000765 0.000740 0.004486
# 2 -0.002620 0.013343 -0.003419 0.003159 0.002292 0.003197
# 3 -0.004029 -0.003419 0.011954 -0.002655 -0.000561 -0.004093
# 4 -0.000765 0.003159 -0.002655 0.032321 -0.003452 0.002385
# 5 0.000740 0.002292 -0.000561 -0.003452 0.027869 0.001614
# 6 0.004486 0.003197 -0.004093 0.002385 0.001614 0.037044
#
#
# Mechanical properties :
#
#
# Convention : Reuss Voigt Hill
#
# Bulk Modulus (GPa) = 59.90922 62.79116 61.35019
# Shear Modulus (GPa) = 31.29666 33.62290 32.45978
#
# Velocity S-wave (km/s) = 3.82548 3.96511 3.89592
# Velocity P-wave (km/s) = 6.89391 7.09394 6.99464
#
# Compressibility (1/GPa) = 0.01669192
#
# Stress axis : x y z
#
# Youngs Moduli (GPa) = 86.72805 74.94453 83.65282
#
# Poissons Ratio (x) = 0.19637 0.33704
# Poissons Ratio (y) = 0.22724 0.28598
# Poissons Ratio (z) = 0.34943 0.25621
#
# Static dielectric constant tensor:
#      x y z
#    x 3.935990 0.005940 0.301190 
#    y 0.005940 3.786910 0.293470 
#    z 0.301190 0.293470 4.202860 
# 
# 
# High freq. dielectric constant tensor:
#      x y z
#    x 1.843460 -0.011560 0.009130 
#    y -0.011560 1.839840 0.011820 
#    z 0.009130 0.011820 1.848730 
# 
# From -- ./inp_files/205389.got.cif
#   From: 2010.06.25/outbox.cif.g09.slc.cpg/sg2_103_cif.got.tgz:205389.got - 2010.06.27 13:26:56.
