data_PCOD8015464
_publ_section_title
;
Structure prediction by ZEFSAII (Michael W. Deem and Ramdas Pophale) SiO2 
 PCOD8015464
Probable space group: P -1
;
_chemical_formula_sum "Si O2"
_cell_formula_units_Z 12
_cell_length_a 9.220165
_cell_length_b 14.055263
_cell_length_c 8.698240
_cell_angle_alpha 67.885267
_cell_angle_beta 112.550464
_cell_angle_gamma 150.749021
_cell_volume 506.494030
_symmetry_space_group_name_H-M "P -1"
_symmetry_group_IT_number 2
_symmetry_cell_setting 'triclinic'
loop_
_space_group_symop_operation_xyz
x,y,z
-x,-y,-z
loop_
_atom_site_type_symbol
_atom_site_label
_atom_site_fract_x
_atom_site_fract_y
_atom_site_fract_z
Si Si1 0.176244 0.865960 0.767828
Si Si2 0.346966 0.027747 0.201136
Si Si3 0.310911 0.296129 0.513914
Si Si4 0.816633 0.621029 0.065799
Si Si5 0.419060 0.250484 0.280104
Si Si6 0.758879 0.917192 0.156080
O O1 0.373897 0.892162 0.746678
O O2 0.007635 0.838347 0.586555
O O3 0.384515 0.065771 0.818918
O O4 0.964325 0.691812 0.913983
O O5 0.368135 0.097949 0.331719
O O6 0.373641 0.144731 0.030473
O O7 0.039027 0.798325 0.173985
O O8 0.500000 0.500000 0.500000
O O9 0.449566 0.295264 0.445846
O O10 0.295602 0.225046 0.710468
O O11 0.724443 0.457809 0.195025
O O12 0.500000 0.500000 0.000000
O O13 0.117724 0.141432 0.163473
#
# Coordination Sequence:
#
# PCOD8015464 Si02
#       6
#     2   2   2   2   2   2
#     4  10  22  44  66 100 136 174 213 281 339 381
#     4  11  24  41  72 100 138 167 219 287 329 378
#     4  11  25  44  69  94 135 182 227 265 331 409
#     4  11  20  38  69 104 129 169 234 267 315 398
#     4  11  23  39  68 102 126 178 228 267 323 405
#     4  10  21  42  69  93 132 179 218 266 333 396
#
# _framework density 23.69228
#
# number of rings (size 3 to 8) (size 9 to 14) (size 15 to 20)
#    0.000    1.333    5.000    4.500    4.667    0.667 
#    3.000    4.167    0.000    0.000    0.000    0.000 
#    0.000    0.000    0.000    0.000    0.000    0.000 
#
# Total GULP energy -148667.905701 kJ/mol
# GULP energy per Si atom -12388.992142 kJ/mol
# Density = 2.363836 g / cm^3
# Si number density = 23.692280 Si / 1000 Ang^3
#
#
#
# Elastic Constant Matrix: (Units=GPa)
#
#
# Indices 1 2 3 4 5 6 
#
# 1 147.6703 49.6969 13.9629 4.9670 -16.6144 -8.2823
# 2 49.6969 103.4630 26.9674 -15.6857 -6.6189 -21.7545
# 3 13.9629 26.9674 61.4419 -17.4319 10.3769 -7.5628
# 4 4.9670 -15.6857 -17.4319 26.5894 -14.8930 -0.4439
# 5 -16.6144 -6.6189 10.3769 -14.8930 24.1362 6.2042
# 6 -8.2823 -21.7545 -7.5628 -0.4439 6.2042 34.3072
#
#
#
# Elastic Compliance Matrix: (Units=1/GPa)
#
#
# Indices 1 2 3 4 5 6 
#
# 1 0.008912 -0.004359 -0.001961 -0.003126 0.004334 -0.001869
# 2 -0.004359 0.016978 -0.003126 0.014548 0.010076 0.007391
# 3 -0.001961 -0.003126 0.022410 0.009301 -0.007102 0.003890
# 4 -0.003126 0.014548 0.009301 0.078297 0.045292 0.003343
# 5 0.004334 0.010076 -0.007102 0.045292 0.080250 -0.008057
# 6 -0.001869 0.007391 0.003890 0.003343 -0.008057 0.035741
#
#
# Mechanical properties :
#
#
# Convention : Reuss Voigt Hill
#
# Bulk Modulus (GPa) = 34.00360 54.86992 44.43676
# Shear Modulus (GPa) = 18.43085 31.80309 25.11697
#
# Velocity S-wave (km/s) = 2.79216 3.66777 3.25950
# Velocity P-wave (km/s) = 4.97777 6.41455 5.74128
#
# Compressibility (1/GPa) = 0.02940865
#
# Stress axis : x y z
#
# Youngs Moduli (GPa) = 112.20437 58.89946 44.62251
#
# Poissons Ratio (x) = 0.25677 0.08750
# Poissons Ratio (y) = 0.48915 0.13948
# Poissons Ratio (z) = 0.22002 0.18410
#
# Static dielectric constant tensor:
#      x y z
#    x 7.822820 -2.790110 -6.047630 
#    y -2.790110 6.226920 3.995770 
#    z -6.047630 3.995770 13.899740 
# 
# 
# High freq. dielectric constant tensor:
#      x y z
#    x 1.935960 -0.020150 -0.009160 
#    y -0.020150 1.922930 -0.008300 
#    z -0.009160 -0.008300 1.929420 
# 
# From -- ./inp_files/200995.got.cif
#   From: 2010.06.25/outbox.cif.g09.slc.cpg/sg2_101_cif.got.tgz:200995.got - 2010.06.27 13:26:56.
