data_PCOD8015557
_publ_section_title
;
Structure prediction by ZEFSAII (Michael W. Deem and Ramdas Pophale) SiO2 
 PCOD8015557
Probable space group: P -1
;
_chemical_formula_sum "Si O2"
_cell_formula_units_Z 14
_cell_length_a 11.397848
_cell_length_b 5.085844
_cell_length_c 29.294194
_cell_angle_alpha 70.292324
_cell_angle_beta 22.177868
_cell_angle_gamma 69.845525
_cell_volume 600.968642
_symmetry_space_group_name_H-M "P -1"
_symmetry_group_IT_number 2
_symmetry_cell_setting 'triclinic'
loop_
_space_group_symop_operation_xyz
x,y,z
-x,-y,-z
loop_
_atom_site_type_symbol
_atom_site_label
_atom_site_fract_x
_atom_site_fract_y
_atom_site_fract_z
Si Si1 0.725582 0.818186 0.083748
Si Si2 0.783014 0.762556 0.580759
Si Si3 0.711098 0.213767 0.320929
Si Si4 0.432698 0.420794 0.140846
Si Si5 0.233333 0.692379 0.844221
Si Si6 0.729157 0.581633 0.374147
Si Si7 0.748957 0.745886 0.938337
O O1 0.534522 0.654343 0.125090
O O2 0.760598 0.644097 0.128931
O O3 0.548148 0.119379 0.136517
O O4 0.085775 0.843875 0.934767
O O5 0.540476 0.836750 0.623738
O O6 0.588491 0.732657 0.699746
O O7 0.000000 0.500000 0.500000
O O8 0.000000 0.000000 0.500000
O O9 0.587552 0.460098 0.385730
O O10 0.035000 0.323442 0.179506
O O11 0.771143 0.911124 0.340639
O O12 0.063826 0.418218 0.271836
O O13 0.568596 0.484603 0.037245
O O14 0.996296 0.817909 0.883527
O O15 0.500000 0.500000 0.500000
O O16 0.500000 0.000000 0.000000
#
# Coordination Sequence:
#
# PCOD8015557 Si02
#       7
#     2   2   2   2   2   2   2
#     4  10  23  43  67  97 136 173 223 286 335 407
#     4  11  25  44  69 100 136 181 230 276 343 412
#     4  11  25  45  69  98 136 177 227 292 339 400
#     4  11  24  41  69  99 132 182 225 274 350 400
#     4   9  23  42  68 101 136 174 226 280 342 401
#     4  12  26  44  65  97 137 180 232 278 339 413
#     4  10  21  42  71 101 136 172 225 285 345 409
#
# _framework density 23.295724
#
# number of rings (size 3 to 8) (size 9 to 14) (size 15 to 20)
#    0.000    1.429    1.429    2.143    2.000   17.143 
#    0.000    0.000    0.000    0.000    0.000    0.000 
#    0.000    0.000    0.000    0.000    0.000    0.000 
#
# Total GULP energy -173467.838348 kJ/mol
# GULP energy per Si atom -12390.559882 kJ/mol
# Density = 2.324270 g / cm^3
# Si number density = 23.295724 Si / 1000 Ang^3
#
#
#
# Elastic Constant Matrix: (Units=GPa)
#
#
# Indices 1 2 3 4 5 6 
#
# 1 69.6714 28.6083 49.4256 -13.9832 -2.5948 -3.8285
# 2 28.6083 111.7763 37.9615 -3.0842 -11.4922 -14.2378
# 3 49.4256 37.9615 197.3974 -4.6932 2.8185 -6.6535
# 4 -13.9832 -3.0842 -4.6932 29.9721 -2.7851 -4.1472
# 5 -2.5948 -11.4922 2.8185 -2.7851 33.8888 -4.4022
# 6 -3.8285 -14.2378 -6.6535 -4.1472 -4.4022 45.3352
#
#
#
# Elastic Compliance Matrix: (Units=1/GPa)
#
#
# Indices 1 2 3 4 5 6 
#
# 1 0.020679 -0.003265 -0.004326 0.008941 0.001710 0.001070
# 2 -0.003265 0.011071 -0.001247 0.000275 0.004077 0.003439
# 3 -0.004326 -0.001247 0.006376 -0.001289 -0.001400 -0.000075
# 4 0.008941 0.000275 -0.001289 0.038433 0.004644 0.004619
# 5 0.001710 0.004077 -0.001400 0.004644 0.032139 0.004765
# 6 0.001070 0.003439 -0.000075 0.004619 0.004765 0.024103
#
#
# Mechanical properties :
#
#
# Convention : Reuss Voigt Hill
#
# Bulk Modulus (GPa) = 48.89964 67.87066 58.38515
# Shear Modulus (GPa) = 31.78786 39.36252 35.57519
#
# Velocity S-wave (km/s) = 3.69797 4.11504 3.91207
# Velocity P-wave (km/s) = 6.26655 7.19554 6.74705
#
# Compressibility (1/GPa) = 0.02045005
#
# Stress axis : x y z
#
# Youngs Moduli (GPa) = 48.35710 90.33010 156.84510
#
# Poissons Ratio (x) = 0.29491 0.67847
# Poissons Ratio (y) = 0.15788 0.19563
# Poissons Ratio (z) = 0.20918 0.11266
#
# Static dielectric constant tensor:
#      x y z
#    x 4.400780 -0.235460 0.093080 
#    y -0.235460 4.207580 0.040920 
#    z 0.093080 0.040920 4.736210 
# 
# 
# High freq. dielectric constant tensor:
#      x y z
#    x 1.930120 -0.012380 -0.003750 
#    y -0.012380 1.920650 0.000250 
#    z -0.003750 0.000250 1.931430 
# 
# From -- ./inp_files/434257.got.cif
#   From: 2010.06.25/outbox.cif.g09.slc.cpg/sg2_218_cif.got.tgz:434257.got - 2010.06.27 13:26:56.
