data_PCOD8015844
_publ_section_title
;
Structure prediction by ZEFSAII (Michael W. Deem and Ramdas Pophale) SiO2 
 PCOD8015844
Probable space group: P -1
;
_chemical_formula_sum "Si O2"
_cell_formula_units_Z 16
_cell_length_a 7.628675
_cell_length_b 7.074267
_cell_length_c 14.354254
_cell_angle_alpha 112.021843
_cell_angle_beta 77.567783
_cell_angle_gamma 99.740044
_cell_volume 697.946594
_symmetry_space_group_name_H-M "P -1"
_symmetry_group_IT_number 2
_symmetry_cell_setting 'triclinic'
loop_
_space_group_symop_operation_xyz
x,y,z
-x,-y,-z
loop_
_atom_site_type_symbol
_atom_site_label
_atom_site_fract_x
_atom_site_fract_y
_atom_site_fract_z
Si Si1 0.301701 0.524834 0.415313
Si Si2 0.884655 0.789798 0.092071
Si Si3 0.807949 0.062041 0.561922
Si Si4 0.019981 0.723120 0.258227
Si Si5 0.702045 0.654088 0.428908
Si Si6 0.747388 0.624416 0.803597
Si Si7 0.404822 0.570361 0.933324
Si Si8 0.235570 0.966376 0.004437
O O1 0.242435 0.748459 0.455732
O O2 0.519111 0.529631 0.392049
O O3 0.215629 0.450818 0.509754
O O4 0.223740 0.379253 0.312034
O O5 0.958511 0.845789 0.197522
O O6 0.788746 0.560202 0.073965
O O7 0.053422 0.809788 0.005637
O O8 0.749482 0.941832 0.086986
O O9 0.824472 0.124218 0.680746
O O10 0.660633 0.875842 0.516647
O O11 0.000000 0.000000 0.500000
O O12 0.846332 0.665121 0.331951
O O13 0.111955 0.513862 0.186244
O O14 0.540799 0.525850 0.826113
O O15 0.771472 0.851975 0.885803
O O16 0.500000 0.500000 0.000000
O O17 0.392283 0.817882 0.980048
#
# Coordination Sequence:
#
# PCOD8015844 Si02
#       8
#     2   2   2   2   2   2   2   2
#     4  10  22  41  65  96 133 167 215 275 321 385
#     4  11  25  43  67  94 133 174 217 274 323 389
#     4   9  20  38  63  91 124 169 212 260 320 383
#     4  10  23  42  65  96 132 172 220 266 327 388
#     4  10  21  43  66  94 129 174 213 269 329 383
#     4  11  24  42  67  99 133 174 221 272 327 396
#     4  12  24  45  68  93 134 175 215 278 329 384
#     4  11  26  44  67  99 130 176 223 263 335 392
#
# _framework density 22.924391
#
# number of rings (size 3 to 8) (size 9 to 14) (size 15 to 20)
#    0.000    1.500    1.250    2.625    5.250    4.500 
#    2.250    3.750    0.000    0.000    0.000    0.000 
#    0.000    0.000    0.000    0.000    0.000    0.000 
#
# Total GULP energy -198222.953196 kJ/mol
# GULP energy per Si atom -12388.934575 kJ/mol
# Density = 2.287221 g / cm^3
# Si number density = 22.924391 Si / 1000 Ang^3
#
#
#
# Elastic Constant Matrix: (Units=GPa)
#
#
# Indices 1 2 3 4 5 6 
#
# 1 57.8798 38.7367 34.4122 -1.2404 3.9548 -17.3397
# 2 38.7367 137.6913 63.4726 -9.1598 7.5757 -29.4509
# 3 34.4122 63.4726 91.2559 -15.0136 10.6953 -22.7489
# 4 -1.2404 -9.1598 -15.0136 41.3233 -7.8618 3.8985
# 5 3.9548 7.5757 10.6953 -7.8618 20.9535 -10.1880
# 6 -17.3397 -29.4509 -22.7489 3.8985 -10.1880 52.5173
#
#
#
# Elastic Compliance Matrix: (Units=1/GPa)
#
#
# Indices 1 2 3 4 5 6 
#
# 1 0.024329 -0.003273 -0.006478 -0.002558 0.000750 0.003727
# 2 -0.003273 0.011633 -0.006226 0.000145 0.001076 0.002944
# 3 -0.006478 -0.006226 0.019351 0.004560 -0.003886 0.001660
# 4 -0.002558 0.000145 0.004560 0.027405 0.008817 0.000889
# 5 0.000750 0.001076 -0.003886 0.008817 0.057154 0.009601
# 6 0.003727 0.002944 0.001660 0.000889 0.009601 0.024439
#
#
# Mechanical properties :
#
#
# Convention : Reuss Voigt Hill
#
# Bulk Modulus (GPa) = 42.80619 62.23001 52.51810
# Shear Modulus (GPa) = 24.50381 32.97253 28.73817
#
# Velocity S-wave (km/s) = 3.27295 3.79663 3.54447
# Velocity P-wave (km/s) = 5.74423 6.81351 6.30159
#
# Compressibility (1/GPa) = 0.02336110
#
# Stress axis : x y z
#
# Youngs Moduli (GPa) = 41.10282 85.95870 51.67817
#
# Poissons Ratio (x) = 0.28132 0.33476
# Poissons Ratio (y) = 0.13452 0.32173
# Poissons Ratio (z) = 0.26625 0.53515
#
# Static dielectric constant tensor:
#      x y z
#    x 4.813030 0.358220 0.212300 
#    y 0.358220 4.798140 0.018930 
#    z 0.212300 0.018930 4.211230 
# 
# 
# High freq. dielectric constant tensor:
#      x y z
#    x 1.912580 -0.004970 0.015530 
#    y -0.004970 1.911110 -0.005780 
#    z 0.015530 -0.005780 1.890760 
# 
# From -- ./inp_files/488646.got.cif
#   From: 2010.06.25/outbox.cif.g09.slc.cpg/sg2_245_cif.got.tgz:488646.got - 2010.06.27 13:26:56.
