data_PCOD8015824
_publ_section_title
;
Structure prediction by ZEFSAII (Michael W. Deem and Ramdas Pophale) SiO2 
 PCOD8015824
Probable space group: P -1
;
_chemical_formula_sum "Si O2"
_cell_formula_units_Z 14
_cell_length_a 11.542104
_cell_length_b 14.210681
_cell_length_c 8.926568
_cell_angle_alpha 56.215311
_cell_angle_beta 139.928743
_cell_angle_gamma 132.351702
_cell_volume 694.017013
_symmetry_space_group_name_H-M "P -1"
_symmetry_group_IT_number 2
_symmetry_cell_setting 'triclinic'
loop_
_space_group_symop_operation_xyz
x,y,z
-x,-y,-z
loop_
_atom_site_type_symbol
_atom_site_label
_atom_site_fract_x
_atom_site_fract_y
_atom_site_fract_z
Si Si1 0.235032 0.870160 0.998868
Si Si2 0.961980 0.998376 0.137863
Si Si3 0.789654 0.533024 0.613372
Si Si4 0.312455 0.068405 0.653257
Si Si5 0.288554 0.247761 0.719688
Si Si6 0.936414 0.583651 0.026126
Si Si7 0.443611 0.499241 0.115810
O O1 0.166141 0.925555 0.022788
O O2 0.205172 0.935545 0.759277
O O3 0.470620 0.906571 0.217851
O O4 0.099974 0.718289 0.001441
O O5 0.172917 0.061111 0.382196
O O6 0.829891 0.852157 0.180795
O O7 0.000000 0.000000 0.000000
O O8 0.849671 0.683217 0.521956
O O9 0.571828 0.448282 0.391875
O O10 0.952205 0.496006 0.730639
O O11 0.782704 0.503265 0.810258
O O12 0.338211 0.185244 0.680912
O O13 0.498978 0.355442 0.905606
O O14 0.796532 0.592473 0.013617
O O15 0.500000 0.500000 0.000000
#
# Coordination Sequence:
#
# PCOD8015824 Si02
#       7
#     2   2   2   2   2   2   2
#     4  10  23  38  66  93 120 160 209 251 304 360
#     4  11  23  41  65  92 123 161 201 257 310 361
#     4   9  22  37  61  92 119 158 204 249 302 356
#     4  10  21  43  66  90 122 160 207 257 304 353
#     4   9  21  43  61  90 121 163 206 247 304 360
#     4  11  21  38  64  93 121 158 210 251 294 370
#     4  10  24  41  59  89 129 166 197 249 311 362
#
# _framework density 20.172415999999998
#
# number of rings (size 3 to 8) (size 9 to 14) (size 15 to 20)
#    0.857    1.143    0.000    3.857    6.000    2.286 
#    2.571    0.000    0.000    0.000    0.000    0.000 
#    0.000    0.000    0.000    0.000    0.000    0.000 
#
# Total GULP energy -173506.061154 kJ/mol
# GULP energy per Si atom -12393.290082 kJ/mol
# Density = 2.012650 g / cm^3
# Si number density = 20.172416 Si / 1000 Ang^3
#
#
#
# Elastic Constant Matrix: (Units=GPa)
#
#
# Indices 1 2 3 4 5 6 
#
# 1 168.4292 45.1304 77.8012 -0.6355 9.2027 -3.0214
# 2 45.1304 83.9994 43.2806 -4.8285 6.6618 -7.2257
# 3 77.8012 43.2806 90.4332 -6.0573 15.5556 -11.1549
# 4 -0.6355 -4.8285 -6.0573 28.0242 -9.5549 5.8893
# 5 9.2027 6.6618 15.5556 -9.5549 32.3153 -0.3949
# 6 -3.0214 -7.2257 -11.1549 5.8893 -0.3949 25.9735
#
#
#
# Elastic Compliance Matrix: (Units=1/GPa)
#
#
# Indices 1 2 3 4 5 6 
#
# 1 0.010229 -0.001369 -0.008764 -0.000882 0.001294 -0.002735
# 2 -0.001369 0.016056 -0.006353 0.001270 0.000529 0.001299
# 3 -0.008764 -0.006353 0.023852 -0.000313 -0.007678 0.007411
# 4 -0.000882 0.001270 -0.000313 0.041994 0.012444 -0.009217
# 5 0.001294 0.000529 -0.007678 0.012444 0.037779 -0.005247
# 6 -0.002735 0.001299 0.007411 -0.009217 -0.005247 0.043737
#
#
# Mechanical properties :
#
#
# Convention : Reuss Voigt Hill
#
# Bulk Modulus (GPa) = 58.25287 75.03178 66.64233
# Shear Modulus (GPa) = 23.54694 29.03926 26.29310
#
# Velocity S-wave (km/s) = 3.42026 3.79826 3.61421
# Velocity P-wave (km/s) = 6.67366 7.51743 7.10807
#
# Compressibility (1/GPa) = 0.01716654
#
# Stress axis : x y z
#
# Youngs Moduli (GPa) = 97.75773 62.28160 41.92457
#
# Poissons Ratio (x) = 0.08524 0.36745
# Poissons Ratio (y) = 0.13380 0.26633
# Poissons Ratio (z) = 0.85680 0.39565
#
# Static dielectric constant tensor:
#      x y z
#    x 3.539880 -0.048890 0.220270 
#    y -0.048890 3.602200 -0.088500 
#    z 0.220270 -0.088500 3.590860 
# 
# 
# High freq. dielectric constant tensor:
#      x y z
#    x 1.782860 -0.001540 0.015740 
#    y -0.001540 1.785430 -0.006290 
#    z 0.015740 -0.006290 1.776650 
# 
# From -- ./inp_files/264555.got.cif
#   From: 2010.06.25/outbox.cif.g09.slc.cpg/sg2_133_cif.got.tgz:264555.got - 2010.06.27 13:26:56.
