data_PCOD8015353
_publ_section_title
;
Structure prediction by ZEFSAII (Michael W. Deem and Ramdas Pophale) SiO2 
 PCOD8015353
Probable space group: P -1
;
_chemical_formula_sum "Si O2"
_cell_formula_units_Z 16
_cell_length_a 10.809019
_cell_length_b 15.579489
_cell_length_c 8.411395
_cell_angle_alpha 130.671111
_cell_angle_beta 138.804969
_cell_angle_gamma 50.002282
_cell_volume 673.872412
_symmetry_space_group_name_H-M "P -1"
_symmetry_group_IT_number 2
_symmetry_cell_setting 'triclinic'
loop_
_space_group_symop_operation_xyz
x,y,z
-x,-y,-z
loop_
_atom_site_type_symbol
_atom_site_label
_atom_site_fract_x
_atom_site_fract_y
_atom_site_fract_z
Si Si1 0.636654 0.465553 0.933351
Si Si2 0.983379 0.705910 0.763361
Si Si3 0.900241 0.121228 0.131820
Si Si4 0.525326 0.141496 0.949859
Si Si5 0.354826 0.125428 0.144992
Si Si6 0.041014 0.214137 0.686524
Si Si7 0.197465 0.341665 0.769083
Si Si8 0.631686 0.258776 0.483231
O O1 0.540942 0.389588 0.631342
O O2 0.500000 0.500000 0.000000
O O3 0.658165 0.576514 0.983029
O O4 0.862677 0.388729 0.093463
O O5 0.809756 0.802066 0.804259
O O6 0.893201 0.632827 0.463345
O O7 0.108110 0.771110 0.861552
O O8 0.999874 0.128268 0.407348
O O9 0.676646 0.123100 0.931207
O O10 0.000000 0.000000 0.000000
O O11 0.315017 0.198486 0.728844
O O12 0.569041 0.015880 0.930625
O O13 0.555305 0.247522 0.218802
O O14 0.549011 0.169212 0.400826
O O15 0.255259 0.153721 0.905533
O O16 0.870806 0.229128 0.674202
O O17 0.039401 0.344072 0.763161
#
# Coordination Sequence:
#
# PCOD8015353 Si02
#       8
#     2   2   2   2   2   2   2   2
#     4  12  26  48  76 103 140 187 249 303 348 426
#     4  11  24  46  71 107 142 189 236 297 367 419
#     4  10  21  42  68 104 144 187 234 286 354 423
#     4  11  24  44  70 109 147 187 234 291 358 432
#     4  12  23  46  73 108 150 186 236 288 367 434
#     4  10  24  45  68 104 147 187 236 293 352 424
#     4  11  25  47  70 102 149 189 242 294 354 420
#     4  11  25  44  72 108 139 190 240 293 352 422
#
# _framework density 23.743368
#
# number of rings (size 3 to 8) (size 9 to 14) (size 15 to 20)
#    0.000    1.000    3.750    2.250    0.000    4.500 
#    4.500    0.000    0.000    0.000    0.000    0.000 
#    0.000    0.000    0.000    0.000    0.000    0.000 
#
# Total GULP energy -198209.972151 kJ/mol
# GULP energy per Si atom -12388.123259 kJ/mol
# Density = 2.368933 g / cm^3
# Si number density = 23.743368 Si / 1000 Ang^3
#
#
#
# Elastic Constant Matrix: (Units=GPa)
#
#
# Indices 1 2 3 4 5 6 
#
# 1 133.3127 40.3062 41.0807 13.1442 8.4497 6.5539
# 2 40.3062 96.8659 35.0995 7.0852 1.1314 9.1882
# 3 41.0807 35.0995 70.4306 18.8449 11.6319 2.3007
# 4 13.1442 7.0852 18.8449 41.1775 -1.2520 3.9146
# 5 8.4497 1.1314 11.6319 -1.2520 35.9526 5.9909
# 6 6.5539 9.1882 2.3007 3.9146 5.9909 39.6326
#
#
#
# Elastic Compliance Matrix: (Units=1/GPa)
#
#
# Indices 1 2 3 4 5 6 
#
# 1 0.009639 -0.002417 -0.004059 -0.000771 -0.000803 -0.000600
# 2 -0.002417 0.013711 -0.006204 0.001618 0.002698 -0.002986
# 3 -0.004059 -0.006204 0.023052 -0.008657 -0.007059 0.002693
# 4 -0.000771 0.001618 -0.008657 0.028660 0.004471 -0.003252
# 5 -0.000803 0.002698 -0.007059 0.004471 0.031232 -0.005246
# 6 -0.000600 -0.002986 0.002693 -0.003252 -0.005246 0.026981
#
#
# Mechanical properties :
#
#
# Convention : Reuss Voigt Hill
#
# Bulk Modulus (GPa) = 47.52525 59.28689 53.40607
# Shear Modulus (GPa) = 30.18426 35.62738 32.90582
#
# Velocity S-wave (km/s) = 3.56936 3.87786 3.72680
# Velocity P-wave (km/s) = 6.08660 6.71375 6.40785
#
# Compressibility (1/GPa) = 0.02104145
#
# Stress axis : x y z
#
# Youngs Moduli (GPa) = 103.74187 72.93543 43.38026
#
# Poissons Ratio (x) = 0.17631 0.17609
# Poissons Ratio (y) = 0.25078 0.26911
# Poissons Ratio (z) = 0.42112 0.45246
#
# Static dielectric constant tensor:
#      x y z
#    x 4.571580 -0.143600 -0.056010 
#    y -0.143600 3.940890 -0.045960 
#    z -0.056010 -0.045960 4.159080 
# 
# 
# High freq. dielectric constant tensor:
#      x y z
#    x 1.975990 0.005400 0.009870 
#    y 0.005400 1.916980 0.006920 
#    z 0.009870 0.006920 1.939210 
# 
# From -- ./inp_files/274512.got.cif
#   From: 2010.06.25/outbox.cif.g09.slc.cpg/sg2_138_cif.got.tgz:274512.got - 2010.06.27 13:26:56.
