data_PCOD8015014
_publ_section_title
;
Structure prediction by ZEFSAII (Michael W. Deem and Ramdas Pophale) SiO2 
 PCOD8015014
Probable space group: P -1
;
_chemical_formula_sum "Si O2"
_cell_formula_units_Z 16
_cell_length_a 13.287984
_cell_length_b 11.999944
_cell_length_c 6.938535
_cell_angle_alpha 101.525880
_cell_angle_beta 138.432592
_cell_angle_gamma 80.412898
_cell_volume 719.036256
_symmetry_space_group_name_H-M "P -1"
_symmetry_group_IT_number 2
_symmetry_cell_setting 'triclinic'
loop_
_space_group_symop_operation_xyz
x,y,z
-x,-y,-z
loop_
_atom_site_type_symbol
_atom_site_label
_atom_site_fract_x
_atom_site_fract_y
_atom_site_fract_z
Si Si1 0.140326 0.053009 0.823273
Si Si2 0.147136 0.924266 0.148647
Si Si3 0.784506 0.574243 0.751253
Si Si4 0.821146 0.527650 0.229741
Si Si5 0.659388 0.945785 0.247778
Si Si6 0.034327 0.743907 0.163732
Si Si7 0.631374 0.699588 0.264757
Si Si8 0.291254 0.633460 0.695885
O O1 0.265792 0.085117 0.860038
O O2 0.092962 0.168673 0.905029
O O3 0.000000 0.000000 0.500000
O O4 0.207691 0.954814 0.032829
O O5 0.103170 0.792166 0.076619
O O6 0.261682 0.954939 0.490474
O O7 0.000000 0.000000 0.000000
O O8 0.656495 0.663347 0.512359
O O9 0.756446 0.455762 0.566571
O O10 0.767554 0.554743 0.946932
O O11 0.952495 0.624245 0.965956
O O12 0.765820 0.635734 0.315132
O O13 0.733375 0.417609 0.143981
O O14 0.000000 0.500000 0.500000
O O15 0.652974 0.833444 0.329554
O O16 0.500000 0.000000 0.000000
O O17 0.170675 0.735889 0.514740
O O18 0.465309 0.668214 0.937616
#
# Coordination Sequence:
#
# PCOD8015014 Si02
#       8
#     2   2   2   2   2   2   2   2
#     4  11  23  42  69  97 131 174 222 277 328 392
#     4  10  21  42  64  98 130 169 224 273 322 397
#     4  11  23  43  68  95 135 172 218 275 325 389
#     4  11  23  43  67  99 128 170 230 272 320 398
#     4  12  25  45  69  98 138 176 217 277 334 391
#     4  11  21  41  69  97 133 171 225 271 331 393
#     4  11  26  42  68  95 137 179 212 270 340 384
#     4  11  25  44  63 100 136 171 217 274 328 391
#
# _framework density 22.252009000000001
#
# number of rings (size 3 to 8) (size 9 to 14) (size 15 to 20)
#    0.000    1.000    3.750    4.875    1.750    2.500 
#    2.250    1.250    0.000    0.000    0.000    0.000 
#    0.000    0.000    0.000    0.000    0.000    0.000 
#
# Total GULP energy -198303.987754 kJ/mol
# GULP energy per Si atom -12393.999235 kJ/mol
# Density = 2.220136 g / cm^3
# Si number density = 22.252009 Si / 1000 Ang^3
#
#
#
# Elastic Constant Matrix: (Units=GPa)
#
#
# Indices 1 2 3 4 5 6 
#
# 1 87.7085 33.0788 48.0251 -9.1685 -0.6012 11.8348
# 2 33.0788 83.4524 26.2143 -13.8541 -7.5539 23.7966
# 3 48.0251 26.2143 131.2198 -15.3310 -2.1199 8.8030
# 4 -9.1685 -13.8541 -15.3310 44.5581 10.9750 -1.1327
# 5 -0.6012 -7.5539 -2.1199 10.9750 48.7213 -12.3458
# 6 11.8348 23.7966 8.8030 -1.1327 -12.3458 30.5400
#
#
#
# Elastic Compliance Matrix: (Units=1/GPa)
#
#
# Indices 1 2 3 4 5 6 
#
# 1 0.015966 -0.004278 -0.004811 0.000571 -0.001304 -0.001973
# 2 -0.004278 0.018149 -0.000696 0.004575 -0.001526 -0.012730
# 3 -0.004811 -0.000696 0.009810 0.002248 -0.000370 -0.000487
# 4 0.000571 0.004575 0.002248 0.026239 -0.006655 -0.006151
# 5 -0.001304 -0.001526 -0.000370 -0.006655 0.024677 0.011530
# 6 -0.001973 -0.012730 -0.000487 -0.006151 0.011530 0.048001
#
#
# Mechanical properties :
#
#
# Convention : Reuss Voigt Hill
#
# Bulk Modulus (GPa) = 41.05955 57.44634 49.25294
# Shear Modulus (GPa) = 29.32054 37.76806 33.54430
#
# Velocity S-wave (km/s) = 3.63389 4.12428 3.88683
# Velocity P-wave (km/s) = 6.00825 6.96792 6.50580
#
# Compressibility (1/GPa) = 0.02435487
#
# Stress axis : x y z
#
# Youngs Moduli (GPa) = 62.63325 55.10042 101.93833
#
# Poissons Ratio (x) = 0.23572 0.49040
# Poissons Ratio (y) = 0.26795 0.07095
# Poissons Ratio (z) = 0.30131 0.03835
#
# Static dielectric constant tensor:
#      x y z
#    x 4.059690 0.280740 -0.038140 
#    y 0.280740 4.562620 -0.500900 
#    z -0.038140 -0.500900 4.217360 
# 
# 
# High freq. dielectric constant tensor:
#      x y z
#    x 1.854490 0.022660 0.002170 
#    y 0.022660 1.885870 -0.017770 
#    z 0.002170 -0.017770 1.888920 
# 
# From -- ./inp_files/76227.got.cif
#   From: 2010.06.25/outbox.cif.g09.slc.cpg/sg2_39_cif.got.tgz:76227.got - 2010.06.27 13:26:56.
