data_PCOD8015252
_publ_section_title
;
Structure prediction by ZEFSAII (Michael W. Deem and Ramdas Pophale) SiO2 
 PCOD8015252
Probable space group: P -1
;
_chemical_formula_sum "Si O2"
_cell_formula_units_Z 12
_cell_length_a 12.783798
_cell_length_b 9.324863
_cell_length_c 8.427226
_cell_angle_alpha 130.009792
_cell_angle_beta 50.877229
_cell_angle_gamma 107.358549
_cell_volume 587.116740
_symmetry_space_group_name_H-M "P -1"
_symmetry_group_IT_number 2
_symmetry_cell_setting 'triclinic'
loop_
_space_group_symop_operation_xyz
x,y,z
-x,-y,-z
loop_
_atom_site_type_symbol
_atom_site_label
_atom_site_fract_x
_atom_site_fract_y
_atom_site_fract_z
Si Si1 0.712334 0.485513 0.069868
Si Si2 0.628634 0.859778 0.213934
Si Si3 0.453904 0.402729 0.130585
Si Si4 0.998838 0.371369 0.565208
Si Si5 0.202959 0.565062 0.696013
Si Si6 0.111580 0.992143 0.022668
O O1 0.666783 0.690984 0.182501
O O2 0.587918 0.364868 0.089219
O O3 0.741090 0.517706 0.248473
O O4 0.844781 0.374611 0.772949
O O5 0.500000 0.000000 0.500000
O O6 0.596005 0.788486 0.017155
O O7 0.750936 0.974939 0.169570
O O8 0.326957 0.537888 0.432216
O O9 0.500000 0.500000 0.000000
O O10 0.000000 0.500000 0.500000
O O11 0.085122 0.450580 0.675819
O O12 0.062928 0.152649 0.314749
O O13 0.137914 0.786980 0.934950
O O14 0.000000 0.000000 0.000000
#
# Coordination Sequence:
#
# PCOD8015252 Si02
#       6
#     2   2   2   2   2   2
#     4  11  24  42  66  94 132 169 203 277 324 361
#     4  11  23  42  66  96 124 171 223 255 310 392
#     4  10  21  42  67  89 126 172 211 258 314 383
#     4  12  22  44  67  94 130 170 217 256 316 387
#     4  12  24  44  65  98 133 161 214 271 323 365
#     4  12  24  39  70  95 124 173 218 257 309 392
#
# _framework density 20.438863999999999
#
# number of rings (size 3 to 8) (size 9 to 14) (size 15 to 20)
#    0.000    0.667    5.000    4.000    2.333    0.667 
#    3.000    1.667    0.000    0.000    0.000    0.000 
#    0.000    0.000    0.000    0.000    0.000    0.000 
#
# Total GULP energy -148834.880466 kJ/mol
# GULP energy per Si atom -12402.906706 kJ/mol
# Density = 2.039234 g / cm^3
# Si number density = 20.438864 Si / 1000 Ang^3
#
#
#
# Elastic Constant Matrix: (Units=GPa)
#
#
# Indices 1 2 3 4 5 6 
#
# 1 161.3312 43.0194 39.0021 14.7822 2.5775 15.1472
# 2 43.0194 62.5387 42.7688 18.5539 -0.4738 12.1082
# 3 39.0021 42.7688 159.4408 20.5369 -16.2324 3.4323
# 4 14.7822 18.5539 20.5369 33.8558 7.8193 0.7470
# 5 2.5775 -0.4738 -16.2324 7.8193 40.3044 -8.0297
# 6 15.1472 12.1082 3.4323 0.7470 -8.0297 36.9630
#
#
#
# Elastic Compliance Matrix: (Units=1/GPa)
#
#
# Indices 1 2 3 4 5 6 
#
# 1 0.007777 -0.004394 -0.000781 -0.000192 -0.001212 -0.001935
# 2 -0.004394 0.026195 -0.004700 -0.009270 -0.000765 -0.006323
# 3 -0.000781 -0.004700 0.008573 -0.003376 0.004524 0.002114
# 4 -0.000192 -0.009270 -0.003376 0.038773 -0.008834 0.000726
# 5 -0.001212 -0.000765 0.004524 -0.008834 0.029806 0.006981
# 6 -0.001935 -0.006323 0.002114 0.000726 0.006981 0.031224
#
#
# Mechanical properties :
#
#
# Convention : Reuss Voigt Hill
#
# Bulk Modulus (GPa) = 43.86436 70.32124 57.09280
# Shear Modulus (GPa) = 29.46450 39.45935 34.46192
#
# Velocity S-wave (km/s) = 3.80095 4.39863 4.11067
# Velocity P-wave (km/s) = 6.38520 7.76387 7.10804
#
# Compressibility (1/GPa) = 0.02279755
#
# Stress axis : x y z
#
# Youngs Moduli (GPa) = 128.57829 38.17525 116.63973
#
# Poissons Ratio (x) = 0.16773 0.09109
# Poissons Ratio (y) = 0.56492 0.54816
# Poissons Ratio (z) = 0.10042 0.17941
#
# Static dielectric constant tensor:
#      x y z
#    x 4.354510 0.447460 0.010420 
#    y 0.447460 3.670630 0.055560 
#    z 0.010420 0.055560 3.899820 
# 
# 
# High freq. dielectric constant tensor:
#      x y z
#    x 1.820450 0.021250 -0.006380 
#    y 0.021250 1.778060 -0.004330 
#    z -0.006380 -0.004330 1.812920 
# 
# From -- ./inp_files/148780.got.cif
#   From: 2010.06.25/outbox.cif.g09.slc.cpg/sg2_75_cif.got.tgz:148780.got - 2010.06.27 13:26:56.
