data_PCOD8015917
_publ_section_title
;
Structure prediction by ZEFSAII (Michael W. Deem and Ramdas Pophale) SiO2 
 PCOD8015917
Probable space group: P -1
;
_chemical_formula_sum "Si O2"
_cell_formula_units_Z 16
_cell_length_a 13.222864
_cell_length_b 11.029273
_cell_length_c 9.688264
_cell_angle_alpha 65.998643
_cell_angle_beta 81.535479
_cell_angle_gamma 36.024397
_cell_volume 714.364510
_symmetry_space_group_name_H-M "P -1"
_symmetry_group_IT_number 2
_symmetry_cell_setting 'triclinic'
loop_
_space_group_symop_operation_xyz
x,y,z
-x,-y,-z
loop_
_atom_site_type_symbol
_atom_site_label
_atom_site_fract_x
_atom_site_fract_y
_atom_site_fract_z
Si Si1 0.757550 0.671952 0.657337
Si Si2 0.306440 0.461617 0.854155
Si Si3 0.973981 0.839230 0.161704
Si Si4 0.213268 0.296116 0.053395
Si Si5 0.567811 0.279401 0.101814
Si Si6 0.029413 0.049034 0.180287
Si Si7 0.589210 0.113456 0.452869
Si Si8 0.377738 0.842193 0.266014
O O1 0.723904 0.712774 0.808748
O O2 0.599272 0.762790 0.569805
O O3 0.943848 0.393976 0.710730
O O4 0.755584 0.827500 0.533136
O O5 0.424681 0.395620 0.734670
O O6 0.115541 0.748887 0.767307
O O7 0.261666 0.352275 0.898740
O O8 0.419570 0.347618 0.026674
O O9 0.758026 0.056946 0.087937
O O10 0.050019 0.805432 0.014125
O O11 0.030972 0.886873 0.244080
O O12 0.310809 0.052424 0.115223
O O13 0.000000 0.500000 0.000000
O O14 0.597105 0.214203 0.286039
O O15 0.500000 0.500000 0.000000
O O16 0.234157 0.879058 0.247924
O O17 0.601520 0.176119 0.565723
#
# Coordination Sequence:
#
# PCOD8015917 Si02
#       8
#     2   2   2   2   2   2   2   2
#     4  10  21  43  67  94 137 185 219 280 348 394
#     4  12  22  41  68 102 135 175 238 276 331 418
#     4  11  22  40  71 100 134 181 233 283 336 397
#     4  11  20  38  67 100 136 176 227 286 332 399
#     4  12  24  43  72 102 131 181 238 279 335 421
#     4  11  22  40  67 104 137 174 233 286 329 406
#     4  10  24  45  66  98 142 176 228 285 342 412
#     4  11  24  42  66  99 138 184 219 282 357 392
#
# _framework density 22.397527
#
# number of rings (size 3 to 8) (size 9 to 14) (size 15 to 20)
#    0.000    1.000    6.250    0.375    1.750    0.500 
#    2.250    3.125    0.000    0.000    0.000    0.000 
#    0.000    0.000    0.000    0.000    0.000    0.000 
#
# Total GULP energy -198385.886505 kJ/mol
# GULP energy per Si atom -12399.117907 kJ/mol
# Density = 2.234655 g / cm^3
# Si number density = 22.397527 Si / 1000 Ang^3
#
#
#
# Elastic Constant Matrix: (Units=GPa)
#
#
# Indices 1 2 3 4 5 6 
#
# 1 93.3367 23.7122 21.1458 3.5686 2.8205 -9.1803
# 2 23.7122 128.6285 33.0180 -6.6530 -19.2245 -6.2133
# 3 21.1458 33.0180 87.6355 -2.2097 -10.5586 9.7099
# 4 3.5686 -6.6530 -2.2097 27.8960 5.2056 -1.8508
# 5 2.8205 -19.2245 -10.5586 5.2056 34.3316 -3.2101
# 6 -9.1803 -6.2133 9.7099 -1.8508 -3.2101 35.0248
#
#
#
# Elastic Compliance Matrix: (Units=1/GPa)
#
#
# Indices 1 2 3 4 5 6 
#
# 1 0.012316 -0.001765 -0.003014 -0.001564 -0.002367 0.003451
# 2 -0.001765 0.009766 -0.002933 0.001616 0.004709 0.002600
# 3 -0.003014 -0.002933 0.014094 0.000010 0.002471 -0.004991
# 4 -0.001564 0.001616 0.000010 0.037368 -0.004495 0.001436
# 5 -0.002367 0.004709 0.002471 -0.004495 0.033623 0.002374
# 6 0.003451 0.002600 -0.004991 0.001436 0.002374 0.031594
#
#
# Mechanical properties :
#
#
# Convention : Reuss Voigt Hill
#
# Bulk Modulus (GPa) = 48.18876 51.70584 49.94730
# Shear Modulus (GPa) = 31.03624 34.89879 32.96752
#
# Velocity S-wave (km/s) = 3.72654 3.95163 3.84073
# Velocity P-wave (km/s) = 6.33072 6.62994 6.48206
#
# Compressibility (1/GPa) = 0.02075173
#
# Stress axis : x y z
#
# Youngs Moduli (GPa) = 81.19657 102.39928 70.95056
#
# Poissons Ratio (x) = 0.18071 0.21383
# Poissons Ratio (y) = 0.14329 0.20813
# Poissons Ratio (z) = 0.24471 0.30039
#
# Static dielectric constant tensor:
#      x y z
#    x 4.101690 0.078650 -0.114130 
#    y 0.078650 4.075340 -0.223130 
#    z -0.114130 -0.223130 3.561900 
# 
# 
# High freq. dielectric constant tensor:
#      x y z
#    x 1.890790 0.006160 0.007090 
#    y 0.006160 1.883730 -0.009540 
#    z 0.007090 -0.009540 1.853920 
# 
# From -- ./inp_files/307012.got.cif
#   From: 2010.06.25/outbox.cif.g09.slc.cpg/sg2_154_cif.got.tgz:307012.got - 2010.06.27 13:26:56.
