data_PCOD8015077
_publ_section_title
;
Structure prediction by ZEFSAII (Michael W. Deem and Ramdas Pophale) SiO2 
 PCOD8015077
Probable space group: P -1
;
_chemical_formula_sum "Si O2"
_cell_formula_units_Z 16
_cell_length_a 8.565580
_cell_length_b 19.498668
_cell_length_c 18.903923
_cell_angle_alpha 22.480100
_cell_angle_beta 43.344635
_cell_angle_gamma 55.995670
_cell_volume 748.301370
_symmetry_space_group_name_H-M "P -1"
_symmetry_group_IT_number 2
_symmetry_cell_setting 'triclinic'
loop_
_space_group_symop_operation_xyz
x,y,z
-x,-y,-z
loop_
_atom_site_type_symbol
_atom_site_label
_atom_site_fract_x
_atom_site_fract_y
_atom_site_fract_z
Si Si1 0.794321 0.088905 0.315598
Si Si2 0.918212 0.483162 0.123066
Si Si3 0.997890 0.468653 0.614886
Si Si4 0.116509 0.108975 0.929958
Si Si5 0.933743 0.895040 0.338590
Si Si6 0.532078 0.502311 0.806474
Si Si7 0.638719 0.197826 0.724091
Si Si8 0.880160 0.822681 0.653890
O O1 0.500000 0.000000 0.500000
O O2 0.911398 0.079012 0.209805
O O3 0.850669 0.930892 0.491822
O O4 0.908115 0.318131 0.081442
O O5 0.636682 0.467977 0.229398
O O6 0.946361 0.286341 0.326611
O O7 0.000000 0.500000 0.000000
O O8 0.737075 0.451367 0.748677
O O9 0.000000 0.500000 0.500000
O O10 0.003677 0.265335 0.827721
O O11 0.240869 0.631852 0.418763
O O12 0.426250 0.219500 0.723228
O O13 0.000000 0.000000 0.000000
O O14 0.012419 0.949505 0.179182
O O15 0.661568 0.708499 0.609837
O O16 0.139217 0.826219 0.370970
O O17 0.376808 0.336057 0.074211
O O18 0.500000 0.000000 0.000000
O O19 0.000000 0.000000 0.500000
#
# Coordination Sequence:
#
# PCOD8015077 Si02
#       8
#     2   2   2   2   2   2   2   2
#     4  12  25  41  67  97 138 175 219 285 335 390
#     4  10  21  42  65  95 130 173 227 275 322 402
#     4  11  23  41  67 102 131 173 221 277 346 407
#     4  11  23  43  70  95 130 180 223 282 345 405
#     4  10  24  43  63 100 132 171 223 276 345 402
#     4  10  22  41  68  92 134 172 223 280 325 408
#     4   9  20  43  65  91 135 164 217 281 326 405
#     4  11  23  44  69  96 132 184 227 272 334 398
#
# _framework density 21.381758999999999
#
# number of rings (size 3 to 8) (size 9 to 14) (size 15 to 20)
#    0.000    1.500    2.500    4.125    1.750    5.000 
#    6.750    0.000    0.000    0.000    0.000    0.000 
#    0.000    0.000    0.000    0.000    0.000    0.000 
#
# Total GULP energy -198226.348987 kJ/mol
# GULP energy per Si atom -12389.146812 kJ/mol
# Density = 2.133309 g / cm^3
# Si number density = 21.381759 Si / 1000 Ang^3
#
#
#
# Elastic Constant Matrix: (Units=GPa)
#
#
# Indices 1 2 3 4 5 6 
#
# 1 123.1304 59.4327 35.0626 -9.6137 -24.0754 -14.0483
# 2 59.4327 136.4472 41.2154 -25.9003 -21.2997 -3.3677
# 3 35.0626 41.2154 105.1981 -22.8138 -20.2996 -3.6685
# 4 -9.6137 -25.9003 -22.8138 43.6596 1.8366 2.0805
# 5 -24.0754 -21.2997 -20.2996 1.8366 47.7035 -4.3852
# 6 -14.0483 -3.3677 -3.6685 2.0805 -4.3852 43.6656
#
#
#
# Elastic Compliance Matrix: (Units=1/GPa)
#
#
# Indices 1 2 3 4 5 6 
#
# 1 0.011640 -0.004100 -0.001658 -0.001069 0.003721 0.003714
# 2 -0.004100 0.010716 -0.001496 0.004626 0.001841 -0.000654
# 3 -0.001658 -0.001496 0.012471 0.005085 0.003655 0.000524
# 4 -0.001069 0.004626 0.005085 0.027994 0.002554 -0.000637
# 5 0.003721 0.001841 0.003655 0.002554 0.025495 0.004085
# 6 0.003714 -0.000654 0.000524 -0.000637 0.004085 0.024530
#
#
# Mechanical properties :
#
#
# Convention : Reuss Voigt Hill
#
# Bulk Modulus (GPa) = 49.21333 70.68856 59.95094
# Shear Modulus (GPa) = 37.27815 42.27674 39.77744
#
# Velocity S-wave (km/s) = 4.18000 4.45143 4.31785
# Velocity P-wave (km/s) = 6.80904 7.71702 7.27720
#
# Compressibility (1/GPa) = 0.02031970
#
# Stress axis : x y z
#
# Youngs Moduli (GPa) = 85.90812 93.31954 80.18710
#
# Poissons Ratio (x) = 0.38259 0.13292
# Poissons Ratio (y) = 0.35220 0.11998
# Poissons Ratio (z) = 0.14240 0.13963
#
# Static dielectric constant tensor:
#      x y z
#    x 2.090530 3.527970 0.963020 
#    y 3.527970 -2.647170 -2.294080 
#    z 0.963020 -2.294080 3.232560 
# 
# 
# High freq. dielectric constant tensor:
#      x y z
#    x 1.844590 -0.015310 -0.011640 
#    y -0.015310 1.851820 -0.015420 
#    z -0.011640 -0.015420 1.837780 
# 
# From -- ./inp_files/591593.got.cif
#   From: 2010.06.25/outbox.cif.g09.slc.cpg/sg2_296_cif.got.tgz:591593.got - 2010.06.27 13:26:56.
