data_PCOD8015627
_publ_section_title
;
Structure prediction by ZEFSAII (Michael W. Deem and Ramdas Pophale) SiO2 
 PCOD8015627
Probable space group: P -1
;
_chemical_formula_sum "Si O2"
_cell_formula_units_Z 16
_cell_length_a 9.049122
_cell_length_b 9.644896
_cell_length_c 15.647754
_cell_angle_alpha 36.989228
_cell_angle_beta 100.521161
_cell_angle_gamma 109.984868
_cell_volume 762.283823
_symmetry_space_group_name_H-M "P -1"
_symmetry_group_IT_number 2
_symmetry_cell_setting 'triclinic'
loop_
_space_group_symop_operation_xyz
x,y,z
-x,-y,-z
loop_
_atom_site_type_symbol
_atom_site_label
_atom_site_fract_x
_atom_site_fract_y
_atom_site_fract_z
Si Si1 0.438112 0.228834 0.884040
Si Si2 0.943086 0.209049 0.638552
Si Si3 0.946080 0.509130 0.085292
Si Si4 0.081991 0.013346 0.910913
Si Si5 0.393948 0.263484 0.415928
Si Si6 0.085142 0.008605 0.594045
Si Si7 0.381807 0.001673 0.377870
Si Si8 0.398178 0.506121 0.906006
O O1 0.266192 0.176702 0.848361
O O2 0.565230 0.448732 0.737918
O O3 0.421815 0.309407 0.939344
O O4 0.500000 0.000000 0.000000
O O5 0.751575 0.092537 0.663286
O O6 0.000000 0.500000 0.500000
O O7 0.990155 0.115350 0.778988
O O8 0.019791 0.121601 0.609461
O O9 0.932631 0.268690 0.253250
O O10 0.782579 0.567287 0.046519
O O11 0.000000 0.500000 0.000000
O O12 0.080287 0.739864 0.026560
O O13 0.000000 0.000000 0.000000
O O14 0.559581 0.220962 0.477876
O O15 0.269091 0.179780 0.521069
O O16 0.312113 0.104328 0.401869
O O17 0.000000 0.000000 0.500000
O O18 0.539790 0.218787 0.258521
O O19 0.500000 0.500000 0.000000
#
# Coordination Sequence:
#
# PCOD8015627 Si02
#       8
#     2   2   2   2   2   2   2   2
#     4  11  27  44  69 104 141 187 231 289 360 425
#     4  12  27  45  69 106 145 185 235 292 357 429
#     4  12  26  47  73 103 143 185 242 296 346 431
#     4  12  27  47  70 103 148 191 236 294 366 421
#     4  10  22  45  71 101 138 179 234 287 347 424
#     4  12  26  44  72 106 136 189 238 287 354 417
#     4  10  21  42  72  99 135 179 231 287 347 418
#     4  11  24  43  71 100 134 182 234 289 354 416
#
# _framework density 20.989554999999999
#
# number of rings (size 3 to 8) (size 9 to 14) (size 15 to 20)
#    0.000    0.750    5.000    1.500    5.250    0.000 
#    0.000    1.250    0.000    0.000    0.000    0.000 
#    0.000    0.000    0.000    0.000    0.000    0.000 
#
# Total GULP energy -198416.873451 kJ/mol
# GULP energy per Si atom -12401.054591 kJ/mol
# Density = 2.094178 g / cm^3
# Si number density = 20.989555 Si / 1000 Ang^3
#
#
#
# Elastic Constant Matrix: (Units=GPa)
#
#
# Indices 1 2 3 4 5 6 
#
# 1 83.7860 54.3816 52.4134 -1.8325 -3.8560 0.7512
# 2 54.3816 141.9970 68.8966 0.6963 7.3010 0.9596
# 3 52.4134 68.8966 154.8930 -4.6604 8.5147 -6.3517
# 4 -1.8325 0.6963 -4.6604 47.0388 -0.8905 2.9276
# 5 -3.8560 7.3010 8.5147 -0.8905 39.2132 4.1145
# 6 0.7512 0.9596 -6.3517 2.9276 4.1145 40.6611
#
#
#
# Elastic Compliance Matrix: (Units=1/GPa)
#
#
# Indices 1 2 3 4 5 6 
#
# 1 0.017981 -0.005105 -0.004055 0.000524 0.003743 -0.001262
# 2 -0.005105 0.010491 -0.002874 -0.000650 -0.001807 -0.000373
# 3 -0.004055 -0.002874 0.009312 0.000659 -0.002055 0.001758
# 4 0.000524 -0.000650 0.000659 0.021461 0.000675 -0.001505
# 5 0.003743 -0.001807 -0.002055 0.000675 0.026996 -0.003128
# 6 -0.001262 -0.000373 0.001758 -0.001505 -0.003128 0.025325
#
#
# Mechanical properties :
#
#
# Convention : Reuss Voigt Hill
#
# Bulk Modulus (GPa) = 72.92068 81.33991 77.13029
# Shear Modulus (GPa) = 35.66198 39.04824 37.35511
#
# Velocity S-wave (km/s) = 4.12641 4.31787 4.22323
# Velocity P-wave (km/s) = 7.58418 7.98094 7.78509
#
# Compressibility (1/GPa) = 0.01371353
#
# Stress axis : x y z
#
# Youngs Moduli (GPa) = 55.61578 95.32228 107.39117
#
# Poissons Ratio (x) = 0.48662 0.43551
# Poissons Ratio (y) = 0.28392 0.30868
# Poissons Ratio (z) = 0.22554 0.27399
#
# Static dielectric constant tensor:
#      x y z
#    x 3.928460 0.079360 -0.260610 
#    y 0.079360 3.934040 -0.040230 
#    z -0.260610 -0.040230 4.204960 
# 
# 
# High freq. dielectric constant tensor:
#      x y z
#    x 1.827700 0.004610 -0.005820 
#    y 0.004610 1.825870 -0.004540 
#    z -0.005820 -0.004540 1.838170 
# 
# From -- ./inp_files/299236.got.cif
#   From: 2010.06.25/outbox.cif.g09.slc.cpg/sg2_150_cif.got.tgz:299236.got - 2010.06.27 13:26:56.
