data_PCOD8015873
_publ_section_title
;
Structure prediction by ZEFSAII (Michael W. Deem and Ramdas Pophale) SiO2 
 PCOD8015873
Probable space group: P -1
;
_chemical_formula_sum "Si O2"
_cell_formula_units_Z 16
_cell_length_a 12.372383
_cell_length_b 9.599876
_cell_length_c 16.175165
_cell_angle_alpha 35.212998
_cell_angle_beta 113.768631
_cell_angle_gamma 132.897116
_cell_volume 756.371926
_symmetry_space_group_name_H-M "P -1"
_symmetry_group_IT_number 2
_symmetry_cell_setting 'triclinic'
loop_
_space_group_symop_operation_xyz
x,y,z
-x,-y,-z
loop_
_atom_site_type_symbol
_atom_site_label
_atom_site_fract_x
_atom_site_fract_y
_atom_site_fract_z
Si Si1 0.291270 0.286004 0.742918
Si Si2 0.939208 0.301109 0.704432
Si Si3 0.645557 0.064028 0.968453
Si Si4 0.737364 0.401974 0.266197
Si Si5 0.014443 0.149853 0.642638
Si Si6 0.428933 0.301046 0.488986
Si Si7 0.349383 0.258321 0.016117
Si Si8 0.153576 0.242451 0.372491
O O1 0.309035 0.535006 0.691558
O O2 0.161921 0.169469 0.689332
O O3 0.457907 0.475503 0.658946
O O4 0.251041 0.966035 0.923528
O O5 0.926089 0.527956 0.539051
O O6 0.092043 0.494939 0.718154
O O7 0.942518 0.090247 0.740708
O O8 0.780448 0.081364 0.814310
O O9 0.761512 0.383530 0.792017
O O10 0.500000 0.000000 0.000000
O O11 0.574466 0.772441 0.024254
O O12 0.608565 0.037032 0.366662
O O13 0.742305 0.618677 0.094207
O O14 0.880180 0.855774 0.686353
O O15 0.500000 0.500000 0.500000
O O16 0.265938 0.208914 0.467268
O O17 0.500000 0.500000 0.000000
O O18 0.000000 0.000000 0.500000
#
# Coordination Sequence:
#
# PCOD8015873 Si02
#       8
#     2   2   2   2   2   2   2   2
#     4  10  23  45  66  97 131 177 224 277 328 405
#     4  10  21  43  66  98 133 168 224 274 338 404
#     4  11  25  45  67  94 140 178 220 276 337 400
#     4  10  23  43  67  96 131 179 220 275 335 396
#     4  10  22  40  70  96 129 173 221 277 333 403
#     4  12  25  41  68  99 136 174 224 277 335 395
#     4  11  26  40  68  99 133 173 224 279 332 397
#     4  12  25  44  69  98 137 178 225 272 342 402
#
# _framework density 21.153614000000001
#
# number of rings (size 3 to 8) (size 9 to 14) (size 15 to 20)
#    0.000    1.250    2.500    2.250    5.250    0.500 
#    0.000    0.000    0.000    0.000    0.000    0.000 
#    0.000    0.000    0.000    0.000    0.000    0.000 
#
# Total GULP energy -198262.824512 kJ/mol
# GULP energy per Si atom -12391.426532 kJ/mol
# Density = 2.110547 g / cm^3
# Si number density = 21.153614 Si / 1000 Ang^3
#
#
#
# Elastic Constant Matrix: (Units=GPa)
#
#
# Indices 1 2 3 4 5 6 
#
# 1 112.6564 40.5486 47.1384 6.9012 1.1140 13.7052
# 2 40.5486 132.1931 26.8877 12.7333 8.9163 3.5822
# 3 47.1384 26.8877 110.2754 2.8376 6.3573 5.3881
# 4 6.9012 12.7333 2.8376 30.1874 4.4271 8.7025
# 5 1.1140 8.9163 6.3573 4.4271 37.9971 0.0482
# 6 13.7052 3.5822 5.3881 8.7025 0.0482 31.8150
#
#
#
# Elastic Compliance Matrix: (Units=1/GPa)
#
#
# Indices 1 2 3 4 5 6 
#
# 1 0.012231 -0.002801 -0.004399 -0.000155 0.001058 -0.004168
# 2 -0.002801 0.008980 -0.000883 -0.003196 -0.001507 0.001221
# 3 -0.004399 -0.000883 0.011245 0.000576 -0.001612 -0.000065
# 4 -0.000155 -0.003196 0.000576 0.037897 -0.003745 -0.010031
# 5 0.001058 -0.001507 -0.001612 -0.003745 0.027345 0.000970
# 6 -0.004168 0.001221 -0.000065 -0.010031 0.000970 0.035843
#
#
# Mechanical properties :
#
#
# Convention : Reuss Voigt Hill
#
# Bulk Modulus (GPa) = 61.38235 64.91936 63.15085
# Shear Modulus (GPa) = 32.22980 36.03659 34.13319
#
# Velocity S-wave (km/s) = 3.90758 4.13191 4.02131
# Velocity P-wave (km/s) = 7.03131 7.31571 7.17492
#
# Compressibility (1/GPa) = 0.01629133
#
# Stress axis : x y z
#
# Youngs Moduli (GPa) = 81.75784 111.36306 88.92724
#
# Poissons Ratio (x) = 0.31188 0.39118
# Poissons Ratio (y) = 0.22897 0.07852
# Poissons Ratio (z) = 0.35964 0.09832
#
# Static dielectric constant tensor:
#      x y z
#    x 3.777350 -0.108800 0.211670 
#    y -0.108800 3.956580 0.048530 
#    z 0.211670 0.048530 3.846940 
# 
# 
# High freq. dielectric constant tensor:
#      x y z
#    x 1.835440 -0.003480 0.009290 
#    y -0.003480 1.831740 0.011230 
#    z 0.009290 0.011230 1.833050 
# 
# From -- ./inp_files/284578.got.cif
#   From: 2010.06.25/outbox.cif.g09.slc.cpg/sg2_143_cif.got.tgz:284578.got - 2010.06.27 13:26:56.
