data_PCOD8015934
_publ_section_title
;
Structure prediction by ZEFSAII (Michael W. Deem and Ramdas Pophale) SiO2 
 PCOD8015934
Probable space group: P -1
;
_chemical_formula_sum "Si O2"
_cell_formula_units_Z 16
_cell_length_a 26.688567
_cell_length_b 8.736361
_cell_length_c 11.890215
_cell_angle_alpha 130.669936
_cell_angle_beta 19.893793
_cell_angle_gamma 129.956942
_cell_volume 710.860903
_symmetry_space_group_name_H-M "P -1"
_symmetry_group_IT_number 2
_symmetry_cell_setting 'triclinic'
loop_
_space_group_symop_operation_xyz
x,y,z
-x,-y,-z
loop_
_atom_site_type_symbol
_atom_site_label
_atom_site_fract_x
_atom_site_fract_y
_atom_site_fract_z
Si Si1 0.375894 0.088395 0.729470
Si Si2 0.527413 0.124291 0.208927
Si Si3 0.090279 0.820721 0.186933
Si Si4 0.615634 0.689600 0.818922
Si Si5 0.805874 0.640152 0.597505
Si Si6 0.709221 0.818937 0.445049
Si Si7 0.067134 0.456441 0.219480
Si Si8 0.202660 0.750261 0.441143
O O1 0.455736 0.213536 0.514786
O O2 0.500000 0.000000 0.500000
O O3 0.286164 0.233234 0.062283
O O4 0.255916 0.912070 0.843262
O O5 0.430433 0.125214 0.302214
O O6 0.683879 0.246805 0.902805
O O7 0.545316 0.893595 0.094058
O O8 0.117259 0.674330 0.163679
O O9 0.985085 0.700295 0.256538
O O10 0.000000 0.000000 0.500000
O O11 0.762156 0.678177 0.579942
O O12 0.660243 0.681716 0.590949
O O13 0.500000 0.500000 0.000000
O O14 0.759986 0.405444 0.615061
O O15 0.801155 0.028266 0.391132
O O16 0.799601 0.680350 0.108677
O O17 0.000000 0.500000 0.500000
O O18 0.956491 0.322642 0.307252
#
# Coordination Sequence:
#
# PCOD8015934 Si02
#       8
#     2   2   2   2   2   2   2   2
#     4  11  23  40  66 104 130 176 226 278 343 393
#     4  11  24  41  67  98 136 174 222 282 332 398
#     4   9  23  42  64  95 134 167 219 272 335 396
#     4  11  22  41  68  98 135 179 226 276 328 403
#     4  10  21  43  67  96 136 175 223 281 332 397
#     4  11  25  44  68  99 134 180 225 270 341 399
#     4  11  26  44  69  98 133 178 222 280 333 400
#     4  10  23  46  64  98 136 176 225 273 337 400
#
# _framework density 22.507919999999999
#
# number of rings (size 3 to 8) (size 9 to 14) (size 15 to 20)
#    0.000    1.500    1.250    3.375    8.750    2.500 
#    2.250    1.250    0.000    0.000    0.000    0.000 
#    0.000    0.000    0.000    0.000    0.000    0.000 
#
# Total GULP energy -198372.404882 kJ/mol
# GULP energy per Si atom -12398.275305 kJ/mol
# Density = 2.245669 g / cm^3
# Si number density = 22.507920 Si / 1000 Ang^3
#
#
#
# Elastic Constant Matrix: (Units=GPa)
#
#
# Indices 1 2 3 4 5 6 
#
# 1 114.8785 21.9305 21.5963 -3.5401 -5.1941 -21.4314
# 2 21.9305 108.3788 25.4158 -5.1411 -11.6952 -18.7103
# 3 21.5963 25.4158 82.5154 -2.5908 -3.9079 -5.9888
# 4 -3.5401 -5.1411 -2.5908 28.6230 0.7226 -0.8868
# 5 -5.1941 -11.6952 -3.9079 0.7226 36.5734 2.2392
# 6 -21.4314 -18.7103 -5.9888 -0.8868 2.2392 30.1635
#
#
#
# Elastic Compliance Matrix: (Units=1/GPa)
#
#
# Indices 1 2 3 4 5 6 
#
# 1 0.010503 -0.000320 -0.002081 0.001247 0.000724 0.006834
# 2 -0.000320 0.011405 -0.002788 0.001874 0.002891 0.006134
# 3 -0.002081 -0.002788 0.013511 0.000441 0.000280 -0.000533
# 4 0.001247 0.001874 0.000441 0.035568 -0.000075 0.003187
# 5 0.000724 0.002891 0.000280 -0.000075 0.028385 0.000254
# 6 0.006834 0.006134 -0.000533 0.003187 0.000254 0.041782
#
#
# Mechanical properties :
#
#
# Convention : Reuss Voigt Hill
#
# Bulk Modulus (GPa) = 39.93529 49.29533 44.61531
# Shear Modulus (GPa) = 31.27333 34.86066 33.06700
#
# Velocity S-wave (km/s) = 3.73156 3.93977 3.83708
# Velocity P-wave (km/s) = 6.02887 6.53028 6.28458
#
# Compressibility (1/GPa) = 0.02504051
#
# Stress axis : x y z
#
# Youngs Moduli (GPa) = 95.20899 87.67780 74.01483
#
# Poissons Ratio (x) = 0.02809 0.15402
# Poissons Ratio (y) = 0.03050 0.20637
# Poissons Ratio (z) = 0.19812 0.24447
#
# Static dielectric constant tensor:
#      x y z
#    x 4.017990 0.070130 -0.131910 
#    y 0.070130 4.144420 -0.202170 
#    z -0.131910 -0.202170 4.161770 
# 
# 
# High freq. dielectric constant tensor:
#      x y z
#    x 1.889000 -0.009740 -0.014180 
#    y -0.009740 1.893160 -0.002290 
#    z -0.014180 -0.002290 1.886830 
# 
# From -- ./inp_files/319396.got.cif
#   From: 2010.06.25/outbox.cif.g09.slc.cpg/sg2_160_cif.got.tgz:319396.got - 2010.06.27 13:26:56.
