data_PCOD8015714
_publ_section_title
;
Structure prediction by ZEFSAII (Michael W. Deem and Ramdas Pophale) SiO2 
 PCOD8015714
Probable space group: P -1
;
_chemical_formula_sum "Si O2"
_cell_formula_units_Z 14
_cell_length_a 9.227262
_cell_length_b 9.451372
_cell_length_c 9.001874
_cell_angle_alpha 85.095543
_cell_angle_beta 95.545973
_cell_angle_gamma 124.996390
_cell_volume 639.662843
_symmetry_space_group_name_H-M "P -1"
_symmetry_group_IT_number 2
_symmetry_cell_setting 'triclinic'
loop_
_space_group_symop_operation_xyz
x,y,z
-x,-y,-z
loop_
_atom_site_type_symbol
_atom_site_label
_atom_site_fract_x
_atom_site_fract_y
_atom_site_fract_z
Si Si1 0.441710 0.261898 0.814207
Si Si2 0.710937 0.652645 0.780618
Si Si3 0.454220 0.734836 0.842826
Si Si4 0.984574 0.674864 0.604817
Si Si5 0.388889 0.969085 0.637785
Si Si6 0.894168 0.809065 0.074939
Si Si7 0.083443 0.431927 0.723214
O O1 0.563597 0.454661 0.747875
O O2 0.241261 0.203972 0.816831
O O3 0.443853 0.150119 0.692537
O O4 0.513882 0.244808 0.979793
O O5 0.620205 0.757288 0.768492
O O6 0.866028 0.729585 0.666869
O O7 0.794125 0.668835 0.948193
O O8 0.438059 0.886742 0.778331
O O9 0.279284 0.549894 0.800757
O O10 0.181708 0.844394 0.589342
O O11 0.981860 0.527135 0.717149
O O12 0.898865 0.595658 0.445139
O O13 0.500000 0.000000 0.500000
O O14 0.010292 0.750892 0.177867
O O15 0.000000 0.000000 0.000000
#
# Coordination Sequence:
#
# PCOD8015714 Si02
#       7
#     2   2   2   2   2   2   2
#     4  11  22  42  68  97 129 166 220 269 323 384
#     4  11  22  42  69 100 125 169 222 266 327 385
#     4  10  21  44  68  95 128 170 216 267 327 384
#     4  10  25  41  64  95 134 172 217 261 325 389
#     4  11  26  44  64  95 134 172 215 267 324 387
#     4  11  22  41  68  98 133 167 218 275 323 382
#     4  10  21  43  63  94 134 171 217 264 320 392
#
# _framework density 21.886531999999999
#
# number of rings (size 3 to 8) (size 9 to 14) (size 15 to 20)
#    0.000    1.429    2.857    2.143    6.000    4.571 
#    2.571    2.143    0.000    0.000    0.000    0.000 
#    0.000    0.000    0.000    0.000    0.000    0.000 
#
# Total GULP energy -173566.666028 kJ/mol
# GULP energy per Si atom -12397.619002 kJ/mol
# Density = 2.183672 g / cm^3
# Si number density = 21.886532 Si / 1000 Ang^3
#
#
#
# Elastic Constant Matrix: (Units=GPa)
#
#
# Indices 1 2 3 4 5 6 
#
# 1 64.6024 22.1867 20.5259 8.6195 -20.5580 14.0957
# 2 22.1867 113.9733 26.7548 4.4370 -6.0017 1.8160
# 3 20.5259 26.7548 63.8685 18.3932 -9.1066 0.9880
# 4 8.6195 4.4370 18.3932 40.7679 -8.7444 -6.9800
# 5 -20.5580 -6.0017 -9.1066 -8.7444 46.4367 -2.8777
# 6 14.0957 1.8160 0.9880 -6.9800 -2.8777 23.9721
#
#
#
# Elastic Compliance Matrix: (Units=1/GPa)
#
#
# Indices 1 2 3 4 5 6 
#
# 1 0.023694 -0.002893 -0.004065 -0.003520 0.007811 -0.013633
# 2 -0.002893 0.010130 -0.003788 0.001389 -0.000363 0.001450
# 3 -0.004065 -0.003788 0.020963 -0.008230 0.000238 -0.000555
# 4 -0.003520 0.001389 -0.008230 0.031682 0.003715 0.011975
# 5 0.007811 -0.000363 0.000238 0.003715 0.025667 -0.000412
# 6 -0.013633 0.001450 -0.000555 0.011975 -0.000412 0.053081
#
#
# Mechanical properties :
#
#
# Convention : Reuss Voigt Hill
#
# Bulk Modulus (GPa) = 30.03346 42.37543 36.20444
# Shear Modulus (GPa) = 25.27722 33.76714 29.52218
#
# Velocity S-wave (km/s) = 3.40210 3.93215 3.67669
# Velocity P-wave (km/s) = 5.40227 6.32607 5.88233
#
# Compressibility (1/GPa) = 0.03329620
#
# Stress axis : x y z
#
# Youngs Moduli (GPa) = 42.20478 98.71659 47.70336
#
# Poissons Ratio (x) = 0.28555 0.19390
# Poissons Ratio (y) = 0.12208 0.18070
# Poissons Ratio (z) = 0.17155 0.37393
#
# Static dielectric constant tensor:
#      x y z
#    x 4.103250 -0.095120 0.162290 
#    y -0.095120 4.018560 0.027250 
#    z 0.162290 0.027250 3.848150 
# 
# 
# High freq. dielectric constant tensor:
#      x y z
#    x 1.858190 -0.006650 0.006570 
#    y -0.006650 1.863620 0.009770 
#    z 0.006570 0.009770 1.858110 
# 
# From -- ./inp_files/156797.got.cif
#   From: 2010.06.25/outbox.cif.g09.slc.cpg/sg2_79_cif.got.tgz:156797.got - 2010.06.27 13:26:56.
