data_PCOD8015027
_publ_section_title
;
Structure prediction by ZEFSAII (Michael W. Deem and Ramdas Pophale) SiO2 
 PCOD8015027
Probable space group: P -1
;
_chemical_formula_sum "Si O2"
_cell_formula_units_Z 16
_cell_length_a 14.810271
_cell_length_b 10.694491
_cell_length_c 14.589857
_cell_angle_alpha 138.211759
_cell_angle_beta 149.907290
_cell_angle_gamma 60.450687
_cell_volume 687.657604
_symmetry_space_group_name_H-M "P -1"
_symmetry_group_IT_number 2
_symmetry_cell_setting 'triclinic'
loop_
_space_group_symop_operation_xyz
x,y,z
-x,-y,-z
loop_
_atom_site_type_symbol
_atom_site_label
_atom_site_fract_x
_atom_site_fract_y
_atom_site_fract_z
Si Si1 0.569945 0.139648 0.049019
Si Si2 0.966548 0.239096 0.520399
Si Si3 0.861989 0.827209 0.857429
Si Si4 0.384815 0.572527 0.010812
Si Si5 0.099434 0.734504 0.172758
Si Si6 0.506520 0.499991 0.257770
Si Si7 0.444162 0.013365 0.243473
Si Si8 0.097824 0.214605 0.807887
O O1 0.809510 0.290892 0.354612
O O2 0.476353 0.302411 0.057312
O O3 0.515954 0.984754 0.829480
O O4 0.500000 0.000000 0.000000
O O5 0.174676 0.365203 0.720558
O O6 0.988539 0.294122 0.678447
O O7 0.878443 0.987935 0.309379
O O8 0.715275 0.616403 0.558684
O O9 0.722975 0.906975 0.836905
O O10 0.004171 0.760146 0.007324
O O11 0.000000 0.000000 0.000000
O O12 0.500000 0.500000 0.000000
O O13 0.489647 0.649570 0.245356
O O14 0.354269 0.769986 0.058851
O O15 0.033803 0.859045 0.256261
O O16 0.343835 0.837306 0.437375
O O17 0.000000 0.500000 0.000000
O O18 0.323014 0.413116 0.123356
#
# Coordination Sequence:
#
# PCOD8015027 Si02
#       8
#     2   2   2   2   2   2   2   2
#     4  12  24  42  72 112 141 182 237 313 370 431
#     4  10  22  36  67 100 145 176 233 290 377 427
#     4  12  31  52  73 107 153 204 251 301 367 453
#     4  11  23  45  70 106 144 191 242 303 370 444
#     4  12  28  47  78 105 146 194 252 302 369 436
#     4  11  25  44  74 104 148 186 247 305 368 435
#     4  12  28  50  76 106 151 196 247 306 372 439
#     4  10  21  42  65 106 140 184 229 306 364 436
#
# _framework density 23.267392999999998
#
# number of rings (size 3 to 8) (size 9 to 14) (size 15 to 20)
#    0.000    0.750    2.500    3.750    7.000    5.500 
#    0.000    0.000    0.000    0.000    0.000    0.000 
#    0.000    0.000    0.000    0.000    0.000    0.000 
#
# Total GULP energy -198250.445944 kJ/mol
# GULP energy per Si atom -12390.652872 kJ/mol
# Density = 2.321444 g / cm^3
# Si number density = 23.267393 Si / 1000 Ang^3
#
#
#
# Elastic Constant Matrix: (Units=GPa)
#
#
# Indices 1 2 3 4 5 6 
#
# 1 99.2925 25.2676 29.8764 -1.6460 2.0540 14.1980
# 2 25.2676 101.6052 33.8784 -3.3762 -2.3108 13.7047
# 3 29.8764 33.8784 137.8848 -15.2779 3.9665 15.5490
# 4 -1.6460 -3.3762 -15.2779 39.6676 -1.3894 -2.3237
# 5 2.0540 -2.3108 3.9665 -1.3894 29.5979 3.6287
# 6 14.1980 13.7047 15.5490 -2.3237 3.6287 42.2422
#
#
#
# Elastic Compliance Matrix: (Units=1/GPa)
#
#
# Indices 1 2 3 4 5 6 
#
# 1 0.011463 -0.001944 -0.001764 -0.000534 -0.000421 -0.002566
# 2 -0.001944 0.011404 -0.002160 -0.000026 0.001607 -0.002391
# 3 -0.001764 -0.002160 0.008708 0.002968 -0.000869 -0.001674
# 4 -0.000534 -0.000026 0.002968 0.026385 0.000817 0.000477
# 5 -0.000421 0.001607 -0.000869 0.000817 0.034460 -0.002975
# 6 -0.002566 -0.002391 -0.001674 0.000477 -0.002975 0.026209
#
#
# Mechanical properties :
#
#
# Convention : Reuss Voigt Hill
#
# Bulk Modulus (GPa) = 50.40493 57.42527 53.91510
# Shear Modulus (GPa) = 36.50201 38.95223 37.72712
#
# Velocity S-wave (km/s) = 3.96511 4.09603 4.03110
# Velocity P-wave (km/s) = 6.53247 6.86324 6.69990
#
# Compressibility (1/GPa) = 0.01983933
#
# Stress axis : x y z
#
# Youngs Moduli (GPa) = 87.23352 87.68973 114.83633
#
# Poissons Ratio (x) = 0.17045 0.20257
# Poissons Ratio (y) = 0.16957 0.24807
# Poissons Ratio (z) = 0.15388 0.18943
#
# Static dielectric constant tensor:
#      x y z
#    x 4.459600 -0.013200 -0.054180 
#    y -0.013200 4.586340 -0.420360 
#    z -0.054180 -0.420360 4.972930 
# 
# 
# High freq. dielectric constant tensor:
#      x y z
#    x 1.925550 0.005220 0.006960 
#    y 0.005220 1.922730 -0.005740 
#    z 0.006960 -0.005740 1.927320 
# 
# From -- ./inp_files/532757.got.cif
#   From: 2010.06.25/outbox.cif.g09.slc.cpg/sg2_267_cif.got.tgz:532757.got - 2010.06.27 13:26:56.
