data_PCOD8015318
_publ_section_title
;
Structure prediction by ZEFSAII (Michael W. Deem and Ramdas Pophale) SiO2 
 PCOD8015318
Probable space group: P -1
;
_chemical_formula_sum "Si O2"
_cell_formula_units_Z 16
_cell_length_a 8.881943
_cell_length_b 12.004349
_cell_length_c 20.445441
_cell_angle_alpha 33.775467
_cell_angle_beta 39.998836
_cell_angle_gamma 62.746036
_cell_volume 674.420284
_symmetry_space_group_name_H-M "P -1"
_symmetry_group_IT_number 2
_symmetry_cell_setting 'triclinic'
loop_
_space_group_symop_operation_xyz
x,y,z
-x,-y,-z
loop_
_atom_site_type_symbol
_atom_site_label
_atom_site_fract_x
_atom_site_fract_y
_atom_site_fract_z
Si Si1 0.498224 0.096121 0.522881
Si Si2 0.402660 0.272277 0.777371
Si Si3 0.454399 0.592018 0.086540
Si Si4 0.874781 0.707614 0.454887
Si Si5 0.031357 0.474138 0.795152
Si Si6 0.595235 0.208318 0.180966
Si Si7 0.697543 0.905405 0.967866
Si Si8 0.673372 0.055161 0.717666
O O1 0.379811 0.260426 0.465610
O O2 0.801529 0.259076 0.368513
O O3 0.500000 0.000000 0.500000
O O4 0.329241 0.889409 0.732318
O O5 0.723003 0.442151 0.608922
O O6 0.239647 0.388225 0.742740
O O7 0.222035 0.144976 0.963424
O O8 0.428041 0.095114 0.805847
O O9 0.495040 0.382617 0.152145
O O10 0.541912 0.661443 0.098898
O O11 0.147154 0.533487 0.203790
O O12 0.648851 0.820693 0.868858
O O13 0.033997 0.740324 0.454704
O O14 0.048755 0.892375 0.251728
O O15 0.847583 0.329720 0.988559
O O16 0.354955 0.983245 0.332340
O O17 0.500000 0.000000 0.000000
#
# Coordination Sequence:
#
# PCOD8015318 Si02
#       8
#     2   2   2   2   2   2   2   2
#     4  11  27  43  63  99 131 175 222 270 324 395
#     4  11  22  42  66  98 132 176 210 276 331 376
#     4  10  23  41  67  98 130 172 220 270 317 397
#     4  10  23  42  64  97 135 163 224 276 314 392
#     4  10  24  44  65  97 134 169 225 266 331 390
#     4  11  25  45  67  93 133 180 212 273 336 376
#     4  11  22  41  67  99 126 174 225 258 327 385
#     4  10  21  42  67  97 131 172 219 264 328 393
#
# _framework density 23.724081000000002
#
# number of rings (size 3 to 8) (size 9 to 14) (size 15 to 20)
#    0.000    1.500    2.500    2.625    8.750    4.000 
#    2.250    1.250    0.000    0.000    0.000    0.000 
#    0.000    0.000    0.000    0.000    0.000    0.000 
#
# Total GULP energy -198276.642817 kJ/mol
# GULP energy per Si atom -12392.290176 kJ/mol
# Density = 2.367008 g / cm^3
# Si number density = 23.724081 Si / 1000 Ang^3
#
#
#
# Elastic Constant Matrix: (Units=GPa)
#
#
# Indices 1 2 3 4 5 6 
#
# 1 62.9522 43.3275 -0.9173 -1.7203 4.2240 2.3457
# 2 43.3275 135.5183 11.2532 -17.4764 2.3210 15.6386
# 3 -0.9173 11.2532 70.9334 -5.9951 -7.1305 8.2009
# 4 -1.7203 -17.4764 -5.9951 22.2404 -3.6791 2.5208
# 5 4.2240 2.3210 -7.1305 -3.6791 28.9911 4.9334
# 6 2.3457 15.6386 8.2009 2.5208 4.9334 29.0245
#
#
#
# Elastic Compliance Matrix: (Units=1/GPa)
#
#
# Indices 1 2 3 4 5 6 
#
# 1 0.021279 -0.007881 0.000279 -0.005487 -0.003702 0.003553
# 2 -0.007881 0.011973 -0.000064 0.010029 0.002658 -0.007119
# 3 0.000279 -0.000064 0.015856 0.005847 0.005616 -0.005931
# 4 -0.005487 0.010029 0.005847 0.057341 0.011002 -0.013462
# 5 -0.003702 0.002658 0.005616 0.011002 0.039361 -0.010366
# 6 0.003553 -0.007119 -0.005931 -0.013462 -0.010366 0.042609
#
#
# Mechanical properties :
#
#
# Convention : Reuss Voigt Hill
#
# Bulk Modulus (GPa) = 29.60576 41.85896 35.73236
# Shear Modulus (GPa) = 23.25474 30.43389 26.84431
#
# Velocity S-wave (km/s) = 3.13424 3.58554 3.36746
# Velocity P-wave (km/s) = 5.06006 5.90118 5.49673
#
# Compressibility (1/GPa) = 0.03377721
#
# Stress axis : x y z
#
# Youngs Moduli (GPa) = 46.99437 83.51959 63.06865
#
# Poissons Ratio (x) = 0.65819 -0.01758
# Poissons Ratio (y) = 0.37035 0.00401
# Poissons Ratio (z) = -0.01310 0.00530
#
# Static dielectric constant tensor:
#      x y z
#    x 4.616090 0.211320 -0.171010 
#    y 0.211320 4.084110 -0.081010 
#    z -0.171010 -0.081010 3.873950 
# 
# 
# High freq. dielectric constant tensor:
#      x y z
#    x 1.936120 -0.003410 -0.008680 
#    y -0.003410 1.950370 -0.015190 
#    z -0.008680 -0.015190 1.930190 
# 
# From -- ./inp_files/589445.got.cif
#   From: 2010.06.25/outbox.cif.g09.slc.cpg/sg2_295_cif.got.tgz:589445.got - 2010.06.27 13:26:56.
