data_PCOD8015003
_publ_section_title
;
Structure prediction by ZEFSAII (Michael W. Deem and Ramdas Pophale) SiO2 
 PCOD8015003
Probable space group: P -1
;
_chemical_formula_sum "Si O2"
_cell_formula_units_Z 16
_cell_length_a 11.649681
_cell_length_b 15.494519
_cell_length_c 14.473226
_cell_angle_alpha 151.590845
_cell_angle_beta 43.435881
_cell_angle_gamma 117.482659
_cell_volume 718.293457
_symmetry_space_group_name_H-M "P -1"
_symmetry_group_IT_number 2
_symmetry_cell_setting 'triclinic'
loop_
_space_group_symop_operation_xyz
x,y,z
-x,-y,-z
loop_
_atom_site_type_symbol
_atom_site_label
_atom_site_fract_x
_atom_site_fract_y
_atom_site_fract_z
Si Si1 0.505307 0.677413 0.723149
Si Si2 0.429184 0.126031 0.442168
Si Si3 0.300714 0.316748 0.216160
Si Si4 0.893875 0.826757 0.191078
Si Si5 0.214053 0.340705 0.594038
Si Si6 0.076484 0.023711 0.377491
Si Si7 0.181598 0.011184 0.809363
Si Si8 0.050509 0.711580 0.625538
O O1 0.500000 0.500000 0.500000
O O2 0.656984 0.567756 0.617422
O O3 0.596008 0.782923 0.703215
O O4 0.297689 0.841223 0.046261
O O5 0.288845 0.150484 0.628606
O O6 0.304639 0.321053 0.625582
O O7 0.612593 0.120010 0.377537
O O8 0.499694 0.908187 0.138662
O O9 0.225244 0.461959 0.304279
O O10 0.132325 0.272033 0.306737
O O11 0.822297 0.863972 0.161926
O O12 0.933631 0.010314 0.373933
O O13 0.088379 0.590728 0.873654
O O14 0.071923 0.246120 0.585844
O O15 0.000000 0.000000 0.500000
O O16 0.130195 0.837462 0.642171
O O17 0.012743 0.190365 0.142366
#
# Coordination Sequence:
#
# PCOD8015003 Si02
#       8
#     2   2   2   2   2   2   2   2
#     4  12  25  41  70 106 139 182 239 294 345 418
#     4  11  24  44  68  96 141 184 231 289 357 422
#     4  10  21  42  64  96 142 172 232 288 356 414
#     4  12  25  46  69 102 142 185 237 291 357 422
#     4  12  26  45  73 102 141 190 233 297 354 413
#     4  12  26  46  69 102 146 189 233 287 361 428
#     4  10  23  42  69  96 133 178 237 287 349 423
#     4   9  21  40  68  96 129 184 223 294 357 415
#
# _framework density 22.275016000000001
#
# number of rings (size 3 to 8) (size 9 to 14) (size 15 to 20)
#    0.000    1.000    3.750    1.875    3.500    1.000 
#    2.250    0.625    0.000    0.000    0.000    0.000 
#    0.000    0.000    0.000    0.000    0.000    0.000 
#
# Total GULP energy -198308.576154 kJ/mol
# GULP energy per Si atom -12394.286010 kJ/mol
# Density = 2.222432 g / cm^3
# Si number density = 22.275016 Si / 1000 Ang^3
#
#
#
# Elastic Constant Matrix: (Units=GPa)
#
#
# Indices 1 2 3 4 5 6 
#
# 1 99.1552 18.4003 38.3052 4.9935 6.2273 -15.2310
# 2 18.4003 108.6723 37.2662 -16.1986 0.1508 -7.7150
# 3 38.3052 37.2662 56.2676 -5.5082 -4.7547 2.2472
# 4 4.9935 -16.1986 -5.5082 36.2114 -0.7604 -0.7663
# 5 6.2273 0.1508 -4.7547 -0.7604 25.2030 6.5695
# 6 -15.2310 -7.7150 2.2472 -0.7663 6.5695 32.3469
#
#
#
# Elastic Compliance Matrix: (Units=1/GPa)
#
#
# Indices 1 2 3 4 5 6 
#
# 1 0.018826 0.002849 -0.016542 -0.003802 -0.011264 0.012891
# 2 0.002849 0.013617 -0.011192 0.004038 -0.004434 0.006363
# 3 -0.016542 -0.011192 0.038740 0.003155 0.015803 -0.016284
# 4 -0.003802 0.004038 0.003155 0.030463 0.002654 -0.000864
# 5 -0.011264 -0.004434 0.015803 0.002654 0.050131 -0.017578
# 6 0.012891 0.006363 -0.016284 -0.000864 -0.017578 0.043183
#
#
# Mechanical properties :
#
#
# Convention : Reuss Voigt Hill
#
# Bulk Modulus (GPa) = 46.69779 50.22650 48.46214
# Shear Modulus (GPa) = 19.85170 30.09384 24.97277
#
# Velocity S-wave (km/s) = 2.98855 3.67960 3.35193
# Velocity P-wave (km/s) = 5.73745 6.37573 6.06499
#
# Compressibility (1/GPa) = 0.02141429
#
# Stress axis : x y z
#
# Youngs Moduli (GPa) = 53.11844 73.43640 25.81295
#
# Poissons Ratio (x) = -0.20923 0.42699
# Poissons Ratio (y) = -0.15134 0.28889
# Poissons Ratio (z) = 0.87868 0.82189
#
# Static dielectric constant tensor:
#      x y z
#    x 4.267480 0.247370 0.136920 
#    y 0.247370 4.185210 -0.061560 
#    z 0.136920 -0.061560 4.024490 
# 
# 
# High freq. dielectric constant tensor:
#      x y z
#    x 1.889650 0.008880 -0.002110 
#    y 0.008880 1.875890 -0.008010 
#    z -0.002110 -0.008010 1.864490 
# 
# From -- ./inp_files/522577.got.cif
#   From: 2010.06.25/outbox.cif.g09.slc.cpg/sg2_262_cif.got.tgz:522577.got - 2010.06.27 13:26:56.
