data_PCOD8015442
_publ_section_title
;
Structure prediction by ZEFSAII (Michael W. Deem and Ramdas Pophale) SiO2 
 PCOD8015442
Probable space group: P -1
;
_chemical_formula_sum "Si O2"
_cell_formula_units_Z 16
_cell_length_a 19.428857
_cell_length_b 20.687224
_cell_length_c 9.615122
_cell_angle_alpha 147.195554
_cell_angle_beta 155.213715
_cell_angle_gamma 26.078313
_cell_volume 705.604397
_symmetry_space_group_name_H-M "P -1"
_symmetry_group_IT_number 2
_symmetry_cell_setting 'triclinic'
loop_
_space_group_symop_operation_xyz
x,y,z
-x,-y,-z
loop_
_atom_site_type_symbol
_atom_site_label
_atom_site_fract_x
_atom_site_fract_y
_atom_site_fract_z
Si Si1 0.618987 0.034218 0.075781
Si Si2 0.612416 0.765790 0.228274
Si Si3 0.464993 0.871894 0.624329
Si Si4 0.721492 0.451709 0.857828
Si Si5 0.925136 0.663597 0.191381
Si Si6 0.047832 0.761237 0.344127
Si Si7 0.041776 0.236925 0.263896
Si Si8 0.275668 0.899247 0.068586
O O1 0.683195 0.063831 0.396481
O O2 0.514442 0.178137 0.047561
O O3 0.819265 0.894383 0.117397
O O4 0.451904 0.003248 0.751081
O O5 0.799820 0.775533 0.578669
O O6 0.457873 0.873567 0.261136
O O7 0.705817 0.597211 0.126961
O O8 0.377223 0.814798 0.250149
O O9 0.691506 0.755475 0.883025
O O10 0.500000 0.500000 0.500000
O O11 0.867995 0.371899 0.849627
O O12 0.817160 0.344906 0.976113
O O13 0.954863 0.691427 0.455366
O O14 0.047418 0.705206 0.395905
O O15 0.000000 0.500000 0.000000
O O16 0.185869 0.819552 0.691353
O O17 0.096489 0.073296 0.082459
#
# Coordination Sequence:
#
# PCOD8015442 Si02
#       8
#     2   2   2   2   2   2   2   2
#     4  10  21  42  71  98 135 179 235 283 339 402
#     4  12  24  44  71 100 135 184 235 288 342 413
#     4  10  21  42  69 103 137 174 232 289 334 407
#     4  12  28  48  65 100 148 182 231 283 351 418
#     4  11  25  46  74 104 140 180 232 283 349 419
#     4  11  26  45  68 104 141 186 223 288 351 407
#     4  12  26  45  72 104 132 187 235 285 344 408
#     4  12  25  42  70 106 141 178 234 286 343 410
#
# _framework density 22.675595000000001
#
# number of rings (size 3 to 8) (size 9 to 14) (size 15 to 20)
#    0.000    0.750    3.750    3.750    7.000    3.000 
#    0.000    1.250    0.000    0.000    0.000    0.000 
#    0.000    0.000    0.000    0.000    0.000    0.000 
#
# Total GULP energy -198378.455699 kJ/mol
# GULP energy per Si atom -12398.653481 kJ/mol
# Density = 2.262398 g / cm^3
# Si number density = 22.675595 Si / 1000 Ang^3
#
#
#
# Elastic Constant Matrix: (Units=GPa)
#
#
# Indices 1 2 3 4 5 6 
#
# 1 88.0205 46.0105 15.0614 -14.9760 -18.7384 -11.3011
# 2 46.0105 125.1629 40.1374 -6.5726 -17.7275 -5.4190
# 3 15.0614 40.1374 66.7163 -15.9228 -14.7546 4.6364
# 4 -14.9760 -6.5726 -15.9228 38.7775 2.0172 -5.7790
# 5 -18.7384 -17.7275 -14.7546 2.0172 38.5006 0.7423
# 6 -11.3011 -5.4190 4.6364 -5.7790 0.7423 32.0148
#
#
#
# Elastic Compliance Matrix: (Units=1/GPa)
#
#
# Indices 1 2 3 4 5 6 
#
# 1 0.017146 -0.005461 0.002052 0.007110 0.006129 0.005972
# 2 -0.005461 0.012068 -0.006605 -0.002717 0.000499 0.000570
# 3 0.002052 -0.006605 0.021889 0.008014 0.005970 -0.002255
# 4 0.007110 -0.002717 0.008014 0.032170 0.003468 0.006616
# 5 0.006129 0.000499 0.005970 0.003468 0.031268 0.001285
# 6 0.005972 0.000570 -0.002255 0.006616 0.001285 0.034931
#
#
# Mechanical properties :
#
#
# Convention : Reuss Voigt Hill
#
# Bulk Modulus (GPa) = 32.18052 53.59090 42.88571
# Shear Modulus (GPa) = 27.79986 33.77129 30.78557
#
# Velocity S-wave (km/s) = 3.50520 3.86336 3.68863
# Velocity P-wave (km/s) = 5.53213 6.60195 6.09057
#
# Compressibility (1/GPa) = 0.03107470
#
# Stress axis : x y z
#
# Youngs Moduli (GPa) = 58.32376 82.86537 45.68522
#
# Poissons Ratio (x) = 0.45251 -0.09375
# Poissons Ratio (y) = 0.31850 0.30175
# Poissons Ratio (z) = -0.11968 0.54732
#
# Static dielectric constant tensor:
#      x y z
#    x 4.272120 -0.081000 -0.167650 
#    y -0.081000 4.514250 -0.015760 
#    z -0.167650 -0.015760 3.930970 
# 
# 
# High freq. dielectric constant tensor:
#      x y z
#    x 1.900290 -0.009070 -0.017160 
#    y -0.009070 1.900430 -0.009920 
#    z -0.017160 -0.009920 1.882440 
# 
# From -- ./inp_files/283438.got.cif
#   From: 2010.06.25/outbox.cif.g09.slc.cpg/sg2_142_cif.got.tgz:283438.got - 2010.06.27 13:26:56.
