data_PCOD8015916
_publ_section_title
;
Structure prediction by ZEFSAII (Michael W. Deem and Ramdas Pophale) SiO2 
 PCOD8015916
Probable space group: P -1
;
_chemical_formula_sum "Si O2"
_cell_formula_units_Z 16
_cell_length_a 10.095863
_cell_length_b 19.929106
_cell_length_c 11.813531
_cell_angle_alpha 135.077770
_cell_angle_beta 46.255073
_cell_angle_gamma 155.351854
_cell_volume 690.663821
_symmetry_space_group_name_H-M "P -1"
_symmetry_group_IT_number 2
_symmetry_cell_setting 'triclinic'
loop_
_space_group_symop_operation_xyz
x,y,z
-x,-y,-z
loop_
_atom_site_type_symbol
_atom_site_label
_atom_site_fract_x
_atom_site_fract_y
_atom_site_fract_z
Si Si1 0.280002 0.759821 0.119408
Si Si2 0.919925 0.135618 0.515432
Si Si3 0.241795 0.354156 0.386040
Si Si4 0.605237 0.383731 0.023416
Si Si5 0.360753 0.952203 0.903046
Si Si6 0.744447 0.808617 0.417291
Si Si7 0.649674 0.206460 0.461663
Si Si8 0.702639 0.678882 0.071227
O O1 0.190218 0.805918 0.313016
O O2 0.969682 0.574213 0.033048
O O3 0.508743 0.893699 0.042634
O O4 0.468946 0.755630 0.064306
O O5 0.023835 0.185554 0.382296
O O6 0.230041 0.235654 0.530401
O O7 0.627279 0.934793 0.450074
O O8 0.500000 0.500000 0.500000
O O9 0.404998 0.371962 0.205612
O O10 0.008749 0.339799 0.457365
O O11 0.525039 0.346368 0.892398
O O12 0.464311 0.911708 0.712215
O O13 0.979520 0.782602 0.938366
O O14 0.500000 0.000000 0.000000
O O15 0.398306 0.707596 0.462346
O O16 0.842993 0.775991 0.222679
O O17 0.000000 0.000000 0.500000
O O18 0.500000 0.500000 0.000000
#
# Coordination Sequence:
#
# PCOD8015916 Si02
#       8
#     2   2   2   2   2   2   2   2
#     4  10  23  42  67  95 140 176 236 280 352 421
#     4  10  21  43  67  94 136 179 225 286 348 410
#     4  12  24  41  65  93 140 178 225 284 346 416
#     4  11  24  43  64 102 133 186 230 289 353 414
#     4  11  22  43  70  98 138 183 231 291 353 420
#     4  10  23  44  71 103 138 182 235 288 353 423
#     4  10  23  42  65 102 132 179 236 277 348 422
#     4  12  25  43  72  99 144 178 234 295 351 415
#
# _framework density 23.166119999999999
#
# number of rings (size 3 to 8) (size 9 to 14) (size 15 to 20)
#    0.000    1.250    2.500    4.125    1.750    3.500 
#    2.250    2.500    0.000    0.000    0.000    0.000 
#    0.000    0.000    0.000    0.000    0.000    0.000 
#
# Total GULP energy -198237.185231 kJ/mol
# GULP energy per Si atom -12389.824077 kJ/mol
# Density = 2.311339 g / cm^3
# Si number density = 23.166120 Si / 1000 Ang^3
#
#
#
# Elastic Constant Matrix: (Units=GPa)
#
#
# Indices 1 2 3 4 5 6 
#
# 1 157.5882 32.5285 27.9888 -10.4047 -8.8819 0.0911
# 2 32.5285 110.7797 20.3776 -9.1422 -4.5726 -15.6429
# 3 27.9888 20.3776 48.6862 8.2733 0.0684 -4.5097
# 4 -10.4047 -9.1422 8.2733 25.9034 3.7633 3.3202
# 5 -8.8819 -4.5726 0.0684 3.7633 42.9543 1.4656
# 6 0.0911 -15.6429 -4.5097 3.3202 1.4656 39.7604
#
#
#
# Elastic Compliance Matrix: (Units=1/GPa)
#
#
# Indices 1 2 3 4 5 6 
#
# 1 0.007803 -0.001203 -0.004843 0.004271 0.001168 -0.001440
# 2 -0.001203 0.011041 -0.004337 0.004289 0.000439 0.003481
# 3 -0.004843 -0.004337 0.027495 -0.012504 -0.000496 0.002486
# 4 0.004271 0.004289 -0.012504 0.046661 -0.002607 -0.003541
# 5 0.001168 0.000439 -0.000496 -0.002607 0.023817 -0.000546
# 6 -0.001440 0.003481 0.002486 -0.003541 -0.000546 0.027121
#
#
# Mechanical properties :
#
#
# Convention : Reuss Voigt Hill
#
# Bulk Modulus (GPa) = 39.10327 53.20489 46.15408
# Shear Modulus (GPa) = 28.86366 37.46755 33.16561
#
# Velocity S-wave (km/s) = 3.53362 4.02598 3.78781
# Velocity P-wave (km/s) = 5.79351 6.68041 6.25271
#
# Compressibility (1/GPa) = 0.02557331
#
# Stress axis : x y z
#
# Youngs Moduli (GPa) = 128.15902 90.56764 36.37032
#
# Poissons Ratio (x) = 0.10895 0.17614
# Poissons Ratio (y) = 0.15417 0.15774
# Poissons Ratio (z) = 0.62069 0.39279
#
# Static dielectric constant tensor:
#      x y z
#    x 4.815610 -0.139650 -0.084420 
#    y -0.139650 3.872100 -0.038190 
#    z -0.084420 -0.038190 3.915160 
# 
# 
# High freq. dielectric constant tensor:
#      x y z
#    x 1.941020 0.002970 0.007080 
#    y 0.002970 1.908570 -0.000520 
#    z 0.007080 -0.000520 1.897500 
# 
# From -- ./inp_files/403197.got.cif
#   From: 2010.06.25/outbox.cif.g09.slc.cpg/sg2_202_cif.got.tgz:403197.got - 2010.06.27 13:26:56.
