data_PCOD8015466
_publ_section_title
;
Structure prediction by ZEFSAII (Michael W. Deem and Ramdas Pophale) SiO2 
 PCOD8015466
Probable space group: P -1
;
_chemical_formula_sum "Si O2"
_cell_formula_units_Z 12
_cell_length_a 12.410483
_cell_length_b 8.589561
_cell_length_c 14.116142
_cell_angle_alpha 100.163862
_cell_angle_beta 159.154718
_cell_angle_gamma 79.173855
_cell_volume 525.940325
_symmetry_space_group_name_H-M "P -1"
_symmetry_group_IT_number 2
_symmetry_cell_setting 'triclinic'
loop_
_space_group_symop_operation_xyz
x,y,z
-x,-y,-z
loop_
_atom_site_type_symbol
_atom_site_label
_atom_site_fract_x
_atom_site_fract_y
_atom_site_fract_z
Si Si1 0.327330 0.858448 0.301726
Si Si2 0.736998 0.256135 0.437402
Si Si3 0.347170 0.745307 0.019346
Si Si4 0.434207 0.181430 0.988625
Si Si5 0.757901 0.955199 0.932264
Si Si6 0.292093 0.382546 0.520074
O O1 0.538701 0.698232 0.441578
O O2 0.500000 0.000000 0.500000
O O3 0.210337 0.912965 0.108273
O O4 0.050320 0.829991 0.144253
O O5 0.659530 0.233596 0.261106
O O6 0.543907 0.140529 0.330331
O O7 0.644469 0.434249 0.411755
O O8 0.089331 0.214281 0.743235
O O9 0.502776 0.715723 0.041815
O O10 0.064973 0.637097 0.785101
O O11 0.597283 0.696131 0.298584
O O12 0.241830 0.934987 0.961249
O O13 0.500000 0.000000 0.000000
#
# Coordination Sequence:
#
# PCOD8015466 Si02
#       6
#     2   2   2   2   2   2
#     4  10  21  42  69  94 124 179 224 259 329 400
#     4  12  27  43  66 104 136 167 218 282 326 378
#     4  11  23  43  69  93 133 181 218 265 319 399
#     4  12  26  43  70 100 130 177 226 262 325 393
#     4  10  23  40  68  97 127 171 225 272 318 392
#     4  11  25  43  67 100 137 170 216 275 333 380
#
# _framework density 22.816279000000002
#
# number of rings (size 3 to 8) (size 9 to 14) (size 15 to 20)
#    0.000    1.000    3.333    2.500    7.000    4.667 
#    0.000    0.833    0.000    0.000    0.000    0.000 
#    0.000    0.000    0.000    0.000    0.000    0.000 
#
# Total GULP energy -148797.853801 kJ/mol
# GULP energy per Si atom -12399.821150 kJ/mol
# Density = 2.276435 g / cm^3
# Si number density = 22.816279 Si / 1000 Ang^3
#
#
#
# Elastic Constant Matrix: (Units=GPa)
#
#
# Indices 1 2 3 4 5 6 
#
# 1 47.3244 12.1864 4.7473 -4.7378 22.3498 -8.6428
# 2 12.1864 132.6788 11.8649 11.2385 11.5829 -21.5560
# 3 4.7473 11.8649 75.6417 3.9359 15.3655 -4.3464
# 4 -4.7378 11.2385 3.9359 35.3393 -2.2397 0.8923
# 5 22.3498 11.5829 15.3655 -2.2397 48.4633 3.4513
# 6 -8.6428 -21.5560 -4.3464 0.8923 3.4513 27.0168
#
#
#
# Elastic Compliance Matrix: (Units=1/GPa)
#
#
# Indices 1 2 3 4 5 6 
#
# 1 0.030707 0.000120 0.001760 0.002596 -0.015489 0.012095
# 2 0.000120 0.009381 -0.000251 -0.003327 -0.002939 0.007968
# 3 0.001760 -0.000251 0.014602 -0.001761 -0.005712 0.003500
# 4 0.002596 -0.003327 -0.001761 0.030096 0.001784 -0.003329
# 5 -0.015489 -0.002939 -0.005712 0.001784 0.031247 -0.012270
# 6 0.012095 0.007968 0.003500 -0.003329 -0.012270 0.049481
#
#
# Mechanical properties :
#
#
# Convention : Reuss Voigt Hill
#
# Bulk Modulus (GPa) = 17.25667 34.80470 26.03069
# Shear Modulus (GPa) = 27.53695 37.28696 32.41196
#
# Velocity S-wave (km/s) = 3.47781 4.04694 3.77312
# Velocity P-wave (km/s) = 4.86895 6.09298 5.51503
#
# Compressibility (1/GPa) = 0.05794860
#
# Stress axis : x y z
#
# Youngs Moduli (GPa) = 32.56567 106.59319 68.48285
#
# Poissons Ratio (x) = -0.01274 -0.12056
# Poissons Ratio (y) = -0.00389 0.01719
# Poissons Ratio (z) = -0.05733 0.02676
#
# Static dielectric constant tensor:
#      x y z
#    x 5.442320 -0.403330 0.230010 
#    y -0.403330 4.117640 -0.166750 
#    z 0.230010 -0.166750 4.169590 
# 
# 
# High freq. dielectric constant tensor:
#      x y z
#    x 1.904850 -0.022110 0.006130 
#    y -0.022110 1.891140 0.001410 
#    z 0.006130 0.001410 1.906330 
# 
# From -- ./inp_files/19010.got.cif
#   From: 2010.06.25/outbox.cif.g09.slc.cpg/sg2_10_cif.got.tgz:19010.got - 2010.06.27 13:26:56.
