data_PCOD8015605
_publ_section_title
;
Structure prediction by ZEFSAII (Michael W. Deem and Ramdas Pophale) SiO2 
 PCOD8015605
Probable space group: P -1
;
_chemical_formula_sum "Si O2"
_cell_formula_units_Z 14
_cell_length_a 14.392775
_cell_length_b 23.103510
_cell_length_c 11.473741
_cell_angle_alpha 30.657631
_cell_angle_beta 148.946046
_cell_angle_gamma 161.011576
_cell_volume 611.103927
_symmetry_space_group_name_H-M "P -1"
_symmetry_group_IT_number 2
_symmetry_cell_setting 'triclinic'
loop_
_space_group_symop_operation_xyz
x,y,z
-x,-y,-z
loop_
_atom_site_type_symbol
_atom_site_label
_atom_site_fract_x
_atom_site_fract_y
_atom_site_fract_z
Si Si1 0.494179 0.404153 0.005924
Si Si2 0.679080 0.101552 0.399670
Si Si3 0.286662 0.670341 0.092506
Si Si4 0.535533 0.889326 0.192751
Si Si5 0.364892 0.463955 0.537630
Si Si6 0.568186 0.195904 0.516739
Si Si7 0.974099 0.774024 0.013101
O O1 0.477770 0.427653 0.812304
O O2 0.164865 0.242504 0.989396
O O3 0.640308 0.352490 0.263318
O O4 0.698250 0.604097 0.930810
O O5 0.014131 0.290575 0.463761
O O6 0.500000 0.000000 0.500000
O O7 0.669966 0.987779 0.502049
O O8 0.539018 0.141822 0.113452
O O9 0.255340 0.705270 0.131545
O O10 0.470904 0.647327 0.353484
O O11 0.000000 0.500000 0.000000
O O12 0.553601 0.833324 0.433228
O O13 0.500000 0.000000 0.000000
O O14 0.831273 0.033612 0.179811
O O15 0.500000 0.500000 0.500000
O O16 0.854409 0.257673 0.718960
#
# Coordination Sequence:
#
# PCOD8015605 Si02
#       7
#     2   2   2   2   2   2   2
#     4  11  26  44  65 103 143 184 232 295 353 424
#     4  11  24  47  72 103 137 190 243 297 359 427
#     4  10  23  45  72  99 140 189 233 289 358 432
#     4  10  21  42  72 104 137 178 242 288 354 427
#     4  11  28  45  67 102 146 190 241 291 364 431
#     4  11  24  44  75 102 137 186 240 296 356 424
#     4  10  23  44  67 102 142 181 231 288 363 421
#
# _framework density 22.909361000000001
#
# number of rings (size 3 to 8) (size 9 to 14) (size 15 to 20)
#    0.000    1.429    2.857    1.286    8.000    3.429 
#    7.714    0.000    0.000    0.000    0.000    0.000 
#    0.000    0.000    0.000    0.000    0.000    0.000 
#
# Total GULP energy -173441.640180 kJ/mol
# GULP energy per Si atom -12388.688584 kJ/mol
# Density = 2.285722 g / cm^3
# Si number density = 22.909361 Si / 1000 Ang^3
#
#
#
# Elastic Constant Matrix: (Units=GPa)
#
#
# Indices 1 2 3 4 5 6 
#
# 1 143.9574 39.8983 58.6387 -5.6405 -25.9307 -14.1416
# 2 39.8983 60.8173 20.5068 -7.1559 -7.3820 -9.2724
# 3 58.6387 20.5068 142.0941 -11.0368 -30.1705 -4.2220
# 4 -5.6405 -7.1559 -11.0368 27.4159 0.2677 5.9968
# 5 -25.9307 -7.3820 -30.1705 0.2677 39.8957 0.6001
# 6 -14.1416 -9.2724 -4.2220 5.9968 0.6001 49.0312
#
#
#
# Elastic Compliance Matrix: (Units=1/GPa)
#
#
# Indices 1 2 3 4 5 6 
#
# 1 0.010309 -0.005215 -0.002734 -0.000770 0.003646 0.001801
# 2 -0.005215 0.020765 -0.000492 0.003728 0.000027 0.001924
# 3 -0.002734 -0.000492 0.009618 0.003241 0.005392 -0.000516
# 4 -0.000770 0.003728 0.003241 0.039466 0.002437 -0.004095
# 5 0.003646 0.000027 0.005392 0.002437 0.031488 0.000837
# 6 0.001801 0.001924 -0.000516 -0.004095 0.000837 0.021725
#
#
# Mechanical properties :
#
#
# Convention : Reuss Voigt Hill
#
# Bulk Modulus (GPa) = 41.99905 64.99516 53.49711
# Shear Modulus (GPa) = 31.60759 38.45688 35.03223
#
# Velocity S-wave (km/s) = 3.71843 4.10158 3.91470
# Velocity P-wave (km/s) = 6.06697 7.13182 6.62084
#
# Compressibility (1/GPa) = 0.02381006
#
# Stress axis : x y z
#
# Youngs Moduli (GPa) = 97.00393 48.15814 103.97158
#
# Poissons Ratio (x) = 0.25113 0.28423
# Poissons Ratio (y) = 0.50584 0.05120
# Poissons Ratio (z) = 0.26519 0.02372
#
# Static dielectric constant tensor:
#      x y z
#    x 4.553060 -0.077620 -0.523450 
#    y -0.077620 4.222250 -0.325700 
#    z -0.523450 -0.325700 4.592720 
# 
# 
# High freq. dielectric constant tensor:
#      x y z
#    x 1.904550 -0.019400 -0.014780 
#    y -0.019400 1.898450 -0.011950 
#    z -0.014780 -0.011950 1.911430 
# 
# From -- ./inp_files/458063.got.cif
#   From: 2010.06.25/outbox.cif.g09.slc.cpg/sg2_230_cif.got.tgz:458063.got - 2010.06.27 13:26:56.
