data_PCOD8015537
_publ_section_title
;
Structure prediction by ZEFSAII (Michael W. Deem and Ramdas Pophale) SiO2 
 PCOD8015537
Probable space group: P -1
;
_chemical_formula_sum "Si O2"
_cell_formula_units_Z 16
_cell_length_a 11.760465
_cell_length_b 9.993728
_cell_length_c 16.291308
_cell_angle_alpha 61.470903
_cell_angle_beta 104.267966
_cell_angle_gamma 51.025546
_cell_volume 783.572867
_symmetry_space_group_name_H-M "P -1"
_symmetry_group_IT_number 2
_symmetry_cell_setting 'triclinic'
loop_
_space_group_symop_operation_xyz
x,y,z
-x,-y,-z
loop_
_atom_site_type_symbol
_atom_site_label
_atom_site_fract_x
_atom_site_fract_y
_atom_site_fract_z
Si Si1 0.017850 0.521747 0.090299
Si Si2 0.991725 0.683136 0.420746
Si Si3 0.718496 0.641693 0.118093
Si Si4 0.025242 0.135493 0.924450
Si Si5 0.047039 0.122292 0.470190
Si Si6 0.525838 0.192427 0.416949
Si Si7 0.379023 0.782111 0.938207
Si Si8 0.461619 0.114147 0.583451
O O1 0.908128 0.514928 0.130821
O O2 0.898665 0.820445 0.008462
O O3 0.308202 0.211298 0.232660
O O4 0.000000 0.500000 0.000000
O O5 0.953770 0.826213 0.451532
O O6 0.258677 0.423914 0.512188
O O7 0.000000 0.500000 0.500000
O O8 0.786494 0.943608 0.238796
O O9 0.858313 0.425535 0.288386
O O10 0.602972 0.633053 0.050211
O O11 0.500000 0.000000 0.000000
O O12 0.761593 0.477571 0.743729
O O13 0.218616 0.913856 0.949521
O O14 0.000000 0.000000 0.000000
O O15 0.000000 0.000000 0.500000
O O16 0.327332 0.824917 0.577950
O O17 0.562968 0.131331 0.538009
O O18 0.652068 0.901552 0.481027
O O19 0.500000 0.500000 0.000000
#
# Coordination Sequence:
#
# PCOD8015537 Si02
#       8
#     2   2   2   2   2   2   2   2
#     4  11  26  44  70 103 134 178 229 289 346 405
#     4  12  25  43  73 103 131 181 244 276 327 416
#     4  12  26  46  71  99 144 182 231 288 349 409
#     4  11  26  45  70  99 138 181 226 282 351 413
#     4  12  27  45  67 103 144 184 221 286 354 404
#     4  10  21  43  70  92 130 174 227 274 335 395
#     4  12  28  46  69 104 146 185 227 285 353 417
#     4  10  21  42  70  96 125 171 234 281 318 396
#
# _framework density 20.419287000000001
#
# number of rings (size 3 to 8) (size 9 to 14) (size 15 to 20)
#    0.000    0.750    5.000    1.500    8.750    0.000 
#    0.000    0.625    0.000    0.000    0.000    0.000 
#    0.000    0.000    0.000    0.000    0.000    0.000 
#
# Total GULP energy -198308.277299 kJ/mol
# GULP energy per Si atom -12394.267331 kJ/mol
# Density = 2.037281 g / cm^3
# Si number density = 20.419287 Si / 1000 Ang^3
#
#
#
# Elastic Constant Matrix: (Units=GPa)
#
#
# Indices 1 2 3 4 5 6 
#
# 1 143.1371 57.2965 24.3467 7.5814 0.8501 -2.0704
# 2 57.2965 124.6111 34.1969 9.7021 2.4337 -3.3943
# 3 24.3467 34.1969 79.4506 9.3406 -3.4283 -7.7264
# 4 7.5814 9.7021 9.3406 37.1073 -5.0655 1.1050
# 5 0.8501 2.4337 -3.4283 -5.0655 37.1422 -2.2022
# 6 -2.0704 -3.3943 -7.7264 1.1050 -2.2022 35.7467
#
#
#
# Elastic Compliance Matrix: (Units=1/GPa)
#
#
# Indices 1 2 3 4 5 6 
#
# 1 0.008653 -0.003652 -0.001024 -0.000572 -0.000135 -0.000058
# 2 -0.003652 0.010766 -0.003398 -0.001368 -0.001119 0.000050
# 3 -0.001024 -0.003398 0.015023 -0.002575 0.001461 0.003035
# 4 -0.000572 -0.001368 -0.002575 0.028616 0.003686 -0.001377
# 5 -0.000135 -0.001119 0.001461 0.003686 0.027744 0.001797
# 6 -0.000058 0.000050 0.003035 -0.001377 0.001797 0.028785
#
#
# Mechanical properties :
#
#
# Convention : Reuss Voigt Hill
#
# Bulk Modulus (GPa) = 54.65739 64.31988 59.48863
# Shear Modulus (GPa) = 35.25288 37.42315 36.33802
#
# Velocity S-wave (km/s) = 4.15957 4.28569 4.22310
# Velocity P-wave (km/s) = 7.06364 7.48715 7.27848
#
# Compressibility (1/GPa) = 0.01829579
#
# Stress axis : x y z
#
# Youngs Moduli (GPa) = 115.57309 92.88325 66.56254
#
# Poissons Ratio (x) = 0.33920 0.06815
# Poissons Ratio (y) = 0.42206 0.22615
# Poissons Ratio (z) = 0.11832 0.31557
#
# Static dielectric constant tensor:
#      x y z
#    x 3.029730 1.094320 -0.955650 
#    y 1.094320 3.514710 0.783330 
#    z -0.955650 0.783330 3.123550 
# 
# 
# High freq. dielectric constant tensor:
#      x y z
#    x 1.808980 -0.012860 0.003920 
#    y -0.012860 1.804440 0.002050 
#    z 0.003920 0.002050 1.805510 
# 
# From -- ./inp_files/515392.got.cif
#   From: 2010.06.25/outbox.cif.g09.slc.cpg/sg2_258_cif.got.tgz:515392.got - 2010.06.27 13:26:56.
