data_PCOD8015336
_publ_section_title
;
Structure prediction by ZEFSAII (Michael W. Deem and Ramdas Pophale) SiO2 
 PCOD8015336
Probable space group: P -1
;
_chemical_formula_sum "Si O2"
_cell_formula_units_Z 14
_cell_length_a 15.817210
_cell_length_b 15.283130
_cell_length_c 8.563230
_cell_angle_alpha 41.112598
_cell_angle_beta 44.111378
_cell_angle_gamma 27.029660
_cell_volume 610.917568
_symmetry_space_group_name_H-M "P -1"
_symmetry_group_IT_number 2
_symmetry_cell_setting 'triclinic'
loop_
_space_group_symop_operation_xyz
x,y,z
-x,-y,-z
loop_
_atom_site_type_symbol
_atom_site_label
_atom_site_fract_x
_atom_site_fract_y
_atom_site_fract_z
Si Si1 0.129067 0.683320 0.506278
Si Si2 0.004430 0.056948 0.089456
Si Si3 0.220918 0.150945 0.122690
Si Si4 0.659108 0.467775 0.888284
Si Si5 0.704434 0.679189 0.711722
Si Si6 0.379897 0.277664 0.879422
Si Si7 0.876219 0.771005 0.208003
O O1 0.212203 0.595489 0.342263
O O2 0.281381 0.502339 0.674334
O O3 0.932649 0.768093 0.657215
O O4 0.078308 0.880269 0.346837
O O5 0.788059 0.286716 0.093741
O O6 0.146902 0.061550 0.914958
O O7 0.000000 0.000000 0.000000
O O8 0.404689 0.902623 0.222200
O O9 0.266602 0.265064 0.945484
O O10 0.129338 0.219000 0.983608
O O11 0.580108 0.671660 0.793939
O O12 0.500000 0.500000 0.000000
O O13 0.704053 0.825347 0.432817
O O14 0.919862 0.453748 0.715888
O O15 0.623880 0.758333 0.885753
#
# Coordination Sequence:
#
# PCOD8015336 Si02
#       7
#     2   2   2   2   2   2   2
#     4  11  23  44  70  90 142 178 213 279 339 396
#     4   9  22  40  64  97 128 183 219 270 331 394
#     4  11  25  42  66 101 136 176 225 275 341 397
#     4  10  23  43  68 104 134 175 230 271 335 401
#     4  10  22  41  72  98 131 180 222 282 330 393
#     4  11  25  42  67 105 132 177 225 277 339 396
#     4  10  21  42  67  99 133 173 235 265 334 404
#
# _framework density 22.916350000000001
#
# number of rings (size 3 to 8) (size 9 to 14) (size 15 to 20)
#    0.000    1.714    1.429    1.286   10.000    3.429 
#    0.000    1.429    0.000    0.000    0.000    0.000 
#    0.000    0.000    0.000    0.000    0.000    0.000 
#
# Total GULP energy -173545.339505 kJ/mol
# GULP energy per Si atom -12396.095679 kJ/mol
# Density = 2.286419 g / cm^3
# Si number density = 22.916350 Si / 1000 Ang^3
#
#
#
# Elastic Constant Matrix: (Units=GPa)
#
#
# Indices 1 2 3 4 5 6 
#
# 1 139.4663 18.5808 52.8667 -1.4314 -23.0880 14.7686
# 2 18.5808 72.9046 57.7843 6.5282 -5.2509 -5.0293
# 3 52.8667 57.7843 120.6435 -12.6470 -6.6087 -6.8251
# 4 -1.4314 6.5282 -12.6470 44.3742 7.2076 -0.8251
# 5 -23.0880 -5.2509 -6.6087 7.2076 32.6420 1.7384
# 6 14.7686 -5.0293 -6.8251 -0.8251 1.7384 27.8192
#
#
#
# Elastic Compliance Matrix: (Units=1/GPa)
#
#
# Indices 1 2 3 4 5 6 
#
# 1 0.011557 0.002771 -0.006741 -0.003475 0.008445 -0.007919
# 2 0.002771 0.025058 -0.013869 -0.008392 0.005084 -0.000910
# 3 -0.006741 -0.013869 0.018804 0.008164 -0.005328 0.006260
# 4 -0.003475 -0.008392 0.008164 0.027418 -0.008405 0.003669
# 5 0.008445 0.005084 -0.005328 -0.008405 0.038604 -0.007533
# 6 -0.007919 -0.000910 0.006260 0.003669 -0.007533 0.042101
#
#
# Mechanical properties :
#
#
# Convention : Reuss Voigt Hill
#
# Bulk Modulus (GPa) = 50.65831 65.71979 58.18905
# Shear Modulus (GPa) = 24.29529 34.55260 29.42394
#
# Velocity S-wave (km/s) = 3.25956 3.88721 3.58714
# Velocity P-wave (km/s) = 6.02661 6.99197 6.52716
#
# Compressibility (1/GPa) = 0.01974010
#
# Stress axis : x y z
#
# Youngs Moduli (GPa) = 86.52531 39.90794 53.18114
#
# Poissons Ratio (x) = -0.11057 0.35851
# Poissons Ratio (y) = -0.23973 0.73755
# Poissons Ratio (z) = 0.58329 0.55347
#
# Static dielectric constant tensor:
#      x y z
#    x 4.008490 0.003210 -0.212350 
#    y 0.003210 4.406700 -0.470230 
#    z -0.212350 -0.470230 4.457480 
# 
# 
# High freq. dielectric constant tensor:
#      x y z
#    x 1.897330 0.000450 -0.008070 
#    y 0.000450 1.908620 -0.012250 
#    z -0.008070 -0.012250 1.900210 
# 
# From -- ./inp_files/314442.got.cif
#   From: 2010.06.25/outbox.cif.g09.slc.cpg/sg2_158_cif.got.tgz:314442.got - 2010.06.27 13:26:56.
