data_PCOD8015549
_publ_section_title
;
Structure prediction by ZEFSAII (Michael W. Deem and Ramdas Pophale) SiO2 
 PCOD8015549
Probable space group: P -1
;
_chemical_formula_sum "Si O2"
_cell_formula_units_Z 14
_cell_length_a 13.382351
_cell_length_b 11.217856
_cell_length_c 9.577979
_cell_angle_alpha 65.021957
_cell_angle_beta 75.747346
_cell_angle_gamma 30.301378
_cell_volume 635.204034
_symmetry_space_group_name_H-M "P -1"
_symmetry_group_IT_number 2
_symmetry_cell_setting 'triclinic'
loop_
_space_group_symop_operation_xyz
x,y,z
-x,-y,-z
loop_
_atom_site_type_symbol
_atom_site_label
_atom_site_fract_x
_atom_site_fract_y
_atom_site_fract_z
Si Si1 0.379720 0.042612 0.410606
Si Si2 0.238945 0.247113 0.061466
Si Si3 0.241241 0.741247 0.560154
Si Si4 0.569392 0.706432 0.111479
Si Si5 0.149669 0.079557 0.601767
Si Si6 0.500413 0.647951 0.880110
Si Si7 0.692613 0.480953 0.603956
O O1 0.177561 0.195536 0.472170
O O2 0.539703 0.754353 0.453258
O O3 0.500000 0.000000 0.500000
O O4 0.304252 0.204607 0.220884
O O5 0.341030 0.996270 0.100380
O O6 0.303568 0.298113 0.916910
O O7 0.000000 0.500000 0.000000
O O8 0.323620 0.526064 0.723866
O O9 0.285588 0.829978 0.578562
O O10 0.330020 0.629629 0.425514
O O11 0.000000 0.000000 0.500000
O O12 0.571830 0.662478 0.971553
O O13 0.268313 0.944495 0.774777
O O14 0.917887 0.294362 0.596848
O O15 0.656167 0.494974 0.772287
O O16 0.500000 0.500000 0.000000
#
# Coordination Sequence:
#
# PCOD8015549 Si02
#       7
#     2   2   2   2   2   2   2
#     4  11  24  43  67  98 134 176 230 279 331 400
#     4  11  26  43  70 100 133 183 227 276 342 400
#     4  10  21  42  70  99 128 178 226 278 332 408
#     4  11  24  46  66  97 143 170 223 284 334 398
#     4  10  23  41  69  98 132 172 228 274 340 404
#     4  11  23  41  63 100 138 173 215 278 341 403
#     4  10  23  42  67  96 132 175 223 275 337 395
#
# _framework density 22.040161999999999
#
# number of rings (size 3 to 8) (size 9 to 14) (size 15 to 20)
#    0.000    1.429    2.857    1.714    4.000    6.857 
#    2.571    0.000    0.000    0.000    0.000    0.000 
#    0.000    0.000    0.000    0.000    0.000    0.000 
#
# Total GULP energy -173533.125030 kJ/mol
# GULP energy per Si atom -12395.223216 kJ/mol
# Density = 2.199000 g / cm^3
# Si number density = 22.040162 Si / 1000 Ang^3
#
#
#
# Elastic Constant Matrix: (Units=GPa)
#
#
# Indices 1 2 3 4 5 6 
#
# 1 92.2886 34.4080 32.3621 1.1211 -0.9500 5.4209
# 2 34.4080 111.6915 47.8346 -2.2180 10.6857 -6.9716
# 3 32.3621 47.8346 121.3312 3.0585 6.1257 -0.3405
# 4 1.1211 -2.2180 3.0585 33.9280 8.9102 2.9268
# 5 -0.9500 10.6857 6.1257 8.9102 39.9952 5.1947
# 6 5.4209 -6.9716 -0.3405 2.9268 5.1947 33.7971
#
#
#
# Elastic Compliance Matrix: (Units=1/GPa)
#
#
# Indices 1 2 3 4 5 6 
#
# 1 0.013139 -0.003515 -0.002217 -0.000764 0.002166 -0.003122
# 2 -0.003515 0.012242 -0.003743 0.001917 -0.003656 0.003447
# 3 -0.002217 -0.003743 0.010353 -0.000986 -0.000397 -0.000166
# 4 -0.000764 0.001917 -0.000986 0.031728 -0.007302 -0.001117
# 5 0.002166 -0.003656 -0.000397 -0.007302 0.028346 -0.004830
# 6 -0.003122 0.003447 -0.000166 -0.001117 -0.004830 0.031638
#
#
# Mechanical properties :
#
#
# Convention : Reuss Voigt Hill
#
# Bulk Modulus (GPa) = 59.58355 61.61343 60.59849
# Shear Modulus (GPa) = 32.89662 35.59115 34.24389
#
# Velocity S-wave (km/s) = 3.86758 4.02286 3.94598
# Velocity P-wave (km/s) = 6.85835 7.04227 6.95092
#
# Compressibility (1/GPa) = 0.01678315
#
# Stress axis : x y z
#
# Youngs Moduli (GPa) = 76.11132 81.68536 96.58621
#
# Poissons Ratio (x) = 0.28713 0.21418
# Poissons Ratio (y) = 0.26754 0.36151
# Poissons Ratio (z) = 0.16877 0.30574
#
# Static dielectric constant tensor:
#      x y z
#    x 4.210000 0.247130 0.106990 
#    y 0.247130 4.165040 0.115020 
#    z 0.106990 0.115020 4.113580 
# 
# 
# High freq. dielectric constant tensor:
#      x y z
#    x 1.876940 0.001100 0.007120 
#    y 0.001100 1.871230 0.001830 
#    z 0.007120 0.001830 1.871640 
# 
# From -- ./inp_files/307002.got.cif
#   From: 2010.06.25/outbox.cif.g09.slc.cpg/sg2_154_cif.got.tgz:307002.got - 2010.06.27 13:26:56.
