data_PCOD8015279
_publ_section_title
;
Structure prediction by ZEFSAII (Michael W. Deem and Ramdas Pophale) SiO2 
 PCOD8015279
Probable space group: P -1
;
_chemical_formula_sum "Si O2"
_cell_formula_units_Z 12
_cell_length_a 8.684724
_cell_length_b 9.300321
_cell_length_c 11.810906
_cell_angle_alpha 85.997810
_cell_angle_beta 55.030921
_cell_angle_gamma 124.468976
_cell_volume 523.433088
_symmetry_space_group_name_H-M "P -1"
_symmetry_group_IT_number 2
_symmetry_cell_setting 'triclinic'
loop_
_space_group_symop_operation_xyz
x,y,z
-x,-y,-z
loop_
_atom_site_type_symbol
_atom_site_label
_atom_site_fract_x
_atom_site_fract_y
_atom_site_fract_z
Si Si1 0.749410 0.264939 0.666111
Si Si2 0.470392 0.154510 0.002346
Si Si3 0.074879 0.221094 0.668114
Si Si4 0.406175 0.587271 0.692745
Si Si5 0.298302 0.467086 0.996937
Si Si6 0.343154 0.885951 0.688515
O O1 0.000000 0.500000 0.500000
O O2 0.882271 0.196509 0.663075
O O3 0.511583 0.085188 0.689442
O O4 0.590751 0.275326 0.824370
O O5 0.656210 0.336022 0.010985
O O6 0.141200 0.009667 0.163502
O O7 0.500000 0.000000 0.000000
O O8 0.200410 0.401185 0.697416
O O9 0.288538 0.252277 0.500825
O O10 0.341921 0.717830 0.732811
O O11 0.379084 0.486844 0.829463
O O12 0.977612 0.242051 0.169296
O O13 0.500000 0.500000 0.000000
O O14 0.500000 0.000000 0.500000
#
# Coordination Sequence:
#
# PCOD8015279 Si02
#       6
#     2   2   2   2   2   2
#     4  11  23  42  70 100 142 182 231 290 350 419
#     4  10  21  42  67  93 135 183 230 273 352 408
#     4  10  23  42  70 103 133 190 229 290 347 419
#     4  11  24  45  72 100 146 180 240 283 356 418
#     4  12  28  46  71 108 143 185 236 295 351 421
#     4  12  26  45  72 104 140 187 235 287 356 422
#
# _framework density 22.925567000000001
#
# number of rings (size 3 to 8) (size 9 to 14) (size 15 to 20)
#    0.000    1.000    0.000    7.500    7.000    1.333 
#    0.000    1.667    0.000    0.000    0.000    0.000 
#    0.000    0.000    0.000    0.000    0.000    0.000 
#
# Total GULP energy -148715.149485 kJ/mol
# GULP energy per Si atom -12392.929124 kJ/mol
# Density = 2.287339 g / cm^3
# Si number density = 22.925567 Si / 1000 Ang^3
#
#
#
# Elastic Constant Matrix: (Units=GPa)
#
#
# Indices 1 2 3 4 5 6 
#
# 1 97.0366 23.9115 47.0389 -7.8416 -3.6779 17.7206
# 2 23.9115 122.4394 56.7450 -11.0237 -11.4495 28.7881
# 3 47.0389 56.7450 227.1793 -26.1050 -0.5316 28.4783
# 4 -7.8416 -11.0237 -26.1050 42.4843 10.4189 -3.4139
# 5 -3.6779 -11.4495 -0.5316 10.4189 33.6941 -4.7967
# 6 17.7206 28.7881 28.4783 -3.4139 -4.7967 37.8081
#
#
#
# Elastic Compliance Matrix: (Units=1/GPa)
#
#
# Indices 1 2 3 4 5 6 
#
# 1 0.012073 -0.000536 -0.001827 0.000567 0.000394 -0.003773
# 2 -0.000536 0.010851 -0.001741 0.000515 0.002541 -0.006331
# 3 -0.001827 -0.001741 0.005842 0.003108 -0.001971 -0.002188
# 4 0.000567 0.000515 0.003108 0.027640 -0.008486 -0.001580
# 5 0.000394 0.002541 -0.001971 -0.008486 0.033585 0.002860
# 6 -0.003773 -0.006331 -0.002188 -0.001580 0.002860 0.034907
#
#
# Mechanical properties :
#
#
# Convention : Reuss Voigt Hill
#
# Bulk Modulus (GPa) = 48.64089 78.00510 63.32299
# Shear Modulus (GPa) = 35.72492 44.06129 39.89311
#
# Velocity S-wave (km/s) = 3.95181 4.38874 4.17599
# Velocity P-wave (km/s) = 6.48732 7.73179 7.13673
#
# Compressibility (1/GPa) = 0.02055883
#
# Stress axis : x y z
#
# Youngs Moduli (GPa) = 82.83062 92.15500 171.18377
#
# Poissons Ratio (x) = 0.04940 0.31272
# Poissons Ratio (y) = 0.04440 0.29797
# Poissons Ratio (z) = 0.15132 0.16041
#
# Static dielectric constant tensor:
#      x y z
#    x 4.298720 0.234190 0.892840 
#    y 0.234190 4.362120 0.031770 
#    z 0.892840 0.031770 7.049590 
# 
# 
# High freq. dielectric constant tensor:
#      x y z
#    x 1.884710 0.012770 0.002050 
#    y 0.012770 1.917640 -0.006120 
#    z 0.002050 -0.006120 1.940420 
# 
# From -- ./inp_files/191047.got.cif
#   From: 2010.06.25/outbox.cif.g09.slc.cpg/sg2_96_cif.got.tgz:191047.got - 2010.06.27 13:26:56.
