data_PCOD8015641
_publ_section_title
;
Structure prediction by ZEFSAII (Michael W. Deem and Ramdas Pophale) SiO2 
 PCOD8015641
Probable space group: P -1
;
_chemical_formula_sum "Si O2"
_cell_formula_units_Z 16
_cell_length_a 15.002914
_cell_length_b 9.229227
_cell_length_c 20.415879
_cell_angle_alpha 132.803413
_cell_angle_beta 161.048964
_cell_angle_gamma 47.773368
_cell_volume 668.420957
_symmetry_space_group_name_H-M "P -1"
_symmetry_group_IT_number 2
_symmetry_cell_setting 'triclinic'
loop_
_space_group_symop_operation_xyz
x,y,z
-x,-y,-z
loop_
_atom_site_type_symbol
_atom_site_label
_atom_site_fract_x
_atom_site_fract_y
_atom_site_fract_z
Si Si1 0.401095 0.226934 0.015635
Si Si2 0.671512 0.671657 0.149972
Si Si3 0.362470 0.949614 0.114171
Si Si4 0.412268 0.143584 0.624206
Si Si5 0.782130 0.055615 0.742989
Si Si6 0.302991 0.417868 0.209887
Si Si7 0.847211 0.241593 0.715010
Si Si8 0.252627 0.546908 0.579660
O O1 0.651556 0.321838 0.253427
O O2 0.307623 0.333740 0.915374
O O3 0.140766 0.256700 0.891544
O O4 0.500000 0.000000 0.000000
O O5 0.504716 0.881367 0.123085
O O6 0.971085 0.651233 0.385068
O O7 0.500000 0.500000 0.000000
O O8 0.537470 0.827177 0.255290
O O9 0.362307 0.185191 0.197203
O O10 0.048650 0.886988 0.883197
O O11 0.703775 0.144240 0.787659
O O12 0.205396 0.329701 0.509659
O O13 0.297047 0.932412 0.471665
O O14 0.906435 0.197376 0.820239
O O15 0.500000 0.000000 0.500000
O O16 0.338341 0.541012 0.341274
O O17 0.521514 0.481573 0.329087
O O18 0.000000 0.500000 0.000000
#
# Coordination Sequence:
#
# PCOD8015641 Si02
#       8
#     2   2   2   2   2   2   2   2
#     4  12  28  50  81 110 156 208 259 318 390 462
#     4  12  32  51  77 115 158 211 264 325 380 467
#     4  12  26  47  72 112 154 195 269 313 385 469
#     4  11  26  44  79 111 151 203 249 322 389 462
#     4  10  21  42  73 105 149 192 238 315 386 441
#     4  12  23  45  78 110 154 198 247 330 388 454
#     4  11  24  46  72 114 149 194 255 312 397 448
#     4  12  27  51  82 110 158 206 265 314 397 458
#
# _framework density 23.937011999999999
#
# number of rings (size 3 to 8) (size 9 to 14) (size 15 to 20)
#    0.000    0.500    3.750    2.625    8.750    2.500 
#    2.250    0.000    0.000    0.000    0.000    0.000 
#    0.000    0.000    0.000    0.000    0.000    0.000 
#
# Total GULP energy -198239.127164 kJ/mol
# GULP energy per Si atom -12389.945448 kJ/mol
# Density = 2.388253 g / cm^3
# Si number density = 23.937012 Si / 1000 Ang^3
#
#
#
# Elastic Constant Matrix: (Units=GPa)
#
#
# Indices 1 2 3 4 5 6 
#
# 1 113.9918 33.4682 46.1561 6.2471 -3.1165 -0.4698
# 2 33.4682 127.4368 55.2247 8.5895 0.2895 -16.7610
# 3 46.1561 55.2247 136.0246 2.3710 -11.1507 -0.5282
# 4 6.2471 8.5895 2.3710 30.2995 -0.3684 -4.1144
# 5 -3.1165 0.2895 -11.1507 -0.3684 36.0161 -0.7010
# 6 -0.4698 -16.7610 -0.5282 -4.1144 -0.7010 45.4003
#
#
#
# Elastic Compliance Matrix: (Units=1/GPa)
#
#
# Indices 1 2 3 4 5 6 
#
# 1 0.010474 -0.001447 -0.002943 -0.001601 -0.000021 -0.000606
# 2 -0.001447 0.010496 -0.003833 -0.001902 -0.001345 0.003622
# 3 -0.002943 -0.003833 0.010126 0.000771 0.002895 -0.001213
# 4 -0.001601 -0.001902 0.000771 0.034144 0.000511 0.002393
# 5 -0.000021 -0.001345 0.002895 0.000511 0.028676 0.000026
# 6 -0.000606 0.003622 -0.001213 0.002393 0.000026 0.023560
#
#
# Mechanical properties :
#
#
# Convention : Reuss Voigt Hill
#
# Bulk Modulus (GPa) = 68.26370 71.90571 70.08470
# Shear Modulus (GPa) = 36.02185 38.51679 37.26932
#
# Velocity S-wave (km/s) = 3.88346 4.01570 3.95013
# Velocity P-wave (km/s) = 6.97770 7.18372 7.08146
#
# Compressibility (1/GPa) = 0.01464907
#
# Stress axis : x y z
#
# Youngs Moduli (GPa) = 95.47814 95.27573 98.76002
#
# Poissons Ratio (x) = 0.13788 0.29061
# Poissons Ratio (y) = 0.13817 0.37857
# Poissons Ratio (z) = 0.28095 0.36522
#
# Static dielectric constant tensor:
#      x y z
#    x 5.333020 -0.644010 0.051840 
#    y -0.644010 5.478340 0.052060 
#    z 0.051840 0.052060 4.431290 
# 
# 
# High freq. dielectric constant tensor:
#      x y z
#    x 1.963630 -0.008740 0.001580 
#    y -0.008740 1.955120 0.006300 
#    z 0.001580 0.006300 1.948060 
# 
# From -- ./inp_files/597443.got.cif
#   From: 2010.06.25/outbox.cif.g09.slc.cpg/sg2_299_cif.got.tgz:597443.got - 2010.06.27 13:26:56.
