data_PCOD8015998
_publ_section_title
;
Structure prediction by ZEFSAII (Michael W. Deem and Ramdas Pophale) SiO2 
 PCOD8015998
Probable space group: P -1
;
_chemical_formula_sum "Si O2"
_cell_formula_units_Z 16
_cell_length_a 8.883648
_cell_length_b 14.348327
_cell_length_c 20.289647
_cell_angle_alpha 159.522211
_cell_angle_beta 65.171845
_cell_angle_gamma 104.273615
_cell_volume 728.096926
_symmetry_space_group_name_H-M "P -1"
_symmetry_group_IT_number 2
_symmetry_cell_setting 'triclinic'
loop_
_space_group_symop_operation_xyz
x,y,z
-x,-y,-z
loop_
_atom_site_type_symbol
_atom_site_label
_atom_site_fract_x
_atom_site_fract_y
_atom_site_fract_z
Si Si1 0.205224 0.246503 0.288167
Si Si2 0.451933 0.567948 0.478324
Si Si3 0.355036 0.423862 0.937911
Si Si4 0.199895 0.936250 0.949070
Si Si5 0.283226 0.186894 0.972912
Si Si6 0.589679 0.828599 0.435180
Si Si7 0.615414 0.297142 0.012952
Si Si8 0.986860 0.316560 0.729162
O O1 0.339365 0.401338 0.358856
O O2 0.000000 0.500000 0.500000
O O3 0.199769 0.071909 0.108937
O O4 0.254948 0.038125 0.206120
O O5 0.500000 0.500000 0.500000
O O6 0.656340 0.422634 0.308637
O O7 0.335584 0.929011 0.735668
O O8 0.161427 0.522984 0.078227
O O9 0.500000 0.500000 0.000000
O O10 0.293445 0.601538 0.996730
O O11 0.469152 0.057115 0.666792
O O12 0.286813 0.075853 0.972837
O O13 0.000000 0.000000 0.000000
O O14 0.427514 0.321393 0.031965
O O15 0.081988 0.458925 0.172188
O O16 0.570254 0.521351 0.232914
O O17 0.807645 0.735178 0.328405
O O18 0.500000 0.000000 0.500000
O O19 0.000000 0.000000 0.500000
#
# Coordination Sequence:
#
# PCOD8015998 Si02
#       8
#     2   2   2   2   2   2   2   2
#     4  12  25  43  66 100 141 178 233 288 338 419
#     4  10  21  43  68  95 136 178 225 286 340 410
#     4  11  22  47  72 103 136 183 231 288 357 418
#     4  11  25  44  69  99 139 184 234 282 351 415
#     4  11  24  45  70  99 136 184 234 284 354 413
#     4  10  24  44  69 102 143 177 232 296 347 423
#     4  11  24  43  70  98 143 180 227 291 356 407
#     4  12  24  44  74 102 139 182 235 290 351 428
#
# _framework density 21.975095
#
# number of rings (size 3 to 8) (size 9 to 14) (size 15 to 20)
#    0.000    1.000    5.000    2.625    3.500    4.000 
#    0.000    0.000    0.000    0.000    0.000    0.000 
#    0.000    0.000    0.000    0.000    0.000    0.000 
#
# Total GULP energy -198262.265163 kJ/mol
# GULP energy per Si atom -12391.391573 kJ/mol
# Density = 2.192508 g / cm^3
# Si number density = 21.975095 Si / 1000 Ang^3
#
#
#
# Elastic Constant Matrix: (Units=GPa)
#
#
# Indices 1 2 3 4 5 6 
#
# 1 138.9950 10.5406 62.3687 0.6962 -6.6247 -1.2981
# 2 10.5406 57.7739 27.5807 -8.5662 -7.3056 -4.2544
# 3 62.3687 27.5807 171.6683 -2.3434 -6.9374 1.1145
# 4 0.6962 -8.5662 -2.3434 41.3245 0.1618 -2.2500
# 5 -6.6247 -7.3056 -6.9374 0.1618 51.3727 0.0816
# 6 -1.2981 -4.2544 1.1145 -2.2500 0.0816 31.4524
#
#
#
# Elastic Compliance Matrix: (Units=1/GPa)
#
#
# Indices 1 2 3 4 5 6 
#
# 1 0.008631 -0.000014 -0.003112 -0.000303 0.000691 0.000441
# 2 -0.000014 0.019914 -0.003061 0.004113 0.002399 0.003090
# 3 -0.003112 -0.003061 0.007457 -0.000205 0.000172 -0.000822
# 4 -0.000303 0.004113 -0.000205 0.025171 0.000435 0.002351
# 5 0.000691 0.002399 0.000172 0.000435 0.019917 0.000326
# 6 0.000441 0.003090 -0.000822 0.002351 0.000326 0.032427
#
#
# Mechanical properties :
#
#
# Convention : Reuss Voigt Hill
#
# Bulk Modulus (GPa) = 42.32582 63.26861 52.79721
# Shear Modulus (GPa) = 37.37832 42.69305 40.03569
#
# Velocity S-wave (km/s) = 4.12872 4.41249 4.27296
# Velocity P-wave (km/s) = 6.48314 7.40363 6.95862
#
# Compressibility (1/GPa) = 0.02362624
#
# Stress axis : x y z
#
# Youngs Moduli (GPa) = 115.86505 50.21710 134.09651
#
# Poissons Ratio (x) = 0.00070 0.41737
# Poissons Ratio (y) = 0.00161 0.41051
# Poissons Ratio (z) = 0.36063 0.15373
#
# Static dielectric constant tensor:
#      x y z
#    x 4.200540 -0.021670 0.134190 
#    y -0.021670 3.898260 0.008500 
#    z 0.134190 0.008500 5.248700 
# 
# 
# High freq. dielectric constant tensor:
#      x y z
#    x 1.874290 -0.010370 0.000810 
#    y -0.010370 1.849000 0.005530 
#    z 0.000810 0.005530 1.887240 
# 
# From -- ./inp_files/222978.got.cif
#   From: 2010.06.25/outbox.cif.g09.slc.cpg/sg2_112_cif.got.tgz:222978.got - 2010.06.27 13:26:56.
