data_PCOD8015950
_publ_section_title
;
Structure prediction by ZEFSAII (Michael W. Deem and Ramdas Pophale) SiO2 
 PCOD8015950
Probable space group: P -1
;
_chemical_formula_sum "Si O2"
_cell_formula_units_Z 16
_cell_length_a 20.063338
_cell_length_b 11.955860
_cell_length_c 13.465387
_cell_angle_alpha 50.270648
_cell_angle_beta 149.350082
_cell_angle_gamma 149.610324
_cell_volume 763.762170
_symmetry_space_group_name_H-M "P -1"
_symmetry_group_IT_number 2
_symmetry_cell_setting 'triclinic'
loop_
_space_group_symop_operation_xyz
x,y,z
-x,-y,-z
loop_
_atom_site_type_symbol
_atom_site_label
_atom_site_fract_x
_atom_site_fract_y
_atom_site_fract_z
Si Si1 0.102219 0.953732 0.946297
Si Si2 0.742120 0.298474 0.405509
Si Si3 0.927056 0.757479 0.176592
Si Si4 0.547027 0.739231 0.173029
Si Si5 0.814355 0.202549 0.362432
Si Si6 0.721503 0.996206 0.666165
Si Si7 0.391823 0.463991 0.481590
Si Si8 0.580359 0.730862 0.997238
O O1 0.849124 0.695230 0.760767
O O2 0.151118 0.152195 0.946320
O O3 0.220042 0.943469 0.176430
O O4 0.208617 0.038902 0.925856
O O5 0.692380 0.200978 0.284277
O O6 0.668477 0.111511 0.495813
O O7 0.614915 0.333171 0.243605
O O8 0.002832 0.550480 0.607272
O O9 0.062252 0.813101 0.409011
O O10 0.071146 0.889299 0.188114
O O11 0.712174 0.472499 0.042748
O O12 0.619215 0.673399 0.374408
O O13 0.637684 0.973375 0.195039
O O14 0.646984 0.797560 0.159773
O O15 0.515150 0.712119 0.542143
O O16 0.500000 0.500000 0.500000
O O17 0.500000 0.500000 0.000000
#
# Coordination Sequence:
#
# PCOD8015950 Si02
#       8
#     2   2   2   2   2   2   2   2
#     4  12  23  41  63  96 138 173 218 266 321 396
#     4  10  23  45  66  95 137 172 215 275 331 386
#     4  11  19  40  67 101 132 161 225 280 326 372
#     4  12  23  39  72 102 129 175 218 274 332 377
#     4  10  21  43  67  99 132 164 223 283 320 379
#     4  11  23  41  66  94 132 177 213 275 331 376
#     4  12  22  39  67 101 129 165 226 276 317 385
#     4  12  25  45  67  94 137 177 219 268 324 405
#
# _framework density 20.948931000000002
#
# number of rings (size 3 to 8) (size 9 to 14) (size 15 to 20)
#    0.000    0.750    6.250    1.875    0.000    1.500 
#    4.500    0.625    0.000    0.000    0.000    0.000 
#    0.000    0.000    0.000    0.000    0.000    0.000 
#
# Total GULP energy -198471.774595 kJ/mol
# GULP energy per Si atom -12404.485912 kJ/mol
# Density = 2.090125 g / cm^3
# Si number density = 20.948931 Si / 1000 Ang^3
#
#
#
# Elastic Constant Matrix: (Units=GPa)
#
#
# Indices 1 2 3 4 5 6 
#
# 1 112.1772 61.3818 53.0124 10.2837 -4.1266 8.5870
# 2 61.3818 120.1766 45.4231 16.4779 -4.4499 -1.4521
# 3 53.0124 45.4231 94.9815 14.8476 -2.2094 -1.7500
# 4 10.2837 16.4779 14.8476 50.1114 -5.6867 0.2448
# 5 -4.1266 -4.4499 -2.2094 -5.6867 33.1006 -4.1536
# 6 8.5870 -1.4521 -1.7500 0.2448 -4.1536 36.5700
#
#
#
# Elastic Compliance Matrix: (Units=1/GPa)
#
#
# Indices 1 2 3 4 5 6 
#
# 1 0.014990 -0.005551 -0.005862 0.000542 0.000324 -0.003988
# 2 -0.005551 0.012427 -0.002461 -0.002151 0.000667 0.001769
# 3 -0.005862 -0.002461 0.015414 -0.002590 -0.000226 0.002008
# 4 0.000542 -0.002151 -0.002590 0.021696 0.003320 -0.000105
# 5 0.000324 0.000667 -0.000226 0.003320 0.031332 0.003476
# 6 -0.003988 0.001769 0.002008 -0.000105 0.003476 0.028843
#
#
# Mechanical properties :
#
#
# Convention : Reuss Voigt Hill
#
# Bulk Modulus (GPa) = 66.29967 71.88554 69.09260
# Shear Modulus (GPa) = 31.75046 35.12426 33.43736
#
# Velocity S-wave (km/s) = 3.89731 4.09915 3.99950
# Velocity P-wave (km/s) = 7.20895 7.53612 7.37435
#
# Compressibility (1/GPa) = 0.01508303
#
# Stress axis : x y z
#
# Youngs Moduli (GPa) = 66.71247 80.46749 64.87724
#
# Poissons Ratio (x) = 0.44667 0.38033
# Poissons Ratio (y) = 0.37032 0.15964
# Poissons Ratio (z) = 0.39109 0.19800
#
# Static dielectric constant tensor:
#      x y z
#    x 3.816960 0.158330 -0.066260 
#    y 0.158330 4.011970 0.034500 
#    z -0.066260 0.034500 3.745510 
# 
# 
# High freq. dielectric constant tensor:
#      x y z
#    x 1.805500 0.010300 -0.006750 
#    y 0.010300 1.834100 -0.003820 
#    z -0.006750 -0.003820 1.819560 
# 
# From -- ./inp_files/541111.got.cif
#   From: 2010.06.25/outbox.cif.g09.slc.cpg/sg2_271_cif.got.tgz:541111.got - 2010.06.27 13:26:56.
