data_PCOD8015310
_publ_section_title
;
Structure prediction by ZEFSAII (Michael W. Deem and Ramdas Pophale) SiO2 
 PCOD8015310
Probable space group: P -1
;
_chemical_formula_sum "Si O2"
_cell_formula_units_Z 16
_cell_length_a 9.108608
_cell_length_b 8.803676
_cell_length_c 20.499575
_cell_angle_alpha 152.631428
_cell_angle_beta 123.227083
_cell_angle_gamma 59.622041
_cell_volume 631.365883
_symmetry_space_group_name_H-M "P -1"
_symmetry_group_IT_number 2
_symmetry_cell_setting 'triclinic'
loop_
_space_group_symop_operation_xyz
x,y,z
-x,-y,-z
loop_
_atom_site_type_symbol
_atom_site_label
_atom_site_fract_x
_atom_site_fract_y
_atom_site_fract_z
Si Si1 0.536440 0.678292 0.202552
Si Si2 0.254789 0.633934 0.974871
Si Si3 0.578766 0.348866 0.635265
Si Si4 0.067378 0.631280 0.439949
Si Si5 0.801374 0.634942 0.008981
Si Si6 0.972456 0.342659 0.714350
Si Si7 0.633905 0.749373 0.681558
Si Si8 0.716370 0.363840 0.245752
O O1 0.575719 0.454952 0.062580
O O2 0.681833 0.592957 0.260253
O O3 0.529456 0.063584 0.325230
O O4 0.338980 0.602006 0.149165
O O5 0.236558 0.351060 0.917510
O O6 0.082005 0.624162 0.882793
O O7 0.268343 0.994816 0.148815
O O8 0.783046 0.336299 0.701734
O O9 0.564508 0.447485 0.592821
O O10 0.460524 0.625298 0.750537
O O11 0.500000 0.000000 0.500000
O O12 0.884660 0.506920 0.377692
O O13 0.057826 0.599981 0.347163
O O14 0.238612 0.386872 0.398943
O O15 0.087744 0.992971 0.613648
O O16 0.767823 0.984144 0.097488
O O17 0.000000 0.500000 0.000000
#
# Coordination Sequence:
#
# PCOD8015310 Si02
#       8
#     2   2   2   2   2   2   2   2
#     4  11  23  42  66 101 135 181 233 278 341 415
#     4  11  22  44  69  97 135 180 233 276 338 412
#     4  11  23  41  67  99 141 179 225 284 351 400
#     4  10  21  42  67  96 133 180 227 279 343 402
#     4  11  25  43  65 101 145 176 221 293 349 399
#     4  10  22  42  68  95 137 181 229 281 337 420
#     4  10  23  43  70  97 136 181 230 282 339 412
#     4  12  22  41  68  97 136 180 226 284 345 403
#
# _framework density 25.341885000000001
#
# number of rings (size 3 to 8) (size 9 to 14) (size 15 to 20)
#    0.000    1.250    2.500    4.875    1.750    2.000 
#    4.500    4.375    0.000    0.000    0.000    0.000 
#    0.000    0.000    0.000    0.000    0.000    0.000 
#
# Total GULP energy -198255.896284 kJ/mol
# GULP energy per Si atom -12390.993518 kJ/mol
# Density = 2.528421 g / cm^3
# Si number density = 25.341885 Si / 1000 Ang^3
#
#
#
# Elastic Constant Matrix: (Units=GPa)
#
#
# Indices 1 2 3 4 5 6 
#
# 1 146.8559 39.6109 26.2714 18.3060 -9.4667 -25.5921
# 2 39.6109 116.6124 29.5652 29.8907 4.0063 -7.6929
# 3 26.2714 29.5652 71.7321 12.4348 -0.3277 -11.7051
# 4 18.3060 29.8907 12.4348 43.0363 -2.2622 -7.3566
# 5 -9.4667 4.0063 -0.3277 -2.2622 38.7737 12.9921
# 6 -25.5921 -7.6929 -11.7051 -7.3566 12.9921 35.7939
#
#
#
# Elastic Compliance Matrix: (Units=1/GPa)
#
#
# Indices 1 2 3 4 5 6 
#
# 1 0.008607 -0.002026 -0.001350 -0.001003 0.000617 0.004847
# 2 -0.002026 0.011766 -0.003063 -0.006627 -0.001927 -0.000584
# 3 -0.001350 -0.003063 0.016596 -0.001483 -0.001288 0.003967
# 4 -0.001003 -0.006627 -0.001483 0.029262 0.001138 0.002975
# 5 0.000617 -0.001927 -0.001288 0.001138 0.029884 -0.011008
# 6 0.004847 -0.000584 0.003967 0.002975 -0.011008 0.037182
#
#
# Mechanical properties :
#
#
# Convention : Reuss Voigt Hill
#
# Bulk Modulus (GPa) = 41.50674 58.45503 49.98088
# Shear Modulus (GPa) = 32.42438 39.50432 35.96435
#
# Velocity S-wave (km/s) = 3.58086 3.95252 3.77127
# Velocity P-wave (km/s) = 5.78887 6.62922 6.22324
#
# Compressibility (1/GPa) = 0.02409247
#
# Stress axis : x y z
#
# Youngs Moduli (GPa) = 116.18913 84.98795 60.25535
#
# Poissons Ratio (x) = 0.17215 0.08132
# Poissons Ratio (y) = 0.23536 0.18457
# Poissons Ratio (z) = 0.15681 0.26032
#
# Static dielectric constant tensor:
#      x y z
#    x 5.072590 -0.212090 -0.093500 
#    y -0.212090 4.628420 0.240960 
#    z -0.093500 0.240960 4.238820 
# 
# 
# High freq. dielectric constant tensor:
#      x y z
#    x 2.029740 -0.023280 0.005470 
#    y -0.023280 2.003540 0.013350 
#    z 0.005470 0.013350 1.993320 
# 
# From -- ./inp_files/588286.got.cif
#   From: 2010.06.25/outbox.cif.g09.slc.cpg/sg2_295_cif.got.tgz:588286.got - 2010.06.27 13:26:56.
