data_PCOD8015865
_publ_section_title
;
Structure prediction by ZEFSAII (Michael W. Deem and Ramdas Pophale) SiO2 
 PCOD8015865
Probable space group: P -1
;
_chemical_formula_sum "Si O2"
_cell_formula_units_Z 16
_cell_length_a 14.928677
_cell_length_b 9.314761
_cell_length_c 15.077644
_cell_angle_alpha 100.421175
_cell_angle_beta 141.466464
_cell_angle_gamma 49.968858
_cell_volume 737.367661
_symmetry_space_group_name_H-M "P -1"
_symmetry_group_IT_number 2
_symmetry_cell_setting 'triclinic'
loop_
_space_group_symop_operation_xyz
x,y,z
-x,-y,-z
loop_
_atom_site_type_symbol
_atom_site_label
_atom_site_fract_x
_atom_site_fract_y
_atom_site_fract_z
Si Si1 0.183128 0.157197 0.591617
Si Si2 0.792254 0.403019 0.170530
Si Si3 0.739090 0.604712 0.407846
Si Si4 0.556707 0.794621 0.483018
Si Si5 0.277861 0.390026 0.033686
Si Si6 0.357578 0.784861 0.011316
Si Si7 0.970397 0.705533 0.122957
Si Si8 0.956516 0.867080 0.943031
O O1 0.287290 0.229595 0.654815
O O2 0.026023 0.215565 0.396774
O O3 0.013007 0.308340 0.565838
O O4 0.420835 0.858460 0.762043
O O5 0.532033 0.649853 0.045650
O O6 0.824720 0.502404 0.133488
O O7 0.781269 0.255561 0.096616
O O8 0.707839 0.672189 0.493564
O O9 0.522643 0.672396 0.216012
O O10 0.732223 0.560169 0.661358
O O11 0.500000 0.000000 0.500000
O O12 0.291003 0.937768 0.286967
O O13 0.161752 0.341067 0.979334
O O14 0.195007 0.595776 0.051466
O O15 0.146374 0.085965 0.872289
O O16 0.910243 0.823529 0.994416
O O17 0.000000 0.000000 0.000000
#
# Coordination Sequence:
#
# PCOD8015865 Si02
#       8
#     2   2   2   2   2   2   2   2
#     4  10  22  40  67  99 134 175 221 276 326 401
#     4  10  24  41  65 100 138 177 219 277 337 394
#     4  10  21  43  66  96 140 174 215 279 336 389
#     4  12  26  43  70 100 134 178 228 278 333 404
#     4  12  24  40  72 102 133 176 229 277 329 406
#     4  10  21  45  65  94 144 178 217 278 336 396
#     4  12  25  43  72  98 132 183 227 277 334 406
#     4  12  28  48  69  98 139 177 224 288 343 392
#
# _framework density 21.698810000000002
#
# number of rings (size 3 to 8) (size 9 to 14) (size 15 to 20)
#    0.000    1.000    3.750    1.875    3.500    2.000 
#    0.000    1.875    0.000    0.000    0.000    0.000 
#    0.000    0.000    0.000    0.000    0.000    0.000 
#
# Total GULP energy -198435.732917 kJ/mol
# GULP energy per Si atom -12402.233307 kJ/mol
# Density = 2.164942 g / cm^3
# Si number density = 21.698810 Si / 1000 Ang^3
#
#
#
# Elastic Constant Matrix: (Units=GPa)
#
#
# Indices 1 2 3 4 5 6 
#
# 1 82.6027 41.0334 24.1224 3.6538 -4.3374 0.8458
# 2 41.0334 164.1065 71.4592 -11.5868 11.0328 -6.9635
# 3 24.1224 71.4592 130.4851 -9.0263 15.0905 3.5559
# 4 3.6538 -11.5868 -9.0263 46.1638 -2.3843 6.7515
# 5 -4.3374 11.0328 15.0905 -2.3843 27.0854 1.2945
# 6 0.8458 -6.9635 3.5559 6.7515 1.2945 34.8888
#
#
#
# Elastic Compliance Matrix: (Units=1/GPa)
#
#
# Indices 1 2 3 4 5 6 
#
# 1 0.014580 -0.003498 -0.001407 -0.001979 0.004402 -0.000689
# 2 -0.003498 0.009047 -0.004044 0.001345 -0.001975 0.002115
# 3 -0.001407 -0.004044 0.010786 0.001265 -0.004383 -0.001954
# 4 -0.001979 0.001345 0.001265 0.023067 0.000666 -0.004301
# 5 0.004402 -0.001975 -0.004383 0.000666 0.041012 -0.001705
# 6 -0.000689 0.002115 -0.001954 -0.004301 -0.001705 0.030196
#
#
# Mechanical properties :
#
#
# Convention : Reuss Voigt Hill
#
# Bulk Modulus (GPa) = 60.54971 72.26936 66.40953
# Shear Modulus (GPa) = 32.87509 37.66621 35.27065
#
# Velocity S-wave (km/s) = 3.89661 4.17089 4.03608
# Velocity P-wave (km/s) = 6.94334 7.52151 7.23820
#
# Compressibility (1/GPa) = 0.01651536
#
# Stress axis : x y z
#
# Youngs Moduli (GPa) = 68.58512 110.53834 92.71234
#
# Poissons Ratio (x) = 0.38665 0.13045
# Poissons Ratio (y) = 0.23991 0.37492
# Poissons Ratio (z) = 0.09650 0.44700
#
# Static dielectric constant tensor:
#      x y z
#    x 3.799550 -0.198610 0.070150 
#    y -0.198610 4.208060 -0.087730 
#    z 0.070150 -0.087730 3.784690 
# 
# 
# High freq. dielectric constant tensor:
#      x y z
#    x 1.840770 -0.015940 0.010940 
#    y -0.015940 1.867520 -0.002830 
#    z 0.010940 -0.002830 1.854680 
# 
# From -- ./inp_files/315044.got.cif
#   From: 2010.06.25/outbox.cif.g09.slc.cpg/sg2_158_cif.got.tgz:315044.got - 2010.06.27 13:26:56.
