data_PCOD8015079
_publ_section_title
;
Structure prediction by ZEFSAII (Michael W. Deem and Ramdas Pophale) SiO2 
 PCOD8015079
Probable space group: P -1
;
_chemical_formula_sum "Si O2"
_cell_formula_units_Z 16
_cell_length_a 9.463153
_cell_length_b 13.613968
_cell_length_c 13.484980
_cell_angle_alpha 45.934302
_cell_angle_beta 40.233257
_cell_angle_gamma 44.172962
_cell_volume 738.479824
_symmetry_space_group_name_H-M "P -1"
_symmetry_group_IT_number 2
_symmetry_cell_setting 'triclinic'
loop_
_space_group_symop_operation_xyz
x,y,z
-x,-y,-z
loop_
_atom_site_type_symbol
_atom_site_label
_atom_site_fract_x
_atom_site_fract_y
_atom_site_fract_z
Si Si1 0.229678 0.537938 0.731479
Si Si2 0.798478 0.464220 0.029722
Si Si3 0.722825 0.026714 0.637819
Si Si4 0.494116 0.800838 0.925059
Si Si5 0.701591 0.272035 0.606106
Si Si6 0.337989 0.774249 0.808519
Si Si7 0.969866 0.096800 0.769798
Si Si8 0.418352 0.130397 0.533353
O O1 0.186218 0.604549 0.819757
O O2 0.495824 0.413521 0.666080
O O3 0.176961 0.672473 0.587544
O O4 0.050674 0.458429 0.861440
O O5 0.726717 0.369341 0.053307
O O6 0.607935 0.633182 0.019816
O O7 0.604830 0.153111 0.696605
O O8 0.585623 0.092385 0.564711
O O9 0.677972 0.879146 0.793416
O O10 0.000000 0.000000 0.500000
O O11 0.436232 0.806308 0.836540
O O12 0.251172 0.885246 0.055350
O O13 0.899628 0.186857 0.641388
O O14 0.545106 0.736445 0.639327
O O15 0.104925 0.920474 0.799234
O O16 0.144734 0.162450 0.686063
O O17 0.500000 0.000000 0.500000
#
# Coordination Sequence:
#
# PCOD8015079 Si02
#       8
#     2   2   2   2   2   2   2   2
#     4  10  24  45  67  95 143 176 224 294 330 410
#     4  11  24  44  67  99 138 183 228 271 353 401
#     4  12  24  40  71 104 134 178 232 276 341 403
#     4  12  25  43  67 103 140 177 225 287 337 400
#     4  11  24  43  70 100 132 182 230 277 347 397
#     4  11  24  42  70  96 137 181 224 277 340 413
#     4  11  24  44  69  98 139 174 227 286 337 395
#     4  10  21  42  65  95 135 175 219 278 335 395
#
# _framework density 21.666129000000002
#
# number of rings (size 3 to 8) (size 9 to 14) (size 15 to 20)
#    0.000    1.000    3.750    3.750    3.500    3.500 
#    0.000    0.625    0.000    0.000    0.000    0.000 
#    0.000    0.000    0.000    0.000    0.000    0.000 
#
# Total GULP energy -198364.147391 kJ/mol
# GULP energy per Si atom -12397.759212 kJ/mol
# Density = 2.161682 g / cm^3
# Si number density = 21.666129 Si / 1000 Ang^3
#
#
#
# Elastic Constant Matrix: (Units=GPa)
#
#
# Indices 1 2 3 4 5 6 
#
# 1 134.5229 29.3374 55.2594 -7.6180 -12.6475 -9.1098
# 2 29.3374 57.1794 46.0077 -4.1506 -11.3713 -0.2399
# 3 55.2594 46.0077 140.8926 -1.4091 -16.2280 -5.7135
# 4 -7.6180 -4.1506 -1.4091 35.4321 -3.3113 -5.5581
# 5 -12.6475 -11.3713 -16.2280 -3.3113 40.9917 -5.3415
# 6 -9.1098 -0.2399 -5.7135 -5.5581 -5.3415 27.8148
#
#
#
# Elastic Compliance Matrix: (Units=1/GPa)
#
#
# Indices 1 2 3 4 5 6 
#
# 1 0.009548 -0.002201 -0.002641 0.002406 0.001929 0.003417
# 2 -0.002201 0.025075 -0.006912 0.002413 0.003639 -0.000743
# 3 -0.002641 -0.006912 0.010630 -0.000575 0.001619 0.001455
# 4 0.002406 0.002413 -0.000575 0.030645 0.004664 0.007710
# 5 0.001929 0.003639 0.001619 0.004664 0.027969 0.007299
# 6 0.003417 -0.000743 0.001455 0.007710 0.007299 0.040306
#
#
# Mechanical properties :
#
#
# Convention : Reuss Voigt Hill
#
# Bulk Modulus (GPa) = 45.98704 65.97820 55.98262
# Shear Modulus (GPa) = 28.58299 34.31374 31.44836
#
# Velocity S-wave (km/s) = 3.63609 3.98395 3.81399
# Velocity P-wave (km/s) = 6.23695 7.18894 6.72980
#
# Compressibility (1/GPa) = 0.02174526
#
# Stress axis : x y z
#
# Youngs Moduli (GPa) = 104.73809 39.88021 94.07102
#
# Poissons Ratio (x) = 0.08777 0.24846
# Poissons Ratio (y) = 0.23051 0.65021
# Poissons Ratio (z) = 0.27663 0.27565
#
# Static dielectric constant tensor:
#      x y z
#    x 4.095250 -0.059320 -0.207260 
#    y -0.059320 3.798550 -0.070740 
#    z -0.207260 -0.070740 4.501630 
# 
# 
# High freq. dielectric constant tensor:
#      x y z
#    x 1.855920 -0.007970 0.001000 
#    y -0.007970 1.836180 -0.003520 
#    z 0.001000 -0.003520 1.867940 
# 
# From -- ./inp_files/505216.got.cif
#   From: 2010.06.25/outbox.cif.g09.slc.cpg/sg2_253_cif.got.tgz:505216.got - 2010.06.27 13:26:56.
