data_PCOD8015652
_publ_section_title
;
Structure prediction by ZEFSAII (Michael W. Deem and Ramdas Pophale) SiO2 
 PCOD8015652
Probable space group: P -1
;
_chemical_formula_sum "Si O2"
_cell_formula_units_Z 12
_cell_length_a 9.348366
_cell_length_b 7.494230
_cell_length_c 8.726337
_cell_angle_alpha 51.031792
_cell_angle_beta 107.017232
_cell_angle_gamma 91.315942
_cell_volume 443.718351
_symmetry_space_group_name_H-M "P -1"
_symmetry_group_IT_number 2
_symmetry_cell_setting 'triclinic'
loop_
_space_group_symop_operation_xyz
x,y,z
-x,-y,-z
loop_
_atom_site_type_symbol
_atom_site_label
_atom_site_fract_x
_atom_site_fract_y
_atom_site_fract_z
Si Si1 0.787232 0.462847 0.811034
Si Si2 0.520706 0.559965 0.149313
Si Si3 0.234052 0.402634 0.588392
Si Si4 0.744139 0.970936 0.623071
Si Si5 0.961760 0.968807 0.179050
Si Si6 0.531726 0.996546 0.265988
O O1 0.602067 0.521356 0.736499
O O2 0.844635 0.428328 0.667302
O O3 0.829214 0.696668 0.769215
O O4 0.857654 0.224940 0.055995
O O5 0.692873 0.462183 0.326623
O O6 0.500000 0.500000 0.000000
O O7 0.489677 0.843025 0.979325
O O8 0.123202 0.243589 0.704140
O O9 0.383182 0.257437 0.625074
O O10 0.636970 0.000339 0.723539
O O11 0.885841 0.095656 0.633207
O O12 0.637885 0.085730 0.383867
O O13 0.000000 0.000000 0.000000
#
# Coordination Sequence:
#
# PCOD8015652 Si02
#       6
#     2   2   2   2   2   2
#     4  11  25  45  70 104 138 183 226 285 338 409
#     4  12  23  42  72 105 137 178 233 287 337 404
#     4  11  26  46  72 103 137 182 230 282 345 402
#     4  10  23  44  68 107 138 175 230 282 343 403
#     4  12  27  45  70  99 143 185 226 282 342 412
#     4  10  21  42  74 101 133 178 230 281 336 406
#
# _framework density 27.044180999999998
#
# number of rings (size 3 to 8) (size 9 to 14) (size 15 to 20)
#    0.000    1.000    3.333    2.500    2.333    4.667 
#    3.000    0.000    0.000    0.000    0.000    0.000 
#    0.000    0.000    0.000    0.000    0.000    0.000 
#
# Total GULP energy -148748.648074 kJ/mol
# GULP energy per Si atom -12395.720673 kJ/mol
# Density = 2.698263 g / cm^3
# Si number density = 27.044181 Si / 1000 Ang^3
#
#
#
# Elastic Constant Matrix: (Units=GPa)
#
#
# Indices 1 2 3 4 5 6 
#
# 1 135.3743 44.1585 46.7457 18.5536 1.2380 31.8838
# 2 44.1585 54.7201 -0.4661 32.8332 4.0198 20.3682
# 3 46.7457 -0.4661 114.4021 0.7827 -1.4464 4.9743
# 4 18.5536 32.8332 0.7827 27.6109 2.5596 7.3006
# 5 1.2380 4.0198 -1.4464 2.5596 46.9902 6.3679
# 6 31.8838 20.3682 4.9743 7.3006 6.3679 42.5992
#
#
#
# Elastic Compliance Matrix: (Units=1/GPa)
#
#
# Indices 1 2 3 4 5 6 
#
# 1 0.014440 -0.018093 -0.005887 0.012910 0.000798 -0.003801
# 2 -0.018093 0.104369 0.009387 -0.107184 0.000268 -0.019127
# 3 -0.005887 0.009387 0.011243 -0.007503 0.000124 -0.000127
# 4 0.012910 -0.107184 -0.007503 0.150925 -0.001911 0.016882
# 5 0.000798 0.000268 0.000124 -0.001911 0.021843 -0.003678
# 6 -0.003801 -0.019127 -0.000127 0.016882 -0.003678 0.033137
#
#
# Mechanical properties :
#
#
# Convention : Reuss Voigt Hill
#
# Bulk Modulus (GPa) = 9.91426 53.93031 31.92229
# Shear Modulus (GPa) = 12.53865 37.71063 25.12464
#
# Velocity S-wave (km/s) = 2.15556 3.73823 3.05129
# Velocity P-wave (km/s) = 3.14152 6.21428 4.92374
#
# Compressibility (1/GPa) = 0.10086480
#
# Stress axis : x y z
#
# Youngs Moduli (GPa) = 69.25017 9.58141 88.94174
#
# Poissons Ratio (x) = 0.17336 0.52361
# Poissons Ratio (y) = 1.25297 -0.83487
# Poissons Ratio (z) = 0.40769 -0.08994
#
# Static dielectric constant tensor:
#      x y z
#    x 4.726320 -0.077720 0.065900 
#    y -0.077720 5.396850 -0.445410 
#    z 0.065900 -0.445410 6.539100 
# 
# 
# High freq. dielectric constant tensor:
#      x y z
#    x 2.076610 -0.007510 0.006870 
#    y -0.007510 2.103780 -0.016080 
#    z 0.006870 -0.016080 2.106330 
# 
# From -- ./inp_files/151829.got.cif
#   From: 2010.06.25/outbox.cif.g09.slc.cpg/sg2_76_cif.got.tgz:151829.got - 2010.06.27 13:26:56.
