data_PCOD8015451
_publ_section_title
;
Structure prediction by ZEFSAII (Michael W. Deem and Ramdas Pophale) SiO2 
 PCOD8015451
Probable space group: P -1
;
_chemical_formula_sum "Si O2"
_cell_formula_units_Z 16
_cell_length_a 21.030085
_cell_length_b 9.512148
_cell_length_c 6.588631
_cell_angle_alpha 59.885390
_cell_angle_beta 138.314484
_cell_angle_gamma 123.542573
_cell_volume 721.065335
_symmetry_space_group_name_H-M "P -1"
_symmetry_group_IT_number 2
_symmetry_cell_setting 'triclinic'
loop_
_space_group_symop_operation_xyz
x,y,z
-x,-y,-z
loop_
_atom_site_type_symbol
_atom_site_label
_atom_site_fract_x
_atom_site_fract_y
_atom_site_fract_z
Si Si1 0.693215 0.914046 0.524514
Si Si2 0.029155 0.904185 0.331886
Si Si3 0.239699 0.565094 0.580519
Si Si4 0.927635 0.770758 0.578360
Si Si5 0.117959 0.785322 0.286640
Si Si6 0.397812 0.408719 0.205322
Si Si7 0.381319 0.869921 0.522486
Si Si8 0.413837 0.165404 0.075121
O O1 0.678046 0.746074 0.742129
O O2 0.809219 0.027251 0.737281
O O3 0.622188 0.024489 0.355530
O O4 0.668834 0.853429 0.280422
O O5 0.088223 0.786511 0.453616
O O6 0.942243 0.781885 0.359040
O O7 0.093625 0.055703 0.523517
O O8 0.000000 0.000000 0.000000
O O9 0.169551 0.381591 0.472032
O O10 0.173255 0.641390 0.516068
O O11 0.282608 0.700741 0.401829
O O12 0.339298 0.547549 0.939849
O O13 0.024736 0.742609 0.939706
O O14 0.500000 0.500000 0.500000
O O15 0.423471 0.334064 0.108004
O O16 0.479660 0.809722 0.797102
O O17 0.378005 0.988230 0.239293
#
# Coordination Sequence:
#
# PCOD8015451 Si02
#       8
#     2   2   2   2   2   2   2   2
#     4  10  22  39  66  92 129 171 221 261 327 397
#     4   9  21  40  66  93 128 171 217 258 323 391
#     4  11  24  41  67  96 136 172 210 278 330 373
#     4  10  22  42  68  93 136 166 212 275 320 381
#     4  10  23  42  64  99 128 172 219 263 319 393
#     4  11  26  43  61  96 136 169 218 278 329 386
#     4   9  21  41  64  96 125 166 228 268 328 384
#     4  10  21  42  69  88 125 181 216 269 326 396
#
# _framework density 22.189391000000001
#
# number of rings (size 3 to 8) (size 9 to 14) (size 15 to 20)
#    0.000    2.000    0.000    1.500    7.000    9.500 
#    0.000    6.250    0.000    0.000    0.000    0.000 
#    0.000    0.000    0.000    0.000    0.000    0.000 
#
# Total GULP energy -198314.601191 kJ/mol
# GULP energy per Si atom -12394.662574 kJ/mol
# Density = 2.213889 g / cm^3
# Si number density = 22.189391 Si / 1000 Ang^3
#
#
#
# Elastic Constant Matrix: (Units=GPa)
#
#
# Indices 1 2 3 4 5 6 
#
# 1 105.3616 41.5121 45.4146 6.7034 -4.9699 -1.2017
# 2 41.5121 97.6951 20.0005 3.2767 -3.8648 15.9752
# 3 45.4146 20.0005 76.3911 8.5243 3.0924 -11.7454
# 4 6.7034 3.2767 8.5243 28.6134 -5.3650 4.8362
# 5 -4.9699 -3.8648 3.0924 -5.3650 34.8513 -3.7343
# 6 -1.2017 15.9752 -11.7454 4.8362 -3.7343 41.5862
#
#
#
# Elastic Compliance Matrix: (Units=1/GPa)
#
#
# Indices 1 2 3 4 5 6 
#
# 1 0.014699 -0.004660 -0.007525 -0.000304 0.002235 0.000326
# 2 -0.004660 0.013549 -0.001848 0.001200 0.000549 -0.005952
# 3 -0.007525 -0.001848 0.019796 -0.005614 -0.003208 0.006448
# 4 -0.000304 0.001200 -0.005614 0.038679 0.005897 -0.006024
# 5 0.002235 0.000549 -0.003208 0.005897 0.030371 0.000989
# 6 0.000326 -0.005952 0.006448 -0.006024 0.000989 0.028953
#
#
# Mechanical properties :
#
#
# Convention : Reuss Voigt Hill
#
# Bulk Modulus (GPa) = 50.05596 54.81137 52.43367
# Shear Modulus (GPa) = 27.65898 32.51155 30.08526
#
# Velocity S-wave (km/s) = 3.53440 3.83193 3.68617
# Velocity P-wave (km/s) = 6.26606 6.65834 6.46517
#
# Compressibility (1/GPa) = 0.01997764
#
# Stress axis : x y z
#
# Youngs Moduli (GPa) = 68.03071 73.80562 50.51536
#
# Poissons Ratio (x) = 0.34393 0.38014
# Poissons Ratio (y) = 0.31702 0.09336
# Poissons Ratio (z) = 0.51194 0.13641
#
# Static dielectric constant tensor:
#      x y z
#    x 4.529900 -0.139660 -0.075350 
#    y -0.139660 4.151200 -0.090430 
#    z -0.075350 -0.090430 3.641140 
# 
# 
# High freq. dielectric constant tensor:
#      x y z
#    x 1.887750 0.002590 0.000150 
#    y 0.002590 1.876400 -0.010030 
#    z 0.000150 -0.010030 1.848960 
# 
# From -- ./inp_files/116771.got.cif
#   From: 2010.06.25/outbox.cif.g09.slc.cpg/sg2_59_cif.got.tgz:116771.got - 2010.06.27 13:26:56.
