data_PCOD8015113
_publ_section_title
;
Structure prediction by ZEFSAII (Michael W. Deem and Ramdas Pophale) SiO2 
 PCOD8015113
Probable space group: P -1
;
_chemical_formula_sum "Si O2"
_cell_formula_units_Z 14
_cell_length_a 10.815201
_cell_length_b 10.961580
_cell_length_c 10.611166
_cell_angle_alpha 133.331537
_cell_angle_beta 140.058452
_cell_angle_gamma 67.362367
_cell_volume 559.956679
_symmetry_space_group_name_H-M "P -1"
_symmetry_group_IT_number 2
_symmetry_cell_setting 'triclinic'
loop_
_space_group_symop_operation_xyz
x,y,z
-x,-y,-z
loop_
_atom_site_type_symbol
_atom_site_label
_atom_site_fract_x
_atom_site_fract_y
_atom_site_fract_z
Si Si1 0.745061 0.031994 0.333947
Si Si2 0.911317 0.443399 0.026648
Si Si3 0.258572 0.911544 0.238836
Si Si4 0.706368 0.565440 0.553267
Si Si5 0.565558 0.777410 0.797250
Si Si6 0.053021 0.206679 0.300252
Si Si7 0.130144 0.251767 0.668889
O O1 0.724675 0.875658 0.311661
O O2 0.606099 0.151620 0.349911
O O3 0.700531 0.940937 0.097055
O O4 0.968013 0.164168 0.589033
O O5 0.768638 0.555450 0.051761
O O6 0.103789 0.495633 0.304308
O O7 0.787882 0.237912 0.794915
O O8 0.000000 0.500000 0.000000
O O9 0.500000 0.000000 0.500000
O O10 0.121614 0.034047 0.250502
O O11 0.162466 0.828350 0.967729
O O12 0.687116 0.723949 0.740670
O O13 0.514283 0.392195 0.292459
O O14 0.755829 0.647570 0.511302
O O15 0.033286 0.273653 0.473574
#
# Coordination Sequence:
#
# PCOD8015113 Si02
#       7
#     2   2   2   2   2   2   2
#     4  10  23  40  66  99 134 181 224 291 345 406
#     4  11  24  44  72 100 136 186 234 289 351 414
#     4  10  25  47  71 102 139 191 232 285 349 428
#     4  10  22  41  68  98 136 181 224 288 346 414
#     4  10  21  42  66 101 136 174 237 287 341 413
#     4  10  25  45  69 101 144 182 232 285 355 418
#     4  11  24  44  66  99 139 181 230 287 350 419
#
# _framework density 25.001933000000001
#
# number of rings (size 3 to 8) (size 9 to 14) (size 15 to 20)
#    0.000    1.714    1.429    0.857   10.000    6.857 
#    2.571    1.429    0.000    0.000    0.000    0.000 
#    0.000    0.000    0.000    0.000    0.000    0.000 
#
# Total GULP energy -173434.541131 kJ/mol
# GULP energy per Si atom -12388.181509 kJ/mol
# Density = 2.494503 g / cm^3
# Si number density = 25.001933 Si / 1000 Ang^3
#
#
#
# Elastic Constant Matrix: (Units=GPa)
#
#
# Indices 1 2 3 4 5 6 
#
# 1 88.2802 53.9476 30.8321 2.9583 -2.2232 23.5624
# 2 53.9476 144.5002 39.8221 13.7293 -1.1775 16.1898
# 3 30.8321 39.8221 55.1896 5.3681 6.3000 9.5356
# 4 2.9583 13.7293 5.3681 40.4220 1.3457 2.8728
# 5 -2.2232 -1.1775 6.3000 1.3457 38.0489 -1.3727
# 6 23.5624 16.1898 9.5356 2.8728 -1.3727 43.1255
#
#
#
# Elastic Compliance Matrix: (Units=1/GPa)
#
#
# Indices 1 2 3 4 5 6 
#
# 1 0.017928 -0.004398 -0.005976 0.001410 0.001603 -0.006866
# 2 -0.004398 0.010115 -0.004673 -0.002512 0.000913 -0.000165
# 3 -0.005976 -0.004673 0.025605 -0.001168 -0.004718 -0.000715
# 4 0.001410 -0.002512 -0.001168 0.025762 -0.000760 -0.001309
# 5 0.001603 0.000913 -0.004718 -0.000760 0.027239 0.000742
# 6 -0.006866 -0.000165 -0.000715 -0.001309 0.000742 0.027270
#
#
# Mechanical properties :
#
#
# Convention : Reuss Voigt Hill
#
# Bulk Modulus (GPa) = 42.45529 59.68595 51.07062
# Shear Modulus (GPa) = 29.09281 35.21048 32.15165
#
# Velocity S-wave (km/s) = 3.41489 3.75682 3.58993
# Velocity P-wave (km/s) = 5.70669 6.53778 6.13632
#
# Compressibility (1/GPa) = 0.02355419
#
# Stress axis : x y z
#
# Youngs Moduli (GPa) = 55.77893 98.86726 39.05460
#
# Poissons Ratio (x) = 0.43481 0.23340
# Poissons Ratio (y) = 0.24531 0.18249
# Poissons Ratio (z) = 0.33334 0.46197
#
# Static dielectric constant tensor:
#      x y z
#    x 4.832960 2.048400 0.752600 
#    y 2.048400 10.453370 2.046790 
#    z 0.752600 2.046790 5.151410 
# 
# 
# High freq. dielectric constant tensor:
#      x y z
#    x 1.966400 0.003500 -0.007410 
#    y 0.003500 2.022780 0.010130 
#    z -0.007410 0.010130 1.987770 
# 
# From -- ./inp_files/427091.got.cif
#   From: 2010.06.25/outbox.cif.g09.slc.cpg/sg2_214_cif.got.tgz:427091.got - 2010.06.27 13:26:56.
