data_PCOD8015164
_publ_section_title
;
Structure prediction by ZEFSAII (Michael W. Deem and Ramdas Pophale) SiO2 
 PCOD8015164
Probable space group: P -1
;
_chemical_formula_sum "Si O2"
_cell_formula_units_Z 14
_cell_length_a 8.940727
_cell_length_b 22.371440
_cell_length_c 8.821305
_cell_angle_alpha 153.954351
_cell_angle_beta 49.232695
_cell_angle_gamma 129.485028
_cell_volume 580.297635
_symmetry_space_group_name_H-M "P -1"
_symmetry_group_IT_number 2
_symmetry_cell_setting 'triclinic'
loop_
_space_group_symop_operation_xyz
x,y,z
-x,-y,-z
loop_
_atom_site_type_symbol
_atom_site_label
_atom_site_fract_x
_atom_site_fract_y
_atom_site_fract_z
Si Si1 0.618944 0.055993 0.257140
Si Si2 0.804372 0.927505 0.554071
Si Si3 0.414015 0.533267 0.473296
Si Si4 0.954041 0.282133 0.541529
Si Si5 0.353060 0.212006 0.224901
Si Si6 0.702569 0.644224 0.103956
Si Si7 0.973419 0.480191 0.726609
O O1 0.396213 0.084366 0.439807
O O2 0.749439 0.197448 0.548566
O O3 0.753693 0.013584 0.931003
O O4 0.599735 0.942380 0.143424
O O5 0.840287 0.771763 0.217276
O O6 0.000000 0.000000 0.500000
O O7 0.500000 0.500000 0.500000
O O8 0.484182 0.695201 0.773836
O O9 0.178066 0.493238 0.530159
O O10 0.474324 0.433498 0.068287
O O11 0.138486 0.197773 0.251887
O O12 0.926706 0.328168 0.488696
O O13 0.011819 0.414947 0.906731
O O14 0.384405 0.283697 0.532109
O O15 0.814695 0.518782 0.799019
#
# Coordination Sequence:
#
# PCOD8015164 Si02
#       7
#     2   2   2   2   2   2   2
#     4  10  23  42  67  92 132 181 213 270 338 386
#     4  10  24  41  64  98 131 171 228 271 322 397
#     4  12  24  39  65 101 131 164 225 275 326 383
#     4  10  21  42  66  92 135 170 216 272 334 387
#     4  10  22  43  65  96 131 173 217 267 333 401
#     4  10  24  42  65  92 133 176 210 272 335 391
#     4  10  23  40  64  98 130 172 216 271 326 397
#
# _framework density 24.125551000000002
#
# number of rings (size 3 to 8) (size 9 to 14) (size 15 to 20)
#    0.000    1.714    1.429    1.286    6.000    3.429 
#    0.000    0.714    0.000    0.000    0.000    0.000 
#    0.000    0.000    0.000    0.000    0.000    0.000 
#
# Total GULP energy -173470.386008 kJ/mol
# GULP energy per Si atom -12390.741858 kJ/mol
# Density = 2.407064 g / cm^3
# Si number density = 24.125551 Si / 1000 Ang^3
#
#
#
# Elastic Constant Matrix: (Units=GPa)
#
#
# Indices 1 2 3 4 5 6 
#
# 1 125.3662 55.5805 50.6314 19.1672 6.9791 -18.4084
# 2 55.5805 167.7085 12.9902 36.6455 -16.6682 -6.6251
# 3 50.6314 12.9902 -43.3796 3.0004 -48.6696 -11.3148
# 4 19.1672 36.6455 3.0004 40.3586 -5.0288 -6.9426
# 5 6.9791 -16.6682 -48.6696 -5.0288 4.9131 7.8028
# 6 -18.4084 -6.6251 -11.3148 -6.9426 7.8028 44.1806
#
#
#
# Elastic Compliance Matrix: (Units=1/GPa)
#
#
# Indices 1 2 3 4 5 6 
#
# 1 0.008065 -0.002097 0.002896 -0.001093 0.004527 0.002817
# 2 -0.002097 0.008436 -0.002556 -0.006474 0.002343 -0.001695
# 3 0.002896 -0.002556 0.000083 -0.000754 -0.019298 0.004135
# 4 -0.001093 -0.006474 -0.000754 0.031709 -0.001063 0.003552
# 5 0.004527 0.002343 -0.019298 -0.001063 0.024128 -0.007133
# 6 0.002817 -0.001695 0.004135 0.003552 -0.007133 0.026431
#
#
# Mechanical properties :
#
#
# Convention : Reuss Voigt Hill
#
# Bulk Modulus (GPa) = 76.50771 54.23326 65.37049
# Shear Modulus (GPa) = 46.84960 26.58999 36.71979
#
# Velocity S-wave (km/s) = 4.41149 3.32347 3.90555
# Velocity P-wave (km/s) = 7.59799 6.10374 6.89148
#
# Compressibility (1/GPa) = 0.01307058
#
# Stress axis : x y z
#
# Youngs Moduli (GPa) = 123.98684 118.53601 11981.59709
#
# Poissons Ratio (x) = 0.24861 -34.70229
# Poissons Ratio (y) = 0.26004 30.62784
# Poissons Ratio (z) = -0.35910 0.30301
#
# Static dielectric constant tensor:
#      x y z
#    x 5.194120 0.159230 -0.521880 
#    y 0.159230 4.887670 -0.023960 
#    z -0.521880 -0.023960 4.555750 
# 
# 
# High freq. dielectric constant tensor:
#      x y z
#    x 1.957920 -0.015090 0.002400 
#    y -0.015090 1.969820 0.018000 
#    z 0.002400 0.018000 1.942090 
# 
# From -- ./inp_files/190486.got.cif
#   From: 2010.06.25/outbox.cif.g09.slc.cpg/sg2_96_cif.got.tgz:190486.got - 2010.06.27 13:26:56.
