data_PCOD8015706
_publ_section_title
;
Structure prediction by ZEFSAII (Michael W. Deem and Ramdas Pophale) SiO2 
 PCOD8015706
Probable space group: P -1
;
_chemical_formula_sum "Si O2"
_cell_formula_units_Z 16
_cell_length_a 12.040825
_cell_length_b 9.539624
_cell_length_c 8.539858
_cell_angle_alpha 85.282051
_cell_angle_beta 98.942853
_cell_angle_gamma 51.740893
_cell_volume 740.458821
_symmetry_space_group_name_H-M "P -1"
_symmetry_group_IT_number 2
_symmetry_cell_setting 'triclinic'
loop_
_space_group_symop_operation_xyz
x,y,z
-x,-y,-z
loop_
_atom_site_type_symbol
_atom_site_label
_atom_site_fract_x
_atom_site_fract_y
_atom_site_fract_z
Si Si1 0.372135 0.668615 0.164992
Si Si2 0.941062 0.635005 0.329501
Si Si3 0.693163 0.346255 0.204269
Si Si4 0.285271 0.967969 0.629631
Si Si5 0.906642 0.396849 0.134966
Si Si6 0.202530 0.549263 0.238230
Si Si7 0.760474 0.954953 0.754094
Si Si8 0.577987 0.852905 0.666585
O O1 0.547039 0.515775 0.249032
O O2 0.280710 0.637261 0.260274
O O3 0.309131 0.872047 0.166648
O O4 0.342901 0.656664 0.981444
O O5 0.910523 0.551016 0.189982
O O6 0.000000 0.500000 0.500000
O O7 0.054252 0.664192 0.294768
O O8 0.800000 0.836674 0.325496
O O9 0.758943 0.151886 0.313059
O O10 0.817532 0.367211 0.238195
O O11 0.453807 0.862895 0.729189
O O12 0.261905 0.990987 0.437164
O O13 0.068038 0.203706 0.159505
O O14 0.822800 0.472553 0.945785
O O15 0.307344 0.350019 0.360397
O O16 0.669961 0.887943 0.789509
O O17 0.500000 0.000000 0.500000
#
# Coordination Sequence:
#
# PCOD8015706 Si02
#       8
#     2   2   2   2   2   2   2   2
#     4  10  24  44  66  92 129 171 215 261 321 377
#     4  12  24  43  65  97 132 168 209 269 320 379
#     4  10  24  44  63  96 131 164 216 269 312 383
#     4  11  24  42  65  94 129 171 212 265 322 373
#     4  11  25  42  65  99 132 165 216 263 323 383
#     4  11  23  44  69  90 129 175 212 263 321 384
#     4  11  24  42  64  97 129 169 214 264 316 387
#     4  10  21  43  63  91 129 164 217 262 312 381
#
# _framework density 21.608225000000001
#
# number of rings (size 3 to 8) (size 9 to 14) (size 15 to 20)
#    0.000    1.250    3.750    1.125    5.250    3.000 
#    0.000    1.250    0.000    0.000    0.000    0.000 
#    0.000    0.000    0.000    0.000    0.000    0.000 
#
# Total GULP energy -198385.918612 kJ/mol
# GULP energy per Si atom -12399.119913 kJ/mol
# Density = 2.155904 g / cm^3
# Si number density = 21.608225 Si / 1000 Ang^3
#
#
#
# Elastic Constant Matrix: (Units=GPa)
#
#
# Indices 1 2 3 4 5 6 
#
# 1 135.2302 25.8381 2.8918 2.4746 -5.6532 -10.0650
# 2 25.8381 106.4501 -0.9129 3.1836 11.4536 -9.7268
# 3 2.8918 -0.9129 29.5073 -7.3856 -5.1720 -7.9467
# 4 2.4746 3.1836 -7.3856 32.1366 0.5576 -2.8941
# 5 -5.6532 11.4536 -5.1720 0.5576 25.9943 -7.0223
# 6 -10.0650 -9.7268 -7.9467 -2.8941 -7.0223 28.4222
#
#
#
# Elastic Compliance Matrix: (Units=1/GPa)
#
#
# Indices 1 2 3 4 5 6 
#
# 1 0.008178 -0.002078 0.000659 -0.000041 0.003713 0.003282
# 2 -0.002078 0.010570 0.000002 -0.000656 -0.004644 0.001668
# 3 0.000659 0.000002 0.043433 0.011212 0.013068 0.016748
# 4 -0.000041 -0.000656 0.011212 0.034356 0.003752 0.007321
# 5 0.003713 -0.004644 0.013068 0.003752 0.048068 0.015637
# 6 0.003282 0.001668 0.016748 0.007321 0.015637 0.046208
#
#
# Mechanical properties :
#
#
# Convention : Reuss Voigt Hill
#
# Bulk Modulus (GPa) = 16.85043 36.31349 26.58196
# Shear Modulus (GPa) = 23.42685 33.53533 28.48109
#
# Velocity S-wave (km/s) = 3.29624 3.94378 3.63446
# Velocity P-wave (km/s) = 4.72250 6.13023 5.47182
#
# Compressibility (1/GPa) = 0.05934568
#
# Stress axis : x y z
#
# Youngs Moduli (GPa) = 122.28030 94.60640 23.02411
#
# Poissons Ratio (x) = 0.19656 -0.01516
# Poissons Ratio (y) = 0.25406 -0.00004
# Poissons Ratio (z) = -0.08053 -0.00014
#
# Static dielectric constant tensor:
#      x y z
#    x 4.714250 -0.036400 -0.018340 
#    y -0.036400 3.873720 -0.113280 
#    z -0.018340 -0.113280 3.644170 
# 
# 
# High freq. dielectric constant tensor:
#      x y z
#    x 1.871380 -0.000750 -0.003330 
#    y -0.000750 1.855030 -0.012340 
#    z -0.003330 -0.012340 1.828300 
# 
# From -- ./inp_files/184107.got.cif
#   From: 2010.06.25/outbox.cif.g09.slc.cpg/sg2_93_cif.got.tgz:184107.got - 2010.06.27 13:26:56.
