data_PCOD8015258
_publ_section_title
;
Structure prediction by ZEFSAII (Michael W. Deem and Ramdas Pophale) SiO2 
 PCOD8015258
Probable space group: P -1
;
_chemical_formula_sum "Si O2"
_cell_formula_units_Z 14
_cell_length_a 12.454837
_cell_length_b 25.403662
_cell_length_c 8.908862
_cell_angle_alpha 141.725916
_cell_angle_beta 123.411450
_cell_angle_gamma 27.228766
_cell_volume 682.303434
_symmetry_space_group_name_H-M "P -1"
_symmetry_group_IT_number 2
_symmetry_cell_setting 'triclinic'
loop_
_space_group_symop_operation_xyz
x,y,z
-x,-y,-z
loop_
_atom_site_type_symbol
_atom_site_label
_atom_site_fract_x
_atom_site_fract_y
_atom_site_fract_z
Si Si1 0.477731 0.855734 0.782000
Si Si2 0.552774 0.611830 0.811722
Si Si3 0.113274 0.735065 0.822682
Si Si4 0.636644 0.476304 0.176328
Si Si5 0.061404 0.372827 0.187928
Si Si6 0.680803 0.193987 0.214881
Si Si7 0.830134 0.560085 0.140438
O O1 0.647356 0.821569 0.946059
O O2 0.412733 0.810366 0.729527
O O3 0.649166 0.730805 0.484257
O O4 0.209864 0.062646 0.989237
O O5 0.272532 0.721329 0.843351
O O6 0.808376 0.400964 0.496560
O O7 0.498422 0.716693 0.876870
O O8 0.617497 0.616529 0.032164
O O9 0.195609 0.684599 0.947419
O O10 0.379512 0.671787 0.496315
O O11 0.836842 0.433184 0.180369
O O12 0.500000 0.500000 0.000000
O O13 0.000000 0.500000 0.500000
O O14 0.059047 0.383217 0.028713
O O15 0.000000 0.000000 0.000000
O O16 0.000000 0.500000 0.000000
#
# Coordination Sequence:
#
# PCOD8015258 Si02
#       7
#     2   2   2   2   2   2   2
#     4  11  23  42  66  95 125 172 221 258 315 393
#     4  10  22  41  63  95 130 164 210 266 326 372
#     4  10  23  39  65  94 131 166 208 268 325 379
#     4  11  23  41  67  96 132 169 213 266 326 375
#     4  10  21  42  67  90 127 174 214 259 321 385
#     4  11  21  40  68  95 128 171 214 260 321 389
#     4  11  23  39  67  91 124 165 219 266 310 375
#
# _framework density 20.518729
#
# number of rings (size 3 to 8) (size 9 to 14) (size 15 to 20)
#    0.000    1.429    4.286    1.714    6.000    2.286 
#    0.000    0.714    0.000    0.000    0.000    0.000 
#    0.000    0.000    0.000    0.000    0.000    0.000 
#
# Total GULP energy -173463.464043 kJ/mol
# GULP energy per Si atom -12390.247432 kJ/mol
# Density = 2.047203 g / cm^3
# Si number density = 20.518729 Si / 1000 Ang^3
#
#
#
# Elastic Constant Matrix: (Units=GPa)
#
#
# Indices 1 2 3 4 5 6 
#
# 1 103.2170 47.5517 40.7157 2.0517 -14.7824 5.9581
# 2 47.5517 198.8057 90.0155 1.7214 -5.6788 6.8855
# 3 40.7157 90.0155 83.7506 10.6711 -15.5025 0.1182
# 4 2.0517 1.7214 10.6711 44.8173 -0.8876 -1.2979
# 5 -14.7824 -5.6788 -15.5025 -0.8876 29.1167 -3.4326
# 6 5.9581 6.8855 0.1182 -1.2979 -3.4326 40.0344
#
#
#
# Elastic Compliance Matrix: (Units=1/GPa)
#
#
# Indices 1 2 3 4 5 6 
#
# 1 0.012446 -0.000690 -0.004735 0.000613 0.003517 -0.001398
# 2 -0.000690 0.010736 -0.012444 0.002422 -0.005051 -0.002062
# 3 -0.004735 -0.012444 0.030569 -0.006250 0.011673 0.003553
# 4 0.000613 0.002422 -0.006250 0.023648 -0.001808 0.000122
# 5 0.003517 -0.005051 0.011673 -0.001808 0.041757 0.003833
# 6 -0.001398 -0.002062 0.003553 0.000122 0.003833 0.025863
#
#
# Mechanical properties :
#
#
# Convention : Reuss Voigt Hill
#
# Bulk Modulus (GPa) = 55.51250 82.48213 68.99732
# Shear Modulus (GPa) = 26.77242 36.62636 31.69939
#
# Velocity S-wave (km/s) = 3.61609 4.22953 3.93479
# Velocity P-wave (km/s) = 6.67444 8.00860 7.37176
#
# Compressibility (1/GPa) = 0.01801396
#
# Stress axis : x y z
#
# Youngs Moduli (GPa) = 80.34776 93.14806 32.71292
#
# Poissons Ratio (x) = 0.06424 0.15488
# Poissons Ratio (y) = 0.05541 0.40708
# Poissons Ratio (z) = 0.38041 1.15915
#
# Static dielectric constant tensor:
#      x y z
#    x 3.588550 0.221140 -0.177000 
#    y 0.221140 4.284300 0.063470 
#    z -0.177000 0.063470 3.615220 
# 
# 
# High freq. dielectric constant tensor:
#      x y z
#    x 1.809040 0.009650 -0.008860 
#    y 0.009650 1.826700 -0.001360 
#    z -0.008860 -0.001360 1.770310 
# 
# From -- ./inp_files/182769.got.cif
#   From: 2010.06.25/outbox.cif.g09.slc.cpg/sg2_92_cif.got.tgz:182769.got - 2010.06.27 13:26:56.
