data_PCOD8015438
_publ_section_title
;
Structure prediction by ZEFSAII (Michael W. Deem and Ramdas Pophale) SiO2 
 PCOD8015438
Probable space group: P -1
;
_chemical_formula_sum "Si O2"
_cell_formula_units_Z 16
_cell_length_a 10.828419
_cell_length_b 11.666888
_cell_length_c 11.362763
_cell_angle_alpha 71.274272
_cell_angle_beta 101.247513
_cell_angle_gamma 42.653662
_cell_volume 682.247679
_symmetry_space_group_name_H-M "P -1"
_symmetry_group_IT_number 2
_symmetry_cell_setting 'triclinic'
loop_
_space_group_symop_operation_xyz
x,y,z
-x,-y,-z
loop_
_atom_site_type_symbol
_atom_site_label
_atom_site_fract_x
_atom_site_fract_y
_atom_site_fract_z
Si Si1 0.144689 0.949968 0.637935
Si Si2 0.942209 0.055295 0.817192
Si Si3 0.355549 0.548358 0.056258
Si Si4 0.007236 0.325382 0.543655
Si Si5 0.460336 0.042079 0.617145
Si Si6 0.188500 0.443008 0.098412
Si Si7 0.057962 0.219140 0.854404
Si Si8 0.433520 0.836345 0.243122
O O1 0.430308 0.685564 0.746424
O O2 0.090487 0.135247 0.557259
O O3 0.000000 0.000000 0.500000
O O4 0.047116 0.975035 0.732834
O O5 0.687706 0.191602 0.733084
O O6 0.915381 0.209567 0.816318
O O7 0.161089 0.795552 0.008241
O O8 0.206896 0.549167 0.984669
O O9 0.500000 0.500000 0.000000
O O10 0.173059 0.293812 0.522342
O O11 0.084097 0.257391 0.718226
O O12 0.724206 0.576800 0.373740
O O13 0.615242 0.025582 0.707448
O O14 0.500000 0.000000 0.500000
O O15 0.551031 0.840388 0.755803
O O16 0.112623 0.550256 0.179288
O O17 0.000000 0.500000 0.000000
O O18 0.318661 0.980355 0.050190
#
# Coordination Sequence:
#
# PCOD8015438 Si02
#       8
#     2   2   2   2   2   2   2   2
#     4  10  23  39  66 103 141 189 236 300 368 432
#     4  10  23  43  68 107 142 189 244 296 366 442
#     4  10  21  42  69 101 148 182 241 308 355 433
#     4  11  27  48  68 109 144 191 245 305 369 439
#     4  12  27  50  73 103 147 192 249 307 367 449
#     4  12  23  46  74 105 141 195 248 299 372 441
#     4  11  25  46  75 106 149 189 246 304 367 444
#     4  12  25  46  74 104 147 194 242 300 374 436
#
# _framework density 23.451892999999998
#
# number of rings (size 3 to 8) (size 9 to 14) (size 15 to 20)
#    0.000    1.000    3.750    1.500    3.500    3.500 
#    2.250    0.000    0.000    0.000    0.000    0.000 
#    0.000    0.000    0.000    0.000    0.000    0.000 
#
# Total GULP energy -198220.686535 kJ/mol
# GULP energy per Si atom -12388.792908 kJ/mol
# Density = 2.339852 g / cm^3
# Si number density = 23.451893 Si / 1000 Ang^3
#
#
#
# Elastic Constant Matrix: (Units=GPa)
#
#
# Indices 1 2 3 4 5 6 
#
# 1 140.8810 37.1691 27.6964 10.5442 20.9734 -2.6213
# 2 37.1691 95.7500 32.5626 6.7808 21.4094 5.9209
# 3 27.6964 32.5626 107.0540 -1.0129 20.2802 -6.6378
# 4 10.5442 6.7808 -1.0129 51.1845 0.5138 2.2776
# 5 20.9734 21.4094 20.2802 0.5138 33.6584 0.3612
# 6 -2.6213 5.9209 -6.6378 2.2776 0.3612 47.3543
#
#
#
# Elastic Compliance Matrix: (Units=1/GPa)
#
#
# Indices 1 2 3 4 5 6 
#
# 1 0.008466 -0.002185 -0.000860 -0.001470 -0.003353 0.000718
# 2 -0.002185 0.013692 -0.002661 -0.001266 -0.005702 -0.002102
# 3 -0.000860 -0.002661 0.011379 0.000718 -0.004659 0.001881
# 4 -0.001470 -0.001266 0.000718 0.020047 0.000991 -0.000794
# 5 -0.003353 -0.005702 -0.004659 0.000991 0.038223 -0.000465
# 6 0.000718 -0.002102 0.001881 -0.000794 -0.000465 0.021725
#
#
# Mechanical properties :
#
#
# Convention : Reuss Voigt Hill
#
# Bulk Modulus (GPa) = 45.19843 59.83793 52.51818
# Shear Modulus (GPa) = 37.78721 42.85654 40.32187
#
# Velocity S-wave (km/s) = 4.01841 4.27948 4.15100
# Velocity P-wave (km/s) = 6.39100 7.07030 6.73921
#
# Compressibility (1/GPa) = 0.02212466
#
# Stress axis : x y z
#
# Youngs Moduli (GPa) = 118.11725 73.03769 87.88055
#
# Poissons Ratio (x) = 0.15955 0.07558
# Poissons Ratio (y) = 0.25803 0.23389
# Poissons Ratio (z) = 0.10159 0.19439
#
# Static dielectric constant tensor:
#      x y z
#    x 4.393230 0.492330 0.014630 
#    y 0.492330 4.370660 -0.513190 
#    z 0.014630 -0.513190 4.405670 
# 
# 
# High freq. dielectric constant tensor:
#      x y z
#    x 1.946680 0.012680 0.002990 
#    y 0.012680 1.938190 -0.018940 
#    z 0.002990 -0.018940 1.919450 
# 
# From -- ./inp_files/428186.got.cif
#   From: 2010.06.25/outbox.cif.g09.slc.cpg/sg2_215_cif.got.tgz:428186.got - 2010.06.27 13:26:56.
