data_PCOD8015951
_publ_section_title
;
Structure prediction by ZEFSAII (Michael W. Deem and Ramdas Pophale) SiO2 
 PCOD8015951
Probable space group: P -1
;
_chemical_formula_sum "Si O2"
_cell_formula_units_Z 16
_cell_length_a 11.401295
_cell_length_b 8.568021
_cell_length_c 14.321226
_cell_angle_alpha 42.997046
_cell_angle_beta 72.305511
_cell_angle_gamma 50.380202
_cell_volume 698.876032
_symmetry_space_group_name_H-M "P -1"
_symmetry_group_IT_number 2
_symmetry_cell_setting 'triclinic'
loop_
_space_group_symop_operation_xyz
x,y,z
-x,-y,-z
loop_
_atom_site_type_symbol
_atom_site_label
_atom_site_fract_x
_atom_site_fract_y
_atom_site_fract_z
Si Si1 0.997200 0.344697 0.779876
Si Si2 0.568717 0.639170 0.470497
Si Si3 0.126360 0.662604 0.582315
Si Si4 0.706465 0.534878 0.179604
Si Si5 0.145835 0.176847 0.015614
Si Si6 0.424101 0.544493 0.250091
Si Si7 0.652274 0.677063 0.796727
Si Si8 0.139960 0.747404 0.906076
O O1 0.034740 0.537595 0.633653
O O2 0.113661 0.190015 0.907646
O O3 0.811012 0.576731 0.749868
O O4 0.034587 0.080941 0.823813
O O5 0.500000 0.500000 0.500000
O O6 0.759976 0.416717 0.498910
O O7 0.536846 0.660281 0.580231
O O8 0.470910 0.970228 0.307409
O O9 0.245066 0.497983 0.711959
O O10 0.000000 0.000000 0.500000
O O11 0.745799 0.727580 0.032428
O O12 0.526781 0.656469 0.168794
O O13 0.807210 0.242092 0.216183
O O14 0.971448 0.352052 0.030099
O O15 0.243026 0.842186 0.174115
O O16 0.446425 0.376353 0.222973
O O17 0.704751 0.490974 0.961979
#
# Coordination Sequence:
#
# PCOD8015951 Si02
#       8
#     2   2   2   2   2   2   2   2
#     4  10  21  44  72  98 134 176 226 276 330 397
#     4  12  27  46  68  97 134 185 223 270 346 397
#     4  11  26  48  68  98 135 177 231 279 324 402
#     4  11  26  39  66 104 134 171 229 279 335 392
#     4  10  21  43  67  99 135 175 223 283 328 392
#     4  12  24  44  67  97 144 171 226 271 342 403
#     4  11  24  45  69  99 139 178 219 277 338 405
#     4  11  22  43  72 103 133 178 223 278 340 389
#
# _framework density 22.893903999999999
#
# number of rings (size 3 to 8) (size 9 to 14) (size 15 to 20)
#    0.000    1.000    3.750    2.625    5.250    2.500 
#    0.000    1.250    0.000    0.000    0.000    0.000 
#    0.000    0.000    0.000    0.000    0.000    0.000 
#
# Total GULP energy -198271.554978 kJ/mol
# GULP energy per Si atom -12391.972186 kJ/mol
# Density = 2.284180 g / cm^3
# Si number density = 22.893904 Si / 1000 Ang^3
#
#
#
# Elastic Constant Matrix: (Units=GPa)
#
#
# Indices 1 2 3 4 5 6 
#
# 1 123.1343 21.1036 23.3168 0.3209 -8.5726 -0.6122
# 2 21.1036 92.4877 17.9224 -3.9214 -3.3637 -12.0314
# 3 23.3168 17.9224 53.4017 -15.8773 -12.6556 0.0377
# 4 0.3209 -3.9214 -15.8773 43.1398 -1.8935 1.7231
# 5 -8.5726 -3.3637 -12.6556 -1.8935 22.4037 4.6747
# 6 -0.6122 -12.0314 0.0377 1.7231 4.6747 23.8499
#
#
#
# Elastic Compliance Matrix: (Units=1/GPa)
#
#
# Indices 1 2 3 4 5 6 
#
# 1 0.009151 -0.001484 -0.003640 -0.001463 0.001233 -0.000644
# 2 -0.001484 0.012817 -0.004592 -0.000918 -0.002785 0.007047
# 3 -0.003640 -0.004592 0.029205 0.011355 0.016744 -0.006558
# 4 -0.001463 -0.000918 0.011355 0.027852 0.008966 -0.004288
# 5 0.001233 -0.002785 0.016744 0.008966 0.057692 -0.013355
# 6 -0.000644 0.007047 -0.006558 -0.004288 -0.013355 0.048405
#
#
# Mechanical properties :
#
#
# Convention : Reuss Voigt Hill
#
# Bulk Modulus (GPa) = 31.50289 43.74548 37.62418
# Shear Modulus (GPa) = 23.24134 31.65741 27.44937
#
# Velocity S-wave (km/s) = 3.18964 3.72262 3.46639
# Velocity P-wave (km/s) = 5.23023 6.13405 5.70008
#
# Compressibility (1/GPa) = 0.03174312
#
# Stress axis : x y z
#
# Youngs Moduli (GPa) = 109.27480 78.02078 34.24064
#
# Poissons Ratio (x) = 0.11576 0.12463
# Poissons Ratio (y) = 0.16213 0.15722
# Poissons Ratio (z) = 0.39775 0.35824
#
# Static dielectric constant tensor:
#      x y z
#    x 4.424940 -0.017880 -0.143280 
#    y -0.017880 4.137020 0.113150 
#    z -0.143280 0.113150 4.067500 
# 
# 
# High freq. dielectric constant tensor:
#      x y z
#    x 1.921290 0.000870 -0.002480 
#    y 0.000870 1.907340 0.000380 
#    z -0.002480 0.000380 1.880010 
# 
# From -- ./inp_files/182356.got.cif
#   From: 2010.06.25/outbox.cif.g09.slc.cpg/sg2_92_cif.got.tgz:182356.got - 2010.06.27 13:26:56.
