data_PCOD8015606
_publ_section_title
;
Structure prediction by ZEFSAII (Michael W. Deem and Ramdas Pophale) SiO2 
 PCOD8015606
Probable space group: P -1
;
_chemical_formula_sum "Si O2"
_cell_formula_units_Z 14
_cell_length_a 8.369001
_cell_length_b 8.669163
_cell_length_c 9.983501
_cell_angle_alpha 94.984623
_cell_angle_beta 122.972749
_cell_angle_gamma 89.834414
_cell_volume 604.504951
_symmetry_space_group_name_H-M "P -1"
_symmetry_group_IT_number 2
_symmetry_cell_setting 'triclinic'
loop_
_space_group_symop_operation_xyz
x,y,z
-x,-y,-z
loop_
_atom_site_type_symbol
_atom_site_label
_atom_site_fract_x
_atom_site_fract_y
_atom_site_fract_z
Si Si1 0.161029 0.703283 0.067641
Si Si2 0.061697 0.062891 0.389174
Si Si3 0.237906 0.389488 0.186565
Si Si4 0.687857 0.114956 0.083032
Si Si5 0.704694 0.199683 0.597344
Si Si6 0.677704 0.651129 0.488254
Si Si7 0.630492 0.340517 0.305592
O O1 0.224819 0.526479 0.081916
O O2 0.140020 0.742387 0.217336
O O3 0.305349 0.821074 0.061426
O O4 0.956016 0.716290 0.904419
O O5 0.129978 0.244286 0.444619
O O6 0.879224 0.030735 0.204915
O O7 0.249177 0.980644 0.412513
O O8 0.000000 0.000000 0.500000
O O9 0.295183 0.447758 0.368623
O O10 0.407197 0.282962 0.209675
O O11 0.695837 0.270369 0.190917
O O12 0.500000 0.000000 0.000000
O O13 0.499406 0.237218 0.568680
O O14 0.748241 0.273103 0.477108
O O15 0.646189 0.529342 0.341436
#
# Coordination Sequence:
#
# PCOD8015606 Si02
#       7
#     2   2   2   2   2   2   2
#     4  11  23  44  69 107 138 185 234 292 353 408
#     4  12  27  47  68 105 144 192 232 285 355 425
#     4  10  21  42  72 104 139 173 243 295 345 405
#     4  12  30  48  66 104 154 187 230 287 365 421
#     4  11  23  44  76 100 137 183 238 286 349 416
#     4  11  22  47  75 106 134 185 244 291 341 425
#     4  11  23  48  73 104 138 187 235 296 345 421
#
# _framework density 23.159444000000001
#
# number of rings (size 3 to 8) (size 9 to 14) (size 15 to 20)
#    0.000    0.857    5.714    1.286    4.000    4.000 
#    5.143    0.000    0.000    0.000    0.000    0.000 
#    0.000    0.000    0.000    0.000    0.000    0.000 
#
# Total GULP energy -173470.909296 kJ/mol
# GULP energy per Si atom -12390.779235 kJ/mol
# Density = 2.310673 g / cm^3
# Si number density = 23.159444 Si / 1000 Ang^3
#
#
#
# Elastic Constant Matrix: (Units=GPa)
#
#
# Indices 1 2 3 4 5 6 
#
# 1 83.6618 56.1950 41.9778 -3.6104 14.3049 2.1763
# 2 56.1950 98.7228 36.8212 -0.7197 6.6804 0.2404
# 3 41.9778 36.8212 119.7507 -3.1240 9.4449 -2.4923
# 4 -3.6104 -0.7197 -3.1240 33.3720 5.8915 -4.5943
# 5 14.3049 6.6804 9.4449 5.8915 35.1581 2.1412
# 6 2.1763 0.2404 -2.4923 -4.5943 2.1412 39.3974
#
#
#
# Elastic Compliance Matrix: (Units=1/GPa)
#
#
# Indices 1 2 3 4 5 6 
#
# 1 0.022487 -0.010858 -0.003976 0.002863 -0.006453 -0.000743
# 2 -0.010858 0.016741 -0.001517 -0.001260 0.001846 0.000154
# 3 -0.003976 -0.001517 0.010339 0.000838 -0.001075 0.001039
# 4 0.002863 -0.001260 0.000838 0.032074 -0.006770 0.004011
# 5 -0.006453 0.001846 -0.001075 -0.006770 0.032279 -0.002267
# 6 -0.000743 0.000154 0.001039 0.004011 -0.002267 0.026079
#
#
# Mechanical properties :
#
#
# Convention : Reuss Voigt Hill
#
# Bulk Modulus (GPa) = 59.28980 63.56926 61.42953
# Shear Modulus (GPa) = 28.03911 32.72825 30.38368
#
# Velocity S-wave (km/s) = 3.48328 3.76329 3.62599
# Velocity P-wave (km/s) = 6.46792 6.81112 6.64173
#
# Compressibility (1/GPa) = 0.01686631
#
# Stress axis : x y z
#
# Youngs Moduli (GPa) = 44.46964 59.73312 96.72042
#
# Poissons Ratio (x) = 0.64858 0.38456
# Poissons Ratio (y) = 0.48285 0.14669
# Poissons Ratio (z) = 0.17681 0.09060
#
# Static dielectric constant tensor:
#      x y z
#    x 4.013220 -0.186780 0.243910 
#    y -0.186780 4.074030 -0.083350 
#    z 0.243910 -0.083350 4.263790 
# 
# 
# High freq. dielectric constant tensor:
#      x y z
#    x 1.902730 -0.005900 0.016200 
#    y -0.005900 1.905170 -0.006920 
#    z 0.016200 -0.006920 1.923320 
# 
# From -- ./inp_files/158962.got.cif
#   From: 2010.06.25/outbox.cif.g09.slc.cpg/sg2_80_cif.got.tgz:158962.got - 2010.06.27 13:26:56.
