data_PCOD8015294
_publ_section_title
;
Structure prediction by ZEFSAII (Michael W. Deem and Ramdas Pophale) SiO2 
 PCOD8015294
Probable space group: P -1
;
_chemical_formula_sum "Si O2"
_cell_formula_units_Z 14
_cell_length_a 9.064099
_cell_length_b 8.600399
_cell_length_c 20.309446
_cell_angle_alpha 42.076373
_cell_angle_beta 46.803448
_cell_angle_gamma 79.026376
_cell_volume 587.526386
_symmetry_space_group_name_H-M "P -1"
_symmetry_group_IT_number 2
_symmetry_cell_setting 'triclinic'
loop_
_space_group_symop_operation_xyz
x,y,z
-x,-y,-z
loop_
_atom_site_type_symbol
_atom_site_label
_atom_site_fract_x
_atom_site_fract_y
_atom_site_fract_z
Si Si1 0.279065 0.319234 0.833640
Si Si2 0.749219 0.515461 0.837684
Si Si3 0.106411 0.669847 0.568628
Si Si4 0.507390 0.214831 0.483056
Si Si5 0.959367 0.394014 0.149565
Si Si6 0.388047 0.856453 0.185564
Si Si7 0.529842 0.840343 0.800444
O O1 0.456717 0.519961 0.651583
O O2 0.457127 0.270719 0.835708
O O3 0.216598 0.502975 0.837992
O O4 0.000000 0.000000 0.000000
O O5 0.926873 0.525663 0.835995
O O6 0.632275 0.670853 0.849711
O O7 0.917305 0.690065 0.665419
O O8 0.513210 0.154904 0.008779
O O9 0.254890 0.607018 0.592605
O O10 0.922608 0.395344 0.659239
O O11 0.325624 0.987112 0.365274
O O12 0.500000 0.000000 0.500000
O O13 0.228489 0.975898 0.684184
O O14 0.211187 0.584821 0.962843
O O15 0.411715 0.928770 0.233331
#
# Coordination Sequence:
#
# PCOD8015294 Si02
#       7
#     2   2   2   2   2   2   2
#     4  11  19  40  72  94 131 175 221 267 330 394
#     4  11  22  43  70  95 134 180 222 269 329 408
#     4  12  24  43  68 105 130 173 233 274 330 396
#     4  10  22  42  69  94 133 177 222 272 327 400
#     4  10  21  42  67  94 134 177 223 261 342 390
#     4  11  24  43  70 102 135 172 223 278 338 390
#     4  11  25  42  68 100 139 174 219 278 335 396
#
# _framework density 23.828717999999999
#
# number of rings (size 3 to 8) (size 9 to 14) (size 15 to 20)
#    0.000    1.143    5.714    3.000    2.000    2.857 
#    2.571    0.714    0.000    0.000    0.000    0.000 
#    0.000    0.000    0.000    0.000    0.000    0.000 
#
# Total GULP energy -173540.451938 kJ/mol
# GULP energy per Si atom -12395.746567 kJ/mol
# Density = 2.377448 g / cm^3
# Si number density = 23.828718 Si / 1000 Ang^3
#
#
#
# Elastic Constant Matrix: (Units=GPa)
#
#
# Indices 1 2 3 4 5 6 
#
# 1 85.5162 29.2348 38.1289 -5.8146 -8.3930 -8.2627
# 2 29.2348 54.4826 28.5415 3.7376 4.4872 -23.1841
# 3 38.1289 28.5415 202.2058 6.7754 -0.8184 -10.0099
# 4 -5.8146 3.7376 6.7754 33.0822 7.9956 -3.4165
# 5 -8.3930 4.4872 -0.8184 7.9956 41.2971 -8.7855
# 6 -8.2627 -23.1841 -10.0099 -3.4165 -8.7855 22.9508
#
#
#
# Elastic Compliance Matrix: (Units=1/GPa)
#
#
# Indices 1 2 3 4 5 6 
#
# 1 0.015944 -0.009176 -0.001944 0.003231 0.002988 -0.002752
# 2 -0.009176 0.039854 -0.002000 -0.002420 0.001996 0.036487
# 3 -0.001944 -0.002000 0.005618 -0.001335 0.000101 -0.000430
# 4 0.003231 -0.002420 -0.001335 0.032709 -0.005226 0.001005
# 5 0.002988 0.001996 0.000101 -0.005226 0.028436 0.013243
# 6 -0.002752 0.036487 -0.000430 0.001005 0.013243 0.084471
#
#
# Mechanical properties :
#
#
# Convention : Reuss Voigt Hill
#
# Bulk Modulus (GPa) = 28.42749 59.33499 43.88124
# Shear Modulus (GPa) = 20.40834 35.88595 28.14715
#
# Velocity S-wave (km/s) = 2.92971 3.88493 3.44063
# Velocity P-wave (km/s) = 4.83736 6.71403 5.85142
#
# Compressibility (1/GPa) = 0.03517722
#
# Stress axis : x y z
#
# Youngs Moduli (GPa) = 62.71809 25.09152 177.99604
#
# Poissons Ratio (x) = 0.23025 0.34598
# Poissons Ratio (y) = 0.57552 0.35594
# Poissons Ratio (z) = 0.12191 0.05018
#
# Static dielectric constant tensor:
#      x y z
#    x 4.093530 -0.120010 -0.104940 
#    y -0.120010 3.840800 0.060880 
#    z -0.104940 0.060880 5.111170 
# 
# 
# High freq. dielectric constant tensor:
#      x y z
#    x 1.936670 0.000400 -0.003070 
#    y 0.000400 1.904040 0.002680 
#    z -0.003070 0.002680 1.974870 
# 
# From -- ./inp_files/216387.got.cif
#   From: 2010.06.25/outbox.cif.g09.slc.cpg/sg2_109_cif.got.tgz:216387.got - 2010.06.27 13:26:56.
