data_PCOD8015799
_publ_section_title
;
Structure prediction by ZEFSAII (Michael W. Deem and Ramdas Pophale) SiO2 
 PCOD8015799
Probable space group: P -1
;
_chemical_formula_sum "Si O2"
_cell_formula_units_Z 16
_cell_length_a 8.193220
_cell_length_b 23.945426
_cell_length_c 9.419555
_cell_angle_alpha 35.817040
_cell_angle_beta 108.864819
_cell_angle_gamma 131.367400
_cell_volume 710.221979
_symmetry_space_group_name_H-M "P -1"
_symmetry_group_IT_number 2
_symmetry_cell_setting 'triclinic'
loop_
_space_group_symop_operation_xyz
x,y,z
-x,-y,-z
loop_
_atom_site_type_symbol
_atom_site_label
_atom_site_fract_x
_atom_site_fract_y
_atom_site_fract_z
Si Si1 0.272766 0.639862 0.487509
Si Si2 0.637361 0.753127 0.151745
Si Si3 0.786955 0.629755 0.341017
Si Si4 0.651988 0.095485 0.548125
Si Si5 0.773822 0.208969 0.051009
Si Si6 0.982815 0.044921 0.752445
Si Si7 0.468448 0.779397 0.548291
Si Si8 0.758306 0.415110 0.860987
O O1 0.501374 0.666475 0.440548
O O2 0.341652 0.725575 0.470530
O O3 0.025976 0.474383 0.770947
O O4 0.281392 0.712812 0.200259
O O5 0.833400 0.745246 0.203184
O O6 0.458384 0.687808 0.099068
O O7 0.781201 0.910688 0.874986
O O8 0.500000 0.500000 0.500000
O O9 0.869070 0.568918 0.577828
O O10 0.940608 0.702828 0.087409
O O11 0.735981 0.200572 0.227812
O O12 0.580223 0.133421 0.584113
O O13 0.880028 0.112192 0.606690
O O14 0.401529 0.942407 0.750763
O O15 0.245129 0.140303 0.548103
O O16 0.000000 0.000000 0.000000
O O17 0.330425 0.647227 0.879828
#
# Coordination Sequence:
#
# PCOD8015799 Si02
#       8
#     2   2   2   2   2   2   2   2
#     4  11  22  45  66  94 141 177 226 273 341 409
#     4  11  21  42  68  97 130 181 224 280 337 393
#     4   9  21  38  64  96 133 169 221 281 336 386
#     4  11  25  42  71 101 135 178 227 282 334 397
#     4  10  21  43  65  97 134 173 234 272 329 404
#     4  12  26  45  69 102 141 174 224 276 346 412
#     4  12  26  44  69 102 143 178 219 283 344 400
#     4  10  24  42  67  98 130 180 233 274 332 401
#
# _framework density 22.528168999999998
#
# number of rings (size 3 to 8) (size 9 to 14) (size 15 to 20)
#    0.000    1.250    2.500    2.250    5.250    6.500 
#    0.000    0.625    0.000    0.000    0.000    0.000 
#    0.000    0.000    0.000    0.000    0.000    0.000 
#
# Total GULP energy -198244.292786 kJ/mol
# GULP energy per Si atom -12390.268299 kJ/mol
# Density = 2.247689 g / cm^3
# Si number density = 22.528169 Si / 1000 Ang^3
#
#
#
# Elastic Constant Matrix: (Units=GPa)
#
#
# Indices 1 2 3 4 5 6 
#
# 1 125.7698 27.7293 37.7217 7.2891 -19.3910 -7.0220
# 2 27.7293 73.6918 7.8259 12.4799 2.4005 2.4199
# 3 37.7217 7.8259 114.0493 12.0910 -22.8091 12.1018
# 4 7.2891 12.4799 12.0910 36.5366 2.7948 -10.9500
# 5 -19.3910 2.4005 -22.8091 2.7948 42.6160 -5.9840
# 6 -7.0220 2.4199 12.1018 -10.9500 -5.9840 31.3897
#
#
#
# Elastic Compliance Matrix: (Units=1/GPa)
#
#
# Indices 1 2 3 4 5 6 
#
# 1 0.010658 -0.004258 -0.003161 0.001647 0.004030 0.005274
# 2 -0.004258 0.016430 0.001012 -0.006509 -0.002651 -0.005385
# 3 -0.003161 0.001012 0.011960 -0.006002 0.004365 -0.006658
# 4 0.001647 -0.006509 -0.006002 0.036015 -0.002309 0.015308
# 5 0.004030 -0.002651 0.004365 -0.002309 0.028505 0.004052
# 6 0.005274 -0.005385 -0.006658 0.015308 0.004052 0.042132
#
#
# Mechanical properties :
#
#
# Convention : Reuss Voigt Hill
#
# Bulk Modulus (GPa) = 38.11781 51.11831 44.61806
# Shear Modulus (GPa) = 29.89365 38.12406 34.00885
#
# Velocity S-wave (km/s) = 3.64668 4.11820 3.88959
# Velocity P-wave (km/s) = 5.88964 6.73445 6.32616
#
# Compressibility (1/GPa) = 0.02623446
#
# Stress axis : x y z
#
# Youngs Moduli (GPa) = 93.82251 60.86308 83.61236
#
# Poissons Ratio (x) = 0.25917 0.26432
# Poissons Ratio (y) = 0.39952 -0.08465
# Poissons Ratio (z) = 0.29660 -0.06162
#
# Static dielectric constant tensor:
#      x y z
#    x 5.396790 -0.038180 -0.002310 
#    y -0.038180 3.914850 -0.129930 
#    z -0.002310 -0.129930 4.312310 
# 
# 
# High freq. dielectric constant tensor:
#      x y z
#    x 1.908560 -0.006490 -0.020970 
#    y -0.006490 1.871410 -0.012500 
#    z -0.020970 -0.012500 1.895260 
# 
# From -- ./inp_files/225982.got.cif
#   From: 2010.06.25/outbox.cif.g09.slc.cpg/sg2_113_cif.got.tgz:225982.got - 2010.06.27 13:26:56.
