data_PCOD8015253
_publ_section_title
;
Structure prediction by ZEFSAII (Michael W. Deem and Ramdas Pophale) SiO2 
 PCOD8015253
Probable space group: P -1
;
_chemical_formula_sum "Si O2"
_cell_formula_units_Z 16
_cell_length_a 8.647879
_cell_length_b 15.464724
_cell_length_c 20.699946
_cell_angle_alpha 25.609722
_cell_angle_beta 38.923218
_cell_angle_gamma 38.097698
_cell_volume 713.648379
_symmetry_space_group_name_H-M "P -1"
_symmetry_group_IT_number 2
_symmetry_cell_setting 'triclinic'
loop_
_space_group_symop_operation_xyz
x,y,z
-x,-y,-z
loop_
_atom_site_type_symbol
_atom_site_label
_atom_site_fract_x
_atom_site_fract_y
_atom_site_fract_z
Si Si1 0.295634 0.108881 0.584996
Si Si2 0.957518 0.033085 0.904499
Si Si3 0.531709 0.919894 0.187549
Si Si4 0.113721 0.268498 0.144569
Si Si5 0.674727 0.732289 0.396256
Si Si6 0.529977 0.352826 0.026845
Si Si7 0.577620 0.279349 0.280447
Si Si8 0.725829 0.255159 0.710824
O O1 0.404589 0.120195 0.614126
O O2 0.360964 0.276912 0.404201
O O3 0.987780 0.162339 0.647699
O O4 0.426370 0.873083 0.675885
O O5 0.737654 0.113011 0.866506
O O6 0.058938 0.237064 0.739917
O O7 0.805448 0.975744 0.054796
O O8 0.194854 0.831274 0.939164
O O9 0.485786 0.812719 0.342544
O O10 0.515152 0.764540 0.239693
O O11 0.295672 0.136025 0.117252
O O12 0.855188 0.198444 0.283003
O O13 0.287600 0.257152 0.161344
O O14 0.000000 0.500000 0.000000
O O15 0.694216 0.499220 0.569791
O O16 0.507857 0.486715 0.878061
O O17 0.500000 0.500000 0.000000
#
# Coordination Sequence:
#
# PCOD8015253 Si02
#       8
#     2   2   2   2   2   2   2   2
#     4  10  21  42  67  89 129 177 226 262 342 396
#     4  11  24  42  70  98 133 176 221 277 332 408
#     4  12  24  44  67 101 134 171 229 279 335 393
#     4  10  23  40  66  94 130 172 211 279 331 394
#     4  11  24  42  66  96 131 177 218 282 329 402
#     4  11  23  41  68  99 134 168 225 279 335 389
#     4  10  22  42  67  94 129 179 219 276 329 409
#     4  11  24  43  66  93 141 176 218 275 339 399
#
# _framework density 22.420003999999999
#
# number of rings (size 3 to 8) (size 9 to 14) (size 15 to 20)
#    0.000    1.250    2.500    4.125    3.500    3.000 
#    2.250    0.625    0.000    0.000    0.000    0.000 
#    0.000    0.000    0.000    0.000    0.000    0.000 
#
# Total GULP energy -198222.338003 kJ/mol
# GULP energy per Si atom -12388.896125 kJ/mol
# Density = 2.236898 g / cm^3
# Si number density = 22.420004 Si / 1000 Ang^3
#
#
#
# Elastic Constant Matrix: (Units=GPa)
#
#
# Indices 1 2 3 4 5 6 
#
# 1 96.1538 8.5726 21.4502 -22.0524 2.1153 9.2930
# 2 8.5726 67.6982 26.9342 -10.1376 8.3356 -2.2491
# 3 21.4502 26.9342 87.7830 -8.6368 9.2722 -2.6559
# 4 -22.0524 -10.1376 -8.6368 29.2906 1.7642 0.0870
# 5 2.1153 8.3356 9.2722 1.7642 36.0678 -4.5797
# 6 9.2930 -2.2491 -2.6559 0.0870 -4.5797 31.9537
#
#
#
# Elastic Compliance Matrix: (Units=1/GPa)
#
#
# Indices 1 2 3 4 5 6 
#
# 1 0.013617 0.000806 -0.002593 0.009861 -0.001352 -0.004340
# 2 0.000806 0.017796 -0.004770 0.005551 -0.003186 0.000150
# 3 -0.002593 -0.004770 0.013814 0.000597 -0.002167 0.001254
# 4 0.009861 0.005551 0.000597 0.043947 -0.004571 -0.003202
# 5 -0.001352 -0.003186 -0.002167 -0.004571 0.029865 0.004282
# 6 -0.004340 0.000150 0.001254 -0.003202 0.004282 0.033295
#
#
# Mechanical properties :
#
#
# Convention : Reuss Voigt Hill
#
# Bulk Modulus (GPa) = 31.13927 40.61657 35.87792
# Shear Modulus (GPa) = 28.38446 32.44096 30.41271
#
# Velocity S-wave (km/s) = 3.56200 3.80803 3.68706
# Velocity P-wave (km/s) = 5.55304 6.12293 5.84494
#
# Compressibility (1/GPa) = 0.03211379
#
# Stress axis : x y z
#
# Youngs Moduli (GPa) = 73.43591 56.19341 72.38779
#
# Poissons Ratio (x) = -0.04531 0.18771
# Poissons Ratio (y) = -0.05921 0.34529
# Poissons Ratio (z) = 0.19043 0.26804
#
# Static dielectric constant tensor:
#      x y z
#    x 4.538920 -0.101020 -0.138410 
#    y -0.101020 3.871990 -0.000410 
#    z -0.138410 -0.000410 4.320270 
# 
# 
# High freq. dielectric constant tensor:
#      x y z
#    x 1.894650 0.005540 -0.002200 
#    y 0.005540 1.863340 -0.013740 
#    z -0.002200 -0.013740 1.885380 
# 
# From -- ./inp_files/590446.got.cif
#   From: 2010.06.25/outbox.cif.g09.slc.cpg/sg2_296_cif.got.tgz:590446.got - 2010.06.27 13:26:56.
