data_PCOD8015123
_publ_section_title
;
Structure prediction by ZEFSAII (Michael W. Deem and Ramdas Pophale) SiO2 
 PCOD8015123
Probable space group: P -1
;
_chemical_formula_sum "Si O2"
_cell_formula_units_Z 16
_cell_length_a 9.585345
_cell_length_b 18.339328
_cell_length_c 12.224243
_cell_angle_alpha 48.825744
_cell_angle_beta 119.496672
_cell_angle_gamma 149.602330
_cell_volume 802.215318
_symmetry_space_group_name_H-M "P -1"
_symmetry_group_IT_number 2
_symmetry_cell_setting 'triclinic'
loop_
_space_group_symop_operation_xyz
x,y,z
-x,-y,-z
loop_
_atom_site_type_symbol
_atom_site_label
_atom_site_fract_x
_atom_site_fract_y
_atom_site_fract_z
Si Si1 0.977819 0.598304 0.858442
Si Si2 0.861920 0.022224 0.367592
Si Si3 0.888476 0.702829 0.344762
Si Si4 0.483239 0.989060 0.633729
Si Si5 0.800320 0.641483 0.927219
Si Si6 0.626506 0.423130 0.676992
Si Si7 0.116700 0.807707 0.102679
Si Si8 0.446975 0.133609 0.810758
O O1 0.282001 0.800816 0.777650
O O2 0.785365 0.548009 0.927523
O O3 0.828262 0.540265 0.742095
O O4 0.000000 0.500000 0.000000
O O5 0.638007 0.968566 0.410519
O O6 0.115778 0.219045 0.239913
O O7 0.724200 0.910354 0.315080
O O8 0.000000 0.000000 0.500000
O O9 0.770173 0.545855 0.507278
O O10 0.687741 0.692092 0.312015
O O11 0.880180 0.689401 0.222743
O O12 0.208952 0.881681 0.327574
O O13 0.500000 0.000000 0.500000
O O14 0.500000 0.500000 0.000000
O O15 0.009953 0.721617 0.027925
O O16 0.609354 0.300646 0.768153
O O17 0.349875 0.844811 0.187583
O O18 0.248437 0.981209 0.973508
#
# Coordination Sequence:
#
# PCOD8015123 Si02
#       8
#     2   2   2   2   2   2   2   2
#     4  11  24  42  65  95 128 164 211 259 315 373
#     4  10  23  40  65  93 124 164 208 258 311 374
#     4  11  24  43  64  93 128 169 211 257 318 372
#     4  11  23  44  65  91 128 170 211 255 317 377
#     4  10  22  41  63  91 125 161 203 259 311 368
#     4  11  25  41  63  97 129 165 211 265 309 372
#     4  10  21  42  66  87 122 166 206 255 314 371
#     4  10  22  40  63  93 122 160 211 254 311 369
#
# _framework density 19.944770999999999
#
# number of rings (size 3 to 8) (size 9 to 14) (size 15 to 20)
#    0.000    1.500    2.500    1.500    5.250    4.000 
#    4.500    0.000    0.000    0.000    0.000    0.000 
#    0.000    0.000    0.000    0.000    0.000    0.000 
#
# Total GULP energy -198416.642437 kJ/mol
# GULP energy per Si atom -12401.040152 kJ/mol
# Density = 1.989938 g / cm^3
# Si number density = 19.944771 Si / 1000 Ang^3
#
#
#
# Elastic Constant Matrix: (Units=GPa)
#
#
# Indices 1 2 3 4 5 6 
#
# 1 99.8429 51.4547 72.2713 -7.5531 -10.1113 -4.3510
# 2 51.4547 95.4840 39.9058 -4.5008 8.1803 2.7657
# 3 72.2713 39.9058 132.9216 3.8625 -4.8216 -0.7912
# 4 -7.5531 -4.5008 3.8625 26.8828 6.9137 -1.6719
# 5 -10.1113 8.1803 -4.8216 6.9137 38.3353 0.0755
# 6 -4.3510 2.7657 -0.7912 -1.6719 0.0755 39.6128
#
#
#
# Elastic Compliance Matrix: (Units=1/GPa)
#
#
# Indices 1 2 3 4 5 6 
#
# 1 0.022307 -0.008361 -0.009544 0.004998 0.005560 0.003044
# 2 -0.008361 0.015834 -0.000487 0.001784 -0.005963 -0.001947
# 3 -0.009544 -0.000487 0.012992 -0.004707 0.000072 -0.000954
# 4 0.004998 0.001784 -0.004707 0.041548 -0.007152 0.002098
# 5 0.005560 -0.005963 0.000072 -0.007152 0.030122 0.000669
# 6 0.003044 -0.001947 -0.000954 0.002098 0.000669 0.025783
#
#
# Mechanical properties :
#
#
# Convention : Reuss Voigt Hill
#
# Bulk Modulus (GPa) = 69.69376 72.83466 71.26421
# Shear Modulus (GPa) = 26.29476 31.94064 29.11770
#
# Velocity S-wave (km/s) = 3.63489 4.00616 3.82503
# Velocity P-wave (km/s) = 7.25505 7.61555 7.43748
#
# Compressibility (1/GPa) = 0.01434849
#
# Stress axis : x y z
#
# Youngs Moduli (GPa) = 44.82967 63.15682 76.96850
#
# Poissons Ratio (x) = 0.52805 0.73457
# Poissons Ratio (y) = 0.37482 0.03751
# Poissons Ratio (z) = 0.42784 0.03078
#
# Static dielectric constant tensor:
#      x y z
#    x 3.479010 0.096510 -0.199190 
#    y 0.096510 3.533180 -0.003020 
#    z -0.199190 -0.003020 3.744780 
# 
# 
# High freq. dielectric constant tensor:
#      x y z
#    x 1.776560 -0.000520 -0.010970 
#    y -0.000520 1.784810 0.006880 
#    z -0.010970 0.006880 1.789670 
# 
# From -- ./inp_files/206921.got.cif
#   From: 2010.06.25/outbox.cif.g09.slc.cpg/sg2_104_cif.got.tgz:206921.got - 2010.06.27 13:26:56.
