data_PCOD8015426
_publ_section_title
;
Structure prediction by ZEFSAII (Michael W. Deem and Ramdas Pophale) SiO2 
 PCOD8015426
Probable space group: P -1
;
_chemical_formula_sum "Si O2"
_cell_formula_units_Z 16
_cell_length_a 16.790130
_cell_length_b 6.887235
_cell_length_c 10.507306
_cell_angle_alpha 61.781546
_cell_angle_beta 125.828303
_cell_angle_gamma 84.993554
_cell_volume 746.888480
_symmetry_space_group_name_H-M "P -1"
_symmetry_group_IT_number 2
_symmetry_cell_setting 'triclinic'
loop_
_space_group_symop_operation_xyz
x,y,z
-x,-y,-z
loop_
_atom_site_type_symbol
_atom_site_label
_atom_site_fract_x
_atom_site_fract_y
_atom_site_fract_z
Si Si1 0.510600 0.436078 0.879705
Si Si2 0.508576 0.691962 0.545408
Si Si3 0.246527 0.915044 0.765558
Si Si4 0.969566 0.101749 0.802501
Si Si5 0.028258 0.423183 0.407229
Si Si6 0.732993 0.227432 0.453079
Si Si7 0.124922 0.683924 0.874090
Si Si8 0.311725 0.160628 0.322811
O O1 0.534204 0.604306 0.745966
O O2 0.382794 0.500471 0.703328
O O3 0.500000 0.500000 0.000000
O O4 0.622979 0.151665 0.059143
O O5 0.500000 0.500000 0.500000
O O6 0.609470 0.735906 0.575186
O O7 0.386332 0.957668 0.344105
O O8 0.245562 0.784280 0.673199
O O9 0.206270 0.788357 0.874181
O O10 0.163106 0.217858 0.587171
O O11 0.002118 0.319419 0.771692
O O12 0.834778 0.230727 0.618156
O O13 0.038921 0.875882 0.838557
O O14 0.000000 0.000000 0.000000
O O15 0.000000 0.500000 0.500000
O O16 0.952871 0.309643 0.317795
O O17 0.722256 0.981685 0.558855
O O18 0.196756 0.397401 0.084892
#
# Coordination Sequence:
#
# PCOD8015426 Si02
#       8
#     2   2   2   2   2   2   2   2
#     4   9  20  40  69  94 131 176 214 273 338 395
#     4  10  21  42  68  99 135 173 226 283 329 405
#     4  11  21  43  69  93 134 172 223 278 333 404
#     4  12  27  44  66  99 138 175 228 287 333 403
#     4  12  25  42  67  98 130 176 228 271 344 398
#     4  10  22  44  67  95 135 175 219 279 337 397
#     4  12  24  43  69  96 134 180 224 281 337 404
#     4  10  23  40  68  98 131 179 221 268 348 396
#
# _framework density 21.422205999999999
#
# number of rings (size 3 to 8) (size 9 to 14) (size 15 to 20)
#    0.000    1.250    3.750    1.875    1.750    5.000 
#    0.000    0.625    0.000    0.000    0.000    0.000 
#    0.000    0.000    0.000    0.000    0.000    0.000 
#
# Total GULP energy -198218.911069 kJ/mol
# GULP energy per Si atom -12388.681942 kJ/mol
# Density = 2.137345 g / cm^3
# Si number density = 21.422206 Si / 1000 Ang^3
#
#
#
# Elastic Constant Matrix: (Units=GPa)
#
#
# Indices 1 2 3 4 5 6 
#
# 1 96.8496 33.3877 39.7440 8.6395 6.5511 -8.2383
# 2 33.3877 103.8131 35.4678 -2.7270 10.8014 -8.4652
# 3 39.7440 35.4678 133.5979 -9.0787 27.4649 -17.7859
# 4 8.6395 -2.7270 -9.0787 31.7410 -5.1790 -0.4762
# 5 6.5511 10.8014 27.4649 -5.1790 53.3588 -8.8025
# 6 -8.2383 -8.4652 -17.7859 -0.4762 -8.8025 24.3302
#
#
#
# Elastic Compliance Matrix: (Units=1/GPa)
#
#
# Indices 1 2 3 4 5 6 
#
# 1 0.013304 -0.003213 -0.003394 -0.004778 0.000462 0.000979
# 2 -0.003213 0.011459 -0.001660 0.001291 -0.000705 0.001456
# 3 -0.003394 -0.001660 0.010522 0.003281 -0.003563 0.004740
# 4 -0.004778 0.001291 0.003281 0.034292 0.002423 0.002777
# 5 0.000462 -0.000705 -0.003563 0.002423 0.021758 0.005226
# 6 0.000979 0.001456 0.004740 0.002777 0.005226 0.047350
#
#
# Mechanical properties :
#
#
# Convention : Reuss Voigt Hill
#
# Bulk Modulus (GPa) = 53.32919 61.27328 57.30124
# Shear Modulus (GPa) = 30.96572 36.93006 33.94789
#
# Velocity S-wave (km/s) = 3.80609 4.15651 3.98515
# Velocity P-wave (km/s) = 6.65308 7.19029 6.92689
#
# Compressibility (1/GPa) = 0.01875146
#
# Stress axis : x y z
#
# Youngs Moduli (GPa) = 75.16534 87.26690 95.03946
#
# Poissons Ratio (x) = 0.28038 0.32257
# Poissons Ratio (y) = 0.24150 0.15775
# Poissons Ratio (z) = 0.25512 0.14485
#
# Static dielectric constant tensor:
#      x y z
#    x 3.818050 -0.162320 -0.123880 
#    y -0.162320 3.411960 -0.190420 
#    z -0.123880 -0.190420 3.961570 
# 
# 
# High freq. dielectric constant tensor:
#      x y z
#    x 1.858450 -0.008910 0.009470 
#    y -0.008910 1.803740 -0.007390 
#    z 0.009470 -0.007390 1.863330 
# 
# From -- ./inp_files/81660.got.cif
#   From: 2010.06.25/outbox.cif.g09.slc.cpg/sg2_41_cif.got.tgz:81660.got - 2010.06.27 13:26:56.
