data_PCOD8015326
_publ_section_title
;
Structure prediction by ZEFSAII (Michael W. Deem and Ramdas Pophale) SiO2 
 PCOD8015326
Probable space group: P -1
;
_chemical_formula_sum "Si O2"
_cell_formula_units_Z 16
_cell_length_a 8.691379
_cell_length_b 15.169746
_cell_length_c 9.076535
_cell_angle_alpha 108.145650
_cell_angle_beta 41.296918
_cell_angle_gamma 111.947673
_cell_volume 731.622592
_symmetry_space_group_name_H-M "P -1"
_symmetry_group_IT_number 2
_symmetry_cell_setting 'triclinic'
loop_
_space_group_symop_operation_xyz
x,y,z
-x,-y,-z
loop_
_atom_site_type_symbol
_atom_site_label
_atom_site_fract_x
_atom_site_fract_y
_atom_site_fract_z
Si Si1 0.541422 0.034439 0.322209
Si Si2 0.974343 0.826287 0.991350
Si Si3 0.626961 0.710676 0.768331
Si Si4 0.915007 0.299865 0.408376
Si Si5 0.591758 0.397844 0.549921
Si Si6 0.508314 0.166352 0.816324
Si Si7 0.295851 0.206210 0.553240
Si Si8 0.720710 0.472311 0.186739
O O1 0.379366 0.107489 0.434860
O O2 0.821330 0.078767 0.119882
O O3 0.500000 0.000000 0.500000
O O4 0.462362 0.940755 0.227311
O O5 0.046272 0.742439 0.802323
O O6 0.720800 0.843507 0.129507
O O7 0.938877 0.800517 0.178119
O O8 0.756244 0.763902 0.558840
O O9 0.395707 0.628296 0.856187
O O10 0.827656 0.666260 0.681607
O O11 0.532129 0.785419 0.976097
O O12 0.800895 0.393139 0.515572
O O13 0.743347 0.222553 0.592827
O O14 0.506634 0.287684 0.510435
O O15 0.678237 0.468821 0.390458
O O16 0.375876 0.444194 0.788081
O O17 0.000000 0.500000 0.000000
#
# Coordination Sequence:
#
# PCOD8015326 Si02
#       8
#     2   2   2   2   2   2   2   2
#     4  12  21  37  65 100 128 176 235 272 312 389
#     4  11  20  37  69  95 124 178 228 274 311 391
#     4  10  27  44  62 101 137 174 210 279 347 385
#     4  11  22  43  66  95 138 172 218 271 334 390
#     4  10  21  42  67  98 125 171 224 271 321 393
#     4  11  23  40  64  95 138 175 216 276 332 381
#     4  11  23  40  65  99 127 175 229 269 330 384
#     4  10  24  43  71  99 129 167 221 271 329 404
#
# _framework density 21.869198999999998
#
# number of rings (size 3 to 8) (size 9 to 14) (size 15 to 20)
#    0.000    1.250    5.000    0.375    1.750    5.000 
#    0.000    2.500    0.000    0.000    0.000    0.000 
#    0.000    0.000    0.000    0.000    0.000    0.000 
#
# Total GULP energy -198318.046181 kJ/mol
# GULP energy per Si atom -12394.877886 kJ/mol
# Density = 2.181942 g / cm^3
# Si number density = 21.869199 Si / 1000 Ang^3
#
#
#
# Elastic Constant Matrix: (Units=GPa)
#
#
# Indices 1 2 3 4 5 6 
#
# 1 106.0765 68.2333 60.1241 5.3402 -6.0915 -2.9092
# 2 68.2333 103.9911 49.0887 1.5859 -7.3410 -14.1658
# 3 60.1241 49.0887 137.1045 -8.4681 -0.2452 1.6589
# 4 5.3402 1.5859 -8.4681 36.1088 2.1189 -8.8189
# 5 -6.0915 -7.3410 -0.2452 2.1189 37.2008 -0.1004
# 6 -2.9092 -14.1658 1.6589 -8.8189 -0.1004 32.5178
#
#
#
# Elastic Compliance Matrix: (Units=1/GPa)
#
#
# Indices 1 2 3 4 5 6 
#
# 1 0.019269 -0.010739 -0.004836 -0.004547 0.001253 -0.003937
# 2 -0.010739 0.018765 -0.001971 0.002123 0.001832 0.007896
# 3 -0.004836 -0.001971 0.010318 0.003055 -0.001289 -0.000993
# 4 -0.004547 0.002123 0.003055 0.031269 -0.002063 0.008836
# 5 0.001253 0.001832 -0.001289 -0.002063 0.027558 0.000502
# 6 -0.003937 0.007896 -0.000993 0.008836 0.000502 0.036288
#
#
# Mechanical properties :
#
#
# Convention : Reuss Voigt Hill
#
# Bulk Modulus (GPa) = 75.40559 78.00715 76.70637
# Shear Modulus (GPa) = 27.32559 32.48056 29.90307
#
# Velocity S-wave (km/s) = 3.53866 3.85804 3.70180
# Velocity P-wave (km/s) = 7.15900 7.45609 7.30905
#
# Compressibility (1/GPa) = 0.01326162
#
# Stress axis : x y z
#
# Youngs Moduli (GPa) = 51.89737 53.29012 96.91518
#
# Poissons Ratio (x) = 0.57228 0.46868
# Poissons Ratio (y) = 0.55732 0.19097
# Poissons Ratio (z) = 0.25097 0.10501
#
# Static dielectric constant tensor:
#      x y z
#    x 3.839430 -0.118750 -0.046360 
#    y -0.118750 4.065580 0.244250 
#    z -0.046360 0.244250 4.642010 
# 
# 
# High freq. dielectric constant tensor:
#      x y z
#    x 1.843120 -0.009440 -0.009840 
#    y -0.009440 1.858340 -0.000470 
#    z -0.009840 -0.000470 1.870590 
# 
# From -- ./inp_files/55266.got.cif
#   From: 2010.06.25/outbox.cif.g09.slc.cpg/sg2_28_cif.got.tgz:55266.got - 2010.06.27 13:26:56.
