data_PCOD8015409
_publ_section_title
;
Structure prediction by ZEFSAII (Michael W. Deem and Ramdas Pophale) SiO2 
 PCOD8015409
Probable space group: P -1
;
_chemical_formula_sum "Si O2"
_cell_formula_units_Z 14
_cell_length_a 9.941077
_cell_length_b 10.096390
_cell_length_c 11.822109
_cell_angle_alpha 138.872426
_cell_angle_beta 123.204036
_cell_angle_gamma 50.746793
_cell_volume 598.448379
_symmetry_space_group_name_H-M "P -1"
_symmetry_group_IT_number 2
_symmetry_cell_setting 'triclinic'
loop_
_space_group_symop_operation_xyz
x,y,z
-x,-y,-z
loop_
_atom_site_type_symbol
_atom_site_label
_atom_site_fract_x
_atom_site_fract_y
_atom_site_fract_z
Si Si1 0.443561 0.769365 0.008730
Si Si2 0.745522 0.598518 0.548624
Si Si3 0.394882 0.677981 0.330594
Si Si4 0.137301 0.513022 0.219169
Si Si5 0.772602 0.019663 0.742904
Si Si6 0.848492 0.113256 0.224176
Si Si7 0.790446 0.812280 0.161406
O O1 0.528721 0.513584 0.851441
O O2 0.302211 0.902150 0.934880
O O3 0.594163 0.865061 0.147426
O O4 0.344477 0.808053 0.107001
O O5 0.537063 0.678328 0.487464
O O6 0.792608 0.600618 0.702419
O O7 0.803429 0.769003 0.618705
O O8 0.843254 0.357440 0.386718
O O9 0.240425 0.657873 0.318917
O O10 0.320859 0.906650 0.374723
O O11 0.930240 0.674027 0.232508
O O12 0.167270 0.317887 0.020870
O O13 0.961020 0.037623 0.836130
O O14 0.815484 0.035515 0.284265
#
# Coordination Sequence:
#
# PCOD8015409 Si02
#       7
#     2   2   2   2   2   2   2
#     4  10  23  40  68 100 124 166 214 269 320 376
#     4  11  25  41  63  96 131 174 211 261 317 383
#     4  10  22  44  67  96 130 165 216 265 320 380
#     4  10  21  42  69  96 127 166 215 267 319 374
#     4  12  23  44  64  97 132 171 210 264 322 376
#     4  11  23  43  66  96 132 167 216 263 317 382
#     4  10  21  42  68  98 126 163 218 269 312 380
#
# _framework density 23.393830000000001
#
# number of rings (size 3 to 8) (size 9 to 14) (size 15 to 20)
#    0.000    1.429    1.429    3.429    0.000    4.000 
#   10.286    0.000    0.000    0.000    0.000    0.000 
#    0.000    0.000    0.000    0.000    0.000    0.000 
#
# Total GULP energy -173625.102008 kJ/mol
# GULP energy per Si atom -12401.793001 kJ/mol
# Density = 2.334058 g / cm^3
# Si number density = 23.393830 Si / 1000 Ang^3
#
#
#
# Elastic Constant Matrix: (Units=GPa)
#
#
# Indices 1 2 3 4 5 6 
#
# 1 87.5490 69.6187 37.8079 -2.6566 -4.0782 -17.2652
# 2 69.6187 164.5583 42.8338 -23.2689 21.9644 8.8451
# 3 37.8079 42.8338 58.5650 -15.3073 16.0059 -4.7520
# 4 -2.6566 -23.2689 -15.3073 30.9934 1.0941 12.5112
# 5 -4.0782 21.9644 16.0059 1.0941 12.6623 -0.3343
# 6 -17.2652 8.8451 -4.7520 12.5112 -0.3343 40.2602
#
#
#
# Elastic Compliance Matrix: (Units=1/GPa)
#
#
# Indices 1 2 3 4 5 6 
#
# 1 -0.017054 0.015051 0.025021 0.031856 -0.066460 -0.018118
# 2 0.015051 -0.002756 -0.022122 -0.017177 0.039344 0.010114
# 3 0.025021 -0.022122 -0.002402 -0.027279 0.052465 0.024220
# 4 0.031856 -0.017177 -0.027279 -0.000009 0.074930 0.014840
# 5 -0.066460 0.039344 0.052465 0.074930 -0.084922 -0.054943
# 6 -0.018118 0.010114 0.024220 0.014840 -0.054943 0.012637
#
#
# Mechanical properties :
#
#
# Convention : Reuss Voigt Hill
#
# Bulk Modulus (GPa) = 73.05598 67.91034 70.48316
# Shear Modulus (GPa) = -39.73216 27.47731 -6.12742
#
# Velocity S-wave (km/s) = -4.12564 3.43089 -1.62016
# Velocity P-wave (km/s) = 2.93292 6.69230 5.16667
#
# Compressibility (1/GPa) = 0.01368813
#
# Stress axis : x y z
#
# Youngs Moduli (GPa) = -58.63685 -362.81344 -416.39932
#
# Poissons Ratio (x) = 5.46079 10.41884
# Poissons Ratio (y) = 0.88256 -9.21178
# Poissons Ratio (z) = 1.46717 -8.02633
#
# Static dielectric constant tensor:
#      x y z
#    x 4.079630 -0.161990 0.225820 
#    y -0.161990 4.332680 -0.065830 
#    z 0.225820 -0.065830 4.051330 
# 
# 
# High freq. dielectric constant tensor:
#      x y z
#    x 1.923320 -0.007980 0.015480 
#    y -0.007980 1.943530 -0.002460 
#    z 0.015480 -0.002460 1.910710 
# 
# From -- ./inp_files/157648.got.cif
#   From: 2010.06.25/outbox.cif.g09.slc.cpg/sg2_79_cif.got.tgz:157648.got - 2010.06.27 13:26:56.
