data_PCOD8015785
_publ_section_title
;
Structure prediction by ZEFSAII (Michael W. Deem and Ramdas Pophale) SiO2 
 PCOD8015785
Probable space group: P -1
;
_chemical_formula_sum "Si O2"
_cell_formula_units_Z 16
_cell_length_a 9.918009
_cell_length_b 12.346695
_cell_length_c 9.159837
_cell_angle_alpha 57.809027
_cell_angle_beta 62.108978
_cell_angle_gamma 53.864193
_cell_volume 747.007130
_symmetry_space_group_name_H-M "P -1"
_symmetry_group_IT_number 2
_symmetry_cell_setting 'triclinic'
loop_
_space_group_symop_operation_xyz
x,y,z
-x,-y,-z
loop_
_atom_site_type_symbol
_atom_site_label
_atom_site_fract_x
_atom_site_fract_y
_atom_site_fract_z
Si Si1 0.709722 0.646257 0.894323
Si Si2 0.806680 0.339216 0.163538
Si Si3 0.784550 0.101460 0.829746
Si Si4 0.137855 0.077908 0.586311
Si Si5 0.817506 0.853105 0.814721
Si Si6 0.313232 0.625629 0.492168
Si Si7 0.991328 0.605535 0.555835
Si Si8 0.658910 0.183811 0.155217
O O1 0.695623 0.775786 0.913532
O O2 0.882850 0.586322 0.755424
O O3 0.542850 0.713562 0.828450
O O4 0.721496 0.512369 0.077033
O O5 0.746121 0.298572 0.375104
O O6 0.741400 0.283078 0.100042
O O7 0.011101 0.265625 0.110888
O O8 0.676910 0.260083 0.705863
O O9 0.985215 0.038875 0.733536
O O10 0.724250 0.990463 0.868552
O O11 0.751476 0.110134 0.011606
O O12 0.145246 0.094090 0.397588
O O13 0.102352 0.228983 0.571622
O O14 0.310447 0.946434 0.654850
O O15 0.500000 0.500000 0.500000
O O16 0.181402 0.567516 0.543594
O O17 0.000000 0.500000 0.500000
#
# Coordination Sequence:
#
# PCOD8015785 Si02
#       8
#     2   2   2   2   2   2   2   2
#     4  11  26  43  61  98 132 168 211 260 331 374
#     4  12  23  43  68  92 129 176 209 266 311 386
#     4  11  22  42  65  97 126 165 219 264 312 381
#     4  10  21  43  65  94 125 169 217 258 318 382
#     4  11  22  43  69  88 128 171 213 262 322 381
#     4  11  24  43  67  96 125 168 222 254 317 385
#     4  10  24  42  65  93 131 169 204 268 321 379
#     4  12  26  39  67  97 130 169 215 266 316 372
#
# _framework density 21.418804999999999
#
# number of rings (size 3 to 8) (size 9 to 14) (size 15 to 20)
#    0.000    1.000    5.000    3.000    5.250    2.500 
#    2.250    0.000    0.000    0.000    0.000    0.000 
#    0.000    0.000    0.000    0.000    0.000    0.000 
#
# Total GULP energy -198438.004280 kJ/mol
# GULP energy per Si atom -12402.375268 kJ/mol
# Density = 2.137006 g / cm^3
# Si number density = 21.418805 Si / 1000 Ang^3
#
#
#
# Elastic Constant Matrix: (Units=GPa)
#
#
# Indices 1 2 3 4 5 6 
#
# 1 120.6810 54.9735 43.4562 -12.4084 22.8205 4.0407
# 2 54.9735 102.7972 42.2186 -8.3103 17.8273 22.2443
# 3 43.4562 42.2186 66.5231 -13.1112 12.0570 12.6011
# 4 -12.4084 -8.3103 -13.1112 39.6032 -1.5778 14.3029
# 5 22.8205 17.8273 12.0570 -1.5778 24.1528 -3.3882
# 6 4.0407 22.2443 12.6011 14.3029 -3.3882 56.4787
#
#
#
# Elastic Compliance Matrix: (Units=1/GPa)
#
#
# Indices 1 2 3 4 5 6 
#
# 1 0.013245 -0.004044 -0.004823 0.001054 -0.006907 0.001040
# 2 -0.004044 0.016665 -0.005059 0.002523 -0.006656 -0.006184
# 3 -0.004823 -0.005059 0.024597 0.007299 -0.004248 -0.005253
# 4 0.001054 0.002523 0.007299 0.032351 -0.005966 -0.011248
# 5 -0.006907 -0.006656 -0.004248 -0.005966 0.055825 0.008923
# 6 0.001040 -0.006184 -0.005253 -0.011248 0.008923 0.024623
#
#
# Mechanical properties :
#
#
# Convention : Reuss Voigt Hill
#
# Bulk Modulus (GPa) = 37.51817 63.47755 50.49786
# Shear Modulus (GPa) = 24.50454 34.00379 29.25417
#
# Velocity S-wave (km/s) = 3.38608 3.98875 3.69971
# Velocity P-wave (km/s) = 5.73078 7.13542 6.47132
#
# Compressibility (1/GPa) = 0.02665375
#
# Stress axis : x y z
#
# Youngs Moduli (GPa) = 75.50055 60.00613 40.65457
#
# Poissons Ratio (x) = 0.24269 0.19608
# Poissons Ratio (y) = 0.30535 0.20569
# Poissons Ratio (z) = 0.36414 0.30359
#
# Static dielectric constant tensor:
#      x y z
#    x 3.931250 0.113270 0.087750 
#    y 0.113270 3.974970 -0.155120 
#    z 0.087750 -0.155120 3.797170 
# 
# 
# High freq. dielectric constant tensor:
#      x y z
#    x 1.839320 0.004540 0.009270 
#    y 0.004540 1.849040 -0.012270 
#    z 0.009270 -0.012270 1.832930 
# 
# From -- ./inp_files/184921.got.cif
#   From: 2010.06.25/outbox.cif.g09.slc.cpg/sg2_93_cif.got.tgz:184921.got - 2010.06.27 13:26:56.
