data_PCOD8015866
_publ_section_title
;
Structure prediction by ZEFSAII (Michael W. Deem and Ramdas Pophale) SiO2 
 PCOD8015866
Probable space group: P -1
;
_chemical_formula_sum "Si O2"
_cell_formula_units_Z 14
_cell_length_a 9.250545
_cell_length_b 17.432850
_cell_length_c 11.746058
_cell_angle_alpha 30.930768
_cell_angle_beta 131.732071
_cell_angle_gamma 113.548987
_cell_volume 649.962509
_symmetry_space_group_name_H-M "P -1"
_symmetry_group_IT_number 2
_symmetry_cell_setting 'triclinic'
loop_
_space_group_symop_operation_xyz
x,y,z
-x,-y,-z
loop_
_atom_site_type_symbol
_atom_site_label
_atom_site_fract_x
_atom_site_fract_y
_atom_site_fract_z
Si Si1 0.176173 0.602471 0.778037
Si Si2 0.642278 0.237523 0.723287
Si Si3 0.345131 0.282906 0.834168
Si Si4 0.130666 0.071364 0.903760
Si Si5 0.808691 0.517487 0.724578
Si Si6 0.635414 0.511223 0.221415
Si Si7 0.809983 0.172644 0.141038
O O1 0.254278 0.510014 0.815675
O O2 0.033309 0.799296 0.437053
O O3 0.032053 0.525662 0.863460
O O4 0.377093 0.576721 0.994242
O O5 0.389388 0.347144 0.478583
O O6 0.731068 0.337459 0.560592
O O7 0.792300 0.183015 0.982480
O O8 0.674658 0.072159 0.882074
O O9 0.230320 0.162725 0.921561
O O10 0.245982 0.433653 0.499106
O O11 0.309939 0.358152 0.846597
O O12 0.597393 0.174055 0.082038
O O13 0.000000 0.000000 0.000000
O O14 0.839318 0.331567 0.000181
O O15 0.000000 0.000000 0.500000
#
# Coordination Sequence:
#
# PCOD8015866 Si02
#       7
#     2   2   2   2   2   2   2
#     4  10  25  39  67  99 134 171 224 267 325 391
#     4  11  22  41  72  88 136 175 217 271 325 389
#     4  10  22  42  66  91 133 173 220 265 323 392
#     4  11  24  42  64 100 131 172 223 270 323 386
#     4  10  21  43  66  97 128 176 221 264 328 394
#     4  11  21  44  67  93 132 180 218 267 326 394
#     4  11  23  40  65 104 132 164 222 276 329 386
#
# _framework density 21.539704
#
# number of rings (size 3 to 8) (size 9 to 14) (size 15 to 20)
#    0.000    1.429    4.286    0.857    2.000   10.286 
#    0.000    0.714    0.000    0.000    0.000    0.000 
#    0.000    0.000    0.000    0.000    0.000    0.000 
#
# Total GULP energy -173629.042766 kJ/mol
# GULP energy per Si atom -12402.074483 kJ/mol
# Density = 2.149068 g / cm^3
# Si number density = 21.539704 Si / 1000 Ang^3
#
#
#
# Elastic Constant Matrix: (Units=GPa)
#
#
# Indices 1 2 3 4 5 6 
#
# 1 92.5920 40.2199 42.9976 -11.4586 0.2878 19.7164
# 2 40.2199 120.0409 54.5409 -32.4909 2.5448 2.6304
# 3 42.9976 54.5409 133.6387 -24.3566 9.2203 16.1944
# 4 -11.4586 -32.4909 -24.3566 21.8932 -1.5523 3.1071
# 5 0.2878 2.5448 9.2203 -1.5523 31.2588 -1.4464
# 6 19.7164 2.6304 16.1944 3.1071 -1.4464 37.2238
#
#
#
# Elastic Compliance Matrix: (Units=1/GPa)
#
#
# Indices 1 2 3 4 5 6 
#
# 1 0.015008 -0.003550 -0.002460 0.000840 0.000609 -0.006675
# 2 -0.003550 0.015506 -0.001667 0.019329 0.000217 -0.000095
# 3 -0.002460 -0.001667 0.011397 0.009338 -0.002945 -0.004431
# 4 0.000840 0.019329 0.009338 0.087013 -0.000624 -0.013161
# 5 0.000609 0.000217 -0.002945 -0.000624 0.032910 0.002274
# 6 -0.006675 -0.000095 -0.004431 -0.013161 0.002274 0.033521
#
#
# Mechanical properties :
#
#
# Convention : Reuss Voigt Hill
#
# Bulk Modulus (GPa) = 37.65457 69.08759 53.37108
# Shear Modulus (GPa) = 22.77262 31.97604 27.37433
#
# Velocity S-wave (km/s) = 3.25505 3.85712 3.56880
# Velocity P-wave (km/s) = 5.62553 7.20976 6.46634
#
# Compressibility (1/GPa) = 0.02655720
#
# Stress axis : x y z
#
# Youngs Moduli (GPa) = 66.63205 64.48936 87.74490
#
# Poissons Ratio (x) = 0.22893 0.21585
# Poissons Ratio (y) = 0.23654 0.14627
# Poissons Ratio (z) = 0.16391 0.10750
#
# Static dielectric constant tensor:
#      x y z
#    x 3.946250 0.015560 0.074690 
#    y 0.015560 3.991660 0.013310 
#    z 0.074690 0.013310 3.960250 
# 
# 
# High freq. dielectric constant tensor:
#      x y z
#    x 1.851600 -0.004710 0.006720 
#    y -0.004710 1.846190 -0.001220 
#    z 0.006720 -0.001220 1.843120 
# 
# From -- ./inp_files/156696.got.cif
#   From: 2010.06.25/outbox.cif.g09.slc.cpg/sg2_79_cif.got.tgz:156696.got - 2010.06.27 13:26:56.
