data_PCOD8015250
_publ_section_title
;
Structure prediction by ZEFSAII (Michael W. Deem and Ramdas Pophale) SiO2 
 PCOD8015250
Probable space group: P -1
;
_chemical_formula_sum "Si O2"
_cell_formula_units_Z 14
_cell_length_a 18.935783
_cell_length_b 5.157149
_cell_length_c 9.018151
_cell_angle_alpha 55.137230
_cell_angle_beta 56.125908
_cell_angle_gamma 67.753434
_cell_volume 597.622988
_symmetry_space_group_name_H-M "P -1"
_symmetry_group_IT_number 2
_symmetry_cell_setting 'triclinic'
loop_
_space_group_symop_operation_xyz
x,y,z
-x,-y,-z
loop_
_atom_site_type_symbol
_atom_site_label
_atom_site_fract_x
_atom_site_fract_y
_atom_site_fract_z
Si Si1 0.341773 0.559708 0.815751
Si Si2 0.567339 0.084293 0.154368
Si Si3 0.075936 0.659223 0.782557
Si Si4 0.613280 0.601610 0.720973
Si Si5 0.074614 0.395370 0.556472
Si Si6 0.260813 0.622510 0.588790
Si Si7 0.753018 0.735504 0.739384
O O1 0.373889 0.809286 0.813520
O O2 0.302039 0.737199 0.657123
O O3 0.416264 0.291739 0.768362
O O4 0.264748 0.375385 0.036836
O O5 0.468669 0.151636 0.293552
O O6 0.584234 0.259658 0.920380
O O7 0.060507 0.623496 0.638354
O O8 0.169867 0.477793 0.774280
O O9 0.073201 0.024210 0.719404
O O10 0.000000 0.500000 0.000000
O O11 0.667609 0.604996 0.504643
O O12 0.666372 0.716625 0.756775
O O13 0.164823 0.470687 0.354015
O O14 0.000000 0.500000 0.500000
O O15 0.231413 0.896131 0.413720
#
# Coordination Sequence:
#
# PCOD8015250 Si02
#       7
#     2   2   2   2   2   2   2
#     4  11  25  41  64  99 129 171 224 265 322 381
#     4  10  24  41  65  96 129 175 218 271 319 387
#     4  11  25  46  67 101 135 172 217 272 338 395
#     4  10  21  42  67  88 137 172 216 268 332 376
#     4  11  24  44  71  99 130 176 217 273 334 396
#     4  11  24  42  69  94 133 175 214 272 328 388
#     4  10  23  44  65  95 134 171 220 266 329 391
#
# _framework density 23.426141000000001
#
# number of rings (size 3 to 8) (size 9 to 14) (size 15 to 20)
#    0.000    1.429    2.857    0.857    6.000    2.857 
#    5.143    0.000    0.000    0.000    0.000    0.000 
#    0.000    0.000    0.000    0.000    0.000    0.000 
#
# Total GULP energy -173558.182866 kJ/mol
# GULP energy per Si atom -12397.013062 kJ/mol
# Density = 2.337282 g / cm^3
# Si number density = 23.426141 Si / 1000 Ang^3
#
#
#
# Elastic Constant Matrix: (Units=GPa)
#
#
# Indices 1 2 3 4 5 6 
#
# 1 101.9183 -2.4462 31.7664 18.5733 -4.9023 -11.6054
# 2 -2.4462 54.0130 19.6429 12.4518 -2.0742 -1.3179
# 3 31.7664 19.6429 92.8901 30.6819 -13.2667 -21.4393
# 4 18.5733 12.4518 30.6819 31.7074 -3.7658 -2.4558
# 5 -4.9023 -2.0742 -13.2667 -3.7658 44.2820 9.5937
# 6 -11.6054 -1.3179 -21.4393 -2.4558 9.5937 35.7348
#
#
#
# Elastic Compliance Matrix: (Units=1/GPa)
#
#
# Indices 1 2 3 4 5 6 
#
# 1 0.011865 0.002717 -0.002266 -0.005674 -0.000210 0.002260
# 2 0.002717 0.021419 -0.003432 -0.006760 -0.000122 -0.000819
# 3 -0.002266 -0.003432 0.019904 -0.015596 0.002184 0.009421
# 4 -0.005674 -0.006760 -0.015596 0.052052 0.000547 -0.008018
# 5 -0.000210 -0.000122 0.002184 0.000547 0.024397 -0.005275
# 6 0.002260 -0.000819 0.009421 -0.008018 -0.005275 0.035205
#
#
# Mechanical properties :
#
#
# Convention : Reuss Voigt Hill
#
# Bulk Modulus (GPa) = 21.17570 38.52753 29.85162
# Shear Modulus (GPa) = 26.80317 35.66874 31.23595
#
# Velocity S-wave (km/s) = 3.38621 3.90629 3.65551
# Velocity P-wave (km/s) = 4.93432 6.06857 5.53060
#
# Compressibility (1/GPa) = 0.04722394
#
# Stress axis : x y z
#
# Youngs Moduli (GPa) = 84.28476 46.68786 50.24194
#
# Poissons Ratio (x) = -0.12683 0.11386
# Poissons Ratio (y) = -0.22896 0.17243
# Poissons Ratio (z) = 0.19100 0.16023
#
# Static dielectric constant tensor:
#      x y z
#    x 4.558290 -0.374870 -0.243540 
#    y -0.374870 4.275900 0.201580 
#    z -0.243540 0.201580 4.726990 
# 
# 
# High freq. dielectric constant tensor:
#      x y z
#    x 1.928050 -0.002870 -0.008970 
#    y -0.002870 1.914350 0.015320 
#    z -0.008970 0.015320 1.932100 
# 
# From -- ./inp_files/35634.got.cif
#   From: 2010.06.25/outbox.cif.g09.slc.cpg/sg2_18_cif.got.tgz:35634.got - 2010.06.27 13:26:56.
