data_PCOD8015989
_publ_section_title
;
Structure prediction by ZEFSAII (Michael W. Deem and Ramdas Pophale) SiO2 
 PCOD8015989
Probable space group: P -1
;
_chemical_formula_sum "Si O2"
_cell_formula_units_Z 16
_cell_length_a 23.630899
_cell_length_b 14.741913
_cell_length_c 17.687832
_cell_angle_alpha 30.125691
_cell_angle_beta 21.294580
_cell_angle_gamma 20.460407
_cell_volume 780.663194
_symmetry_space_group_name_H-M "P -1"
_symmetry_group_IT_number 2
_symmetry_cell_setting 'triclinic'
loop_
_space_group_symop_operation_xyz
x,y,z
-x,-y,-z
loop_
_atom_site_type_symbol
_atom_site_label
_atom_site_fract_x
_atom_site_fract_y
_atom_site_fract_z
Si Si1 0.006282 0.196431 0.517913
Si Si2 0.865370 0.019711 0.084363
Si Si3 0.684663 0.418605 0.887652
Si Si4 0.542943 0.567929 0.615675
Si Si5 0.691134 0.186646 0.826918
Si Si6 0.985370 0.412292 0.158556
Si Si7 0.476411 0.626455 0.361636
Si Si8 0.884283 0.525231 0.901133
O O1 0.096363 0.304958 0.291131
O O2 0.879835 0.349469 0.644361
O O3 0.838184 0.224948 0.653049
O O4 0.216281 0.891827 0.488670
O O5 0.983915 0.735596 0.121002
O O6 0.625337 0.176834 0.306968
O O7 0.816911 0.170640 0.958101
O O8 0.000000 0.000000 0.000000
O O9 0.500000 0.500000 0.000000
O O10 0.532397 0.676086 0.944610
O O11 0.615396 0.321294 0.743105
O O12 0.439484 0.587875 0.651054
O O13 0.744662 0.529374 0.377063
O O14 0.821268 0.897217 0.855385
O O15 0.004506 0.542202 0.107211
O O16 0.000000 0.500000 0.000000
O O17 0.500000 0.500000 0.500000
O O18 0.628389 0.678975 0.125337
#
# Coordination Sequence:
#
# PCOD8015989 Si02
#       8
#     2   2   2   2   2   2   2   2
#     4  11  22  42  68  98 135 171 219 280 327 403
#     4  11  24  45  70  95 138 178 223 277 339 406
#     4   9  22  41  71  97 126 184 226 267 339 400
#     4  11  22  44  70  90 129 183 215 263 347 395
#     4  10  21  43  68  93 133 174 216 270 340 391
#     4  12  25  40  67 103 132 169 226 285 323 395
#     4  12  24  41  69  95 134 179 220 267 338 404
#     4  12  26  42  66 104 133 172 230 276 335 399
#
# _framework density 20.495394000000001
#
# number of rings (size 3 to 8) (size 9 to 14) (size 15 to 20)
#    0.000    1.000    3.750    3.000    3.500    1.500 
#    0.000    0.625    0.000    0.000    0.000    0.000 
#    0.000    0.000    0.000    0.000    0.000    0.000 
#
# Total GULP energy -198280.076031 kJ/mol
# GULP energy per Si atom -12392.504752 kJ/mol
# Density = 2.044875 g / cm^3
# Si number density = 20.495394 Si / 1000 Ang^3
#
#
#
# Elastic Constant Matrix: (Units=GPa)
#
#
# Indices 1 2 3 4 5 6 
#
# 1 134.9709 32.6816 36.8945 -2.3759 13.4944 1.9556
# 2 32.6816 88.6385 32.8445 -3.7699 7.1613 1.2678
# 3 36.8945 32.8445 106.4564 -14.5798 46.8247 6.4104
# 4 -2.3759 -3.7699 -14.5798 96.3641 -22.9483 25.2936
# 5 13.4944 7.1613 46.8247 -22.9483 37.0046 -15.2572
# 6 1.9556 1.2678 6.4104 25.2936 -15.2572 43.0421
#
#
#
# Elastic Compliance Matrix: (Units=1/GPa)
#
#
# Indices 1 2 3 4 5 6 
#
# 1 0.008600 -0.002263 -0.002646 -0.000230 0.000693 0.000451
# 2 -0.002263 0.014533 -0.009319 0.000722 0.012316 0.005004
# 3 -0.002646 -0.009319 0.042423 -0.001949 -0.063351 -0.027234
# 4 -0.000230 0.000722 -0.001949 0.013385 0.008881 -0.004438
# 5 0.000693 0.012316 -0.063351 0.008881 0.130741 0.050166
# 6 0.000451 0.005004 -0.027234 -0.004438 0.050166 0.047512
#
#
# Mechanical properties :
#
#
# Convention : Reuss Voigt Hill
#
# Bulk Modulus (GPa) = 26.95338 59.43413 43.19376
# Shear Modulus (GPa) = 16.77753 50.45850 33.61801
#
# Velocity S-wave (km/s) = 2.86422 4.96718 4.05442
# Velocity P-wave (km/s) = 4.91099 7.87140 6.56036
#
# Compressibility (1/GPa) = 0.03710109
#
# Stress axis : x y z
#
# Youngs Moduli (GPa) = 116.27478 68.80687 23.57191
#
# Poissons Ratio (x) = 0.15570 0.06237
# Poissons Ratio (y) = 0.26311 0.21968
# Poissons Ratio (z) = 0.30765 0.64124
#
# Static dielectric constant tensor:
#      x y z
#    x 4.107590 0.004180 0.264810 
#    y 0.004180 3.786860 0.271060 
#    z 0.264810 0.271060 4.098920 
# 
# 
# High freq. dielectric constant tensor:
#      x y z
#    x 1.819690 -0.005260 0.019920 
#    y -0.005260 1.798570 0.024140 
#    z 0.019920 0.024140 1.806400 
# 
# From -- ./inp_files/217124.got.cif
#   From: 2010.06.25/outbox.cif.g09.slc.cpg/sg2_109_cif.got.tgz:217124.got - 2010.06.27 13:26:56.
