data_PCOD8015923
_publ_section_title
;
Structure prediction by ZEFSAII (Michael W. Deem and Ramdas Pophale) SiO2 
 PCOD8015923
Probable space group: P -1
;
_chemical_formula_sum "Si O2"
_cell_formula_units_Z 16
_cell_length_a 12.497085
_cell_length_b 8.032785
_cell_length_c 8.311897
_cell_angle_alpha 120.410889
_cell_angle_beta 94.070372
_cell_angle_gamma 98.356518
_cell_volume 701.671678
_symmetry_space_group_name_H-M "P -1"
_symmetry_group_IT_number 2
_symmetry_cell_setting 'triclinic'
loop_
_space_group_symop_operation_xyz
x,y,z
-x,-y,-z
loop_
_atom_site_type_symbol
_atom_site_label
_atom_site_fract_x
_atom_site_fract_y
_atom_site_fract_z
Si Si1 0.137910 0.832449 0.372629
Si Si2 0.540853 0.582480 0.211866
Si Si3 0.099165 0.919819 0.044056
Si Si4 0.483644 0.812165 0.786368
Si Si5 0.713815 0.749221 0.707051
Si Si6 0.349737 0.693493 0.415989
Si Si7 0.780153 0.753176 0.354648
Si Si8 0.051023 0.488965 0.824742
O O1 0.096511 0.878785 0.214553
O O2 0.258470 0.781261 0.354691
O O3 0.046012 0.657152 0.357568
O O4 0.149908 0.029424 0.578123
O O5 0.552656 0.399348 0.235376
O O6 0.459811 0.717097 0.334075
O O7 0.657715 0.724996 0.261356
O O8 0.500000 0.500000 0.000000
O O9 0.210016 0.080274 0.092426
O O10 0.088923 0.704914 0.853802
O O11 0.000000 0.000000 0.000000
O O12 0.597067 0.811934 0.704002
O O13 0.386245 0.809763 0.644923
O O14 0.500000 0.000000 0.000000
O O15 0.700107 0.539521 0.687925
O O16 0.773416 0.733937 0.537336
O O17 0.839329 0.596371 0.200565
O O18 0.000000 0.500000 0.000000
#
# Coordination Sequence:
#
# PCOD8015923 Si02
#       8
#     2   2   2   2   2   2   2   2
#     4  10  24  41  67  97 130 181 220 281 338 398
#     4  11  25  40  69 103 139 181 226 277 336 408
#     4  10  22  42  67  97 128 173 226 282 332 405
#     4  11  24  43  66  99 142 179 224 278 339 409
#     4  10  21  43  67  95 133 184 221 273 341 400
#     4  11  22  46  69  98 147 179 222 283 337 406
#     4  11  22  43  67  96 136 178 228 272 338 406
#     4  10  23  43  66  95 134 170 226 286 332 398
#
# _framework density 22.802686999999999
#
# number of rings (size 3 to 8) (size 9 to 14) (size 15 to 20)
#    0.000    1.500    2.500    1.875    7.000    1.500 
#    2.250   10.625    0.000    0.000    0.000    0.000 
#    0.000    0.000    0.000    0.000    0.000    0.000 
#
# Total GULP energy -198284.898906 kJ/mol
# GULP energy per Si atom -12392.806182 kJ/mol
# Density = 2.275079 g / cm^3
# Si number density = 22.802687 Si / 1000 Ang^3
#
#
#
# Elastic Constant Matrix: (Units=GPa)
#
#
# Indices 1 2 3 4 5 6 
#
# 1 132.4774 47.2909 50.9424 11.5396 19.5408 -5.7221
# 2 47.2909 72.6074 51.5655 25.0093 17.5346 -13.7225
# 3 50.9424 51.5655 105.5597 19.4784 17.5810 -0.0392
# 4 11.5396 25.0093 19.4784 47.9894 3.0659 10.6478
# 5 19.5408 17.5346 17.5810 3.0659 53.6513 6.1288
# 6 -5.7221 -13.7225 -0.0392 10.6478 6.1288 41.5955
#
#
#
# Elastic Compliance Matrix: (Units=1/GPa)
#
#
# Indices 1 2 3 4 5 6 
#
# 1 0.010449 -0.005327 -0.002501 0.001473 -0.001271 -0.000512
# 2 -0.005327 0.034510 -0.010264 -0.015569 -0.006872 0.015640
# 3 -0.002501 -0.010264 0.015689 0.000447 -0.000472 -0.003760
# 4 0.001473 -0.015569 0.000447 0.031149 0.004170 -0.013521
# 5 -0.001271 -0.006872 -0.000472 0.004170 0.022036 -0.006757
# 6 -0.000512 0.015640 -0.003760 -0.013521 -0.006757 0.033584
#
#
# Mechanical properties :
#
#
# Convention : Reuss Voigt Hill
#
# Bulk Modulus (GPa) = 40.87632 67.80469 54.34050
# Shear Modulus (GPa) = 26.07509 39.37026 32.72267
#
# Velocity S-wave (km/s) = 3.38525 4.15970 3.79230
# Velocity P-wave (km/s) = 5.76584 7.27123 6.56185
#
# Compressibility (1/GPa) = 0.02446404
#
# Stress axis : x y z
#
# Youngs Moduli (GPa) = 95.70667 28.97728 63.73976
#
# Poissons Ratio (x) = 0.15436 0.15939
# Poissons Ratio (y) = 0.50981 0.65423
# Poissons Ratio (z) = 0.23933 0.29742
#
# Static dielectric constant tensor:
#      x y z
#    x 4.277780 0.297990 0.432610 
#    y 0.297990 4.226980 0.656420 
#    z 0.432610 0.656420 4.463790 
# 
# 
# High freq. dielectric constant tensor:
#      x y z
#    x 1.904820 0.004680 0.022640 
#    y 0.004680 1.891280 0.031650 
#    z 0.022640 0.031650 1.900450 
# 
# From -- ./inp_files/246086.got.cif
#   From: 2010.06.25/outbox.cif.g09.slc.cpg/sg2_124_cif.got.tgz:246086.got - 2010.06.27 13:26:56.
