data_PCOD8015751
_publ_section_title
;
Structure prediction by ZEFSAII (Michael W. Deem and Ramdas Pophale) SiO2 
 PCOD8015751
Probable space group: P -1
;
_chemical_formula_sum "Si O2"
_cell_formula_units_Z 10
_cell_length_a 9.325170
_cell_length_b 9.881287
_cell_length_c 10.456758
_cell_angle_alpha 41.406491
_cell_angle_beta 40.059814
_cell_angle_gamma 52.286614
_cell_volume 408.536430
_symmetry_space_group_name_H-M "P -1"
_symmetry_group_IT_number 2
_symmetry_cell_setting 'triclinic'
loop_
_space_group_symop_operation_xyz
x,y,z
-x,-y,-z
loop_
_atom_site_type_symbol
_atom_site_label
_atom_site_fract_x
_atom_site_fract_y
_atom_site_fract_z
Si Si1 0.170020 0.595801 0.055942
Si Si2 0.815742 0.139822 0.370856
Si Si3 0.797103 0.529211 0.520979
Si Si4 0.715130 0.118879 0.741355
Si Si5 0.416234 0.233044 0.283306
O O1 0.263538 0.358855 0.189967
O O2 0.907614 0.630710 0.249616
O O3 0.181232 0.648972 0.860417
O O4 0.320432 0.739978 0.939221
O O5 0.722665 0.194985 0.535559
O O6 0.643382 0.999605 0.516585
O O7 0.062784 0.026870 0.278672
O O8 0.696542 0.317297 0.704132
O O9 0.612349 0.678709 0.613653
O O10 0.000000 0.500000 0.500000
O O11 0.500000 0.000000 0.000000
#
# Coordination Sequence:
#
# PCOD8015751 Si02
#       5
#     2   2   2   2   2
#     4  10  22  39  70  95 129 165 217 263 318 379
#     4  11  24  43  64  98 129 172 213 261 323 382
#     4  10  21  43  64  94 128 168 213 266 314 372
#     4  11  26  43  65  93 137 170 210 268 321 374
#     4  10  22  41  69  96 130 166 212 267 320 375
#
# _framework density 24.477620999999999
#
# number of rings (size 3 to 8) (size 9 to 14) (size 15 to 20)
#    0.000    1.600    4.000    0.600    8.400    3.200 
#    0.000    2.000    0.000    0.000    0.000    0.000 
#    0.000    0.000    0.000    0.000    0.000    0.000 
#
# Total GULP energy -123951.426067 kJ/mol
# GULP energy per Si atom -12395.142607 kJ/mol
# Density = 2.442191 g / cm^3
# Si number density = 24.477621 Si / 1000 Ang^3
#
#
#
# Elastic Constant Matrix: (Units=GPa)
#
#
# Indices 1 2 3 4 5 6 
#
# 1 61.5435 34.5876 48.0058 2.0220 -8.5825 17.3235
# 2 34.5876 97.3662 35.5763 -4.4585 -3.3098 24.6505
# 3 48.0058 35.5763 152.4831 -8.2522 6.3061 2.6959
# 4 2.0220 -4.4585 -8.2522 21.4740 6.5511 -3.7454
# 5 -8.5825 -3.3098 6.3061 6.5511 64.5998 -4.8661
# 6 17.3235 24.6505 2.6959 -3.7454 -4.8661 36.3167
#
#
#
# Elastic Compliance Matrix: (Units=1/GPa)
#
#
# Indices 1 2 3 4 5 6 
#
# 1 0.030040 -0.005046 -0.008868 -0.010635 0.004871 -0.010690
# 2 -0.005046 0.014523 -0.001555 0.001786 -0.000499 -0.007218
# 3 -0.008868 -0.001555 0.010053 0.005974 -0.002482 0.004823
# 4 -0.010635 0.001786 0.005974 0.053697 -0.006743 0.008051
# 5 0.004871 -0.000499 -0.002482 -0.006743 0.017011 -0.000217
# 6 -0.010690 -0.007218 0.004823 0.008051 -0.000217 0.037978
#
#
# Mechanical properties :
#
#
# Convention : Reuss Voigt Hill
#
# Bulk Modulus (GPa) = 42.23168 60.85913 51.54540
# Shear Modulus (GPa) = 24.73617 37.35964 31.04790
#
# Velocity S-wave (km/s) = 3.18238 3.91100 3.56535
# Velocity P-wave (km/s) = 5.54924 6.73140 6.16870
#
# Compressibility (1/GPa) = 0.02367891
#
# Stress axis : x y z
#
# Youngs Moduli (GPa) = 33.28948 68.85440 99.46812
#
# Poissons Ratio (x) = 0.34742 0.88209
# Poissons Ratio (y) = 0.16797 0.15468
# Poissons Ratio (z) = 0.29521 0.10707
#
# Static dielectric constant tensor:
#      x y z
#    x 4.427490 -0.102560 -0.305210 
#    y -0.102560 4.601260 0.906430 
#    z -0.305210 0.906430 5.682610 
# 
# 
# High freq. dielectric constant tensor:
#      x y z
#    x 1.975360 0.003530 -0.010390 
#    y 0.003530 1.936140 0.007360 
#    z -0.010390 0.007360 2.000020 
# 
# From -- ./inp_files/143933.got.cif
#   From: 2010.06.25/outbox.cif.g09.slc.cpg/sg2_72_cif.got.tgz:143933.got - 2010.06.27 13:26:56.
