data_PCOD8015456
_publ_section_title
;
Structure prediction by ZEFSAII (Michael W. Deem and Ramdas Pophale) SiO2 
 PCOD8015456
Probable space group: P -1
;
_chemical_formula_sum "Si O2"
_cell_formula_units_Z 14
_cell_length_a 13.327798
_cell_length_b 8.941111
_cell_length_c 8.536577
_cell_angle_alpha 119.851490
_cell_angle_beta 118.302004
_cell_angle_gamma 51.672675
_cell_volume 671.369483
_symmetry_space_group_name_H-M "P -1"
_symmetry_group_IT_number 2
_symmetry_cell_setting 'triclinic'
loop_
_space_group_symop_operation_xyz
x,y,z
-x,-y,-z
loop_
_atom_site_type_symbol
_atom_site_label
_atom_site_fract_x
_atom_site_fract_y
_atom_site_fract_z
Si Si1 0.856023 0.634482 0.036845
Si Si2 0.831747 0.299402 0.739152
Si Si3 0.788646 0.359945 0.384584
Si Si4 0.874536 0.958918 0.064179
Si Si5 0.270610 0.943602 0.303932
Si Si6 0.771950 0.678797 0.340624
Si Si7 0.537992 0.635780 0.200455
O O1 0.799645 0.856764 0.042691
O O2 0.858692 0.642328 0.230860
O O3 0.771675 0.531641 0.865121
O O4 0.000000 0.500000 0.000000
O O5 0.852784 0.278323 0.557343
O O6 0.733347 0.224624 0.680053
O O7 0.969949 0.165654 0.858242
O O8 0.849251 0.488807 0.417362
O O9 0.628572 0.503651 0.346661
O O10 0.817928 0.179811 0.198938
O O11 0.846531 0.967845 0.863492
O O12 0.411758 0.838255 0.269100
O O13 0.253553 0.120020 0.492768
O O14 0.630565 0.697666 0.201342
O O15 0.500000 0.500000 0.000000
#
# Coordination Sequence:
#
# PCOD8015456 Si02
#       7
#     2   2   2   2   2   2   2
#     4  10  22  42  63  91 130 167 216 264 316 381
#     4  11  23  40  62  96 129 169 215 264 317 380
#     4  10  22  40  66  92 131 163 217 260 322 371
#     4  11  22  40  64  93 130 171 214 264 318 376
#     4  12  22  41  67  95 134 170 213 260 318 381
#     4  10  23  41  65  96 127 170 213 265 322 376
#     4  10  21  42  69  92 130 167 217 258 320 380
#
# _framework density 20.852899000000001
#
# number of rings (size 3 to 8) (size 9 to 14) (size 15 to 20)
#    0.857    0.571    1.429    4.714    0.000    2.857 
#    0.000    7.143    0.000    0.000    0.000    0.000 
#    0.000    0.000    0.000    0.000    0.000    0.000 
#
# Total GULP energy -173519.059163 kJ/mol
# GULP energy per Si atom -12394.218512 kJ/mol
# Density = 2.080544 g / cm^3
# Si number density = 20.852899 Si / 1000 Ang^3
#
#
#
# Elastic Constant Matrix: (Units=GPa)
#
#
# Indices 1 2 3 4 5 6 
#
# 1 90.2285 35.7505 41.7949 7.2014 -15.1722 17.8664
# 2 35.7505 71.4868 26.1752 20.1149 -2.3709 16.2932
# 3 41.7949 26.1752 129.0128 20.4926 -9.7471 7.7034
# 4 7.2014 20.1149 20.4926 40.9128 7.9427 7.5553
# 5 -15.1722 -2.3709 -9.7471 7.9427 35.6442 1.1138
# 6 17.8664 16.2932 7.7034 7.5553 1.1138 46.1394
#
#
#
# Elastic Compliance Matrix: (Units=1/GPa)
#
#
# Indices 1 2 3 4 5 6 
#
# 1 0.017019 -0.006508 -0.003821 0.001806 0.005492 -0.004083
# 2 -0.006508 0.020489 -0.000535 -0.008119 0.000359 -0.003305
# 3 -0.003821 -0.000535 0.009936 -0.004571 0.002051 0.000708
# 4 0.001806 -0.008119 -0.004571 0.032394 -0.008172 -0.002176
# 5 0.005492 0.000359 0.002051 -0.008172 0.032862 -0.002051
# 6 -0.004083 -0.003305 0.000708 -0.002176 -0.002051 0.024709
#
#
# Mechanical properties :
#
#
# Convention : Reuss Voigt Hill
#
# Bulk Modulus (GPa) = 38.88438 55.35212 47.11825
# Shear Modulus (GPa) = 29.81360 37.00647 33.41003
#
# Velocity S-wave (km/s) = 3.78525 4.21722 4.00706
# Velocity P-wave (km/s) = 6.14749 7.09331 6.63727
#
# Compressibility (1/GPa) = 0.02571727
#
# Stress axis : x y z
#
# Youngs Moduli (GPa) = 58.75711 48.80769 100.64161
#
# Poissons Ratio (x) = 0.31762 0.38459
# Poissons Ratio (y) = 0.38236 0.05380
# Poissons Ratio (z) = 0.22453 0.02609
#
# Static dielectric constant tensor:
#      x y z
#    x 3.840140 0.383130 0.161330 
#    y 0.383130 4.078110 0.238250 
#    z 0.161330 0.238250 3.802930 
# 
# 
# High freq. dielectric constant tensor:
#      x y z
#    x 1.804720 0.020410 0.006050 
#    y 0.020410 1.815600 0.017850 
#    z 0.006050 0.017850 1.823260 
# 
# From -- ./inp_files/245591.got.cif
#   From: 2010.06.25/outbox.cif.g09.slc.cpg/sg2_123_cif.got.tgz:245591.got - 2010.06.27 13:26:56.
