data_PCOD8015983
_publ_section_title
;
Structure prediction by ZEFSAII (Michael W. Deem and Ramdas Pophale) SiO2 
 PCOD8015983
Probable space group: P -1
;
_chemical_formula_sum "Si O2"
_cell_formula_units_Z 16
_cell_length_a 8.391800
_cell_length_b 18.343408
_cell_length_c 8.265620
_cell_angle_alpha 88.520988
_cell_angle_beta 109.835702
_cell_angle_gamma 139.728464
_cell_volume 714.569847
_symmetry_space_group_name_H-M "P -1"
_symmetry_group_IT_number 2
_symmetry_cell_setting 'triclinic'
loop_
_space_group_symop_operation_xyz
x,y,z
-x,-y,-z
loop_
_atom_site_type_symbol
_atom_site_label
_atom_site_fract_x
_atom_site_fract_y
_atom_site_fract_z
Si Si1 0.239980 0.196932 0.252528
Si Si2 0.302511 0.689689 0.822748
Si Si3 0.697711 0.524930 0.692566
Si Si4 0.444293 0.327154 0.849237
Si Si5 0.480339 0.958918 0.229699
Si Si6 0.121631 0.295402 0.007002
Si Si7 0.030692 0.096587 0.526667
Si Si8 0.313547 0.040393 0.019906
O O1 0.562065 0.292793 0.299499
O O2 0.138344 0.240233 0.153820
O O3 0.223357 0.191464 0.439116
O O4 0.029665 0.063493 0.101806
O O5 0.488149 0.822189 0.934765
O O6 0.978966 0.600443 0.684774
O O7 0.311687 0.631380 0.969940
O O8 0.500000 0.500000 0.500000
O O9 0.550508 0.400722 0.715516
O O10 0.783807 0.597796 0.880264
O O11 0.203368 0.182799 0.738205
O O12 0.320126 0.347743 0.919522
O O13 0.399644 0.017477 0.201385
O O14 0.648438 0.996120 0.123701
O O15 0.717085 0.024115 0.444466
O O16 0.202425 0.812109 0.162804
O O17 0.000000 0.000000 0.500000
#
# Coordination Sequence:
#
# PCOD8015983 Si02
#       8
#     2   2   2   2   2   2   2   2
#     4   9  20  38  63  95 124 167 211 266 314 392
#     4  11  22  41  66  92 125 173 217 262 329 383
#     4  12  26  44  68  94 127 174 224 273 319 380
#     4  11  25  43  65  96 131 172 216 272 319 390
#     4   9  18  33  60  94 124 169 199 265 315 391
#     4  10  21  43  68  92 128 171 220 264 328 382
#     4  11  23  39  62  99 141 166 211 266 331 381
#     4   9  16  31  63  91 124 159 212 250 325 376
#
# _framework density 22.391092
#
# number of rings (size 3 to 8) (size 9 to 14) (size 15 to 20)
#    0.000    1.750    1.250    4.125    1.750    2.500 
#    2.250    6.875    0.000    0.000    0.000    0.000 
#    0.000    0.000    0.000    0.000    0.000    0.000 
#
# Total GULP energy -198319.280323 kJ/mol
# GULP energy per Si atom -12394.955020 kJ/mol
# Density = 2.234013 g / cm^3
# Si number density = 22.391092 Si / 1000 Ang^3
#
#
#
# Elastic Constant Matrix: (Units=GPa)
#
#
# Indices 1 2 3 4 5 6 
#
# 1 76.2794 25.8007 34.2360 12.7489 21.5913 17.9713
# 2 25.8007 96.0827 23.6823 3.7360 12.8662 6.1630
# 3 34.2360 23.6823 75.4982 7.8116 24.7438 13.7723
# 4 12.7489 3.7360 7.8116 32.0516 -0.4840 0.2084
# 5 21.5913 12.8662 24.7438 -0.4840 35.8381 11.2054
# 6 17.9713 6.1630 13.7723 0.2084 11.2054 32.9133
#
#
#
# Elastic Compliance Matrix: (Units=1/GPa)
#
#
# Indices 1 2 3 4 5 6 
#
# 1 0.020568 -0.002894 -0.004436 -0.006815 -0.006305 -0.006643
# 2 -0.002894 0.011824 -0.002146 0.000273 -0.001229 0.000681
# 3 -0.004436 -0.002146 0.019764 -0.002933 -0.009563 -0.002172
# 4 -0.006815 0.000273 -0.002933 0.034660 0.005638 0.002758
# 5 -0.006305 -0.001229 -0.009563 0.005638 0.040774 -0.006243
# 6 -0.006643 0.000681 -0.002172 0.002758 -0.006243 0.036899
#
#
# Mechanical properties :
#
#
# Convention : Reuss Voigt Hill
#
# Bulk Modulus (GPa) = 30.11752 46.14424 38.13088
# Shear Modulus (GPa) = 25.70552 31.10334 28.40443
#
# Velocity S-wave (km/s) = 3.39193 3.73110 3.56555
# Velocity P-wave (km/s) = 5.36843 6.26215 5.83244
#
# Compressibility (1/GPa) = 0.03320327
#
# Stress axis : x y z
#
# Youngs Moduli (GPa) = 48.61843 84.57265 50.59713
#
# Poissons Ratio (x) = 0.24479 0.22444
# Poissons Ratio (y) = 0.14072 0.10860
# Poissons Ratio (z) = 0.21566 0.18152
#
# Static dielectric constant tensor:
#      x y z
#    x 4.106040 0.089440 0.290730 
#    y 0.089440 3.983950 0.052730 
#    z 0.290730 0.052730 3.926310 
# 
# 
# High freq. dielectric constant tensor:
#      x y z
#    x 1.882830 0.004440 0.008370 
#    y 0.004440 1.881080 0.003550 
#    z 0.008370 0.003550 1.862610 
# 
# From -- ./inp_files/217541.got.cif
#   From: 2010.06.25/outbox.cif.g09.slc.cpg/sg2_109_cif.got.tgz:217541.got - 2010.06.27 13:26:56.
