data_PCOD8015860
_publ_section_title
;
Structure prediction by ZEFSAII (Michael W. Deem and Ramdas Pophale) SiO2 
 PCOD8015860
Probable space group: P -1
;
_chemical_formula_sum "Si O2"
_cell_formula_units_Z 14
_cell_length_a 9.394507
_cell_length_b 13.952769
_cell_length_c 11.330461
_cell_angle_alpha 148.062914
_cell_angle_beta 55.804430
_cell_angle_gamma 124.695706
_cell_volume 635.213217
_symmetry_space_group_name_H-M "P -1"
_symmetry_group_IT_number 2
_symmetry_cell_setting 'triclinic'
loop_
_space_group_symop_operation_xyz
x,y,z
-x,-y,-z
loop_
_atom_site_type_symbol
_atom_site_label
_atom_site_fract_x
_atom_site_fract_y
_atom_site_fract_z
Si Si1 0.492986 0.411680 0.257887
Si Si2 0.735270 0.179375 0.009829
Si Si3 0.280008 0.202817 0.457532
Si Si4 0.068823 0.716325 0.208190
Si Si5 0.561518 0.231669 0.811275
Si Si6 0.458779 0.822686 0.494817
Si Si7 0.810700 0.407615 0.441735
O O1 0.555864 0.247978 0.128836
O O2 0.622073 0.601884 0.440769
O O3 0.291126 0.432813 0.389881
O O4 0.516385 0.388995 0.082554
O O5 0.825452 0.275025 0.185640
O O6 0.877945 0.209931 0.870514
O O7 0.687006 0.956202 0.815360
O O8 0.362272 0.171931 0.513109
O O9 0.076085 0.190973 0.565607
O O10 0.232642 0.768524 0.274267
O O11 0.000000 0.500000 0.000000
O O12 0.526672 0.281034 0.744306
O O13 0.440224 0.033047 0.696950
O O14 0.293307 0.717027 0.536548
O O15 0.000000 0.500000 0.500000
#
# Coordination Sequence:
#
# PCOD8015860 Si02
#       7
#     2   2   2   2   2   2   2
#     4  10  22  43  68  92 126 173 217 261 322 377
#     4  11  23  43  65  94 132 168 211 264 320 385
#     4  11  21  40  68  99 123 168 216 268 315 380
#     4  11  21  39  67 101 127 163 216 264 320 375
#     4  10  21  43  66  96 132 164 212 274 316 376
#     4  10  23  41  66  93 131 168 217 259 327 377
#     4  11  27  44  63  95 130 174 217 262 323 392
#
# _framework density 22.039845
#
# number of rings (size 3 to 8) (size 9 to 14) (size 15 to 20)
#    0.000    1.429    5.714    0.857    2.000    5.714 
#    5.143    0.714    0.000    0.000    0.000    0.000 
#    0.000    0.000    0.000    0.000    0.000    0.000 
#
# Total GULP energy -173569.048088 kJ/mol
# GULP energy per Si atom -12397.789149 kJ/mol
# Density = 2.198968 g / cm^3
# Si number density = 22.039845 Si / 1000 Ang^3
#
#
#
# Elastic Constant Matrix: (Units=GPa)
#
#
# Indices 1 2 3 4 5 6 
#
# 1 119.7377 24.0583 66.4662 -14.9002 10.0702 19.8705
# 2 24.0583 38.9166 14.8129 8.8947 -7.8928 11.1958
# 3 66.4662 14.8129 154.5869 3.8560 4.9950 8.7094
# 4 -14.9002 8.8947 3.8560 29.4798 -2.2024 1.4184
# 5 10.0702 -7.8928 4.9950 -2.2024 43.8228 -7.2383
# 6 19.8705 11.1958 8.7094 1.4184 -7.2383 31.3125
#
#
#
# Elastic Compliance Matrix: (Units=1/GPa)
#
#
# Indices 1 2 3 4 5 6 
#
# 1 0.016930 -0.010005 -0.006033 0.012300 -0.005599 -0.007340
# 2 -0.010005 0.038070 0.001101 -0.015889 0.007382 -0.005143
# 3 -0.006033 0.001101 0.008983 -0.004577 0.000540 0.001268
# 4 0.012300 -0.015889 -0.004577 0.045449 -0.003497 -0.003718
# 5 -0.005599 0.007382 0.000540 -0.003497 0.026357 0.007014
# 6 -0.007340 -0.005143 0.001268 -0.003718 0.007014 0.039870
#
#
# Mechanical properties :
#
#
# Convention : Reuss Voigt Hill
#
# Bulk Modulus (GPa) = 29.31739 58.21289 43.76514
# Shear Modulus (GPa) = 23.05188 34.78327 28.91758
#
# Velocity S-wave (km/s) = 3.23757 3.97697 3.62617
# Velocity P-wave (km/s) = 5.22558 6.89625 6.11821
#
# Compressibility (1/GPa) = 0.03410945
#
# Stress axis : x y z
#
# Youngs Moduli (GPa) = 59.06547 26.26718 111.32734
#
# Poissons Ratio (x) = 0.26281 0.67164
# Poissons Ratio (y) = 0.59097 -0.12262
# Poissons Ratio (z) = 0.35634 -0.02893
#
# Static dielectric constant tensor:
#      x y z
#    x 4.535410 0.169600 -0.163050 
#    y 0.169600 4.133400 0.080680 
#    z -0.163050 0.080680 4.503760 
# 
# 
# High freq. dielectric constant tensor:
#      x y z
#    x 1.850090 -0.004410 0.008360 
#    y -0.004410 1.866040 0.002020 
#    z 0.008360 0.002020 1.884070 
# 
# From -- ./inp_files/397928.got.cif
#   From: 2010.06.25/outbox.cif.g09.slc.cpg/sg2_199_cif.got.tgz:397928.got - 2010.06.27 13:26:56.
