data_PCOD8015121
_publ_section_title
;
Structure prediction by ZEFSAII (Michael W. Deem and Ramdas Pophale) SiO2 
 PCOD8015121
Probable space group: P -1
;
_chemical_formula_sum "Si O2"
_cell_formula_units_Z 16
_cell_length_a 22.473699
_cell_length_b 9.021435
_cell_length_c 11.644494
_cell_angle_alpha 133.367746
_cell_angle_beta 140.540177
_cell_angle_gamma 28.457466
_cell_volume 714.714401
_symmetry_space_group_name_H-M "P -1"
_symmetry_group_IT_number 2
_symmetry_cell_setting 'triclinic'
loop_
_space_group_symop_operation_xyz
x,y,z
-x,-y,-z
loop_
_atom_site_type_symbol
_atom_site_label
_atom_site_fract_x
_atom_site_fract_y
_atom_site_fract_z
Si Si1 0.175620 0.712946 0.213862
Si Si2 0.875795 0.407064 0.158711
Si Si3 0.658000 0.472761 0.246502
Si Si4 0.211607 0.385967 0.617537
Si Si5 0.140232 0.351008 0.070710
Si Si6 0.575717 0.307160 0.835617
Si Si7 0.600242 0.320582 0.445367
Si Si8 0.896735 0.791181 0.301549
O O1 0.144095 0.589078 0.194532
O O2 0.314195 0.609171 0.401841
O O3 0.205849 0.573253 0.056208
O O4 0.042149 0.084412 0.217190
O O5 0.811845 0.448952 0.209901
O O6 0.862698 0.675935 0.285231
O O7 0.698543 0.631267 0.349369
O O8 0.522636 0.700720 0.251422
O O9 0.789837 0.157921 0.347459
O O10 0.617436 0.414741 0.042468
O O11 0.058292 0.600716 0.445988
O O12 0.293636 0.042489 0.577755
O O13 0.281693 0.040892 0.183038
O O14 0.139287 0.264840 0.897508
O O15 0.000000 0.500000 0.000000
O O16 0.496362 0.547494 0.740815
O O17 0.500000 0.500000 0.500000
#
# Coordination Sequence:
#
# PCOD8015121 Si02
#       8
#     2   2   2   2   2   2   2   2
#     4  10  24  43  68 105 139 183 225 287 349 406
#     4  10  22  42  72  98 142 177 229 279 347 409
#     4  10  24  44  70 100 135 181 232 289 344 407
#     4  12  25  41  73 104 133 184 234 285 339 420
#     4  10  24  42  73  96 134 182 229 284 347 414
#     4  10  25  47  66  95 141 184 226 288 352 411
#     4  12  29  45  68 102 148 182 230 285 346 421
#     4  10  21  42  66 103 135 172 230 285 335 409
#
# _framework density 22.386565999999998
#
# number of rings (size 3 to 8) (size 9 to 14) (size 15 to 20)
#    0.000    1.500    1.250    1.500   10.500    3.000 
#    0.000    0.000    0.000    0.000    0.000    0.000 
#    0.000    0.000    0.000    0.000    0.000    0.000 
#
# Total GULP energy -198407.381963 kJ/mol
# GULP energy per Si atom -12400.461373 kJ/mol
# Density = 2.233561 g / cm^3
# Si number density = 22.386566 Si / 1000 Ang^3
#
#
#
# Elastic Constant Matrix: (Units=GPa)
#
#
# Indices 1 2 3 4 5 6 
#
# 1 107.7021 53.4429 29.8699 -5.3099 29.1152 2.4389
# 2 53.4429 113.0568 57.7952 -22.0328 15.6746 3.2705
# 3 29.8699 57.7952 79.1178 -19.9199 13.8184 10.8623
# 4 -5.3099 -22.0328 -19.9199 36.1603 0.4456 -0.9089
# 5 29.1152 15.6746 13.8184 0.4456 33.6168 0.6215
# 6 2.4389 3.2705 10.8623 -0.9089 0.6215 37.0517
#
#
#
# Elastic Compliance Matrix: (Units=1/GPa)
#
#
# Indices 1 2 3 4 5 6 
#
# 1 0.014883 -0.005992 0.000294 -0.001188 -0.010194 -0.000395
# 2 -0.005992 0.017288 -0.009700 0.004343 0.001025 0.001801
# 3 0.000294 -0.009700 0.022982 0.006715 -0.005164 -0.005649
# 4 -0.001188 0.004343 0.006715 0.033843 -0.004180 -0.001374
# 5 -0.010194 0.001025 -0.005164 -0.004180 0.040251 0.001317
# 6 -0.000395 0.001801 -0.005649 -0.001374 0.001317 0.028457
#
#
# Mechanical properties :
#
#
# Convention : Reuss Voigt Hill
#
# Bulk Modulus (GPa) = 41.05503 64.67695 52.86599
# Shear Modulus (GPa) = 25.42990 31.95035 28.69012
#
# Velocity S-wave (km/s) = 3.37403 3.78194 3.58380
# Velocity P-wave (km/s) = 5.79291 6.92997 6.38679
#
# Compressibility (1/GPa) = 0.02435755
#
# Stress axis : x y z
#
# Youngs Moduli (GPa) = 67.19154 57.84214 43.51239
#
# Poissons Ratio (x) = 0.34661 -0.01280
# Poissons Ratio (y) = 0.40264 0.42205
# Poissons Ratio (z) = -0.01976 0.56104
#
# Static dielectric constant tensor:
#      x y z
#    x 3.262360 0.142580 0.078980 
#    y 0.142580 4.225400 -0.161150 
#    z 0.078980 -0.161150 4.015910 
# 
# 
# High freq. dielectric constant tensor:
#      x y z
#    x 1.885700 0.003340 -0.000480 
#    y 0.003340 1.884740 -0.009500 
#    z -0.000480 -0.009500 1.881900 
# 
# From -- ./inp_files/244126.got.cif
#   From: 2010.06.25/outbox.cif.g09.slc.cpg/sg2_123_cif.got.tgz:244126.got - 2010.06.27 13:26:56.
