data_PCOD8015196
_publ_section_title
;
Structure prediction by ZEFSAII (Michael W. Deem and Ramdas Pophale) SiO2 
 PCOD8015196
Probable space group: P -1
;
_chemical_formula_sum "Si O2"
_cell_formula_units_Z 16
_cell_length_a 12.964962
_cell_length_b 10.859507
_cell_length_c 11.386465
_cell_angle_alpha 136.988534
_cell_angle_beta 116.914188
_cell_angle_gamma 93.547401
_cell_volume 744.442878
_symmetry_space_group_name_H-M "P -1"
_symmetry_group_IT_number 2
_symmetry_cell_setting 'triclinic'
loop_
_space_group_symop_operation_xyz
x,y,z
-x,-y,-z
loop_
_atom_site_type_symbol
_atom_site_label
_atom_site_fract_x
_atom_site_fract_y
_atom_site_fract_z
Si Si1 0.787486 0.789313 0.066123
Si Si2 0.097471 0.707555 0.486761
Si Si3 0.555948 0.436194 0.879954
Si Si4 0.653820 0.757413 0.738561
Si Si5 0.743403 0.364391 0.077651
Si Si6 0.276648 0.032574 0.315415
Si Si7 0.647877 0.132680 0.091809
Si Si8 0.963952 0.618792 0.973770
O O1 0.862831 0.040837 0.343705
O O2 0.626724 0.608714 0.923812
O O3 0.773388 0.809207 0.933015
O O4 0.873600 0.683992 0.042754
O O5 0.198900 0.733557 0.662201
O O6 0.126999 0.587607 0.316256
O O7 0.922371 0.536512 0.310575
O O8 0.406018 0.182974 0.584710
O O9 0.500000 0.500000 0.000000
O O10 0.691975 0.458532 0.022475
O O11 0.500000 0.500000 0.500000
O O12 0.717410 0.805303 0.670698
O O13 0.618451 0.929313 0.857333
O O14 0.668439 0.316796 0.136133
O O15 0.685867 0.120742 0.826225
O O16 0.111652 0.869574 0.175530
O O17 0.500000 0.000000 0.000000
O O18 0.000000 0.500000 0.000000
#
# Coordination Sequence:
#
# PCOD8015196 Si02
#       8
#     2   2   2   2   2   2   2   2
#     4  11  25  45  70 101 135 181 224 282 340 403
#     4  10  24  45  67  98 139 172 229 274 339 407
#     4  12  27  41  65  99 137 177 226 281 343 403
#     4  10  21  42  66  95 135 170 224 285 335 393
#     4  10  23  43  66  92 134 180 217 285 336 400
#     4  10  23  45  66  98 133 173 237 276 337 409
#     4  10  23  38  68  98 128 175 226 279 335 398
#     4  11  26  44  72 100 137 185 223 278 344 409
#
# _framework density 21.492583
#
# number of rings (size 3 to 8) (size 9 to 14) (size 15 to 20)
#    0.000    1.500    1.250    2.250    8.750    2.500 
#    0.000    0.000    0.000    0.000    0.000    0.000 
#    0.000    0.000    0.000    0.000    0.000    0.000 
#
# Total GULP energy -198208.775616 kJ/mol
# GULP energy per Si atom -12388.048476 kJ/mol
# Density = 2.144367 g / cm^3
# Si number density = 21.492583 Si / 1000 Ang^3
#
#
#
# Elastic Constant Matrix: (Units=GPa)
#
#
# Indices 1 2 3 4 5 6 
#
# 1 97.5456 33.1223 42.9802 0.5563 -1.1711 10.8269
# 2 33.1223 112.8026 38.4973 2.1644 7.4687 10.0234
# 3 42.9802 38.4973 149.3228 0.1536 -0.4717 6.1628
# 4 0.5563 2.1644 0.1536 24.7953 -7.1047 5.3594
# 5 -1.1711 7.4687 -0.4717 -7.1047 25.8593 2.2958
# 6 10.8269 10.0234 6.1628 5.3594 2.2958 32.3710
#
#
#
# Elastic Compliance Matrix: (Units=1/GPa)
#
#
# Indices 1 2 3 4 5 6 
#
# 1 0.012785 -0.002639 -0.002861 0.001211 0.001910 -0.003250
# 2 -0.002639 0.010706 -0.001946 -0.001539 -0.003532 -0.001557
# 3 -0.002861 -0.001946 0.008027 0.000402 0.000697 -0.000085
# 4 0.001211 -0.001539 0.000402 0.046320 0.014002 -0.008667
# 5 0.001910 -0.003532 0.000697 0.014002 0.044092 -0.005123
# 6 -0.003250 -0.001557 -0.000085 -0.008667 -0.005123 0.034276
#
#
# Mechanical properties :
#
#
# Convention : Reuss Voigt Hill
#
# Bulk Modulus (GPa) = 60.14198 65.43005 62.78602
# Shear Modulus (GPa) = 28.30640 32.94319 30.62480
#
# Velocity S-wave (km/s) = 3.63303 3.91931 3.77888
# Velocity P-wave (km/s) = 6.75588 7.14076 6.95099
#
# Compressibility (1/GPa) = 0.01662732
#
# Stress axis : x y z
#
# Youngs Moduli (GPa) = 78.21754 93.40917 124.57530
#
# Poissons Ratio (x) = 0.24647 0.35637
# Poissons Ratio (y) = 0.20639 0.24241
# Poissons Ratio (z) = 0.22376 0.18176
#
# Static dielectric constant tensor:
#      x y z
#    x 4.011930 -0.150620 -0.018730 
#    y -0.150620 5.813650 -1.352200 
#    z -0.018730 -1.352200 5.109490 
# 
# 
# High freq. dielectric constant tensor:
#      x y z
#    x 1.831860 0.010870 -0.004730 
#    y 0.010870 1.859060 -0.000500 
#    z -0.004730 -0.000500 1.855540 
# 
# From -- ./inp_files/282844.got.cif
#   From: 2010.06.25/outbox.cif.g09.slc.cpg/sg2_142_cif.got.tgz:282844.got - 2010.06.27 13:26:56.
