data_PCOD8015879
_publ_section_title
;
Structure prediction by ZEFSAII (Michael W. Deem and Ramdas Pophale) SiO2 
 PCOD8015879
Probable space group: P -1
;
_chemical_formula_sum "Si O2"
_cell_formula_units_Z 14
_cell_length_a 11.881324
_cell_length_b 25.098708
_cell_length_c 8.542848
_cell_angle_alpha 148.701436
_cell_angle_beta 145.259023
_cell_angle_gamma 30.338017
_cell_volume 633.051995
_symmetry_space_group_name_H-M "P -1"
_symmetry_group_IT_number 2
_symmetry_cell_setting 'triclinic'
loop_
_space_group_symop_operation_xyz
x,y,z
-x,-y,-z
loop_
_atom_site_type_symbol
_atom_site_label
_atom_site_fract_x
_atom_site_fract_y
_atom_site_fract_z
Si Si1 0.346780 0.071799 0.151717
Si Si2 0.103110 0.970947 0.813238
Si Si3 0.964789 0.414128 0.133137
Si Si4 0.374035 0.854467 0.140014
Si Si5 0.770884 0.587501 0.855120
Si Si6 0.454510 0.544759 0.884127
Si Si7 0.045633 0.767244 0.095133
O O1 0.492838 0.083618 0.486081
O O2 0.150291 0.202949 0.184714
O O3 0.500000 0.000000 0.000000
O O4 0.223788 0.003786 0.901089
O O5 0.018535 0.887662 0.436044
O O6 0.300934 0.895846 0.982098
O O7 0.870456 0.096666 0.924238
O O8 0.153852 0.362422 0.080198
O O9 0.000000 0.500000 0.500000
O O10 0.703064 0.499025 0.970890
O O11 0.985308 0.302870 0.972634
O O12 0.553232 0.707418 0.991643
O O13 0.680042 0.503747 0.486429
O O14 0.000000 0.500000 0.000000
O O15 0.500000 0.500000 0.000000
O O16 0.288820 0.690660 0.082712
#
# Coordination Sequence:
#
# PCOD8015879 Si02
#       7
#     2   2   2   2   2   2   2
#     4  12  26  44  70 107 137 182 241 290 348 413
#     4  11  26  48  69 104 144 188 236 287 355 421
#     4  11  24  43  73 102 139 188 239 288 350 426
#     4  11  26  45  71 101 146 187 233 285 359 421
#     4  12  26  45  71 108 142 183 237 296 360 415
#     4  10  21  43  67 102 132 179 233 278 351 418
#     4  11  23  43  73 103 136 183 234 288 359 409
#
# _framework density 22.115085000000001
#
# number of rings (size 3 to 8) (size 9 to 14) (size 15 to 20)
#    0.000    0.857    4.286    3.429    2.000    5.143 
#    0.000    0.000    0.000    0.000    0.000    0.000 
#    0.000    0.000    0.000    0.000    0.000    0.000 
#
# Total GULP energy -173550.781810 kJ/mol
# GULP energy per Si atom -12396.484415 kJ/mol
# Density = 2.206475 g / cm^3
# Si number density = 22.115085 Si / 1000 Ang^3
#
#
#
# Elastic Constant Matrix: (Units=GPa)
#
#
# Indices 1 2 3 4 5 6 
#
# 1 100.4354 37.9458 33.6346 6.4416 13.9395 -8.8572
# 2 37.9458 154.7396 40.1493 -10.5179 -6.4033 -14.6806
# 3 33.6346 40.1493 119.5120 -16.2711 -10.1714 -0.5371
# 4 6.4416 -10.5179 -16.2711 42.8659 -3.0179 -5.0598
# 5 13.9395 -6.4033 -10.1714 -3.0179 25.4294 -0.9166
# 6 -8.8572 -14.6806 -0.5371 -5.0598 -0.9166 32.2962
#
#
#
# Elastic Compliance Matrix: (Units=1/GPa)
#
#
# Indices 1 2 3 4 5 6 
#
# 1 0.014801 -0.003085 -0.004838 -0.005457 -0.011423 0.001397
# 2 -0.003085 0.008183 -0.001184 0.002683 0.003719 0.003380
# 3 -0.004838 -0.001184 0.011481 0.005250 0.007546 -0.000637
# 4 -0.005457 0.002683 0.005250 0.027977 0.009248 0.004456
# 5 -0.011423 0.003719 0.007546 0.009248 0.050695 0.001571
# 6 0.001397 0.003380 -0.000637 0.004456 0.001571 0.033615
#
#
# Mechanical properties :
#
#
# Convention : Reuss Voigt Hill
#
# Bulk Modulus (GPa) = 61.53480 66.46072 63.99776
# Shear Modulus (GPa) = 29.34576 37.64880 33.49728
#
# Velocity S-wave (km/s) = 3.64669 4.13050 3.89611
# Velocity P-wave (km/s) = 6.75399 7.27086 7.01719
#
# Compressibility (1/GPa) = 0.01625097
#
# Stress axis : x y z
#
# Youngs Moduli (GPa) = 67.56306 122.20289 87.10220
#
# Poissons Ratio (x) = 0.37704 0.42138
# Poissons Ratio (y) = 0.20846 0.10311
# Poissons Ratio (z) = 0.32685 0.14467
#
# Static dielectric constant tensor:
#      x y z
#    x 4.236990 -0.486940 0.110390 
#    y -0.486940 4.083820 -0.199860 
#    z 0.110390 -0.199860 4.099740 
# 
# 
# High freq. dielectric constant tensor:
#      x y z
#    x 1.862920 -0.013920 -0.006540 
#    y -0.013920 1.889410 -0.016870 
#    z -0.006540 -0.016870 1.876840 
# 
# From -- ./inp_files/285898.got.cif
#   From: 2010.06.25/outbox.cif.g09.slc.cpg/sg2_143_cif.got.tgz:285898.got - 2010.06.27 13:26:56.
