data_PCOD8015387
_publ_section_title
;
Structure prediction by ZEFSAII (Michael W. Deem and Ramdas Pophale) SiO2 
 PCOD8015387
Probable space group: P -1
;
_chemical_formula_sum "Si O2"
_cell_formula_units_Z 16
_cell_length_a 10.337539
_cell_length_b 9.850242
_cell_length_c 11.758067
_cell_angle_alpha 50.263510
_cell_angle_beta 52.651606
_cell_angle_gamma 57.437347
_cell_volume 709.427853
_symmetry_space_group_name_H-M "P -1"
_symmetry_group_IT_number 2
_symmetry_cell_setting 'triclinic'
loop_
_space_group_symop_operation_xyz
x,y,z
-x,-y,-z
loop_
_atom_site_type_symbol
_atom_site_label
_atom_site_fract_x
_atom_site_fract_y
_atom_site_fract_z
Si Si1 0.808330 0.841234 0.499627
Si Si2 0.646718 0.189803 0.896020
Si Si3 0.610884 0.575229 0.655617
Si Si4 0.990891 0.998189 0.140636
Si Si5 0.072119 0.360227 0.937346
Si Si6 0.874273 0.404184 0.412706
Si Si7 0.647695 0.222845 0.477151
Si Si8 0.440433 0.148772 0.818230
O O1 0.679344 0.714747 0.621991
O O2 0.841948 0.919114 0.315048
O O3 0.975858 0.735524 0.529882
O O4 0.724348 0.010033 0.532710
O O5 0.585074 0.406120 0.837643
O O6 0.845898 0.136959 0.822378
O O7 0.595848 0.143942 0.820933
O O8 0.573044 0.059055 0.090064
O O9 0.743036 0.499924 0.525845
O O10 0.425795 0.670099 0.655529
O O11 0.969094 0.205246 0.083004
O O12 0.000000 0.000000 0.000000
O O13 0.048743 0.450677 0.775779
O O14 0.269247 0.266981 0.901822
O O15 0.000000 0.500000 0.000000
O O16 0.787222 0.307344 0.414867
O O17 0.480615 0.244068 0.631770
#
# Coordination Sequence:
#
# PCOD8015387 Si02
#       8
#     2   2   2   2   2   2   2   2
#     4  12  27  42  67 102 139 169 223 281 331 391
#     4  10  22  39  69  93 127 171 222 266 324 398
#     4  12  23  43  67 100 131 174 223 271 331 396
#     4  11  24  43  65  93 135 178 213 262 338 395
#     4  11  24  41  68  99 129 168 223 275 320 386
#     4  12  23  43  73  98 131 175 230 270 324 397
#     4  12  24  44  69  98 132 177 220 274 333 393
#     4  10  21  42  68  95 130 172 216 271 335 387
#
# _framework density 22.553384999999999
#
# number of rings (size 3 to 8) (size 9 to 14) (size 15 to 20)
#    0.000    0.750    3.750    3.750    3.500    3.000 
#    0.000    0.625    0.000    0.000    0.000    0.000 
#    0.000    0.000    0.000    0.000    0.000    0.000 
#
# Total GULP energy -198381.498941 kJ/mol
# GULP energy per Si atom -12398.843684 kJ/mol
# Density = 2.250205 g / cm^3
# Si number density = 22.553385 Si / 1000 Ang^3
#
#
#
# Elastic Constant Matrix: (Units=GPa)
#
#
# Indices 1 2 3 4 5 6 
#
# 1 107.1837 44.2668 17.6996 -14.3425 3.1164 -3.4172
# 2 44.2668 74.8342 -1.1631 -24.1008 13.1715 -0.1788
# 3 17.6996 -1.1631 81.8922 -28.4617 4.8267 -6.5049
# 4 -14.3425 -24.1008 -28.4617 44.2632 2.2152 -4.4268
# 5 3.1164 13.1715 4.8267 2.2152 23.5286 -13.3591
# 6 -3.4172 -0.1788 -6.5049 -4.4268 -13.3591 33.9987
#
#
#
# Elastic Compliance Matrix: (Units=1/GPa)
#
#
# Indices 1 2 3 4 5 6 
#
# 1 0.014067 -0.011364 -0.005204 -0.005087 0.007559 0.002666
# 2 -0.011364 0.031106 0.011176 0.021080 -0.023129 -0.005184
# 3 -0.005204 0.011176 0.020639 0.018371 -0.010547 0.001732
# 4 -0.005087 0.021080 0.018371 0.045330 -0.018077 0.001914
# 5 0.007559 -0.023129 -0.010547 -0.018077 0.072331 0.024687
# 6 0.002666 -0.005184 0.001732 0.001914 0.024687 0.039935
#
#
# Mechanical properties :
#
#
# Convention : Reuss Voigt Hill
#
# Bulk Modulus (GPa) = 18.17273 42.83520 30.50397
# Shear Modulus (GPa) = 19.79928 33.89855 26.84891
#
# Velocity S-wave (km/s) = 2.96613 3.88111 3.45405
# Velocity P-wave (km/s) = 4.45036 6.25444 5.42788
#
# Compressibility (1/GPa) = 0.05502752
#
# Stress axis : x y z
#
# Youngs Moduli (GPa) = 71.08812 32.14774 48.45295
#
# Poissons Ratio (x) = 0.36534 0.25213
# Poissons Ratio (y) = 0.80788 -0.54150
# Poissons Ratio (z) = 0.36991 -0.35928
#
# Static dielectric constant tensor:
#      x y z
#    x 4.072550 -0.040190 -0.044680 
#    y -0.040190 4.005080 -0.482590 
#    z -0.044680 -0.482590 4.465420 
# 
# 
# High freq. dielectric constant tensor:
#      x y z
#    x 1.891490 -0.007380 0.000120 
#    y -0.007380 1.881810 -0.032010 
#    z 0.000120 -0.032010 1.895690 
# 
# From -- ./inp_files/418820.got.cif
#   From: 2010.06.25/outbox.cif.g09.slc.cpg/sg2_210_cif.got.tgz:418820.got - 2010.06.27 13:26:56.
