data_PCOD8015909
_publ_section_title
;
Structure prediction by ZEFSAII (Michael W. Deem and Ramdas Pophale) SiO2 
 PCOD8015909
Probable space group: P -1
;
_chemical_formula_sum "Si O2"
_cell_formula_units_Z 16
_cell_length_a 13.899974
_cell_length_b 15.091321
_cell_length_c 8.840629
_cell_angle_alpha 64.501706
_cell_angle_beta 95.362741
_cell_angle_gamma 149.430488
_cell_volume 678.571941
_symmetry_space_group_name_H-M "P -1"
_symmetry_group_IT_number 2
_symmetry_cell_setting 'triclinic'
loop_
_space_group_symop_operation_xyz
x,y,z
-x,-y,-z
loop_
_atom_site_type_symbol
_atom_site_label
_atom_site_fract_x
_atom_site_fract_y
_atom_site_fract_z
Si Si1 0.822525 0.710893 0.821168
Si Si2 0.583266 0.217275 0.475809
Si Si3 0.534845 0.096350 0.224832
Si Si4 0.756395 0.929910 0.050655
Si Si5 0.749030 0.458224 0.820851
Si Si6 0.018288 0.698705 0.374283
Si Si7 0.320936 0.162630 0.558529
Si Si8 0.625827 0.605735 0.165396
O O1 0.825397 0.596461 0.872588
O O2 0.606884 0.568634 0.821204
O O3 0.799335 0.708203 0.000984
O O4 0.076598 0.982099 0.587152
O O5 0.618729 0.213771 0.313622
O O6 0.832402 0.465360 0.416617
O O7 0.421936 0.164382 0.479315
O O8 0.442586 0.000682 0.705421
O O9 0.718105 0.315918 0.971913
O O10 0.265511 0.871832 0.302407
O O11 0.499139 0.728754 0.124241
O O12 0.779450 0.972198 0.199632
O O13 0.778464 0.833639 0.094955
O O14 0.947928 0.164591 0.803705
O O15 0.925279 0.630484 0.579738
O O16 0.527106 0.436227 0.399511
#
# Coordination Sequence:
#
# PCOD8015909 Si02
#       8
#     2   2   2   2   2   2   2   2
#     4  10  23  39  66  94 126 173 215 272 328 392
#     4  11  24  45  69  99 137 169 221 276 325 392
#     4  10  24  45  67 101 133 173 219 271 328 395
#     4  10  24  40  63  94 130 167 219 269 322 389
#     4  10  21  43  67  93 133 171 216 269 327 392
#     4  11  23  45  68  97 134 180 213 272 333 384
#     4  12  23  40  64  96 127 171 217 273 325 389
#     4  10  23  43  62  92 130 172 218 269 328 392
#
# _framework density 23.578928000000001
#
# number of rings (size 3 to 8) (size 9 to 14) (size 15 to 20)
#    0.000    1.500    1.250    2.625    3.500    7.000 
#    2.250    1.875    0.000    0.000    0.000    0.000 
#    0.000    0.000    0.000    0.000    0.000    0.000 
#
# Total GULP energy -198276.963159 kJ/mol
# GULP energy per Si atom -12392.310197 kJ/mol
# Density = 2.352526 g / cm^3
# Si number density = 23.578928 Si / 1000 Ang^3
#
#
#
# Elastic Constant Matrix: (Units=GPa)
#
#
# Indices 1 2 3 4 5 6 
#
# 1 112.3894 -46.6685 5.3910 -12.8603 10.1704 14.4100
# 2 -46.6685 162.5941 50.7017 3.6113 10.7137 -74.7193
# 3 5.3910 50.7017 160.6014 -2.0126 31.8909 -53.7077
# 4 -12.8603 3.6113 -2.0126 26.7825 -3.7069 2.2821
# 5 10.1704 10.7137 31.8909 -3.7069 34.0758 -18.4979
# 6 14.4100 -74.7193 -53.7077 2.2821 -18.4979 61.1458
#
#
#
# Elastic Compliance Matrix: (Units=1/GPa)
#
#
# Indices 1 2 3 4 5 6 
#
# 1 0.011226 0.003438 -0.000872 0.004432 -0.003343 -0.000388
# 2 0.003438 0.016534 0.001022 -0.001740 0.004403 0.021688
# 3 -0.000872 0.001022 0.009723 -0.001199 -0.004596 0.008649
# 4 0.004432 -0.001740 -0.001199 0.040317 0.001941 -0.005142
# 5 -0.003343 0.004403 -0.004596 0.001941 0.041387 0.014580
# 6 -0.000388 0.021688 0.008649 -0.005142 0.014580 0.055147
#
#
# Mechanical properties :
#
#
# Convention : Reuss Voigt Hill
#
# Bulk Modulus (GPa) = 22.39242 50.49261 36.44252
# Shear Modulus (GPa) = 27.46551 52.81154 40.13853
#
# Velocity S-wave (km/s) = 3.41667 4.73776 4.13038
# Velocity P-wave (km/s) = 5.00822 7.16863 6.18351
#
# Compressibility (1/GPa) = 0.04465797
#
# Stress axis : x y z
#
# Youngs Moduli (GPa) = 89.07519 60.48262 102.84583
#
# Poissons Ratio (x) = -0.20795 0.08972
# Poissons Ratio (y) = -0.30625 -0.10506
# Poissons Ratio (z) = 0.07771 -0.06179
#
# Static dielectric constant tensor:
#      x y z
#    x 4.314800 -0.145490 0.191650 
#    y -0.145490 3.916840 -0.331540 
#    z 0.191650 -0.331540 4.437710 
# 
# 
# High freq. dielectric constant tensor:
#      x y z
#    x 1.932350 0.006290 0.004510 
#    y 0.006290 1.943130 -0.013650 
#    z 0.004510 -0.013650 1.934780 
# 
# From -- ./inp_files/39231.got.cif
#   From: 2010.06.25/outbox.cif.g09.slc.cpg/sg2_20_cif.got.tgz:39231.got - 2010.06.27 13:26:56.
