data_PCOD8015063
_publ_section_title
;
Structure prediction by ZEFSAII (Michael W. Deem and Ramdas Pophale) SiO2 
 PCOD8015063
Probable space group: P -1
;
_chemical_formula_sum "Si O2"
_cell_formula_units_Z 12
_cell_length_a 12.611407
_cell_length_b 18.572898
_cell_length_c 15.074491
_cell_angle_alpha 160.376978
_cell_angle_beta 152.002856
_cell_angle_gamma 27.571672
_cell_volume 522.002609
_symmetry_space_group_name_H-M "P -1"
_symmetry_group_IT_number 2
_symmetry_cell_setting 'triclinic'
loop_
_space_group_symop_operation_xyz
x,y,z
-x,-y,-z
loop_
_atom_site_type_symbol
_atom_site_label
_atom_site_fract_x
_atom_site_fract_y
_atom_site_fract_z
Si Si1 0.557501 0.542558 0.231452
Si Si2 0.096893 0.644267 0.116840
Si Si3 0.282428 0.896717 0.693398
Si Si4 0.230398 0.337216 0.302736
Si Si5 0.898637 0.292709 0.506745
Si Si6 0.788153 0.198608 0.862913
O O1 0.333916 0.515733 0.086396
O O2 0.710030 0.637819 0.521922
O O3 0.455591 0.722592 0.284727
O O4 0.725541 0.300280 0.033752
O O5 0.166552 0.744516 0.373001
O O6 0.897059 0.841818 0.141878
O O7 0.987631 0.443922 0.818272
O O8 0.549865 0.872498 0.825393
O O9 0.289312 0.797767 0.683929
O O10 0.216753 0.562688 0.498353
O O11 0.982310 0.290410 0.065549
O O12 0.117582 0.074443 0.379684
#
# Coordination Sequence:
#
# PCOD8015063 Si02
#       6
#     2   2   2   2   2   2
#     4  10  22  47  65  88 128 171 205 258 315 365
#     4  10  21  42  65  93 126 165 212 253 313 370
#     4  10  22  40  65  92 129 167 203 258 312 375
#     4  11  24  42  65  94 128 162 210 260 311 370
#     4  12  22  39  63 100 125 161 212 257 312 372
#     4  11  24  44  66  91 127 166 213 256 310 372
#
# _framework density 22.988389999999999
#
# number of rings (size 3 to 8) (size 9 to 14) (size 15 to 20)
#    0.000    1.333    3.333    1.500    0.000    5.333 
#    6.000    0.000    0.000    0.000    0.000    0.000 
#    0.000    0.000    0.000    0.000    0.000    0.000 
#
# Total GULP energy -148769.292969 kJ/mol
# GULP energy per Si atom -12397.441081 kJ/mol
# Density = 2.293607 g / cm^3
# Si number density = 22.988390 Si / 1000 Ang^3
#
#
#
# Elastic Constant Matrix: (Units=GPa)
#
#
# Indices 1 2 3 4 5 6 
#
# 1 106.3499 43.3166 47.9629 21.9481 -15.4880 -10.1422
# 2 43.3166 104.3571 51.3922 8.8493 -7.2206 -5.3025
# 3 47.9629 51.3922 99.3080 17.7297 -9.9410 -17.4308
# 4 21.9481 8.8493 17.7297 44.0752 -2.7158 -8.2850
# 5 -15.4880 -7.2206 -9.9410 -2.7158 40.3315 3.8797
# 6 -10.1422 -5.3025 -17.4308 -8.2850 3.8797 31.8090
#
#
#
# Elastic Compliance Matrix: (Units=1/GPa)
#
#
# Indices 1 2 3 4 5 6 
#
# 1 0.013915 -0.003244 -0.003860 -0.004474 0.003492 0.000189
# 2 -0.003244 0.013720 -0.006021 0.000943 -0.000037 -0.001796
# 3 -0.003860 -0.006021 0.016631 -0.002351 0.000787 0.006171
# 4 -0.004474 0.000943 -0.002351 0.026458 -0.000773 0.004428
# 5 0.003492 -0.000037 0.000787 -0.000773 0.026453 -0.001889
# 6 0.000189 -0.001796 0.006171 0.004428 -0.001889 0.035964
#
#
# Mechanical properties :
#
#
# Convention : Reuss Voigt Hill
#
# Bulk Modulus (GPa) = 55.50437 66.15093 60.82765
# Shear Modulus (GPa) = 30.23033 34.39936 32.31484
#
# Velocity S-wave (km/s) = 3.63026 3.87250 3.75334
# Velocity P-wave (km/s) = 6.46287 6.98808 6.73060
#
# Compressibility (1/GPa) = 0.01801660
#
# Stress axis : x y z
#
# Youngs Moduli (GPa) = 71.86374 72.88437 60.12739
#
# Poissons Ratio (x) = 0.23646 0.23210
# Poissons Ratio (y) = 0.23315 0.36201
# Poissons Ratio (z) = 0.27740 0.43882
#
# Static dielectric constant tensor:
#      x y z
#    x 4.127350 -0.145670 -0.368720 
#    y -0.145670 4.217460 -0.086200 
#    z -0.368720 -0.086200 4.184940 
# 
# 
# High freq. dielectric constant tensor:
#      x y z
#    x 1.914350 -0.011750 -0.025680 
#    y -0.011750 1.906500 -0.006540 
#    z -0.025680 -0.006540 1.915860 
# 
# From -- ./inp_files/22047.got.cif
#   From: 2010.06.25/outbox.cif.g09.slc.cpg/sg2_12_cif.got.tgz:22047.got - 2010.06.27 13:26:56.
