data_PCOD8015680
_publ_section_title
;
Structure prediction by ZEFSAII (Michael W. Deem and Ramdas Pophale) SiO2 
 PCOD8015680
Probable space group: P -1
;
_chemical_formula_sum "Si O2"
_cell_formula_units_Z 16
_cell_length_a 19.268076
_cell_length_b 12.934395
_cell_length_c 9.990804
_cell_angle_alpha 136.311539
_cell_angle_beta 126.695487
_cell_angle_gamma 25.950427
_cell_volume 741.107859
_symmetry_space_group_name_H-M "P -1"
_symmetry_group_IT_number 2
_symmetry_cell_setting 'triclinic'
loop_
_space_group_symop_operation_xyz
x,y,z
-x,-y,-z
loop_
_atom_site_type_symbol
_atom_site_label
_atom_site_fract_x
_atom_site_fract_y
_atom_site_fract_z
Si Si1 0.130101 0.673318 0.239406
Si Si2 0.189083 0.904633 0.424655
Si Si3 0.167488 0.556947 0.479588
Si Si4 0.540422 0.768768 0.337985
Si Si5 0.434520 0.757869 0.450350
Si Si6 0.360269 0.086582 0.908037
Si Si7 0.659938 0.998614 0.908393
Si Si8 0.775965 0.116418 0.260297
O O1 0.218063 0.685195 0.280074
O O2 0.167769 0.628296 0.398801
O O3 0.192574 0.423300 0.021371
O O4 0.938632 0.968163 0.268434
O O5 0.321564 0.775475 0.352649
O O6 0.199753 0.979133 0.648357
O O7 0.010899 0.190826 0.427046
O O8 0.275548 0.506703 0.653834
O O9 0.234443 0.290057 0.299655
O O10 0.419233 0.855881 0.378899
O O11 0.500000 0.000000 0.500000
O O12 0.506545 0.746644 0.131498
O O13 0.619931 0.448302 0.396221
O O14 0.376716 0.965802 0.682357
O O15 0.379127 0.958478 0.940667
O O16 0.500000 0.000000 0.000000
O O17 0.756021 0.015239 0.031455
#
# Coordination Sequence:
#
# PCOD8015680 Si02
#       8
#     2   2   2   2   2   2   2   2
#     4  10  22  37  64  93 128 163 203 253 309 375
#     4  11  21  36  62  97 127 153 200 270 313 346
#     4   9  19  37  63  88 124 167 210 239 309 375
#     4  10  21  43  62  87 120 176 207 240 301 387
#     4  12  24  38  65  96 126 155 207 262 311 354
#     4  11  22  38  63  98 125 155 206 262 314 349
#     4  10  22  37  64  90 123 166 213 249 293 381
#     4  11  22  38  64  95 124 163 208 251 311 367
#
# _framework density 21.589300000000001
#
# number of rings (size 3 to 8) (size 9 to 14) (size 15 to 20)
#    0.000    1.500    1.250    6.375    3.500    2.000 
#    0.000    2.500    2.750    1.500    0.000    0.000 
#    0.000    0.000    0.000    0.000    0.000    0.000 
#
# Total GULP energy -198303.141203 kJ/mol
# GULP energy per Si atom -12393.946325 kJ/mol
# Density = 2.154016 g / cm^3
# Si number density = 21.589300 Si / 1000 Ang^3
#
#
#
# Elastic Constant Matrix: (Units=GPa)
#
#
# Indices 1 2 3 4 5 6 
#
# 1 123.6821 48.9262 22.8450 0.8063 10.9910 -8.8194
# 2 48.9262 128.4150 46.8018 -2.6010 4.3850 -14.4154
# 3 22.8450 46.8018 89.9000 -5.0249 15.3228 -0.2011
# 4 0.8063 -2.6010 -5.0249 33.6682 -9.6917 0.0289
# 5 10.9910 4.3850 15.3228 -9.6917 25.5016 -1.9344
# 6 -8.8194 -14.4154 -0.2011 0.0289 -1.9344 24.7836
#
#
#
# Elastic Compliance Matrix: (Units=1/GPa)
#
#
# Indices 1 2 3 4 5 6 
#
# 1 0.009964 -0.003532 -0.000069 -0.001737 -0.004217 0.001164
# 2 -0.003532 0.011810 -0.005836 0.001249 0.003918 0.005870
# 3 -0.000069 -0.005836 0.015655 -0.000681 -0.008935 -0.003988
# 4 -0.001737 0.001249 -0.000681 0.033723 0.013846 0.001144
# 5 -0.004217 0.003918 -0.008935 0.013846 0.051344 0.004697
# 6 0.001164 0.005870 -0.003988 0.001144 0.004697 0.044510
#
#
# Mechanical properties :
#
#
# Convention : Reuss Voigt Hill
#
# Bulk Modulus (GPa) = 53.89011 64.34923 59.11967
# Shear Modulus (GPa) = 26.03292 31.68561 28.85926
#
# Velocity S-wave (km/s) = 3.47627 3.83515 3.66011
# Velocity P-wave (km/s) = 6.41313 7.03434 6.73091
#
# Compressibility (1/GPa) = 0.01855628
#
# Stress axis : x y z
#
# Youngs Moduli (GPa) = 100.35959 84.67351 63.87782
#
# Poissons Ratio (x) = 0.29904 0.00441
# Poissons Ratio (y) = 0.35444 0.37277
# Poissons Ratio (z) = 0.00694 0.49412
#
# Static dielectric constant tensor:
#      x y z
#    x 4.178180 0.189250 0.488530 
#    y 0.189250 4.579370 0.244830 
#    z 0.488530 0.244830 4.465960 
# 
# 
# High freq. dielectric constant tensor:
#      x y z
#    x 1.846900 -0.003650 0.029350 
#    y -0.003650 1.849250 0.003080 
#    z 0.029350 0.003080 1.825010 
# 
# From -- ./inp_files/278952.got.cif
#   From: 2010.06.25/outbox.cif.g09.slc.cpg/sg2_140_cif.got.tgz:278952.got - 2010.06.27 13:26:56.
