data_PCOD8015502
_publ_section_title
;
Structure prediction by ZEFSAII (Michael W. Deem and Ramdas Pophale) SiO2 
 PCOD8015502
Probable space group: P -1
;
_chemical_formula_sum "Si O2"
_cell_formula_units_Z 12
_cell_length_a 9.424970
_cell_length_b 5.614955
_cell_length_c 17.591091
_cell_angle_alpha 51.654150
_cell_angle_beta 130.785043
_cell_angle_gamma 141.303679
_cell_volume 428.486775
_symmetry_space_group_name_H-M "P -1"
_symmetry_group_IT_number 2
_symmetry_cell_setting 'triclinic'
loop_
_space_group_symop_operation_xyz
x,y,z
-x,-y,-z
loop_
_atom_site_type_symbol
_atom_site_label
_atom_site_fract_x
_atom_site_fract_y
_atom_site_fract_z
Si Si1 0.377429 0.531632 0.879743
Si Si2 0.294077 0.522568 0.437388
Si Si3 0.676660 0.895176 0.192764
Si Si4 0.140621 0.337594 0.574643
Si Si5 0.809952 0.183707 0.794121
Si Si6 0.109586 0.372863 0.120474
O O1 0.245796 0.118213 0.865913
O O2 0.216984 0.672254 0.820600
O O3 0.586093 0.839939 0.833527
O O4 0.500000 0.500000 0.000000
O O5 0.500000 0.500000 0.500000
O O6 0.331766 0.630554 0.518492
O O7 0.307858 0.813756 0.325826
O O8 0.027163 0.114532 0.416883
O O9 0.726078 0.638441 0.307985
O O10 0.394296 0.676160 0.144508
O O11 0.000000 0.500000 0.500000
O O12 0.936593 0.578831 0.814065
O O13 0.975843 0.056852 0.852846
O O14 0.000000 0.500000 0.000000
#
# Coordination Sequence:
#
# PCOD8015502 Si02
#       6
#     2   2   2   2   2   2
#     4  10  21  43  72 100 142 198 242 306 372 442
#     4  11  26  49  79 108 152 201 255 321 387 459
#     4  10  23  44  69 101 147 187 248 308 372 445
#     4  11  28  48  76 113 149 201 255 318 392 458
#     4  10  23  42  68 105 141 188 247 306 372 445
#     4  10  21  42  69  99 143 190 248 303 366 443
#
# _framework density 28.005531999999999
#
# number of rings (size 3 to 8) (size 9 to 14) (size 15 to 20)
#    0.000    1.667    0.000    3.000   11.667    0.667 
#   18.000    0.000    0.000    0.000    0.000    0.000 
#    0.000    0.000    0.000    0.000    0.000    0.000 
#
# Total GULP energy -148763.756849 kJ/mol
# GULP energy per Si atom -12396.979737 kJ/mol
# Density = 2.794179 g / cm^3
# Si number density = 28.005532 Si / 1000 Ang^3
#
#
#
# Elastic Constant Matrix: (Units=GPa)
#
#
# Indices 1 2 3 4 5 6 
#
# 1 281.1742 37.7451 101.7312 -11.4358 2.7295 -35.5413
# 2 37.7451 140.6268 13.3635 -24.3139 0.2555 -20.2479
# 3 101.7312 13.3635 286.5563 -13.6474 0.0951 -16.5560
# 4 -11.4358 -24.3139 -13.6474 37.2786 -2.1169 2.7579
# 5 2.7295 0.2555 0.0951 -2.1169 67.3454 -4.6310
# 6 -35.5413 -20.2479 -16.5560 2.7579 -4.6310 35.6142
#
#
#
# Elastic Compliance Matrix: (Units=1/GPa)
#
#
# Indices 1 2 3 4 5 6 
#
# 1 0.004599 -0.000529 -0.001384 0.000295 0.000077 0.003632
# 2 -0.000529 0.008762 0.000279 0.005367 0.000447 0.004226
# 3 -0.001384 0.000279 0.004059 0.001207 0.000128 0.000588
# 4 0.000295 0.005367 0.001207 0.030795 0.001048 0.001658
# 5 0.000077 0.000447 0.000128 0.001048 0.015032 0.002264
# 6 0.003632 0.004226 0.000588 0.001658 0.002264 0.034545
#
#
# Mechanical properties :
#
#
# Convention : Reuss Voigt Hill
#
# Bulk Modulus (GPa) = 70.66257 112.67077 91.66667
# Shear Modulus (GPa) = 47.26865 65.08214 56.17540
#
# Velocity S-wave (km/s) = 4.11278 4.82592 4.48355
# Velocity P-wave (km/s) = 6.91663 8.44817 7.72047
#
# Compressibility (1/GPa) = 0.01415176
#
# Stress axis : x y z
#
# Youngs Moduli (GPa) = 217.45494 114.12731 246.33783
#
# Poissons Ratio (x) = 0.06037 0.34094
# Poissons Ratio (y) = 0.11503 -0.06868
# Poissons Ratio (z) = 0.30097 -0.03182
#
# Static dielectric constant tensor:
#      x y z
#    x 6.198500 -0.678180 -0.338030 
#    y -0.678180 7.521670 0.024460 
#    z -0.338030 0.024460 5.165360 
# 
# 
# High freq. dielectric constant tensor:
#      x y z
#    x 2.200680 0.019670 -0.003030 
#    y 0.019670 2.203790 -0.005960 
#    z -0.003030 -0.005960 2.120530 
# 
# From -- ./inp_files/34857.got.cif
#   From: 2010.06.25/outbox.cif.g09.slc.cpg/sg2_18_cif.got.tgz:34857.got - 2010.06.27 13:26:56.
