data_PCOD8015288
_publ_section_title
;
Structure prediction by ZEFSAII (Michael W. Deem and Ramdas Pophale) SiO2 
 PCOD8015288
Probable space group: P -1
;
_chemical_formula_sum "Si O2"
_cell_formula_units_Z 16
_cell_length_a 9.142503
_cell_length_b 9.385005
_cell_length_c 16.279419
_cell_angle_alpha 120.932714
_cell_angle_beta 50.908792
_cell_angle_gamma 132.994656
_cell_volume 784.213361
_symmetry_space_group_name_H-M "P -1"
_symmetry_group_IT_number 2
_symmetry_cell_setting 'triclinic'
loop_
_space_group_symop_operation_xyz
x,y,z
-x,-y,-z
loop_
_atom_site_type_symbol
_atom_site_label
_atom_site_fract_x
_atom_site_fract_y
_atom_site_fract_z
Si Si1 0.076592 0.576811 0.707321
Si Si2 0.806222 0.510110 0.527955
Si Si3 0.237405 0.896813 0.053761
Si Si4 0.235313 0.815244 0.203875
Si Si5 0.956299 0.081315 0.197072
Si Si6 0.740834 0.114086 0.137053
Si Si7 0.964896 0.952603 0.592715
Si Si8 0.613802 0.880909 0.400236
O O1 0.204497 0.537638 0.579583
O O2 0.963981 0.691494 0.742997
O O3 0.252891 0.715266 0.757959
O O4 0.881195 0.372378 0.752565
O O5 0.847815 0.723937 0.587983
O O6 0.571580 0.351471 0.605514
O O7 0.000000 0.500000 0.500000
O O8 0.156881 0.050574 0.136081
O O9 0.144806 0.751217 0.122505
O O10 0.500000 0.000000 0.000000
O O11 0.155232 0.793431 0.962765
O O12 0.500123 0.918132 0.149428
O O13 0.192870 0.982604 0.295429
O O14 0.885912 0.043602 0.114076
O O15 0.732710 0.940475 0.287409
O O16 0.000000 0.000000 0.500000
O O17 0.209348 0.080868 0.582010
O O18 0.500000 0.000000 0.500000
#
# Coordination Sequence:
#
# PCOD8015288 Si02
#       8
#     2   2   2   2   2   2   2   2
#     4  10  23  39  66  93 133 168 227 253 324 401
#     4  12  25  40  65  97 135 181 222 261 323 400
#     4  10  21  44  71  94 129 168 217 284 334 377
#     4  11  23  43  64  98 131 171 213 277 328 388
#     4  10  21  42  67  94 130 173 217 264 324 391
#     4   9  23  41  70  89 129 169 217 272 330 384
#     4  12  26  40  65  95 140 172 219 270 331 383
#     4  12  23  42  65  96 136 176 220 269 318 394
#
# _framework density 20.402612000000001
#
# number of rings (size 3 to 8) (size 9 to 14) (size 15 to 20)
#    0.750    0.500    5.000    0.375    5.250    2.000 
#    0.000    2.500    2.750    0.000    0.000    0.000 
#    0.000    0.000    0.000    0.000    0.000    0.000 
#
# Total GULP energy -198245.705118 kJ/mol
# GULP energy per Si atom -12390.356570 kJ/mol
# Density = 2.035617 g / cm^3
# Si number density = 20.402612 Si / 1000 Ang^3
#
#
#
# Elastic Constant Matrix: (Units=GPa)
#
#
# Indices 1 2 3 4 5 6 
#
# 1 87.3197 29.6123 25.0223 -4.1724 3.5024 -6.1874
# 2 29.6123 141.5452 31.9796 -17.0685 -3.4393 -8.1635
# 3 25.0223 31.9796 97.1781 -8.6539 11.8519 -7.7232
# 4 -4.1724 -17.0685 -8.6539 19.3941 -3.5253 4.9161
# 5 3.5024 -3.4393 11.8519 -3.5253 46.0885 3.8214
# 6 -6.1874 -8.1635 -7.7232 4.9161 3.8214 26.0858
#
#
#
# Elastic Compliance Matrix: (Units=1/GPa)
#
#
# Indices 1 2 3 4 5 6 
#
# 1 0.013024 -0.002175 -0.002468 -0.000841 -0.000743 0.001946
# 2 -0.002175 0.008825 -0.001958 0.006725 0.001831 0.000131
# 3 -0.002468 -0.001958 0.012342 0.002029 -0.003188 0.002540
# 4 -0.000841 0.006725 0.002029 0.061744 0.005592 -0.009949
# 5 -0.000743 0.001831 -0.003188 0.005592 0.023557 -0.005052
# 6 0.001946 0.000131 0.002540 -0.009949 -0.005052 0.042205
#
#
# Mechanical properties :
#
#
# Convention : Reuss Voigt Hill
#
# Bulk Modulus (GPa) = 47.64173 55.47458 51.55816
# Shear Modulus (GPa) = 27.48854 34.27558 30.88206
#
# Velocity S-wave (km/s) = 3.67455 4.10318 3.89476
# Velocity P-wave (km/s) = 6.43464 7.04961 6.74913
#
# Compressibility (1/GPa) = 0.02099000
#
# Stress axis : x y z
#
# Youngs Moduli (GPa) = 76.78016 113.31132 81.02662
#
# Poissons Ratio (x) = 0.24640 0.19995
# Poissons Ratio (y) = 0.16696 0.15868
# Poissons Ratio (z) = 0.18947 0.22190
#
# Static dielectric constant tensor:
#      x y z
#    x 3.873960 -0.013910 0.298820 
#    y -0.013910 2.914300 -0.020540 
#    z 0.298820 -0.020540 3.975630 
# 
# 
# High freq. dielectric constant tensor:
#      x y z
#    x 1.806040 -0.012180 0.019680 
#    y -0.012180 1.777230 -0.005490 
#    z 0.019680 -0.005490 1.804060 
# 
# From -- ./inp_files/556319.got.cif
#   From: 2010.06.25/outbox.cif.g09.slc.cpg/sg2_279_cif.got.tgz:556319.got - 2010.06.27 13:26:56.
