data_PCOD8015727
_publ_section_title
;
Structure prediction by ZEFSAII (Michael W. Deem and Ramdas Pophale) SiO2 
 PCOD8015727
Probable space group: P -1
;
_chemical_formula_sum "Si O2"
_cell_formula_units_Z 16
_cell_length_a 11.664115
_cell_length_b 12.122496
_cell_length_c 11.504760
_cell_angle_alpha 45.835650
_cell_angle_beta 36.426449
_cell_angle_gamma 70.276531
_cell_volume 590.257400
_symmetry_space_group_name_H-M "P -1"
_symmetry_group_IT_number 2
_symmetry_cell_setting 'triclinic'
loop_
_space_group_symop_operation_xyz
x,y,z
-x,-y,-z
loop_
_atom_site_type_symbol
_atom_site_label
_atom_site_fract_x
_atom_site_fract_y
_atom_site_fract_z
Si Si1 0.353030 0.077817 0.609232
Si Si2 0.279882 0.302313 0.316137
Si Si3 0.525090 0.779112 0.983807
Si Si4 0.514432 0.299008 0.534523
Si Si5 0.096001 0.525913 0.635311
Si Si6 0.801531 0.166557 0.525075
Si Si7 0.126561 0.745806 0.182229
Si Si8 0.153294 0.320754 0.934641
O O1 0.275353 0.151798 0.513479
O O2 0.502287 0.244814 0.450582
O O3 0.500000 0.000000 0.500000
O O4 0.144901 0.911983 0.971541
O O5 0.058761 0.309643 0.523743
O O6 0.500000 0.500000 0.000000
O O7 0.285912 0.242406 0.222294
O O8 0.361170 0.606510 0.324698
O O9 0.366435 0.803479 0.001940
O O10 0.655906 0.954561 0.832672
O O11 0.629152 0.219666 0.577714
O O12 0.261816 0.224785 0.845649
O O13 0.657777 0.515240 0.262781
O O14 0.072127 0.696410 0.569680
O O15 0.030630 0.387394 0.896559
O O16 0.944500 0.424431 0.720526
O O17 0.970075 0.179818 0.276912
#
# Coordination Sequence:
#
# PCOD8015727 Si02
#       8
#     2   2   2   2   2   2   2   2
#     4  12  25  43  75 104 140 180 236 288 344 409
#     4  12  27  46  69 105 142 186 230 287 353 415
#     4  12  26  46  66 101 144 179 231 285 353 413
#     4  10  21  43  64 100 131 169 225 287 336 397
#     4  11  24  43  69  97 138 183 223 282 356 401
#     4  11  24  44  70  98 133 180 234 282 340 415
#     4  12  26  46  71 103 138 183 233 290 340 418
#     4  10  24  41  71  95 131 175 233 281 339 410
#
# _framework density 27.106818000000001
#
# number of rings (size 3 to 8) (size 9 to 14) (size 15 to 20)
#    0.000    0.750    3.750    3.375    7.000    0.000 
#    0.000    0.000    0.000    9.000    0.000    0.000 
#    0.000    0.000    0.000    0.000    0.000    0.000 
#
# Total GULP energy -198388.515502 kJ/mol
# GULP energy per Si atom -12399.282219 kJ/mol
# Density = 2.704512 g / cm^3
# Si number density = 27.106818 Si / 1000 Ang^3
#
#
#
# Elastic Constant Matrix: (Units=GPa)
#
#
# Indices 1 2 3 4 5 6 
#
# 1 39.9622 18.9267 3.4981 9.4603 3.5770 10.3158
# 2 18.9267 132.3468 16.1461 14.2513 -14.9400 28.2277
# 3 3.4981 16.1461 107.9841 6.0381 4.8592 2.6647
# 4 9.4603 14.2513 6.0381 44.6131 1.4404 5.9738
# 5 3.5770 -14.9400 4.8592 1.4404 29.3724 1.0111
# 6 10.3158 28.2277 2.6647 5.9738 1.0111 39.8742
#
#
#
# Elastic Compliance Matrix: (Units=1/GPa)
#
#
# Indices 1 2 3 4 5 6 
#
# 1 0.029212 -0.003329 0.000127 -0.004397 -0.004904 -0.004426
# 2 -0.003329 0.010467 -0.001483 -0.001791 0.006281 -0.006340
# 3 0.000127 -0.001483 0.009617 -0.000855 -0.002338 0.000562
# 4 -0.004397 -0.001791 -0.000855 0.024231 -0.001383 -0.001133
# 5 -0.004904 0.006281 -0.002338 -0.001383 0.038423 -0.003789
# 6 -0.004426 -0.006340 0.000562 -0.001133 -0.003789 0.030941
#
#
# Mechanical properties :
#
#
# Convention : Reuss Voigt Hill
#
# Bulk Modulus (GPa) = 25.04640 39.71501 32.38070
# Shear Modulus (GPa) = 30.19872 38.88674 34.54273
#
# Velocity S-wave (km/s) = 3.34138 3.79169 3.57363
# Velocity P-wave (km/s) = 4.91390 5.81827 5.38510
#
# Compressibility (1/GPa) = 0.03992589
#
# Stress axis : x y z
#
# Youngs Moduli (GPa) = 34.23293 95.53704 103.97780
#
# Poissons Ratio (x) = 0.31805 -0.01323
# Poissons Ratio (y) = 0.11397 0.15423
# Poissons Ratio (z) = -0.00436 0.14171
#
# Static dielectric constant tensor:
#      x y z
#    x 4.609130 0.221630 0.131410 
#    y 0.221630 5.635170 0.124060 
#    z 0.131410 0.124060 5.222620 
# 
# 
# High freq. dielectric constant tensor:
#      x y z
#    x 2.071470 0.005850 0.010600 
#    y 0.005850 2.107730 0.006630 
#    z 0.010600 0.006630 2.097270 
# 
# From -- ./inp_files/452174.got.cif
#   From: 2010.06.25/outbox.cif.g09.slc.cpg/sg2_227_cif.got.tgz:452174.got - 2010.06.27 13:26:56.
