data_PCOD8015181
_publ_section_title
;
Structure prediction by ZEFSAII (Michael W. Deem and Ramdas Pophale) SiO2 
 PCOD8015181
Probable space group: P -1
;
_chemical_formula_sum "Si O2"
_cell_formula_units_Z 16
_cell_length_a 11.927488
_cell_length_b 11.787181
_cell_length_c 14.375966
_cell_angle_alpha 60.199322
_cell_angle_beta 28.484961
_cell_angle_gamma 50.700755
_cell_volume 736.113926
_symmetry_space_group_name_H-M "P -1"
_symmetry_group_IT_number 2
_symmetry_cell_setting 'triclinic'
loop_
_space_group_symop_operation_xyz
x,y,z
-x,-y,-z
loop_
_atom_site_type_symbol
_atom_site_label
_atom_site_fract_x
_atom_site_fract_y
_atom_site_fract_z
Si Si1 0.072613 0.867689 0.125681
Si Si2 0.929276 0.668099 0.972397
Si Si3 0.385912 0.874724 0.058370
Si Si4 0.199740 0.569804 0.227950
Si Si5 0.075737 0.179717 0.253867
Si Si6 0.652767 0.255881 0.674435
Si Si7 0.786994 0.199446 0.163099
Si Si8 0.741608 0.510350 0.569049
O O1 0.327260 0.847450 0.007478
O O2 0.009694 0.744153 0.268737
O O3 0.841990 0.040644 0.232562
O O4 0.152893 0.824227 0.979509
O O5 0.607725 0.753004 0.165444
O O6 0.064858 0.680364 0.771184
O O7 0.000000 0.500000 0.000000
O O8 0.024528 0.735426 0.959699
O O9 0.285623 0.800173 0.241473
O O10 0.229088 0.048398 0.122156
O O11 0.704048 0.805940 0.850422
O O12 0.236240 0.548411 0.319328
O O13 0.033581 0.491528 0.337629
O O14 0.500000 0.500000 0.000000
O O15 0.877045 0.154332 0.477043
O O16 0.651667 0.414904 0.606378
O O17 0.478717 0.317863 0.353462
#
# Coordination Sequence:
#
# PCOD8015181 Si02
#       8
#     2   2   2   2   2   2   2   2
#     4  11  23  43  72  93 139 185 211 279 341 396
#     4  11  23  43  65  93 138 174 217 277 329 395
#     4  10  21  42  66  94 132 171 220 283 332 382
#     4  11  24  43  67  99 131 173 222 279 327 390
#     4  10  23  40  64  96 131 171 227 280 325 392
#     4  11  23  39  69  98 124 176 223 282 331 388
#     4  11  24  45  66 102 137 181 225 262 343 414
#     4  11  24  41  68 100 131 167 230 272 328 404
#
# _framework density 21.735766000000002
#
# number of rings (size 3 to 8) (size 9 to 14) (size 15 to 20)
#    0.000    1.250    5.000    0.375    1.750    2.000 
#    2.250    1.250    0.000    0.000    0.000    0.000 
#    0.000    0.000    0.000    0.000    0.000    0.000 
#
# Total GULP energy -198233.716518 kJ/mol
# GULP energy per Si atom -12389.607282 kJ/mol
# Density = 2.168629 g / cm^3
# Si number density = 21.735766 Si / 1000 Ang^3
#
#
#
# Elastic Constant Matrix: (Units=GPa)
#
#
# Indices 1 2 3 4 5 6 
#
# 1 142.6349 33.6891 46.1744 -5.9467 -8.4328 2.9363
# 2 33.6891 121.1491 26.9015 -13.1082 -0.6496 -12.5434
# 3 46.1744 26.9015 116.7615 -12.8522 -11.3410 -2.9026
# 4 -5.9467 -13.1082 -12.8522 22.8243 4.8083 -1.4641
# 5 -8.4328 -0.6496 -11.3410 4.8083 15.1694 -7.0802
# 6 2.9363 -12.5434 -2.9026 -1.4641 -7.0802 39.3854
#
#
#
# Elastic Compliance Matrix: (Units=1/GPa)
#
#
# Indices 1 2 3 4 5 6 
#
# 1 0.008505 -0.001951 -0.002828 -0.001064 0.002364 -0.001078
# 2 -0.001951 0.009894 -0.001020 0.005136 -0.001592 0.003126
# 3 -0.002828 -0.001020 0.010987 0.003650 0.006363 0.001975
# 4 -0.001064 0.005136 0.003650 0.051426 -0.013236 0.001516
# 5 0.002364 -0.001592 0.006363 -0.013236 0.082733 0.014166
# 6 -0.001078 0.003126 0.001975 0.001516 0.014166 0.029215
#
#
# Mechanical properties :
#
#
# Convention : Reuss Voigt Hill
#
# Bulk Modulus (GPa) = 56.21801 66.00839 61.11320
# Shear Modulus (GPa) = 23.77709 33.72785 28.75247
#
# Velocity S-wave (km/s) = 3.31103 3.94346 3.64100
# Velocity P-wave (km/s) = 6.36692 7.15325 6.77151
#
# Compressibility (1/GPa) = 0.01778789
#
# Stress axis : x y z
#
# Youngs Moduli (GPa) = 117.57947 101.07049 91.01876
#
# Poissons Ratio (x) = 0.19721 0.25741
# Poissons Ratio (y) = 0.22942 0.09280
# Poissons Ratio (z) = 0.33253 0.10305
#
# Static dielectric constant tensor:
#      x y z
#    x 4.107460 -0.123930 -0.249820 
#    y -0.123930 4.410380 -0.229400 
#    z -0.249820 -0.229400 3.879380 
# 
# 
# High freq. dielectric constant tensor:
#      x y z
#    x 1.863330 -0.003480 -0.006690 
#    y -0.003480 1.871230 -0.012690 
#    z -0.006690 -0.012690 1.827600 
# 
# From -- ./inp_files/77261.got.cif
#   From: 2010.06.25/outbox.cif.g09.slc.cpg/sg2_39_cif.got.tgz:77261.got - 2010.06.27 13:26:56.
