data_PCOD8015103
_publ_section_title
;
Structure prediction by ZEFSAII (Michael W. Deem and Ramdas Pophale) SiO2 
 PCOD8015103
Probable space group: P -1
;
_chemical_formula_sum "Si O2"
_cell_formula_units_Z 16
_cell_length_a 15.650518
_cell_length_b 12.487151
_cell_length_c 14.692795
_cell_angle_alpha 34.531804
_cell_angle_beta 152.432539
_cell_angle_gamma 128.836184
_cell_volume 692.572669
_symmetry_space_group_name_H-M "P -1"
_symmetry_group_IT_number 2
_symmetry_cell_setting 'triclinic'
loop_
_space_group_symop_operation_xyz
x,y,z
-x,-y,-z
loop_
_atom_site_type_symbol
_atom_site_label
_atom_site_fract_x
_atom_site_fract_y
_atom_site_fract_z
Si Si1 0.034952 0.396776 0.227274
Si Si2 0.062379 0.158274 0.116878
Si Si3 0.259457 0.728784 0.680369
Si Si4 0.123538 0.274673 0.591028
Si Si5 0.698971 0.022678 0.702630
Si Si6 0.316552 0.919815 0.154458
Si Si7 0.665526 0.564557 0.658172
Si Si8 0.317779 0.550691 0.664663
O O1 0.129942 0.248393 0.506084
O O2 0.219694 0.351667 0.365328
O O3 0.920397 0.632434 0.986825
O O4 0.842287 0.373553 0.011460
O O5 0.218592 0.966326 0.455766
O O6 0.110662 0.109959 0.087995
O O7 0.838650 0.191129 0.912132
O O8 0.243939 0.619486 0.648477
O O9 0.100628 0.690980 0.620123
O O10 0.467281 0.636649 0.994335
O O11 0.168663 0.472697 0.523710
O O12 0.280725 0.070446 0.929258
O O13 0.728936 0.945033 0.889931
O O14 0.664010 0.262037 0.504537
O O15 0.500000 0.000000 0.500000
O O16 0.542468 0.750228 0.480732
O O17 0.500000 0.500000 0.500000
#
# Coordination Sequence:
#
# PCOD8015103 Si02
#       8
#     2   2   2   2   2   2   2   2
#     4  11  25  44  72  99 128 171 221 279 333 395
#     4  10  21  42  65  99 136 171 224 268 326 400
#     4   9  22  38  60  96 139 178 215 266 324 394
#     4  11  25  40  66  98 133 170 217 281 332 386
#     4  11  24  38  65 101 137 182 222 267 322 397
#     4  11  24  43  68  98 133 179 222 272 333 393
#     4  11  25  47  73  94 126 173 227 274 333 397
#     4  10  22  39  60  95 139 182 220 259 326 392
#
# _framework density 23.102270000000001
#
# number of rings (size 3 to 8) (size 9 to 14) (size 15 to 20)
#    0.000    1.500    1.250    2.250   10.500    2.500 
#    0.000    0.625    0.000    0.000    0.000    0.000 
#    0.000    0.000    0.000    0.000    0.000    0.000 
#
# Total GULP energy -198355.954467 kJ/mol
# GULP energy per Si atom -12397.247154 kJ/mol
# Density = 2.304969 g / cm^3
# Si number density = 23.102270 Si / 1000 Ang^3
#
#
#
# Elastic Constant Matrix: (Units=GPa)
#
#
# Indices 1 2 3 4 5 6 
#
# 1 127.6758 11.8166 50.6093 3.9754 -4.0965 7.2270
# 2 11.8166 64.9080 4.8505 6.4318 -6.6393 6.8967
# 3 50.6093 4.8505 92.6068 8.1965 -4.1409 7.9401
# 4 3.9754 6.4318 8.1965 23.9684 -8.8535 -3.0108
# 5 -4.0965 -6.6393 -4.1409 -8.8535 43.9176 2.3639
# 6 7.2270 6.8967 7.9401 -3.0108 2.3639 23.6652
#
#
#
# Elastic Compliance Matrix: (Units=1/GPa)
#
#
# Indices 1 2 3 4 5 6 
#
# 1 0.010158 -0.001371 -0.005442 0.000582 0.000390 -0.000842
# 2 -0.001371 0.016827 0.000831 -0.004577 0.001869 -0.005533
# 3 -0.005442 0.000831 0.014505 -0.004697 0.000258 -0.004070
# 4 0.000582 -0.004577 -0.004697 0.048528 0.008268 0.008080
# 5 0.000390 0.001869 0.000258 0.008268 0.024898 -0.002186
# 6 -0.000842 -0.005533 -0.004070 0.008080 -0.002186 0.046738
#
#
# Mechanical properties :
#
#
# Convention : Reuss Voigt Hill
#
# Bulk Modulus (GPa) = 33.86803 46.63814 40.25309
# Shear Modulus (GPa) = 27.25416 32.83785 30.04600
#
# Velocity S-wave (km/s) = 3.43843 3.77425 3.61025
# Velocity P-wave (km/s) = 5.51866 6.26297 5.90256
#
# Compressibility (1/GPa) = 0.02952637
#
# Stress axis : x y z
#
# Youngs Moduli (GPa) = 98.44237 59.42997 68.94253
#
# Poissons Ratio (x) = 0.08148 0.37515
# Poissons Ratio (y) = 0.13497 -0.05729
# Poissons Ratio (z) = 0.53568 -0.04939
#
# Static dielectric constant tensor:
#      x y z
#    x 4.349940 -0.015930 -0.089180 
#    y -0.015930 4.039030 0.189450 
#    z -0.089180 0.189450 4.260020 
# 
# 
# High freq. dielectric constant tensor:
#      x y z
#    x 1.916930 0.006650 -0.000010 
#    y 0.006650 1.901060 0.020620 
#    z -0.000010 0.020620 1.915410 
# 
# From -- ./inp_files/534159.got.cif
#   From: 2010.06.25/outbox.cif.g09.slc.cpg/sg2_268_cif.got.tgz:534159.got - 2010.06.27 13:26:56.
