data_PCOD8015396
_publ_section_title
;
Structure prediction by ZEFSAII (Michael W. Deem and Ramdas Pophale) SiO2 
 PCOD8015396
Probable space group: P -1
;
_chemical_formula_sum "Si O2"
_cell_formula_units_Z 16
_cell_length_a 5.943189
_cell_length_b 18.869886
_cell_length_c 6.734843
_cell_angle_alpha 104.481734
_cell_angle_beta 74.916581
_cell_angle_gamma 106.242646
_cell_volume 687.241385
_symmetry_space_group_name_H-M "P -1"
_symmetry_group_IT_number 2
_symmetry_cell_setting 'triclinic'
loop_
_space_group_symop_operation_xyz
x,y,z
-x,-y,-z
loop_
_atom_site_type_symbol
_atom_site_label
_atom_site_fract_x
_atom_site_fract_y
_atom_site_fract_z
Si Si1 0.809291 0.044737 0.640346
Si Si2 0.461826 0.897359 0.578432
Si Si3 0.924757 0.585953 0.757845
Si Si4 0.236197 0.317739 0.481766
Si Si5 0.185464 0.151352 0.840166
Si Si6 0.024790 0.715136 0.106405
Si Si7 0.500306 0.798567 0.850244
Si Si8 0.623763 0.448650 0.566084
O O1 0.760938 0.100629 0.514374
O O2 0.918458 0.095808 0.841984
O O3 0.564963 0.982736 0.697561
O O4 0.000000 0.000000 0.500000
O O5 0.661942 0.865613 0.393303
O O6 0.377647 0.843569 0.748764
O O7 0.833852 0.637361 0.653827
O O8 0.751473 0.501670 0.756250
O O9 0.185556 0.578287 0.633557
O O10 0.940473 0.628913 0.992551
O O11 0.000568 0.285896 0.648721
O O12 0.347476 0.250816 0.333436
O O13 0.429384 0.373511 0.620124
O O14 0.155411 0.236707 0.904483
O O15 0.319243 0.141303 0.008366
O O16 0.297227 0.748820 0.001602
O O17 0.500000 0.500000 0.500000
#
# Coordination Sequence:
#
# PCOD8015396 Si02
#       8
#     2   2   2   2   2   2   2   2
#     4   9  21  43  71  97 136 180 230 280 336 410
#     4  10  22  45  70  99 138 179 225 287 339 399
#     4  10  21  42  68  96 134 177 227 282 334 404
#     4  11  23  43  65  98 137 178 220 284 339 398
#     4  11  23  43  65 102 138 176 226 279 342 411
#     4  12  25  39  67 103 134 179 228 270 345 414
#     4  12  25  41  69 103 138 179 225 280 344 407
#     4   9  20  42  68  92 134 177 226 282 334 396
#
# _framework density 23.281486000000001
#
# number of rings (size 3 to 8) (size 9 to 14) (size 15 to 20)
#    0.000    1.500    3.750    0.750    0.000    6.000 
#    0.000   14.375    0.000    0.000    0.000    0.000 
#    0.000    0.000    0.000    0.000    0.000    0.000 
#
# Total GULP energy -198308.724895 kJ/mol
# GULP energy per Si atom -12394.295306 kJ/mol
# Density = 2.322850 g / cm^3
# Si number density = 23.281486 Si / 1000 Ang^3
#
#
#
# Elastic Constant Matrix: (Units=GPa)
#
#
# Indices 1 2 3 4 5 6 
#
# 1 96.6681 28.4387 36.2874 9.4205 10.8837 4.1985
# 2 28.4387 83.4002 49.9032 18.1743 5.7662 9.0395
# 3 36.2874 49.9032 102.5240 9.4180 0.8411 16.7666
# 4 9.4205 18.1743 9.4180 38.1317 1.2825 0.9968
# 5 10.8837 5.7662 0.8411 1.2825 33.4857 2.8825
# 6 4.1985 9.0395 16.7666 0.9968 2.8825 38.5509
#
#
#
# Elastic Compliance Matrix: (Units=1/GPa)
#
#
# Indices 1 2 3 4 5 6 
#
# 1 0.012741 -0.001688 -0.003687 -0.001330 -0.003787 0.000929
# 2 -0.001688 0.018944 -0.007924 -0.006568 -0.002222 -0.000476
# 3 -0.003687 -0.007924 0.015588 0.000876 0.002545 -0.004733
# 4 -0.001330 -0.006568 0.000876 0.029442 0.000369 0.000515
# 5 -0.003787 -0.002222 0.002545 0.000369 0.031618 -0.002547
# 6 0.000929 -0.000476 -0.004733 0.000515 -0.002547 0.028186
#
#
# Mechanical properties :
#
#
# Convention : Reuss Voigt Hill
#
# Bulk Modulus (GPa) = 48.36540 56.87233 52.61886
# Shear Modulus (GPa) = 29.41050 33.23118 31.32084
#
# Velocity S-wave (km/s) = 3.55809 3.78215 3.67183
# Velocity P-wave (km/s) = 6.13997 6.59955 6.37390
#
# Compressibility (1/GPa) = 0.02067594
#
# Stress axis : x y z
#
# Youngs Moduli (GPa) = 78.48888 52.78791 64.14993
#
# Poissons Ratio (x) = 0.08908 0.23650
# Poissons Ratio (y) = 0.13246 0.50833
# Poissons Ratio (z) = 0.28937 0.41830
#
# Static dielectric constant tensor:
#      x y z
#    x 4.316850 0.491440 0.178890 
#    y 0.491440 4.481660 0.533920 
#    z 0.178890 0.533920 3.978090 
# 
# 
# High freq. dielectric constant tensor:
#      x y z
#    x 1.929710 -0.005230 -0.000090 
#    y -0.005230 1.926850 0.031870 
#    z -0.000090 0.031870 1.896010 
# 
# From -- ./inp_files/11307.got.cif
#   From: 2010.06.25/outbox.cif.g09.slc.cpg/sg2_6_cif.got.tgz:11307.got - 2010.06.27 13:26:56.
