data_PCOD8015685
_publ_section_title
;
Structure prediction by ZEFSAII (Michael W. Deem and Ramdas Pophale) SiO2 
 PCOD8015685
Probable space group: P -1
;
_chemical_formula_sum "Si O2"
_cell_formula_units_Z 16
_cell_length_a 9.081698
_cell_length_b 14.259448
_cell_length_c 8.559131
_cell_angle_alpha 112.314155
_cell_angle_beta 49.241169
_cell_angle_gamma 110.135608
_cell_volume 769.330106
_symmetry_space_group_name_H-M "P -1"
_symmetry_group_IT_number 2
_symmetry_cell_setting 'triclinic'
loop_
_space_group_symop_operation_xyz
x,y,z
-x,-y,-z
loop_
_atom_site_type_symbol
_atom_site_label
_atom_site_fract_x
_atom_site_fract_y
_atom_site_fract_z
Si Si1 0.569941 0.692151 0.174231
Si Si2 0.389928 0.557525 0.484617
Si Si3 0.228981 0.364730 0.303637
Si Si4 0.821107 0.227502 0.480298
Si Si5 0.345331 0.191391 0.310563
Si Si6 0.877682 0.830103 0.224337
Si Si7 0.016524 0.045204 0.345890
Si Si8 0.753475 0.244253 0.188282
O O1 0.545885 0.620951 0.299708
O O2 0.364924 0.728863 0.286031
O O3 0.720851 0.793639 0.175219
O O4 0.660138 0.630441 0.936034
O O5 0.500000 0.500000 0.500000
O O6 0.240814 0.478957 0.436042
O O7 0.267080 0.636043 0.706217
O O8 0.347221 0.301052 0.299374
O O9 0.002844 0.317916 0.415850
O O10 0.773403 0.195171 0.314099
O O11 0.865828 0.127538 0.478851
O O12 0.215349 0.187683 0.553233
O O13 0.241196 0.103093 0.208251
O O14 0.567511 0.178209 0.190135
O O15 0.962153 0.949537 0.206103
O O16 0.056536 0.763523 0.052200
O O17 0.000000 0.000000 0.500000
#
# Coordination Sequence:
#
# PCOD8015685 Si02
#       8
#     2   2   2   2   2   2   2   2
#     4  11  23  40  66  94 129 165 211 262 307 375
#     4  11  22  44  65  93 130 167 204 261 319 371
#     4  11  22  42  65  92 128 162 211 262 309 371
#     4  10  22  42  63  94 127 166 207 260 316 361
#     4  10  21  43  62  91 132 161 205 270 303 369
#     4  11  21  42  63  91 129 165 210 258 311 374
#     4   9  22  40  65  92 127 167 208 259 313 374
#     4  11  22  39  68  90 127 167 211 254 319 368
#
# _framework density 20.797314
#
# number of rings (size 3 to 8) (size 9 to 14) (size 15 to 20)
#    0.000    1.500    5.000    0.375    0.000    6.500 
#    2.250    1.250    0.000    0.000    0.000    0.000 
#    0.000    0.000    0.000    0.000    0.000    0.000 
#
# Total GULP energy -198376.212484 kJ/mol
# GULP energy per Si atom -12398.513280 kJ/mol
# Density = 2.074998 g / cm^3
# Si number density = 20.797314 Si / 1000 Ang^3
#
#
#
# Elastic Constant Matrix: (Units=GPa)
#
#
# Indices 1 2 3 4 5 6 
#
# 1 133.4466 58.0506 34.4135 1.3936 -23.0011 8.3461
# 2 58.0506 123.0100 32.0012 15.5996 -10.4950 10.8797
# 3 34.4135 32.0012 94.0633 7.8313 -27.8459 5.6935
# 4 1.3936 15.5996 7.8313 19.5681 2.8600 2.3714
# 5 -23.0011 -10.4950 -27.8459 2.8600 30.4092 -3.6940
# 6 8.3461 10.8797 5.6935 2.3714 -3.6940 47.6464
#
#
#
# Elastic Compliance Matrix: (Units=1/GPa)
#
#
# Indices 1 2 3 4 5 6 
#
# 1 0.010663 -0.004623 -0.000946 0.002579 0.005311 -0.000416
# 2 -0.004623 0.011886 -0.001676 -0.008270 -0.000312 -0.001316
# 3 -0.000946 -0.001676 0.016425 -0.007288 0.014440 0.000068
# 4 0.002579 -0.008270 -0.007288 0.062659 -0.013698 -0.001873
# 5 0.005311 -0.000312 0.014440 -0.013698 0.051560 0.002095
# 6 -0.000416 -0.001316 0.000068 -0.001873 0.002095 0.021609
#
#
# Mechanical properties :
#
#
# Convention : Reuss Voigt Hill
#
# Bulk Modulus (GPa) = 40.84401 66.60561 53.72481
# Shear Modulus (GPa) = 25.32245 34.59504 29.95874
#
# Velocity S-wave (km/s) = 3.49317 4.08295 3.79952
# Velocity P-wave (km/s) = 5.99595 7.37041 6.71842
#
# Compressibility (1/GPa) = 0.02448339
#
# Stress axis : x y z
#
# Youngs Moduli (GPa) = 93.78119 84.13312 60.88306
#
# Poissons Ratio (x) = 0.38897 0.05757
# Poissons Ratio (y) = 0.43357 0.10207
# Poissons Ratio (z) = 0.08868 0.14104
#
# Static dielectric constant tensor:
#      x y z
#    x 4.146360 0.454460 0.072950 
#    y 0.454460 4.288630 0.156430 
#    z 0.072950 0.156430 3.597750 
# 
# 
# High freq. dielectric constant tensor:
#      x y z
#    x 1.829050 0.013350 0.002740 
#    y 0.013350 1.816400 0.000370 
#    z 0.002740 0.000370 1.793860 
# 
# From -- ./inp_files/202898.got.cif
#   From: 2010.06.25/outbox.cif.g09.slc.cpg/sg2_102_cif.got.tgz:202898.got - 2010.06.27 13:26:56.
