data_PCOD8015980
_publ_section_title
;
Structure prediction by ZEFSAII (Michael W. Deem and Ramdas Pophale) SiO2 
 PCOD8015980
Probable space group: P -1
;
_chemical_formula_sum "Si O2"
_cell_formula_units_Z 16
_cell_length_a 10.635905
_cell_length_b 9.205279
_cell_length_c 15.962090
_cell_angle_alpha 150.192617
_cell_angle_beta 83.504905
_cell_angle_gamma 103.881960
_cell_volume 739.373854
_symmetry_space_group_name_H-M "P -1"
_symmetry_group_IT_number 2
_symmetry_cell_setting 'triclinic'
loop_
_space_group_symop_operation_xyz
x,y,z
-x,-y,-z
loop_
_atom_site_type_symbol
_atom_site_label
_atom_site_fract_x
_atom_site_fract_y
_atom_site_fract_z
Si Si1 0.894791 0.190336 0.620391
Si Si2 0.564488 0.183385 0.351462
Si Si3 0.047994 0.493447 0.389527
Si Si4 0.742082 0.805513 0.706279
Si Si5 0.829226 0.041851 0.261139
Si Si6 0.478373 0.185761 0.173607
Si Si7 0.126204 0.586226 0.088961
Si Si8 0.584859 0.881099 0.502935
O O1 0.915739 0.459347 0.685783
O O2 0.926504 0.370300 0.794083
O O3 0.741294 0.003068 0.536564
O O4 0.000000 0.000000 0.500000
O O5 0.621721 0.555649 0.541321
O O6 0.683588 0.047267 0.297099
O O7 0.521529 0.079699 0.207786
O O8 0.454891 0.044426 0.362274
O O9 0.131992 0.307100 0.340772
O O10 0.077049 0.828819 0.599424
O O11 0.895602 0.286612 0.305033
O O12 0.679222 0.860095 0.827573
O O13 0.772374 0.103331 0.795699
O O14 0.813134 0.696888 0.062095
O O15 0.557062 0.525069 0.314088
O O16 0.500000 0.000000 0.000000
O O17 0.000000 0.500000 0.000000
O O18 0.500000 0.000000 0.500000
#
# Coordination Sequence:
#
# PCOD8015980 Si02
#       8
#     2   2   2   2   2   2   2   2
#     4  12  27  41  69 102 136 174 224 276 333 397
#     4  10  22  43  70  91 128 181 218 262 336 402
#     4  10  22  43  65  91 131 173 213 261 336 397
#     4  10  21  43  68  89 131 176 218 267 333 399
#     4  10  22  40  69  94 128 169 218 268 328 392
#     4  11  24  40  65  97 130 170 220 277 325 389
#     4  12  24  42  63 101 136 173 222 278 329 388
#     4  11  24  47  70  96 131 179 226 271 334 404
#
# _framework density 21.639932000000002
#
# number of rings (size 3 to 8) (size 9 to 14) (size 15 to 20)
#    0.000    1.250    1.250    6.000    5.250    5.500 
#    0.000    1.875    0.000    0.000    0.000    0.000 
#    0.000    0.000    0.000    0.000    0.000    0.000 
#
# Total GULP energy -198280.366107 kJ/mol
# GULP energy per Si atom -12392.522882 kJ/mol
# Density = 2.159068 g / cm^3
# Si number density = 21.639932 Si / 1000 Ang^3
#
#
#
# Elastic Constant Matrix: (Units=GPa)
#
#
# Indices 1 2 3 4 5 6 
#
# 1 111.4286 48.4005 37.0787 -6.2818 -2.5151 20.1040
# 2 48.4005 158.3548 64.8770 -15.0616 -2.1068 10.3155
# 3 37.0787 64.8770 122.5230 -20.2363 -20.7776 -0.3406
# 4 -6.2818 -15.0616 -20.2363 40.0267 2.4986 -1.1090
# 5 -2.5151 -2.1068 -20.7776 2.4986 28.1947 -6.8076
# 6 20.1040 10.3155 -0.3406 -1.1090 -6.8076 35.6316
#
#
#
# Elastic Compliance Matrix: (Units=1/GPa)
#
#
# Indices 1 2 3 4 5 6 
#
# 1 0.012051 -0.002016 -0.003194 -0.000482 -0.003038 -0.006842
# 2 -0.002016 0.008997 -0.004605 0.000900 -0.003500 -0.002152
# 3 -0.003194 -0.004605 0.014122 0.004388 0.010705 0.005452
# 4 -0.000482 0.000900 0.004388 0.027427 0.001097 0.001116
# 5 -0.003038 -0.003500 0.010705 0.001097 0.045518 0.011561
# 6 -0.006842 -0.002152 0.005452 0.001116 0.011561 0.034844
#
#
# Mechanical properties :
#
#
# Convention : Reuss Voigt Hill
#
# Bulk Modulus (GPa) = 64.34211 77.00209 70.67210
# Shear Modulus (GPa) = 29.80298 36.90061 33.35180
#
# Velocity S-wave (km/s) = 3.71512 4.13390 3.93009
# Velocity P-wave (km/s) = 6.94265 7.64500 7.30228
#
# Compressibility (1/GPa) = 0.01554192
#
# Stress axis : x y z
#
# Youngs Moduli (GPa) = 82.97897 111.15087 70.81186
#
# Poissons Ratio (x) = 0.22403 0.22614
# Poissons Ratio (y) = 0.16725 0.32608
# Poissons Ratio (z) = 0.26500 0.51184
#
# Static dielectric constant tensor:
#      x y z
#    x 3.988010 0.149330 0.044190 
#    y 0.149330 3.882230 -0.311220 
#    z 0.044190 -0.311220 3.121460 
# 
# 
# High freq. dielectric constant tensor:
#      x y z
#    x 1.866700 0.013470 -0.006610 
#    y 0.013470 1.858650 -0.002870 
#    z -0.006610 -0.002870 1.835860 
# 
# From -- ./inp_files/516461.got.cif
#   From: 2010.06.25/outbox.cif.g09.slc.cpg/sg2_259_cif.got.tgz:516461.got - 2010.06.27 13:26:56.
