data_PCOD8015062
_publ_section_title
;
Structure prediction by ZEFSAII (Michael W. Deem and Ramdas Pophale) SiO2 
 PCOD8015062
Probable space group: P -1
;
_chemical_formula_sum "Si O2"
_cell_formula_units_Z 14
_cell_length_a 18.836214
_cell_length_b 8.794112
_cell_length_c 10.136943
_cell_angle_alpha 66.774782
_cell_angle_beta 55.332766
_cell_angle_gamma 30.486422
_cell_volume 681.932637
_symmetry_space_group_name_H-M "P -1"
_symmetry_group_IT_number 2
_symmetry_cell_setting 'triclinic'
loop_
_space_group_symop_operation_xyz
x,y,z
-x,-y,-z
loop_
_atom_site_type_symbol
_atom_site_label
_atom_site_fract_x
_atom_site_fract_y
_atom_site_fract_z
Si Si1 0.124774 0.773388 0.829172
Si Si2 0.198177 0.261107 0.511477
Si Si3 0.741165 0.148150 0.805619
Si Si4 0.082433 0.121677 0.553575
Si Si5 0.542955 0.794451 0.207458
Si Si6 0.957759 0.411583 0.161688
Si Si7 0.523607 0.198046 0.016217
O O1 0.304297 0.530386 0.768571
O O2 0.131063 0.574259 0.843197
O O3 0.066062 0.980569 0.699895
O O4 0.000000 0.000000 0.000000
O O5 0.158536 0.135973 0.563490
O O6 0.157173 0.354820 0.675433
O O7 0.094634 0.543508 0.425654
O O8 0.384364 0.001232 0.384341
O O9 0.605112 0.498842 0.863201
O O10 0.801201 0.101797 0.614445
O O11 0.683853 0.049822 0.894355
O O12 0.880361 0.935422 0.838661
O O13 0.562505 0.960591 0.123011
O O14 0.542000 0.717587 0.090169
O O15 0.000000 0.500000 0.000000
#
# Coordination Sequence:
#
# PCOD8015062 Si02
#       7
#     2   2   2   2   2   2   2
#     4  12  27  42  64  96 130 168 210 264 320 379
#     4  10  23  42  68  92 128 171 210 261 315 379
#     4  10  21  42  65  93 122 171 212 261 309 380
#     4  10  23  43  65  93 128 166 217 256 319 378
#     4  11  24  41  65  96 128 165 209 267 317 372
#     4  11  24  42  65  93 129 171 210 261 320 377
#     4  10  22  39  67  92 125 164 216 259 314 377
#
# _framework density 20.529886000000001
#
# number of rings (size 3 to 8) (size 9 to 14) (size 15 to 20)
#    0.000    1.429    1.429    2.571    8.000    2.286 
#    5.143    0.000    0.000    0.000    0.000    0.000 
#    0.000    0.000    0.000    0.000    0.000    0.000 
#
# Total GULP energy -173683.068534 kJ/mol
# GULP energy per Si atom -12405.933467 kJ/mol
# Density = 2.048316 g / cm^3
# Si number density = 20.529886 Si / 1000 Ang^3
#
#
#
# Elastic Constant Matrix: (Units=GPa)
#
#
# Indices 1 2 3 4 5 6 
#
# 1 102.7147 30.9108 46.7142 4.9602 3.4693 -0.3137
# 2 30.9108 81.7318 55.8813 5.6873 -2.9811 -9.5745
# 3 46.7142 55.8813 145.4662 4.0109 -1.0707 -0.0484
# 4 4.9602 5.6873 4.0109 6.1457 -9.6689 -13.6683
# 5 3.4693 -2.9811 -1.0707 -9.6689 29.2651 1.1425
# 6 -0.3137 -9.5745 -0.0484 -13.6683 1.1425 32.1993
#
#
#
# Elastic Compliance Matrix: (Units=1/GPa)
#
#
# Indices 1 2 3 4 5 6 
#
# 1 0.010728 -0.002257 -0.003089 0.019840 0.004640 0.007686
# 2 -0.002257 0.017897 -0.005930 -0.008197 -0.000907 0.001843
# 3 -0.003089 -0.005930 0.010011 0.005347 0.001878 0.000425
# 4 0.019840 -0.008197 0.005347 -0.341989 -0.110379 -0.143491
# 5 0.004640 -0.000907 0.001878 -0.110379 -0.001035 -0.047040
# 6 0.007686 0.001843 0.000425 -0.143491 -0.047040 -0.027562
#
#
# Mechanical properties :
#
#
# Convention : Reuss Voigt Hill
#
# Bulk Modulus (GPa) = 62.17154 66.32504 64.24829
# Shear Modulus (GPa) = -16.44536 26.61576 5.08520
#
# Velocity S-wave (km/s) = -2.83334 3.60452 1.57555
# Velocity P-wave (km/s) = 4.43231 7.04983 5.88836
#
# Compressibility (1/GPa) = 0.01608453
#
# Stress axis : x y z
#
# Youngs Moduli (GPa) = 93.21253 55.87681 99.88984
#
# Poissons Ratio (x) = 0.12609 0.30853
# Poissons Ratio (y) = 0.21034 0.59239
# Poissons Ratio (z) = 0.28790 0.33137
#
# Static dielectric constant tensor:
#      x y z
#    x 3.858460 0.050770 0.007920 
#    y 0.050770 3.394770 0.122500 
#    z 0.007920 0.122500 3.729080 
# 
# 
# High freq. dielectric constant tensor:
#      x y z
#    x 1.817060 0.002590 0.002670 
#    y 0.002590 1.799370 0.007460 
#    z 0.002670 0.007460 1.812510 
# 
# From -- ./inp_files/157669.got.cif
#   From: 2010.06.25/outbox.cif.g09.slc.cpg/sg2_79_cif.got.tgz:157669.got - 2010.06.27 13:26:56.
