data_PCOD8015568
_publ_section_title
;
Structure prediction by ZEFSAII (Michael W. Deem and Ramdas Pophale) SiO2 
 PCOD8015568
Probable space group: P -1
;
_chemical_formula_sum "Si O2"
_cell_formula_units_Z 16
_cell_length_a 17.833492
_cell_length_b 11.382919
_cell_length_c 8.499291
_cell_angle_alpha 38.763730
_cell_angle_beta 43.240329
_cell_angle_gamma 40.820959
_cell_volume 664.546664
_symmetry_space_group_name_H-M "P -1"
_symmetry_group_IT_number 2
_symmetry_cell_setting 'triclinic'
loop_
_space_group_symop_operation_xyz
x,y,z
-x,-y,-z
loop_
_atom_site_type_symbol
_atom_site_label
_atom_site_fract_x
_atom_site_fract_y
_atom_site_fract_z
Si Si1 0.514477 0.734727 0.912266
Si Si2 0.291075 0.680528 0.838178
Si Si3 0.956772 0.284692 0.763460
Si Si4 0.907094 0.805073 0.676229
Si Si5 0.136431 0.529778 0.761976
Si Si6 0.291136 0.732185 0.435317
Si Si7 0.142701 0.297469 0.673239
Si Si8 0.391958 0.942827 0.577015
O O1 0.473132 0.764511 0.762642
O O2 0.533341 0.935842 0.730808
O O3 0.641701 0.526981 0.942500
O O4 0.417266 0.710222 0.198189
O O5 0.312545 0.616766 0.690060
O O6 0.351120 0.839447 0.606536
O O7 0.146399 0.799832 0.976788
O O8 0.877104 0.536194 0.610500
O O9 0.042247 0.184941 0.584928
O O10 0.036427 0.225617 0.865884
O O11 0.009872 0.742262 0.722473
O O12 0.801658 0.026258 0.656437
O O13 0.857680 0.624668 0.942034
O O14 0.243655 0.601420 0.530857
O O15 0.131871 0.410282 0.735747
O O16 0.273277 0.103409 0.682333
#
# Coordination Sequence:
#
# PCOD8015568 Si02
#       8
#     2   2   2   2   2   2   2   2
#     4  11  27  49  68 101 139 182 238 288 343 407
#     4  12  27  46  71 105 141 182 234 285 346 414
#     4  10  23  42  71 104 143 177 222 290 341 412
#     4  10  23  44  65 103 142 181 227 279 345 410
#     4  10  24  43  69 104 144 186 218 285 350 411
#     4  12  27  43  72 103 140 187 231 283 342 424
#     4  10  21  42  71 103 137 180 222 282 351 399
#     4  11  25  47  77 100 133 185 235 296 340 409
#
# _framework density 24.076563
#
# number of rings (size 3 to 8) (size 9 to 14) (size 15 to 20)
#    0.000    1.250    1.250    2.625   10.500    6.500 
#    0.000    0.000    0.000    0.000    0.000    0.000 
#    0.000    0.000    0.000    0.000    0.000    0.000 
#
# Total GULP energy -198340.118085 kJ/mol
# GULP energy per Si atom -12396.257380 kJ/mol
# Density = 2.402176 g / cm^3
# Si number density = 24.076563 Si / 1000 Ang^3
#
#
#
# Elastic Constant Matrix: (Units=GPa)
#
#
# Indices 1 2 3 4 5 6 
#
# 1 133.6748 30.7623 53.6392 3.5952 -22.2529 4.1456
# 2 30.7623 64.4971 20.3837 0.0624 -2.2955 -5.8421
# 3 53.6392 20.3837 115.1865 9.9517 -23.4454 -1.1652
# 4 3.5952 0.0624 9.9517 36.4043 -5.0327 0.6020
# 5 -22.2529 -2.2955 -23.4454 -5.0327 36.7408 -0.2080
# 6 4.1456 -5.8421 -1.1652 0.6020 -0.2080 31.8148
#
#
#
# Elastic Compliance Matrix: (Units=1/GPa)
#
#
# Indices 1 2 3 4 5 6 
#
# 1 0.010492 -0.003976 -0.003440 0.000496 0.003966 -0.002207
# 2 -0.003976 0.018247 -0.001863 0.000481 -0.002370 0.003776
# 3 -0.003440 -0.001863 0.011839 -0.002205 0.005057 0.000614
# 4 0.000496 0.000481 -0.002205 0.028421 0.002813 -0.000576
# 5 0.003966 -0.002370 0.005057 0.002813 0.033081 -0.000604
# 6 -0.002207 0.003776 0.000614 -0.000576 -0.000604 0.032442
#
#
# Mechanical properties :
#
#
# Convention : Reuss Voigt Hill
#
# Bulk Modulus (GPa) = 45.41455 58.10322 51.75888
# Shear Modulus (GPa) = 31.16835 34.89686 33.03260
#
# Velocity S-wave (km/s) = 3.60189 3.81124 3.70805
# Velocity P-wave (km/s) = 6.01678 6.59943 6.31483
#
# Compressibility (1/GPa) = 0.02201938
#
# Stress axis : x y z
#
# Youngs Moduli (GPa) = 95.31513 54.80339 84.46636
#
# Poissons Ratio (x) = 0.21790 0.29055
# Poissons Ratio (y) = 0.37898 0.15738
# Poissons Ratio (z) = 0.32787 0.10211
#
# Static dielectric constant tensor:
#      x y z
#    x 4.521050 -0.303040 -0.139270 
#    y -0.303040 4.214480 -0.261000 
#    z -0.139270 -0.261000 4.377840 
# 
# 
# High freq. dielectric constant tensor:
#      x y z
#    x 1.962840 -0.014050 -0.009610 
#    y -0.014050 1.948330 -0.013200 
#    z -0.009610 -0.013200 1.954250 
# 
# From -- ./inp_files/332696.got.cif
#   From: 2010.06.25/outbox.cif.g09.slc.cpg/sg2_167_cif.got.tgz:332696.got - 2010.06.27 13:26:56.
