data_PCOD8015293
_publ_section_title
;
Structure prediction by ZEFSAII (Michael W. Deem and Ramdas Pophale) SiO2 
 PCOD8015293
Probable space group: P -1
;
_chemical_formula_sum "Si O2"
_cell_formula_units_Z 14
_cell_length_a 18.417429
_cell_length_b 4.788001
_cell_length_c 18.060041
_cell_angle_alpha 85.962768
_cell_angle_beta 24.859801
_cell_angle_gamma 69.229333
_cell_volume 481.280211
_symmetry_space_group_name_H-M "P -1"
_symmetry_group_IT_number 2
_symmetry_cell_setting 'triclinic'
loop_
_space_group_symop_operation_xyz
x,y,z
-x,-y,-z
loop_
_atom_site_type_symbol
_atom_site_label
_atom_site_fract_x
_atom_site_fract_y
_atom_site_fract_z
Si Si1 0.897322 0.589871 0.765735
Si Si2 0.266579 0.608562 0.803230
Si Si3 0.557052 0.504850 0.131665
Si Si4 0.069010 0.924940 0.522270
Si Si5 0.231551 0.185568 0.739947
Si Si6 0.966815 0.814254 0.854582
Si Si7 0.716476 0.060191 0.481224
O O1 0.888921 0.914085 0.733442
O O2 0.661660 0.658755 0.988383
O O3 0.051451 0.253396 0.567201
O O4 0.058295 0.406214 0.698453
O O5 0.124748 0.491031 0.906130
O O6 0.546198 0.196898 0.564515
O O7 0.242610 0.841911 0.751232
O O8 0.158594 0.857566 0.972545
O O9 0.357211 0.549254 0.270685
O O10 0.461299 0.755149 0.289435
O O11 0.756099 0.035047 0.979793
O O12 0.000000 0.000000 0.500000
O O13 0.089116 0.400592 0.788530
O O14 0.500000 0.000000 0.500000
O O15 0.184911 0.738360 0.618277
#
# Coordination Sequence:
#
# PCOD8015293 Si02
#       7
#     2   2   2   2   2   2   2
#     4  10  23  43  69 102 140 181 226 275 342 407
#     4  11  24  42  63  92 130 176 228 285 346 405
#     4   9  22  44  69 101 140 182 231 281 344 410
#     4  11  24  44  72 105 140 178 225 279 337 409
#     4  12  24  42  64  92 132 175 228 289 348 402
#     4  10  21  42  67  94 133 181 230 285 347 410
#     4   9  20  42  65  95 131 178 228 282 334 404
#
# _framework density 29.089082000000001
#
# number of rings (size 3 to 8) (size 9 to 14) (size 15 to 20)
#    0.000    1.714    1.429    1.714    0.000    6.857 
#    0.000   12.857    0.000    0.000    0.000    0.000 
#    0.000    0.000    0.000    0.000    0.000    0.000 
#
# Total GULP energy -173570.321162 kJ/mol
# GULP energy per Si atom -12397.880083 kJ/mol
# Density = 2.902287 g / cm^3
# Si number density = 29.089082 Si / 1000 Ang^3
#
#
#
# Elastic Constant Matrix: (Units=GPa)
#
#
# Indices 1 2 3 4 5 6 
#
# 1 215.2065 72.4505 57.7618 -4.9966 -24.7565 -30.6966
# 2 72.4505 165.7482 62.0615 -13.1516 -9.4118 -3.0059
# 3 57.7618 62.0615 144.5677 -6.3118 -26.9371 -17.6409
# 4 -4.9966 -13.1516 -6.3118 63.8236 0.5229 -0.9654
# 5 -24.7565 -9.4118 -26.9371 0.5229 50.9152 -4.8618
# 6 -30.6966 -3.0059 -17.6409 -0.9654 -4.8618 45.9075
#
#
#
# Elastic Compliance Matrix: (Units=1/GPa)
#
#
# Indices 1 2 3 4 5 6 
#
# 1 0.006551 -0.002431 -0.000509 0.000004 0.002880 0.004331
# 2 -0.002431 0.008212 -0.003084 0.001173 -0.001537 -0.002411
# 3 -0.000509 -0.003084 0.009791 0.000311 0.004715 0.003726
# 4 0.000004 0.001173 0.000311 0.015947 0.000273 0.000563
# 5 0.002880 -0.001537 0.004715 0.000273 0.023838 0.006167
# 6 0.004331 -0.002411 0.003726 0.000563 0.006167 0.026618
#
#
# Mechanical properties :
#
#
# Convention : Reuss Voigt Hill
#
# Bulk Modulus (GPa) = 79.94740 101.11890 90.53315
# Shear Modulus (GPa) = 46.65403 54.34583 50.49993
#
# Velocity S-wave (km/s) = 4.00913 4.32702 4.17111
# Velocity P-wave (km/s) = 6.99816 7.73314 7.37481
#
# Compressibility (1/GPa) = 0.01250822
#
# Stress axis : x y z
#
# Youngs Moduli (GPa) = 152.65804 121.76704 102.13349
#
# Poissons Ratio (x) = 0.29596 0.05195
# Poissons Ratio (y) = 0.37104 0.31496
# Poissons Ratio (z) = 0.07764 0.37551
#
# Static dielectric constant tensor:
#      x y z
#    x 5.803710 0.140150 0.138270 
#    y 0.140150 5.473500 0.633610 
#    z 0.138270 0.633610 6.866600 
# 
# 
# High freq. dielectric constant tensor:
#      x y z
#    x 2.210640 0.019880 0.021390 
#    y 0.019880 2.184810 0.020210 
#    z 0.021390 0.020210 2.248820 
# 
# From -- ./inp_files/548177.got.cif
#   From: 2010.06.25/outbox.cif.g09.slc.cpg/sg2_275_cif.got.tgz:548177.got - 2010.06.27 13:26:56.
