data_PCOD8015540
_publ_section_title
;
Structure prediction by ZEFSAII (Michael W. Deem and Ramdas Pophale) SiO2 
 PCOD8015540
Probable space group: P -1
;
_chemical_formula_sum "Si O2"
_cell_formula_units_Z 16
_cell_length_a 8.509802
_cell_length_b 5.026973
_cell_length_c 22.264245
_cell_angle_alpha 64.718027
_cell_angle_beta 118.165026
_cell_angle_gamma 83.143137
_cell_volume 694.965099
_symmetry_space_group_name_H-M "P -1"
_symmetry_group_IT_number 2
_symmetry_cell_setting 'triclinic'
loop_
_space_group_symop_operation_xyz
x,y,z
-x,-y,-z
loop_
_atom_site_type_symbol
_atom_site_label
_atom_site_fract_x
_atom_site_fract_y
_atom_site_fract_z
Si Si1 0.170447 0.882270 0.993498
Si Si2 0.520570 0.730239 0.255102
Si Si3 0.846043 0.906637 0.158748
Si Si4 0.166733 0.216436 0.523430
Si Si5 0.443280 0.112211 0.321189
Si Si6 0.931094 0.260790 0.372383
Si Si7 0.592402 0.851816 0.916551
Si Si8 0.978263 0.830217 0.732881
O O1 0.085363 0.987153 0.901105
O O2 0.720778 0.501072 0.947869
O O3 0.314612 0.059194 0.016448
O O4 0.000000 0.000000 0.000000
O O5 0.448231 0.462518 0.291494
O O6 0.753222 0.604625 0.295731
O O7 0.411930 0.888859 0.159149
O O8 0.469744 0.013191 0.266410
O O9 0.620136 0.132313 0.107160
O O10 0.877048 0.537701 0.194473
O O11 0.978485 0.943592 0.233320
O O12 0.000000 0.500000 0.500000
O O13 0.122756 0.271418 0.438493
O O14 0.388364 0.166002 0.582232
O O15 0.159123 0.893212 0.579159
O O16 0.241730 0.130971 0.308085
O O17 0.990303 0.068089 0.339028
#
# Coordination Sequence:
#
# PCOD8015540 Si02
#       8
#     2   2   2   2   2   2   2   2
#     4  12  28  47  71 106 142 179 227 286 347 408
#     4  11  23  42  70 100 132 182 232 280 339 409
#     4  12  27  48  71 101 141 183 229 284 340 413
#     4  10  21  42  70  96 138 183 230 279 333 419
#     4  11  25  42  67 101 145 176 227 287 345 403
#     4  10  23  42  68 102 133 180 234 279 337 405
#     4  12  25  46  75 100 136 186 229 279 342 415
#     4  12  27  44  69 105 140 180 227 292 342 396
#
# _framework density 23.022738
#
# number of rings (size 3 to 8) (size 9 to 14) (size 15 to 20)
#    0.000    0.750    2.500    4.125   10.500    0.500 
#    0.000    0.625    0.000    0.000    0.000    0.000 
#    0.000    0.000    0.000    0.000    0.000    0.000 
#
# Total GULP energy -198411.018986 kJ/mol
# GULP energy per Si atom -12400.688687 kJ/mol
# Density = 2.297034 g / cm^3
# Si number density = 23.022738 Si / 1000 Ang^3
#
#
#
# Elastic Constant Matrix: (Units=GPa)
#
#
# Indices 1 2 3 4 5 6 
#
# 1 85.6926 11.9218 32.2535 11.2293 11.9447 -12.5050
# 2 11.9218 100.6846 31.6598 4.9279 5.7102 -4.7984
# 3 32.2535 31.6598 111.6985 27.8316 1.7035 -12.7843
# 4 11.2293 4.9279 27.8316 42.2668 -7.4473 0.4686
# 5 11.9447 5.7102 1.7035 -7.4473 30.1150 4.7032
# 6 -12.5050 -4.7984 -12.7843 0.4686 4.7032 34.9251
#
#
#
# Elastic Compliance Matrix: (Units=1/GPa)
#
#
# Indices 1 2 3 4 5 6 
#
# 1 0.015002 -0.000072 -0.002676 -0.003602 -0.007526 0.005444
# 2 -0.000072 0.011035 -0.003124 0.000454 -0.001867 0.000592
# 3 -0.002676 -0.003124 0.013003 -0.007808 -0.001589 0.003691
# 4 -0.003602 0.000454 -0.007808 0.031626 0.010531 -0.005928
# 5 -0.007526 -0.001867 -0.001589 0.010531 0.040668 -0.009151
# 6 0.005444 0.000592 0.003691 -0.005928 -0.009151 0.033326
#
#
# Mechanical properties :
#
#
# Convention : Reuss Voigt Hill
#
# Bulk Modulus (GPa) = 36.63593 49.97178 43.30386
# Shear Modulus (GPa) = 30.21084 36.27740 33.24412
#
# Velocity S-wave (km/s) = 3.62638 3.97384 3.80408
# Velocity P-wave (km/s) = 5.78634 6.54276 6.17614
#
# Compressibility (1/GPa) = 0.02729561
#
# Stress axis : x y z
#
# Youngs Moduli (GPa) = 66.65570 90.62332 76.90552
#
# Poissons Ratio (x) = 0.00655 0.20582
# Poissons Ratio (y) = 0.00482 0.24023
# Poissons Ratio (z) = 0.17839 0.28308
#
# Static dielectric constant tensor:
#      x y z
#    x 4.018040 -0.015270 0.020570 
#    y -0.015270 4.225350 -0.195260 
#    z 0.020570 -0.195260 5.188560 
# 
# 
# High freq. dielectric constant tensor:
#      x y z
#    x 1.891860 -0.007050 0.006850 
#    y -0.007050 1.915440 0.003000 
#    z 0.006850 0.003000 1.927520 
# 
# From -- ./inp_files/585223.got.cif
#   From: 2010.06.25/outbox.cif.g09.slc.cpg/sg2_293_cif.got.tgz:585223.got - 2010.06.27 13:26:56.
