data_PCOD8015823
_publ_section_title
;
Structure prediction by ZEFSAII (Michael W. Deem and Ramdas Pophale) SiO2 
 PCOD8015823
Probable space group: P -1
;
_chemical_formula_sum "Si O2"
_cell_formula_units_Z 16
_cell_length_a 13.511040
_cell_length_b 9.722647
_cell_length_c 6.919124
_cell_angle_alpha 63.886423
_cell_angle_beta 80.089184
_cell_angle_gamma 85.369229
_cell_volume 803.946023
_symmetry_space_group_name_H-M "P -1"
_symmetry_group_IT_number 2
_symmetry_cell_setting 'triclinic'
loop_
_space_group_symop_operation_xyz
x,y,z
-x,-y,-z
loop_
_atom_site_type_symbol
_atom_site_label
_atom_site_fract_x
_atom_site_fract_y
_atom_site_fract_z
Si Si1 0.101422 0.936782 0.408512
Si Si2 0.928995 0.232551 0.853058
Si Si3 0.864784 0.767346 0.004866
Si Si4 0.458091 0.450711 0.342765
Si Si5 0.635206 0.365128 0.059925
Si Si6 0.170892 0.457166 0.170405
Si Si7 0.772586 0.088450 0.254528
Si Si8 0.265146 0.256592 0.580629
O O1 0.074962 0.797989 0.356831
O O2 0.177489 0.866080 0.585104
O O3 0.000000 0.000000 0.500000
O O4 0.158098 0.075580 0.197634
O O5 0.040680 0.206407 0.905521
O O6 0.105121 0.596721 0.187401
O O7 0.858179 0.105769 0.053121
O O8 0.769676 0.726698 0.195799
O O9 0.885838 0.631707 0.927567
O O10 0.500000 0.500000 0.500000
O O11 0.549406 0.380098 0.236933
O O12 0.376670 0.319437 0.482331
O O13 0.410497 0.599167 0.159216
O O14 0.677956 0.194127 0.165666
O O15 0.724518 0.485432 0.991807
O O16 0.187414 0.345509 0.414330
O O17 0.732117 0.917991 0.379660
#
# Coordination Sequence:
#
# PCOD8015823 Si02
#       8
#     2   2   2   2   2   2   2   2
#     4  12  23  39  63  87 126 175 210 246 308 355
#     4  11  24  39  60  89 127 165 213 255 298 365
#     4  12  22  38  61  89 125 167 211 255 303 360
#     4  10  21  43  66  90 120 157 196 257 319 369
#     4   9  22  41  65  89 121 155 207 250 310 370
#     4  10  23  40  60  91 122 164 207 255 308 361
#     4  11  22  41  63  91 124 165 207 254 301 365
#     4  11  23  39  63  90 124 159 203 255 311 366
#
# _framework density 19.901833
#
# number of rings (size 3 to 8) (size 9 to 14) (size 15 to 20)
#    0.000    1.250    3.750    2.250    0.000    6.000 
#    0.000    0.625    0.000    0.000    0.000    0.000 
#    0.000    0.000    0.000    0.000    0.000    0.000 
#
# Total GULP energy -198447.068721 kJ/mol
# GULP energy per Si atom -12402.941795 kJ/mol
# Density = 1.985654 g / cm^3
# Si number density = 19.901833 Si / 1000 Ang^3
#
#
#
# Elastic Constant Matrix: (Units=GPa)
#
#
# Indices 1 2 3 4 5 6 
#
# 1 84.0156 27.5650 38.2184 5.7832 6.4196 -10.5397
# 2 27.5650 101.6398 40.0298 9.5904 11.4907 0.2327
# 3 38.2184 40.0298 107.9468 6.0029 2.3784 -7.0750
# 4 5.7832 9.5904 6.0029 40.9291 4.1677 7.6054
# 5 6.4196 11.4907 2.3784 4.1677 35.2931 5.9290
# 6 -10.5397 0.2327 -7.0750 7.6054 5.9290 26.1259
#
#
#
# Elastic Compliance Matrix: (Units=1/GPa)
#
#
# Indices 1 2 3 4 5 6 
#
# 1 0.015640 -0.002121 -0.004159 -0.002017 -0.002712 0.006405
# 2 -0.002121 0.012386 -0.003740 -0.001589 -0.003069 -0.000820
# 3 -0.004159 -0.003740 0.012253 -0.000741 0.000955 0.001673
# 4 -0.002017 -0.001589 -0.000741 0.026886 -0.000788 -0.008648
# 5 -0.002712 -0.003069 0.000955 -0.000788 0.031140 -0.007645
# 6 0.006405 -0.000820 0.001673 -0.008648 -0.007645 0.045573
#
#
# Mechanical properties :
#
#
# Convention : Reuss Voigt Hill
#
# Bulk Modulus (GPa) = 49.41085 56.13652 52.77368
# Shear Modulus (GPa) = 29.29755 32.98887 31.14321
#
# Velocity S-wave (km/s) = 3.84096 4.07575 3.96010
# Velocity P-wave (km/s) = 6.67472 7.10049 6.89089
#
# Compressibility (1/GPa) = 0.02023847
#
# Stress axis : x y z
#
# Youngs Moduli (GPa) = 63.93887 80.73880 81.61369
#
# Poissons Ratio (x) = 0.17128 0.33943
# Poissons Ratio (y) = 0.13564 0.30520
# Poissons Ratio (z) = 0.26592 0.30193
#
# Static dielectric constant tensor:
#      x y z
#    x 3.557900 0.089860 0.117420 
#    y 0.089860 3.462830 -0.091250 
#    z 0.117420 -0.091250 3.885100 
# 
# 
# High freq. dielectric constant tensor:
#      x y z
#    x 1.770060 0.003410 0.000320 
#    y 0.003410 1.772790 -0.000940 
#    z 0.000320 -0.000940 1.794960 
# 
# From -- ./inp_files/68469.got.cif
#   From: 2010.06.25/outbox.cif.g09.slc.cpg/sg2_35_cif.got.tgz:68469.got - 2010.06.27 13:26:56.
