data_PCOD8015485
_publ_section_title
;
Structure prediction by ZEFSAII (Michael W. Deem and Ramdas Pophale) SiO2 
 PCOD8015485
Probable space group: P -1
;
_chemical_formula_sum "Si O2"
_cell_formula_units_Z 16
_cell_length_a 15.274122
_cell_length_b 9.659423
_cell_length_c 12.043992
_cell_angle_alpha 132.220277
_cell_angle_beta 147.694246
_cell_angle_gamma 60.132302
_cell_volume 692.220747
_symmetry_space_group_name_H-M "P -1"
_symmetry_group_IT_number 2
_symmetry_cell_setting 'triclinic'
loop_
_space_group_symop_operation_xyz
x,y,z
-x,-y,-z
loop_
_atom_site_type_symbol
_atom_site_label
_atom_site_fract_x
_atom_site_fract_y
_atom_site_fract_z
Si Si1 0.479523 0.187052 0.516430
Si Si2 0.952880 0.297961 0.902045
Si Si3 0.700881 0.011431 0.352586
Si Si4 0.633389 0.530176 0.304481
Si Si5 0.679865 0.128494 0.156871
Si Si6 0.161051 0.689187 0.974172
Si Si7 0.193344 0.003496 0.990353
Si Si8 0.255781 0.395148 0.766126
O O1 0.348096 0.297353 0.496905
O O2 0.663577 0.308173 0.770517
O O3 0.382938 0.121825 0.264218
O O4 0.500000 0.000000 0.500000
O O5 0.773795 0.189342 0.605994
O O6 0.964404 0.327796 0.064858
O O7 0.075403 0.154791 0.924433
O O8 0.000000 0.500000 0.000000
O O9 0.502210 0.978513 0.133752
O O10 0.779372 0.828368 0.371003
O O11 0.750684 0.038284 0.291312
O O12 0.770345 0.582965 0.382147
O O13 0.669593 0.341089 0.299181
O O14 0.443536 0.500881 0.043717
O O15 0.807075 0.126448 0.189666
O O16 0.148371 0.871199 0.980638
O O17 0.132919 0.500895 0.764721
#
# Coordination Sequence:
#
# PCOD8015485 Si02
#       8
#     2   2   2   2   2   2   2   2
#     4   9  20  34  68 101 126 159 207 270 318 372
#     4  12  29  46  60  86 138 182 215 256 322 392
#     4  10  24  42  66  93 131 172 207 264 322 383
#     4   9  17  33  63 100 129 152 201 273 323 370
#     4  10  21  42  69  98 125 161 221 269 317 375
#     4  10  21  44  66  96 124 165 219 269 320 375
#     4  11  23  42  66  96 127 169 214 268 321 385
#     4   9  18  35  65  96 124 157 207 266 323 373
#
# _framework density 23.114014999999998
#
# number of rings (size 3 to 8) (size 9 to 14) (size 15 to 20)
#    0.000    2.000    1.250    1.125   12.250    0.500 
#    0.000    1.875    0.000    0.000    0.000    0.000 
#    0.000    0.000    0.000    0.000    0.000    0.000 
#
# Total GULP energy -198268.740391 kJ/mol
# GULP energy per Si atom -12391.796274 kJ/mol
# Density = 2.306141 g / cm^3
# Si number density = 23.114015 Si / 1000 Ang^3
#
#
#
# Elastic Constant Matrix: (Units=GPa)
#
#
# Indices 1 2 3 4 5 6 
#
# 1 123.9612 50.4489 7.4862 14.5384 -25.0706 4.0456
# 2 50.4489 124.2011 30.4044 23.1805 -6.6033 7.9517
# 3 7.4862 30.4044 43.6296 24.8521 -9.5772 -0.0541
# 4 14.5384 23.1805 24.8521 28.5866 -8.1985 -2.2347
# 5 -25.0706 -6.6033 -9.5772 -8.1985 24.9556 4.8461
# 6 4.0456 7.9517 -0.0541 -2.2347 4.8461 38.9409
#
#
#
# Elastic Compliance Matrix: (Units=1/GPa)
#
#
# Indices 1 2 3 4 5 6 
#
# 1 0.013166 -0.005333 0.007242 -0.005003 0.013382 -0.002221
# 2 -0.005333 0.012304 -0.007465 -0.002464 -0.005499 -0.001426
# 3 0.007242 -0.007465 0.052274 -0.039601 0.012941 -0.003039
# 4 -0.005003 -0.002464 -0.039601 0.075156 0.002859 0.004925
# 5 0.013382 -0.005499 0.012941 0.002859 0.059418 -0.007480
# 6 -0.002221 -0.001426 -0.003039 0.004925 -0.007480 0.027411
#
#
# Mechanical properties :
#
#
# Convention : Reuss Voigt Hill
#
# Bulk Modulus (GPa) = 15.00782 52.05233 33.53008
# Shear Modulus (GPa) = 18.31155 32.06013 25.18584
#
# Velocity S-wave (km/s) = 2.81771 3.72834 3.30454
# Velocity P-wave (km/s) = 4.13437 6.41114 5.39425
#
# Compressibility (1/GPa) = 0.06663192
#
# Stress axis : x y z
#
# Youngs Moduli (GPa) = 75.95353 81.27538 19.12998
#
# Poissons Ratio (x) = 0.43346 -0.13854
# Poissons Ratio (y) = 0.40508 0.14280
# Poissons Ratio (z) = -0.55006 0.60669
#
# Static dielectric constant tensor:
#      x y z
#    x 4.053640 -0.080090 -0.181160 
#    y -0.080090 3.999230 -0.037590 
#    z -0.181160 -0.037590 4.496870 
# 
# 
# High freq. dielectric constant tensor:
#      x y z
#    x 1.905550 -0.009620 -0.016080 
#    y -0.009620 1.906810 0.004150 
#    z -0.016080 0.004150 1.910500 
# 
# From -- ./inp_files/448260.got.cif
#   From: 2010.06.25/outbox.cif.g09.slc.cpg/sg2_225_cif.got.tgz:448260.got - 2010.06.27 13:26:56.
