data_PCOD8015240
_publ_section_title
;
Structure prediction by ZEFSAII (Michael W. Deem and Ramdas Pophale) SiO2 
 PCOD8015240
Probable space group: P -1
;
_chemical_formula_sum "Si O2"
_cell_formula_units_Z 16
_cell_length_a 15.833676
_cell_length_b 8.704849
_cell_length_c 8.590577
_cell_angle_alpha 122.129386
_cell_angle_beta 59.548732
_cell_angle_gamma 83.926108
_cell_volume 741.387284
_symmetry_space_group_name_H-M "P -1"
_symmetry_group_IT_number 2
_symmetry_cell_setting 'triclinic'
loop_
_space_group_symop_operation_xyz
x,y,z
-x,-y,-z
loop_
_atom_site_type_symbol
_atom_site_label
_atom_site_fract_x
_atom_site_fract_y
_atom_site_fract_z
Si Si1 0.015360 0.240767 0.990374
Si Si2 0.170981 0.372473 0.774421
Si Si3 0.171477 0.812656 0.432882
Si Si4 0.403449 0.444633 0.030110
Si Si5 0.995219 0.716826 0.620547
Si Si6 0.581373 0.780537 0.397337
Si Si7 0.791351 0.933520 0.709413
Si Si8 0.432167 0.021880 0.924592
O O1 0.087490 0.358017 0.970155
O O2 0.090589 0.011177 0.722139
O O3 0.892619 0.380940 0.090218
O O4 0.996861 0.212787 0.173647
O O5 0.293640 0.270830 0.688909
O O6 0.178149 0.248585 0.542715
O O7 0.288578 0.641283 0.314675
O O8 0.099189 0.698042 0.408775
O O9 0.214207 0.868700 0.266042
O O10 0.500000 0.500000 0.000000
O O11 0.398760 0.416673 0.832249
O O12 0.414917 0.234860 0.978647
O O13 0.000000 0.500000 0.500000
O O14 0.879918 0.884474 0.736869
O O15 0.500000 0.000000 0.500000
O O16 0.507734 0.811708 0.637000
O O17 0.679369 0.983791 0.933423
O O18 0.500000 0.000000 0.000000
#
# Coordination Sequence:
#
# PCOD8015240 Si02
#       8
#     2   2   2   2   2   2   2   2
#     4  10  24  41  70  97 140 182 228 284 348 410
#     4  10  21  42  67 102 135 180 229 284 344 416
#     4  11  26  45  65  99 146 180 224 291 351 408
#     4  11  26  44  68 102 139 179 230 293 350 410
#     4  12  24  41  68 103 133 180 238 276 347 410
#     4  10  24  40  71  96 135 180 233 277 348 408
#     4  11  23  41  69 100 140 178 227 291 341 409
#     4  11  22  44  72 101 130 184 237 283 348 416
#
# _framework density 21.581163
#
# number of rings (size 3 to 8) (size 9 to 14) (size 15 to 20)
#    0.000    1.250    2.500    2.250   10.500    1.000 
#    0.000    3.750    0.000    0.000    0.000    0.000 
#    0.000    0.000    0.000    0.000    0.000    0.000 
#
# Total GULP energy -198227.481198 kJ/mol
# GULP energy per Si atom -12389.217575 kJ/mol
# Density = 2.153204 g / cm^3
# Si number density = 21.581163 Si / 1000 Ang^3
#
#
#
# Elastic Constant Matrix: (Units=GPa)
#
#
# Indices 1 2 3 4 5 6 
#
# 1 146.6921 63.1453 54.4247 -3.2414 -33.7626 -5.3878
# 2 63.1453 108.3135 53.5872 -7.4029 -10.7097 10.9507
# 3 54.4247 53.5872 116.5146 1.9388 -20.2621 -0.4276
# 4 -3.2414 -7.4029 1.9388 41.7381 1.3567 -10.0418
# 5 -33.7626 -10.7097 -20.2621 1.3567 45.8734 -3.3472
# 6 -5.3878 10.9507 -0.4276 -10.0418 -3.3472 46.4567
#
#
#
# Elastic Compliance Matrix: (Units=1/GPa)
#
#
# Indices 1 2 3 4 5 6 
#
# 1 0.011451 -0.005478 -0.001674 0.000550 0.006627 0.003200
# 2 -0.005478 0.015103 -0.004958 0.001592 -0.003043 -0.004116
# 3 -0.001674 -0.004958 0.012215 -0.001437 0.003121 0.001001
# 4 0.000550 0.001592 -0.001437 0.025608 -0.000237 0.005193
# 5 0.006627 -0.003043 0.003121 -0.000237 0.027603 0.003452
# 6 0.003200 -0.004116 0.001001 0.005193 0.003452 0.024247
#
#
# Mechanical properties :
#
#
# Convention : Reuss Voigt Hill
#
# Bulk Modulus (GPa) = 68.73646 79.31496 74.02571
# Shear Modulus (GPa) = 34.41150 40.17120 37.29135
#
# Velocity S-wave (km/s) = 3.99747 4.31908 4.16138
# Velocity P-wave (km/s) = 7.29560 7.85521 7.58057
#
# Compressibility (1/GPa) = 0.01454832
#
# Stress axis : x y z
#
# Youngs Moduli (GPa) = 87.32576 66.21058 81.86339
#
# Poissons Ratio (x) = 0.36272 0.13707
# Poissons Ratio (y) = 0.47840 0.40589
# Poissons Ratio (z) = 0.14622 0.32828
#
# Static dielectric constant tensor:
#      x y z
#    x 3.813670 -0.028420 0.137630 
#    y -0.028420 4.145780 -0.169340 
#    z 0.137630 -0.169340 4.162340 
# 
# 
# High freq. dielectric constant tensor:
#      x y z
#    x 1.846370 -0.007900 -0.010000 
#    y -0.007900 1.851400 -0.003070 
#    z -0.010000 -0.003070 1.860430 
# 
# From -- ./inp_files/299448.got.cif
#   From: 2010.06.25/outbox.cif.g09.slc.cpg/sg2_150_cif.got.tgz:299448.got - 2010.06.27 13:26:56.
