data_PCOD8015306
_publ_section_title
;
Structure prediction by ZEFSAII (Michael W. Deem and Ramdas Pophale) SiO2 
 PCOD8015306
Probable space group: P -1
;
_chemical_formula_sum "Si O2"
_cell_formula_units_Z 16
_cell_length_a 8.755732
_cell_length_b 15.800325
_cell_length_c 9.422270
_cell_angle_alpha 145.882158
_cell_angle_beta 91.920772
_cell_angle_gamma 94.188359
_cell_volume 718.816772
_symmetry_space_group_name_H-M "P -1"
_symmetry_group_IT_number 2
_symmetry_cell_setting 'triclinic'
loop_
_space_group_symop_operation_xyz
x,y,z
-x,-y,-z
loop_
_atom_site_type_symbol
_atom_site_label
_atom_site_fract_x
_atom_site_fract_y
_atom_site_fract_z
Si Si1 0.537474 0.852547 0.089993
Si Si2 0.136117 0.492800 0.389033
Si Si3 0.381193 0.602952 0.927396
Si Si4 0.865052 0.829224 0.144611
Si Si5 0.616253 0.198339 0.540827
Si Si6 0.951480 0.567220 0.237347
Si Si7 0.549242 0.338312 0.440117
Si Si8 0.965977 0.156951 0.538184
O O1 0.689227 0.854839 0.197100
O O2 0.511605 0.028254 0.320121
O O3 0.394470 0.749250 0.025346
O O4 0.559795 0.779151 0.832158
O O5 0.306611 0.590084 0.559573
O O6 0.000000 0.500000 0.500000
O O7 0.096632 0.557111 0.325931
O O8 0.145732 0.315755 0.155969
O O9 0.203238 0.520607 0.816151
O O10 0.477583 0.479044 0.697396
O O11 0.441519 0.673946 0.182023
O O12 0.948696 0.793919 0.242677
O O13 0.961908 0.975737 0.267293
O O14 0.601041 0.242946 0.439252
O O15 0.793605 0.196670 0.588426
O O16 0.937893 0.745356 0.450684
O O17 0.000000 0.500000 0.000000
#
# Coordination Sequence:
#
# PCOD8015306 Si02
#       8
#     2   2   2   2   2   2   2   2
#     4  11  25  43  66  99 142 176 219 277 347 405
#     4  12  24  41  69  97 135 180 220 270 333 405
#     4  12  24  41  71 103 132 178 228 278 333 400
#     4  10  22  41  67  95 132 172 220 275 334 387
#     4  11  23  44  69  99 133 180 226 278 334 401
#     4  12  22  42  68  99 132 172 228 277 326 393
#     4  12  25  44  67 103 138 176 225 277 341 402
#     4  10  21  42  67  96 129 174 222 277 325 391
#
# _framework density 22.258800999999998
#
# number of rings (size 3 to 8) (size 9 to 14) (size 15 to 20)
#    0.000    0.750    5.000    2.250    1.750    1.000 
#    0.000    6.875    0.000    0.000    0.000    0.000 
#    0.000    0.000    0.000    0.000    0.000    0.000 
#
# Total GULP energy -198268.652200 kJ/mol
# GULP energy per Si atom -12391.790762 kJ/mol
# Density = 2.220814 g / cm^3
# Si number density = 22.258801 Si / 1000 Ang^3
#
#
#
# Elastic Constant Matrix: (Units=GPa)
#
#
# Indices 1 2 3 4 5 6 
#
# 1 83.3740 33.1432 16.3120 5.5614 9.5748 10.2089
# 2 33.1432 101.7003 34.2193 26.7286 10.8035 8.3333
# 3 16.3120 34.2193 83.2118 16.4877 12.5408 0.3728
# 4 5.5614 26.7286 16.4877 47.8653 -0.8004 8.6359
# 5 9.5748 10.8035 12.5408 -0.8004 28.4062 -1.1388
# 6 10.2089 8.3333 0.3728 8.6359 -1.1388 38.2044
#
#
#
# Elastic Compliance Matrix: (Units=1/GPa)
#
#
# Indices 1 2 3 4 5 6 
#
# 1 0.014511 -0.004228 -0.000956 0.001566 -0.002953 -0.003388
# 2 -0.004228 0.014351 -0.003415 -0.006278 -0.002727 -0.000629
# 3 -0.000956 -0.003415 0.015065 -0.003527 -0.005069 0.001499
# 4 0.001566 -0.006278 -0.003527 0.026373 0.003965 -0.004858
# 5 -0.002953 -0.002727 -0.005069 0.003965 0.039655 0.001719
# 6 -0.003388 -0.000629 0.001499 -0.004858 0.001719 0.028352
#
#
# Mechanical properties :
#
#
# Convention : Reuss Voigt Hill
#
# Bulk Modulus (GPa) = 37.41098 48.40390 42.90744
# Shear Modulus (GPa) = 30.41064 35.20260 32.80662
#
# Velocity S-wave (km/s) = 3.70026 3.98114 3.84327
# Velocity P-wave (km/s) = 5.92450 6.55178 6.24602
#
# Compressibility (1/GPa) = 0.02673012
#
# Stress axis : x y z
#
# Youngs Moduli (GPa) = 68.91151 69.68176 66.37747
#
# Poissons Ratio (x) = 0.29459 0.06347
# Poissons Ratio (y) = 0.29133 0.22668
# Poissons Ratio (z) = 0.06589 0.23796
#
# Static dielectric constant tensor:
#      x y z
#    x 3.820910 0.118320 0.279720 
#    y 0.118320 4.329660 0.386660 
#    z 0.279720 0.386660 4.165430 
# 
# 
# High freq. dielectric constant tensor:
#      x y z
#    x 1.859740 -0.007180 0.018800 
#    y -0.007180 1.891890 0.017670 
#    z 0.018800 0.017670 1.882190 
# 
# From -- ./inp_files/209387.got.cif
#   From: 2010.06.25/outbox.cif.g09.slc.cpg/sg2_105_cif.got.tgz:209387.got - 2010.06.27 13:26:56.
