data_PCOD8015514
_publ_section_title
;
Structure prediction by ZEFSAII (Michael W. Deem and Ramdas Pophale) SiO2 
 PCOD8015514
Probable space group: P -1
;
_chemical_formula_sum "Si O2"
_cell_formula_units_Z 16
_cell_length_a 21.771306
_cell_length_b 9.434240
_cell_length_c 5.294177
_cell_angle_alpha 67.885754
_cell_angle_beta 99.310847
_cell_angle_gamma 133.994217
_cell_volume 716.585401
_symmetry_space_group_name_H-M "P -1"
_symmetry_group_IT_number 2
_symmetry_cell_setting 'triclinic'
loop_
_space_group_symop_operation_xyz
x,y,z
-x,-y,-z
loop_
_atom_site_type_symbol
_atom_site_label
_atom_site_fract_x
_atom_site_fract_y
_atom_site_fract_z
Si Si1 0.469460 0.785773 0.220089
Si Si2 0.105081 0.742199 0.180448
Si Si3 0.085275 0.519291 0.812304
Si Si4 0.352605 0.047360 0.598748
Si Si5 0.588787 0.577304 0.931411
Si Si6 0.714425 0.519549 0.594421
Si Si7 0.730338 0.855841 0.204075
Si Si8 0.764115 0.435058 0.197901
O O1 0.548554 0.831871 0.368835
O O2 0.429425 0.611122 0.094265
O O3 0.387262 0.675786 0.418600
O O4 0.500000 0.000000 0.000000
O O5 0.117893 0.691402 0.500324
O O6 0.016235 0.687880 0.154435
O O7 0.102338 0.613357 0.040225
O O8 0.185231 0.990864 0.017942
O O9 0.138183 0.453219 0.863617
O O10 0.354523 0.197647 0.321662
O O11 0.298770 0.021679 0.819279
O O12 0.299129 0.815004 0.609830
O O13 0.500000 0.500000 0.000000
O O14 0.648233 0.634443 0.166576
O O15 0.744444 0.748924 0.500396
O O16 0.767974 0.544709 0.376667
O O17 0.731423 0.463877 0.906831
#
# Coordination Sequence:
#
# PCOD8015514 Si02
#       8
#     2   2   2   2   2   2   2   2
#     4  12  25  45  62  98 138 180 229 281 346 401
#     4  10  22  40  73 107 133 178 217 289 333 405
#     4  10  21  42  70 107 140 164 232 277 340 402
#     4  12  25  41  69  94 133 179 235 282 338 401
#     4  12  25  42  67  97 132 181 231 289 332 403
#     4  12  28  45  64  98 142 182 226 280 340 410
#     4  12  25  45  67  97 136 179 230 280 346 401
#     4  12  26  45  69 100 136 184 222 281 343 404
#
# _framework density 22.328112000000001
#
# number of rings (size 3 to 8) (size 9 to 14) (size 15 to 20)
#    0.000    0.500    5.000    3.375    3.500    0.500 
#    0.000    1.250    0.000    0.000    0.000    0.000 
#    0.000    0.000    0.000    0.000    0.000    0.000 
#
# Total GULP energy -198318.391521 kJ/mol
# GULP energy per Si atom -12394.899470 kJ/mol
# Density = 2.227729 g / cm^3
# Si number density = 22.328112 Si / 1000 Ang^3
#
#
#
# Elastic Constant Matrix: (Units=GPa)
#
#
# Indices 1 2 3 4 5 6 
#
# 1 146.8794 20.8491 30.1725 -10.9397 -7.1798 10.3888
# 2 20.8491 47.0209 14.2659 -6.5618 7.4228 -0.6474
# 3 30.1725 14.2659 94.0299 -13.2164 -0.2988 -4.4193
# 4 -10.9397 -6.5618 -13.2164 38.2763 -3.0659 -9.0182
# 5 -7.1798 7.4228 -0.2988 -3.0659 33.5124 -7.7693
# 6 10.3888 -0.6474 -4.4193 -9.0182 -7.7693 38.1702
#
#
#
# Elastic Compliance Matrix: (Units=1/GPa)
#
#
# Indices 1 2 3 4 5 6 
#
# 1 0.007964 -0.003148 -0.002054 0.000748 0.002020 -0.001871
# 2 -0.003148 0.024627 -0.002440 0.002074 -0.005896 0.000282
# 3 -0.002054 -0.002440 0.012401 0.004137 0.001332 0.003202
# 4 0.000748 0.002074 0.004137 0.030466 0.004477 0.008420
# 5 0.002020 -0.005896 0.001332 0.004477 0.033722 0.007426
# 6 -0.001871 0.000282 0.003202 0.008420 0.007426 0.030584
#
#
# Mechanical properties :
#
#
# Convention : Reuss Voigt Hill
#
# Bulk Modulus (GPa) = 33.66243 46.50060 40.08151
# Shear Modulus (GPa) = 30.31199 36.83461 33.57330
#
# Velocity S-wave (km/s) = 3.68852 4.06605 3.88188
# Velocity P-wave (km/s) = 5.76621 6.55095 6.17107
#
# Compressibility (1/GPa) = 0.02970671
#
# Stress axis : x y z
#
# Youngs Moduli (GPa) = 125.56568 40.60507 80.64158
#
# Poissons Ratio (x) = 0.12783 0.16565
# Poissons Ratio (y) = 0.39531 0.19678
# Poissons Ratio (z) = 0.25794 0.09909
#
# Static dielectric constant tensor:
#      x y z
#    x 4.546850 0.047110 0.153060 
#    y 0.047110 3.845100 -0.068130 
#    z 0.153060 -0.068130 4.546580 
# 
# 
# High freq. dielectric constant tensor:
#      x y z
#    x 1.899830 0.006370 -0.003830 
#    y 0.006370 1.859340 -0.003660 
#    z -0.003830 -0.003660 1.886220 
# 
# From -- ./inp_files/39024.got.cif
#   From: 2010.06.25/outbox.cif.g09.slc.cpg/sg2_20_cif.got.tgz:39024.got - 2010.06.27 13:26:56.
