data_PCOD8015908
_publ_section_title
;
Structure prediction by ZEFSAII (Michael W. Deem and Ramdas Pophale) SiO2 
 PCOD8015908
Probable space group: P -1
;
_chemical_formula_sum "Si O2"
_cell_formula_units_Z 16
_cell_length_a 13.898404
_cell_length_b 20.446386
_cell_length_c 9.789279
_cell_angle_alpha 145.926452
_cell_angle_beta 37.546605
_cell_angle_gamma 150.664325
_cell_volume 737.762800
_symmetry_space_group_name_H-M "P -1"
_symmetry_group_IT_number 2
_symmetry_cell_setting 'triclinic'
loop_
_space_group_symop_operation_xyz
x,y,z
-x,-y,-z
loop_
_atom_site_type_symbol
_atom_site_label
_atom_site_fract_x
_atom_site_fract_y
_atom_site_fract_z
Si Si1 0.827756 0.893866 0.616102
Si Si2 0.418912 0.405331 0.067698
Si Si3 0.112642 0.441589 0.602107
Si Si4 0.540136 0.981557 0.076345
Si Si5 0.172272 0.357174 0.896847
Si Si6 0.103521 0.759255 0.729783
Si Si7 0.118115 0.703223 0.121295
Si Si8 0.961059 0.922090 0.052951
O O1 0.735071 0.725501 0.392599
O O2 0.655303 0.911947 0.834947
O O3 0.000000 0.000000 0.500000
O O4 0.947669 0.942749 0.709314
O O5 0.300206 0.448929 0.361342
O O6 0.627064 0.466980 0.020398
O O7 0.500000 0.500000 0.000000
O O8 0.277378 0.223387 0.900943
O O9 0.188424 0.603339 0.842321
O O10 0.953632 0.377290 0.539796
O O11 0.006900 0.333906 0.665522
O O12 0.673277 0.143093 0.284236
O O13 0.321715 0.873267 0.206254
O O14 0.500000 0.000000 0.000000
O O15 0.066601 0.302607 0.069525
O O16 0.009190 0.320528 0.907942
O O17 0.090585 0.863514 0.821763
O O18 0.000000 0.000000 0.000000
#
# Coordination Sequence:
#
# PCOD8015908 Si02
#       8
#     2   2   2   2   2   2   2   2
#     4  11  20  39  67  97 133 168 222 280 325 394
#     4  11  21  44  71  96 129 175 223 278 335 395
#     4  10  24  46  65  91 137 172 220 286 334 398
#     4  11  21  42  67  96 132 178 221 264 338 402
#     4  12  22  41  67 101 128 172 230 278 332 400
#     4  10  21  43  67  93 133 166 227 277 320 405
#     4  11  25  43  65  95 135 179 221 273 343 400
#     4  10  22  39  61  99 136 163 210 277 343 385
#
# _framework density 21.687187999999999
#
# number of rings (size 3 to 8) (size 9 to 14) (size 15 to 20)
#    0.000    1.250    6.250    0.750    3.500    1.500 
#    9.000    1.250    0.000    0.000    0.000    0.000 
#    0.000    0.000    0.000    0.000    0.000    0.000 
#
# Total GULP energy -198265.498851 kJ/mol
# GULP energy per Si atom -12391.593678 kJ/mol
# Density = 2.163783 g / cm^3
# Si number density = 21.687188 Si / 1000 Ang^3
#
#
#
# Elastic Constant Matrix: (Units=GPa)
#
#
# Indices 1 2 3 4 5 6 
#
# 1 112.8405 56.4261 20.7579 -16.3332 23.1157 9.6137
# 2 56.4261 143.3401 26.7743 -13.2910 17.5162 18.6666
# 3 20.7579 26.7743 81.8899 -17.4152 22.6007 -5.9477
# 4 -16.3332 -13.2910 -17.4152 30.4063 4.7031 8.9723
# 5 23.1157 17.5162 22.6007 4.7031 35.1359 -2.9470
# 6 9.6137 18.6666 -5.9477 8.9723 -2.9470 41.1967
#
#
#
# Elastic Compliance Matrix: (Units=1/GPa)
#
#
# Indices 1 2 3 4 5 6 
#
# 1 0.014223 -0.003057 0.002472 0.010866 -0.011277 -0.004751
# 2 -0.003057 0.009774 -0.001081 0.003955 -0.003111 -0.004955
# 3 0.002472 -0.001081 0.019270 0.014790 -0.015600 -0.001642
# 4 0.010866 0.003955 0.014790 0.058205 -0.027839 -0.016861
# 5 -0.011277 -0.003111 -0.015600 -0.027839 0.052163 0.011584
# 6 -0.004751 -0.004955 -0.001642 -0.016861 0.011584 0.031891
#
#
# Mechanical properties :
#
#
# Convention : Reuss Voigt Hill
#
# Bulk Modulus (GPa) = 25.04026 60.66523 42.85274
# Shear Modulus (GPa) = 24.73170 36.95524 30.84347
#
# Velocity S-wave (km/s) = 3.38062 4.13245 3.77529
# Velocity P-wave (km/s) = 5.17777 7.12763 6.22946
#
# Compressibility (1/GPa) = 0.03993569
#
# Stress axis : x y z
#
# Youngs Moduli (GPa) = 70.30660 102.31499 51.89492
#
# Poissons Ratio (x) = 0.31274 -0.12829
# Poissons Ratio (y) = 0.21490 0.05610
# Poissons Ratio (z) = -0.17380 0.11060
#
# Static dielectric constant tensor:
#      x y z
#    x 3.939950 0.321340 0.362360 
#    y 0.321340 4.189630 0.023800 
#    z 0.362360 0.023800 3.532620 
# 
# 
# High freq. dielectric constant tensor:
#      x y z
#    x 1.851920 0.014850 0.021890 
#    y 0.014850 1.858340 0.004690 
#    z 0.021890 0.004690 1.842340 
# 
# From -- ./inp_files/319091.got.cif
#   From: 2010.06.25/outbox.cif.g09.slc.cpg/sg2_160_cif.got.tgz:319091.got - 2010.06.27 13:26:56.
