data_PCOD8015786
_publ_section_title
;
Structure prediction by ZEFSAII (Michael W. Deem and Ramdas Pophale) SiO2 
 PCOD8015786
Probable space group: P -1
;
_chemical_formula_sum "Si O2"
_cell_formula_units_Z 16
_cell_length_a 17.704663
_cell_length_b 6.331501
_cell_length_c 21.138263
_cell_angle_alpha 77.149943
_cell_angle_beta 152.397564
_cell_angle_gamma 83.062128
_cell_volume 760.513265
_symmetry_space_group_name_H-M "P -1"
_symmetry_group_IT_number 2
_symmetry_cell_setting 'triclinic'
loop_
_space_group_symop_operation_xyz
x,y,z
-x,-y,-z
loop_
_atom_site_type_symbol
_atom_site_label
_atom_site_fract_x
_atom_site_fract_y
_atom_site_fract_z
Si Si1 0.073191 0.826252 0.373691
Si Si2 0.140546 0.203830 0.082223
Si Si3 0.727850 0.160623 0.606257
Si Si4 0.393353 0.501139 0.983098
Si Si5 0.228628 0.221085 0.911909
Si Si6 0.485165 0.462586 0.799269
Si Si7 0.721670 0.339806 0.720882
Si Si8 0.169053 0.495364 0.979971
O O1 0.197872 0.814264 0.407215
O O2 0.248296 0.648032 0.573905
O O3 0.978254 0.679283 0.291485
O O4 0.859989 0.169923 0.214115
O O5 0.265067 0.223913 0.117369
O O6 0.973718 0.189858 0.926231
O O7 0.000000 0.500000 0.000000
O O8 0.311175 0.884573 0.267413
O O9 0.693392 0.377047 0.620976
O O10 0.459143 0.336001 0.394689
O O11 0.913973 0.810738 0.791171
O O12 0.372889 0.260519 0.975061
O O13 0.500000 0.500000 0.000000
O O14 0.560368 0.401978 0.172888
O O15 0.132380 0.438404 0.886377
O O16 0.394537 0.880586 0.083126
O O17 0.654313 0.469586 0.888189
#
# Coordination Sequence:
#
# PCOD8015786 Si02
#       8
#     2   2   2   2   2   2   2   2
#     4  11  23  41  67  96 130 170 216 262 314 384
#     4  11  23  39  59  84 119 167 215 269 329 371
#     4  11  21  43  59  85 128 165 213 269 319 370
#     4  10  23  46  70  99 134 165 204 259 316 382
#     4  10  21  43  65  94 125 175 201 260 316 379
#     4  10  24  41  64 101 129 168 214 261 314 379
#     4  10  25  40  57  88 124 164 216 275 319 378
#     4  11  22  41  63  87 130 167 219 270 315 383
#
# _framework density 21.038423000000002
#
# number of rings (size 3 to 8) (size 9 to 14) (size 15 to 20)
#    0.000    1.500    5.000    0.750    3.500    5.000 
#    2.250    1.250    0.000    0.000    0.000    0.000 
#    0.000    0.000    0.000    0.000    0.000    0.000 
#
# Total GULP energy -198244.951639 kJ/mol
# GULP energy per Si atom -12390.309477 kJ/mol
# Density = 2.099054 g / cm^3
# Si number density = 21.038423 Si / 1000 Ang^3
#
#
#
# Elastic Constant Matrix: (Units=GPa)
#
#
# Indices 1 2 3 4 5 6 
#
# 1 140.2033 40.4996 39.8860 3.8945 -3.2859 8.8910
# 2 40.4996 96.8915 43.2704 8.4016 -3.5546 15.4420
# 3 39.8860 43.2704 117.2356 15.6224 -20.1906 -1.6410
# 4 3.8945 8.4016 15.6224 25.5749 -5.2953 -1.4595
# 5 -3.2859 -3.5546 -20.1906 -5.2953 22.5027 -2.3440
# 6 8.8910 15.4420 -1.6410 -1.4595 -2.3440 32.2604
#
#
#
# Elastic Compliance Matrix: (Units=1/GPa)
#
#
# Indices 1 2 3 4 5 6 
#
# 1 0.008530 -0.002403 -0.002323 0.000576 -0.001226 -0.001382
# 2 -0.002403 0.014802 -0.005071 -0.002614 -0.003915 -0.007084
# 3 -0.002323 -0.005071 0.013590 -0.003838 0.010604 0.004355
# 4 0.000576 -0.002614 -0.003838 0.043837 0.006895 0.003381
# 5 -0.001226 -0.003915 0.010604 0.006895 0.055518 0.007097
# 6 -0.001382 -0.007084 0.004355 0.003381 0.007097 0.035659
#
#
# Mechanical properties :
#
#
# Convention : Reuss Voigt Hill
#
# Bulk Modulus (GPa) = 57.70491 66.84915 62.27703
# Shear Modulus (GPa) = 25.34135 31.44591 28.39363
#
# Velocity S-wave (km/s) = 3.47439 3.87032 3.67769
# Velocity P-wave (km/s) = 6.60175 7.19835 6.90649
#
# Compressibility (1/GPa) = 0.01732955
#
# Stress axis : x y z
#
# Youngs Moduli (GPa) = 117.22950 67.55952 73.58205
#
# Poissons Ratio (x) = 0.16235 0.17090
# Poissons Ratio (y) = 0.28171 0.37312
# Poissons Ratio (z) = 0.27227 0.34258
#
# Static dielectric constant tensor:
#      x y z
#    x 4.058930 0.161120 0.005780 
#    y 0.161120 3.995550 -0.027230 
#    z 0.005780 -0.027230 4.244040 
# 
# 
# High freq. dielectric constant tensor:
#      x y z
#    x 1.819850 0.000200 -0.012780 
#    y 0.000200 1.825850 0.001110 
#    z -0.012780 0.001110 1.819620 
# 
# From -- ./inp_files/52967.got.cif
#   From: 2010.06.25/outbox.cif.g09.slc.cpg/sg2_27_cif.got.tgz:52967.got - 2010.06.27 13:26:56.
