data_PCOD8015990
_publ_section_title
;
Structure prediction by ZEFSAII (Michael W. Deem and Ramdas Pophale) SiO2 
 PCOD8015990
Probable space group: P -1
;
_chemical_formula_sum "Si O2"
_cell_formula_units_Z 16
_cell_length_a 12.092896
_cell_length_b 12.396558
_cell_length_c 11.979508
_cell_angle_alpha 145.310103
_cell_angle_beta 87.286702
_cell_angle_gamma 66.818180
_cell_volume 662.443090
_symmetry_space_group_name_H-M "P -1"
_symmetry_group_IT_number 2
_symmetry_cell_setting 'triclinic'
loop_
_space_group_symop_operation_xyz
x,y,z
-x,-y,-z
loop_
_atom_site_type_symbol
_atom_site_label
_atom_site_fract_x
_atom_site_fract_y
_atom_site_fract_z
Si Si1 0.887539 0.454604 0.559094
Si Si2 0.245096 0.754105 0.550158
Si Si3 0.127784 0.071402 0.607061
Si Si4 0.606615 0.463159 0.292678
Si Si5 0.758764 0.657957 0.137293
Si Si6 0.771953 0.027661 0.728784
Si Si7 0.587399 0.893160 0.580600
Si Si8 0.131380 0.098625 0.050077
O O1 0.750068 0.474491 0.614025
O O2 0.798876 0.775730 0.846920
O O3 0.042765 0.245218 0.460854
O O4 0.953944 0.329351 0.323077
O O5 0.423574 0.613381 0.453551
O O6 0.197255 0.829472 0.486564
O O7 0.103545 0.051675 0.886325
O O8 0.180577 0.205863 0.768150
O O9 0.217736 0.921216 0.356463
O O10 0.923119 0.311823 0.810461
O O11 0.597849 0.702224 0.501973
O O12 0.668690 0.326946 0.049842
O O13 0.733541 0.217906 0.169928
O O14 0.694866 0.705169 0.305203
O O15 0.609713 0.805407 0.182398
O O16 0.666772 0.971087 0.703772
#
# Coordination Sequence:
#
# PCOD8015990 Si02
#       8
#     2   2   2   2   2   2   2   2
#     4  10  25  46  67 101 127 171 225 273 337 384
#     4  12  25  43  70  99 132 174 222 274 326 395
#     4  10  22  40  65 103 135 170 221 266 329 394
#     4  11  25  44  66 102 129 174 229 263 334 393
#     4   9  20  39  64  98 132 174 218 256 325 401
#     4  10  25  43  65  98 139 176 212 276 323 394
#     4  10  21  43  68  93 136 179 212 265 333 388
#     4  10  25  46  68  92 133 171 224 279 326 389
#
# _framework density 24.153017999999999
#
# number of rings (size 3 to 8) (size 9 to 14) (size 15 to 20)
#    0.000    1.750    1.250    0.750    8.750    6.500 
#    0.000    0.000    0.000    0.000    0.000    0.000 
#    0.000    0.000    0.000    0.000    0.000    0.000 
#
# Total GULP energy -198466.134504 kJ/mol
# GULP energy per Si atom -12404.133406 kJ/mol
# Density = 2.409804 g / cm^3
# Si number density = 24.153018 Si / 1000 Ang^3
#
#
#
# Elastic Constant Matrix: (Units=GPa)
#
#
# Indices 1 2 3 4 5 6 
#
# 1 115.4823 27.8045 13.6254 6.3172 -9.8892 22.6997
# 2 27.8045 88.4516 18.5088 -12.8773 8.8385 20.9560
# 3 13.6254 18.5088 43.1808 -3.5171 -3.0203 2.2063
# 4 6.3172 -12.8773 -3.5171 28.4865 1.4323 8.4474
# 5 -9.8892 8.8385 -3.0203 1.4323 23.7940 0.3305
# 6 22.6997 20.9560 2.2063 8.4474 0.3305 40.3008
#
#
#
# Elastic Compliance Matrix: (Units=1/GPa)
#
#
# Indices 1 2 3 4 5 6 
#
# 1 0.011088 -0.003293 -0.001756 -0.003336 0.005862 -0.003786
# 2 -0.003293 0.018669 -0.006168 0.011834 -0.009661 -0.009917
# 3 -0.001756 -0.006168 0.026545 -0.000181 0.004904 0.002741
# 4 -0.003336 0.011834 -0.000181 0.045675 -0.008364 -0.013770
# 5 0.005862 -0.009661 0.004904 -0.008364 0.049139 0.002803
# 6 -0.003786 -0.009917 0.002741 -0.013770 0.002803 0.034816
#
#
# Mechanical properties :
#
#
# Convention : Reuss Voigt Hill
#
# Bulk Modulus (GPa) = 29.52604 40.77688 35.15146
# Shear Modulus (GPa) = 22.76296 30.99467 26.87882
#
# Velocity S-wave (km/s) = 3.07326 3.58615 3.33957
# Velocity P-wave (km/s) = 4.98441 5.83667 5.42729
#
# Compressibility (1/GPa) = 0.03386841
#
# Stress axis : x y z
#
# Youngs Moduli (GPa) = 90.18863 53.56416 37.67232
#
# Poissons Ratio (x) = 0.17636 0.06614
# Poissons Ratio (y) = 0.29695 0.23238
# Poissons Ratio (z) = 0.15834 0.33041
#
# Static dielectric constant tensor:
#      x y z
#    x 4.416630 0.143460 -0.068670 
#    y 0.143460 4.247180 -0.134870 
#    z -0.068670 -0.134870 4.234530 
# 
# 
# High freq. dielectric constant tensor:
#      x y z
#    x 1.966770 0.012080 0.000240 
#    y 0.012080 1.958130 -0.007440 
#    z 0.000240 -0.007440 1.945480 
# 
# From -- ./inp_files/429067.got.cif
#   From: 2010.06.25/outbox.cif.g09.slc.cpg/sg2_215_cif.got.tgz:429067.got - 2010.06.27 13:26:56.
