data_PCOD8015054
_publ_section_title
;
Structure prediction by ZEFSAII (Michael W. Deem and Ramdas Pophale) SiO2 
 PCOD8015054
Probable space group: P -1
;
_chemical_formula_sum "Si O2"
_cell_formula_units_Z 16
_cell_length_a 5.813683
_cell_length_b 9.207024
_cell_length_c 29.427449
_cell_angle_alpha 30.916274
_cell_angle_beta 109.650609
_cell_angle_gamma 99.303236
_cell_volume 735.503533
_symmetry_space_group_name_H-M "P -1"
_symmetry_group_IT_number 2
_symmetry_cell_setting 'triclinic'
loop_
_space_group_symop_operation_xyz
x,y,z
-x,-y,-z
loop_
_atom_site_type_symbol
_atom_site_label
_atom_site_fract_x
_atom_site_fract_y
_atom_site_fract_z
Si Si1 0.268578 0.281082 0.780580
Si Si2 0.630024 0.364462 0.174767
Si Si3 0.230338 0.423957 0.497354
Si Si4 0.225551 0.133576 0.069304
Si Si5 0.006349 0.622325 0.170619
Si Si6 0.850773 0.704315 0.876761
Si Si7 0.479111 0.759739 0.697121
Si Si8 0.006533 0.152927 0.709918
O O1 0.415219 0.533202 0.717448
O O2 0.115746 0.289875 0.722403
O O3 0.081873 0.351160 0.791000
O O4 0.470046 0.964033 0.886957
O O5 0.370575 0.462166 0.102065
O O6 0.586873 0.322858 0.235400
O O7 0.794228 0.607793 0.121789
O O8 0.769112 0.049930 0.249184
O O9 0.500000 0.500000 0.500000
O O10 0.000000 0.500000 0.500000
O O11 0.133338 0.578693 0.402278
O O12 0.313235 0.078398 0.587382
O O13 0.147866 0.149286 0.113200
O O14 0.117156 0.902366 0.094570
O O15 0.117736 0.457798 0.953964
O O16 0.215302 0.304296 0.266757
O O17 0.824564 0.957206 0.769191
#
# Coordination Sequence:
#
# PCOD8015054 Si02
#       8
#     2   2   2   2   2   2   2   2
#     4  10  22  41  68  94 135 175 224 278 353 405
#     4  11  21  39  66  93 132 172 228 276 342 407
#     4  12  26  45  73 107 142 183 232 290 356 417
#     4  10  22  41  63  94 139 175 226 281 349 411
#     4  10  21  42  65  91 134 184 212 287 344 408
#     4  11  23  38  64 101 131 176 230 286 337 418
#     4  10  23  44  66  97 136 177 222 283 350 411
#     4  12  24  41  69 100 132 176 229 286 341 417
#
# _framework density 21.753803000000001
#
# number of rings (size 3 to 8) (size 9 to 14) (size 15 to 20)
#    0.000    1.250    3.750    2.250    1.750    2.500 
#    0.000    9.375    0.000    0.000    0.000    0.000 
#    0.000    0.000    0.000    0.000    0.000    0.000 
#
# Total GULP energy -198231.008973 kJ/mol
# GULP energy per Si atom -12389.438061 kJ/mol
# Density = 2.170429 g / cm^3
# Si number density = 21.753803 Si / 1000 Ang^3
#
#
#
# Elastic Constant Matrix: (Units=GPa)
#
#
# Indices 1 2 3 4 5 6 
#
# 1 73.3251 11.6167 0.5734 -0.7711 -2.7448 -5.3078
# 2 11.6167 99.9414 6.9510 0.5453 -3.0787 9.9806
# 3 0.5734 6.9510 68.1125 -11.5971 -1.6323 -0.8263
# 4 -0.7711 0.5453 -11.5971 22.3913 0.3722 12.0894
# 5 -2.7448 -3.0787 -1.6323 0.3722 12.7221 -10.4849
# 6 -5.3078 9.9806 -0.8263 12.0894 -10.4849 39.2173
#
#
#
# Elastic Compliance Matrix: (Units=1/GPa)
#
#
# Indices 1 2 3 4 5 6 
#
# 1 0.014544 -0.001961 -0.000092 -0.002319 0.006850 0.005012
# 2 -0.001961 0.010623 -0.000939 0.001150 -0.000977 -0.003604
# 3 -0.000092 -0.000939 0.016431 0.009985 -0.000636 -0.002675
# 4 -0.002319 0.001150 0.009985 0.064235 -0.022402 -0.026187
# 5 0.006850 -0.000977 -0.000636 -0.022402 0.111675 0.037925
# 6 0.005012 -0.003604 -0.002675 -0.026187 0.037925 0.045250
#
#
# Mechanical properties :
#
#
# Convention : Reuss Voigt Hill
#
# Bulk Modulus (GPa) = 28.07955 31.07346 29.57650
# Shear Modulus (GPa) = 17.81820 29.68200 23.75010
#
# Velocity S-wave (km/s) = 2.86507 3.69785 3.30778
# Velocity P-wave (km/s) = 4.88679 5.70503 5.31169
#
# Compressibility (1/GPa) = 0.03561310
#
# Stress axis : x y z
#
# Youngs Moduli (GPa) = 68.75644 94.13836 60.86241
#
# Poissons Ratio (x) = 0.18460 0.00561
# Poissons Ratio (y) = 0.13483 0.05715
# Poissons Ratio (z) = 0.00634 0.08839
#
# Static dielectric constant tensor:
#      x y z
#    x 4.390790 0.160180 0.179470 
#    y 0.160180 4.380140 -0.152210 
#    z 0.179470 -0.152210 3.842210 
# 
# 
# High freq. dielectric constant tensor:
#      x y z
#    x 1.867660 0.001840 0.013780 
#    y 0.001840 1.872670 -0.009070 
#    z 0.013780 -0.009070 1.829920 
# 
# From -- ./inp_files/37234.got.cif
#   From: 2010.06.25/outbox.cif.g09.slc.cpg/sg2_19_cif.got.tgz:37234.got - 2010.06.27 13:26:56.
