data_PCOD8015018
_publ_section_title
;
Structure prediction by ZEFSAII (Michael W. Deem and Ramdas Pophale) SiO2 
 PCOD8015018
Probable space group: P -1
;
_chemical_formula_sum "Si O2"
_cell_formula_units_Z 14
_cell_length_a 7.917173
_cell_length_b 6.588568
_cell_length_c 14.328484
_cell_angle_alpha 69.724842
_cell_angle_beta 60.481546
_cell_angle_gamma 71.353617
_cell_volume 599.849838
_symmetry_space_group_name_H-M "P -1"
_symmetry_group_IT_number 2
_symmetry_cell_setting 'triclinic'
loop_
_space_group_symop_operation_xyz
x,y,z
-x,-y,-z
loop_
_atom_site_type_symbol
_atom_site_label
_atom_site_fract_x
_atom_site_fract_y
_atom_site_fract_z
Si Si1 0.183521 0.208241 0.659177
Si Si2 0.716983 0.416005 0.538236
Si Si3 0.557691 0.634823 0.103456
Si Si4 0.370894 0.769582 0.596951
Si Si5 0.853216 0.530345 0.200872
Si Si6 0.791100 0.103413 0.732000
Si Si7 0.714583 0.656442 0.862342
O O1 0.142239 0.436751 0.574267
O O2 0.250069 0.267124 0.735740
O O3 0.980327 0.119695 0.740864
O O4 0.355473 0.028755 0.588912
O O5 0.557570 0.592209 0.612546
O O6 0.621077 0.272836 0.510281
O O7 0.828043 0.234341 0.607257
O O8 0.758992 0.558141 0.119373
O O9 0.412233 0.810780 0.174311
O O10 0.444735 0.434906 0.142753
O O11 0.615717 0.741810 0.974423
O O12 0.180903 0.701267 0.709056
O O13 0.089284 0.524371 0.137615
O O14 0.780954 0.851082 0.753532
#
# Coordination Sequence:
#
# PCOD8015018 Si02
#       7
#     2   2   2   2   2   2   2
#     4  11  23  40  69  97 139 176 217 277 334 399
#     4  10  23  40  65  99 136 176 226 271 328 403
#     4  11  25  46  70  99 131 179 230 277 338 393
#     4  10  21  42  64  99 134 176 227 273 325 400
#     4  11  22  45  69  99 136 177 222 277 335 401
#     4  12  23  43  66 101 138 175 221 280 338 394
#     4  11  25  46  71  97 137 173 227 287 329 397
#
# _framework density 23.339174
#
# number of rings (size 3 to 8) (size 9 to 14) (size 15 to 20)
#    0.000    1.143    4.286    1.714    0.000    2.857 
#    0.000    0.714    0.000    0.000    0.000    0.000 
#    0.000    0.000    0.000    0.000    0.000    0.000 
#
# Total GULP energy -173520.790845 kJ/mol
# GULP energy per Si atom -12394.342203 kJ/mol
# Density = 2.328605 g / cm^3
# Si number density = 23.339174 Si / 1000 Ang^3
#
#
#
# Elastic Constant Matrix: (Units=GPa)
#
#
# Indices 1 2 3 4 5 6 
#
# 1 111.2177 43.2565 25.2411 -3.1113 10.3133 8.0629
# 2 43.2565 115.5333 27.1117 -6.5550 12.7316 14.1456
# 3 25.2411 27.1117 58.9365 -3.3064 5.8506 5.0432
# 4 -3.1113 -6.5550 -3.3064 37.5467 -0.5540 -8.1952
# 5 10.3133 12.7316 5.8506 -0.5540 31.9532 4.4693
# 6 8.0629 14.1456 5.0432 -8.1952 4.4693 30.0150
#
#
#
# Elastic Compliance Matrix: (Units=1/GPa)
#
#
# Indices 1 2 3 4 5 6 
#
# 1 0.011132 -0.003174 -0.003083 -0.000092 -0.001660 -0.000754
# 2 -0.003174 0.011334 -0.003288 0.000648 -0.002402 -0.003401
# 3 -0.003083 -0.003288 0.020020 0.000788 -0.001265 -0.000582
# 4 -0.000092 0.000648 0.000788 0.028429 -0.000927 0.007487
# 5 -0.001660 -0.002402 -0.001265 -0.000927 0.033487 -0.003449
# 6 -0.000754 -0.003401 -0.000582 0.007487 -0.003449 0.037778
#
#
# Mechanical properties :
#
#
# Convention : Reuss Voigt Hill
#
# Bulk Modulus (GPa) = 42.74580 52.98956 47.86768
# Shear Modulus (GPa) = 29.57385 32.57486 31.07435
#
# Velocity S-wave (km/s) = 3.56354 3.73998 3.65283
# Velocity P-wave (km/s) = 5.94025 6.43454 6.19233
#
# Compressibility (1/GPa) = 0.02339411
#
# Stress axis : x y z
#
# Youngs Moduli (GPa) = 89.83370 88.23330 49.94978
#
# Poissons Ratio (x) = 0.28008 0.15400
# Poissons Ratio (y) = 0.28516 0.16425
# Poissons Ratio (z) = 0.27697 0.29013
#
# Static dielectric constant tensor:
#      x y z
#    x 4.058710 0.111610 -0.137340 
#    y 0.111610 4.096380 0.062590 
#    z -0.137340 0.062590 4.100030 
# 
# 
# High freq. dielectric constant tensor:
#      x y z
#    x 1.918170 0.012030 -0.020110 
#    y 0.012030 1.918520 0.007500 
#    z -0.020110 0.007500 1.917380 
# 
# From -- ./inp_files/49430.got.cif
#   From: 2010.06.25/outbox.cif.g09.slc.cpg/sg2_25_cif.got.tgz:49430.got - 2010.06.27 13:26:56.
