data_PCOD8015975
_publ_section_title
;
Structure prediction by ZEFSAII (Michael W. Deem and Ramdas Pophale) SiO2 
 PCOD8015975
Probable space group: P -1
;
_chemical_formula_sum "Si O2"
_cell_formula_units_Z 12
_cell_length_a 14.601671
_cell_length_b 8.490582
_cell_length_c 15.084723
_cell_angle_alpha 54.061077
_cell_angle_beta 19.248130
_cell_angle_gamma 53.191129
_cell_volume 492.000403
_symmetry_space_group_name_H-M "P -1"
_symmetry_group_IT_number 2
_symmetry_cell_setting 'triclinic'
loop_
_space_group_symop_operation_xyz
x,y,z
-x,-y,-z
loop_
_atom_site_type_symbol
_atom_site_label
_atom_site_fract_x
_atom_site_fract_y
_atom_site_fract_z
Si Si1 0.797707 0.858145 0.028356
Si Si2 0.600555 0.736247 0.080547
Si Si3 0.919107 0.227096 0.024987
Si Si4 0.698158 0.609160 0.512014
Si Si5 0.215635 0.127292 0.298895
Si Si6 0.784591 0.875051 0.503252
O O1 0.804184 0.699340 0.993406
O O2 0.955121 0.736193 0.006380
O O3 0.948175 0.041917 0.805785
O O4 0.477130 0.944945 0.319740
O O5 0.337415 0.618957 0.366901
O O6 0.507252 0.973434 0.092626
O O7 0.754876 0.695605 0.856655
O O8 0.032593 0.369953 0.801726
O O9 0.581971 0.278668 0.317851
O O10 0.000000 0.000000 0.000000
O O11 0.726366 0.696703 0.554365
O O12 0.141107 0.213693 0.436552
O O13 0.000000 0.000000 0.500000
#
# Coordination Sequence:
#
# PCOD8015975 Si02
#       6
#     2   2   2   2   2   2
#     4  11  22  40  65  89 126 172 207 241 315 380
#     4  10  25  41  63  97 125 161 211 266 307 366
#     4  12  23  41  66  92 129 171 205 249 318 371
#     4  12  25  40  65  99 128 156 215 267 297 364
#     4  10  21  43  68  84 127 171 205 248 329 378
#     4  11  21  39  66  93 120 169 208 251 308 377
#
# _framework density 24.390222999999999
#
# number of rings (size 3 to 8) (size 9 to 14) (size 15 to 20)
#    0.000    1.000    5.000    1.500    2.333    2.000 
#    0.000    0.833    0.000    0.000    0.000    0.000 
#    0.000    0.000    0.000    0.000    0.000    0.000 
#
# Total GULP energy -148802.300889 kJ/mol
# GULP energy per Si atom -12400.191741 kJ/mol
# Density = 2.433471 g / cm^3
# Si number density = 24.390223 Si / 1000 Ang^3
#
#
#
# Elastic Constant Matrix: (Units=GPa)
#
#
# Indices 1 2 3 4 5 6 
#
# 1 219.6589 21.2864 29.9244 -23.6600 22.2452 17.2608
# 2 21.2864 44.1996 2.2981 -30.3217 12.7868 8.3746
# 3 29.9244 2.2981 84.7585 -29.0908 5.3365 2.6137
# 4 -23.6600 -30.3217 -29.0908 44.4375 -7.0372 -0.1468
# 5 22.2452 12.7868 5.3365 -7.0372 44.6259 -8.8028
# 6 17.2608 8.3746 2.6137 -0.1468 -8.8028 27.0705
#
#
#
# Elastic Compliance Matrix: (Units=1/GPa)
#
#
# Indices 1 2 3 4 5 6 
#
# 1 0.005588 0.001324 -0.000639 0.002867 -0.003638 -0.005078
# 2 0.001324 0.078377 0.022197 0.065082 -0.022238 -0.034113
# 3 -0.000639 0.022197 0.021757 0.028018 -0.006287 -0.010453
# 4 0.002867 0.065082 0.028018 0.084156 -0.015956 -0.029400
# 5 -0.003638 -0.022238 -0.006287 -0.015956 0.032854 0.020403
# 6 -0.005078 -0.034113 -0.010453 -0.029400 0.020403 0.058216
#
#
# Mechanical properties :
#
#
# Convention : Reuss Voigt Hill
#
# Bulk Modulus (GPa) = 6.60136 50.62610 28.61373
# Shear Modulus (GPa) = 17.50216 42.90064 30.20140
#
# Velocity S-wave (km/s) = 2.68169 4.19851 3.52271
# Velocity P-wave (km/s) = 3.50729 6.65620 5.32006
#
# Compressibility (1/GPa) = 0.15148401
#
# Stress axis : x y z
#
# Youngs Moduli (GPa) = 178.97033 12.75887 45.96299
#
# Poissons Ratio (x) = -0.01689 0.02937
# Poissons Ratio (y) = -0.23688 -1.02024
# Poissons Ratio (z) = 0.11436 -0.28321
#
# Static dielectric constant tensor:
#      x y z
#    x 5.273270 -0.376510 0.171580 
#    y -0.376510 4.312320 -0.045600 
#    z 0.171580 -0.045600 4.410190 
# 
# 
# High freq. dielectric constant tensor:
#      x y z
#    x 1.995720 -0.005330 -0.001020 
#    y -0.005330 1.939340 -0.004100 
#    z -0.001020 -0.004100 1.975750 
# 
# From -- ./inp_files/18809.got.cif
#   From: 2010.06.25/outbox.cif.g09.slc.cpg/sg2_10_cif.got.tgz:18809.got - 2010.06.27 13:26:56.
