data_PCOD8015804
_publ_section_title
;
Structure prediction by ZEFSAII (Michael W. Deem and Ramdas Pophale) SiO2 
 PCOD8015804
Probable space group: P -1
;
_chemical_formula_sum "Si O2"
_cell_formula_units_Z 16
_cell_length_a 6.369582
_cell_length_b 19.414321
_cell_length_c 8.776850
_cell_angle_alpha 57.991577
_cell_angle_beta 113.443636
_cell_angle_gamma 127.020528
_cell_volume 729.842373
_symmetry_space_group_name_H-M "P -1"
_symmetry_group_IT_number 2
_symmetry_cell_setting 'triclinic'
loop_
_space_group_symop_operation_xyz
x,y,z
-x,-y,-z
loop_
_atom_site_type_symbol
_atom_site_label
_atom_site_fract_x
_atom_site_fract_y
_atom_site_fract_z
Si Si1 0.656236 0.731077 0.413210
Si Si2 0.540033 0.127821 0.858645
Si Si3 0.540151 0.006162 0.254990
Si Si4 0.858252 0.735852 0.145850
Si Si5 0.813972 0.134003 0.440739
Si Si6 0.598130 0.398170 0.245060
Si Si7 0.116423 0.390411 0.946667
Si Si8 0.381553 0.728643 0.855670
O O1 0.534403 0.792327 0.244839
O O2 0.760878 0.701166 0.331205
O O3 0.434685 0.640746 0.546024
O O4 0.883974 0.788105 0.536815
O O5 0.385677 0.056297 0.759065
O O6 0.853890 0.171995 0.872744
O O7 0.453565 0.069244 0.058419
O O8 0.288656 0.937482 0.364751
O O9 0.792350 0.075430 0.350498
O O10 0.862336 0.650257 0.162098
O O11 0.671122 0.764310 0.966083
O O12 0.633298 0.181913 0.312281
O O13 0.835652 0.505553 0.188184
O O14 0.680403 0.340415 0.224181
O O15 0.326321 0.392623 0.124227
O O16 0.825819 0.325535 0.005959
#
# Coordination Sequence:
#
# PCOD8015804 Si02
#       8
#     2   2   2   2   2   2   2   2
#     4  12  24  41  67  96 133 171 210 266 324 382
#     4  11  24  45  62  92 131 174 211 264 325 383
#     4  10  23  43  63  92 129 163 223 266 315 385
#     4  11  24  42  66  92 134 178 209 258 328 382
#     4  11  22  42  65  97 124 168 217 270 318 374
#     4  10  23  38  70 100 127 169 212 270 315 379
#     4  10  21  43  65  99 131 166 219 259 319 384
#     4  11  22  44  69  93 130 173 214 265 321 382
#
# _framework density 21.922543000000001
#
# number of rings (size 3 to 8) (size 9 to 14) (size 15 to 20)
#    0.000    1.250    2.500    3.375    1.750    1.500 
#    9.000    2.500    0.000    0.000    0.000    0.000 
#    0.000    0.000    0.000    0.000    0.000    0.000 
#
# Total GULP energy -198472.507525 kJ/mol
# GULP energy per Si atom -12404.531720 kJ/mol
# Density = 2.187265 g / cm^3
# Si number density = 21.922543 Si / 1000 Ang^3
#
#
#
# Elastic Constant Matrix: (Units=GPa)
#
#
# Indices 1 2 3 4 5 6 
#
# 1 90.7351 37.8671 42.1675 1.8405 -10.3614 -11.0416
# 2 37.8671 98.0614 62.4641 -1.1670 -7.4052 -11.5367
# 3 42.1675 62.4641 122.5354 -7.1936 -29.1725 -15.6407
# 4 1.8405 -1.1670 -7.1936 36.2755 -0.5543 -0.0611
# 5 -10.3614 -7.4052 -29.1725 -0.5543 34.3981 9.3213
# 6 -11.0416 -11.5367 -15.6407 -0.0611 9.3213 24.4192
#
#
#
# Elastic Compliance Matrix: (Units=1/GPa)
#
#
# Indices 1 2 3 4 5 6 
#
# 1 0.014127 -0.003328 -0.002789 -0.001366 0.000370 0.002885
# 2 -0.003328 0.016727 -0.008309 -0.001017 -0.005304 0.003098
# 3 -0.002789 -0.008309 0.016293 0.003274 0.010950 0.001078
# 4 -0.001366 -0.001017 0.003274 0.028292 0.002579 0.000085
# 5 0.000370 -0.005304 0.010950 0.002579 0.040265 -0.010689
# 6 0.002885 0.003098 0.001078 0.000085 -0.010689 0.048490
#
#
# Mechanical properties :
#
#
# Convention : Reuss Voigt Hill
#
# Bulk Modulus (GPa) = 54.65643 66.25885 60.45764
# Shear Modulus (GPa) = 25.10750 30.27411 27.69080
#
# Velocity S-wave (km/s) = 3.38787 3.72016 3.55790
# Velocity P-wave (km/s) = 6.34739 6.98158 6.67202
#
# Compressibility (1/GPa) = 0.01829611
#
# Stress axis : x y z
#
# Youngs Moduli (GPa) = 70.78650 59.78343 61.37697
#
# Poissons Ratio (x) = 0.19893 0.17119
# Poissons Ratio (y) = 0.23554 0.50996
# Poissons Ratio (z) = 0.19743 0.49672
#
# Static dielectric constant tensor:
#      x y z
#    x 3.764200 -0.087980 -0.105830 
#    y -0.087980 4.130810 0.070190 
#    z -0.105830 0.070190 3.990290 
# 
# 
# High freq. dielectric constant tensor:
#      x y z
#    x 1.846030 -0.007520 -0.012640 
#    y -0.007520 1.870910 0.004240 
#    z -0.012640 0.004240 1.868880 
# 
# From -- ./inp_files/37798.got.cif
#   From: 2010.06.25/outbox.cif.g09.slc.cpg/sg2_19_cif.got.tgz:37798.got - 2010.06.27 13:26:56.
