data_PCOD8015925
_publ_section_title
;
Structure prediction by ZEFSAII (Michael W. Deem and Ramdas Pophale) SiO2 
 PCOD8015925
Probable space group: P -1
;
_chemical_formula_sum "Si O2"
_cell_formula_units_Z 16
_cell_length_a 11.644635
_cell_length_b 17.396690
_cell_length_c 11.291514
_cell_angle_alpha 26.066250
_cell_angle_beta 112.607962
_cell_angle_gamma 129.162161
_cell_volume 657.566481
_symmetry_space_group_name_H-M "P -1"
_symmetry_group_IT_number 2
_symmetry_cell_setting 'triclinic'
loop_
_space_group_symop_operation_xyz
x,y,z
-x,-y,-z
loop_
_atom_site_type_symbol
_atom_site_label
_atom_site_fract_x
_atom_site_fract_y
_atom_site_fract_z
Si Si1 0.254640 0.007527 0.602819
Si Si2 0.345496 0.957348 0.211347
Si Si3 0.318411 0.925681 0.503776
Si Si4 0.032658 0.083673 0.246588
Si Si5 0.360322 0.569982 0.808535
Si Si6 0.808075 0.548032 0.854836
Si Si7 0.023498 0.712835 0.269466
Si Si8 0.265627 0.618728 0.202917
O O1 0.284037 0.039434 0.429186
O O2 0.090110 0.969574 0.618949
O O3 0.436206 0.266427 0.370256
O O4 0.214565 0.771841 0.956148
O O5 0.319490 0.015326 0.251371
O O6 0.311781 0.716179 0.541967
O O7 0.213346 0.914083 0.127450
O O8 0.542364 0.198767 0.913551
O O9 0.500000 0.000000 0.500000
O O10 0.160070 0.624973 0.862708
O O11 0.988061 0.837490 0.537399
O O12 0.978611 0.143882 0.029526
O O13 0.236610 0.309971 0.049479
O O14 0.331817 0.521090 0.006817
O O15 0.734154 0.485388 0.777602
O O16 0.000000 0.500000 0.500000
O O17 0.872422 0.606141 0.452192
#
# Coordination Sequence:
#
# PCOD8015925 Si02
#       8
#     2   2   2   2   2   2   2   2
#     4  10  19  36  65  89 112 151 197 242 296 336
#     4  10  19  37  66  88 111 150 201 247 279 342
#     4  10  16  38  68  90 111 149 198 243 292 349
#     4  12  25  38  55  90 128 153 191 241 288 349
#     4  10  19  38  61  88 120 151 188 241 300 349
#     4  10  21  39  62  88 121 150 189 246 301 346
#     4  12  24  38  56  90 119 154 205 237 274 350
#     4  10  20  40  64  82 113 158 199 241 288 333
#
# _framework density 24.332139000000002
#
# number of rings (size 3 to 8) (size 9 to 14) (size 15 to 20)
#    0.000    1.500    7.500    0.375    0.000    3.500 
#    0.000    5.625    0.000    0.000    0.000    0.000 
#    0.000    0.000    0.000    0.000    0.000    0.000 
#
# Total GULP energy -198339.721521 kJ/mol
# GULP energy per Si atom -12396.232595 kJ/mol
# Density = 2.427676 g / cm^3
# Si number density = 24.332139 Si / 1000 Ang^3
#
#
#
# Elastic Constant Matrix: (Units=GPa)
#
#
# Indices 1 2 3 4 5 6 
#
# 1 69.5033 53.1199 39.5535 -10.6214 -13.0886 11.7517
# 2 53.1199 133.1577 26.6311 -23.2977 -7.2081 11.1507
# 3 39.5535 26.6311 83.8959 -32.5526 1.8586 4.0165
# 4 -10.6214 -23.2977 -32.5526 41.7399 -2.2118 -6.3513
# 5 -13.0886 -7.2081 1.8586 -2.2118 30.7316 -9.9798
# 6 11.7517 11.1507 4.0165 -6.3513 -9.9798 31.4155
#
#
#
# Elastic Compliance Matrix: (Units=1/GPa)
#
#
# Indices 1 2 3 4 5 6 
#
# 1 0.033051 -0.010793 -0.016213 -0.010552 0.010008 -0.005414
# 2 -0.010793 0.012168 0.004015 0.007132 -0.001408 0.000200
# 3 -0.016213 0.004015 0.025243 0.018059 -0.005069 0.003453
# 4 -0.010552 0.007132 0.018059 0.040608 0.001545 0.007807
# 5 0.010008 -0.001408 -0.005069 0.001545 0.040306 0.010520
# 6 -0.005414 0.000200 0.003453 0.007807 0.010520 0.038264
#
#
# Mechanical properties :
#
#
# Convention : Reuss Voigt Hill
#
# Bulk Modulus (GPa) = 40.85064 58.35177 49.60121
# Shear Modulus (GPa) = 20.51026 31.92757 26.21891
#
# Velocity S-wave (km/s) = 2.90647 3.62630 3.28616
# Velocity P-wave (km/s) = 5.29987 6.44723 5.90150
#
# Compressibility (1/GPa) = 0.02447942
#
# Stress axis : x y z
#
# Youngs Moduli (GPa) = 30.25634 82.18602 39.61554
#
# Poissons Ratio (x) = 0.88707 0.64228
# Poissons Ratio (y) = 0.32657 -0.15907
# Poissons Ratio (z) = 0.49054 -0.33000
#
# Static dielectric constant tensor:
#      x y z
#    x 4.238020 -0.166160 -0.122440 
#    y -0.166160 4.556440 -0.221970 
#    z -0.122440 -0.221970 4.679000 
# 
# 
# High freq. dielectric constant tensor:
#      x y z
#    x 1.951010 -0.005120 -0.011920 
#    y -0.005120 1.969370 -0.019270 
#    z -0.011920 -0.019270 1.970300 
# 
# From -- ./inp_files/436398.got.cif
#   From: 2010.06.25/outbox.cif.g09.slc.cpg/sg2_219_cif.got.tgz:436398.got - 2010.06.27 13:26:56.
