data_PCOD8015367
_publ_section_title
;
Structure prediction by ZEFSAII (Michael W. Deem and Ramdas Pophale) SiO2 
 PCOD8015367
Probable space group: P -1
;
_chemical_formula_sum "Si O2"
_cell_formula_units_Z 16
_cell_length_a 13.789740
_cell_length_b 9.104948
_cell_length_c 9.572502
_cell_angle_alpha 131.268542
_cell_angle_beta 96.436437
_cell_angle_gamma 57.212455
_cell_volume 699.989467
_symmetry_space_group_name_H-M "P -1"
_symmetry_group_IT_number 2
_symmetry_cell_setting 'triclinic'
loop_
_space_group_symop_operation_xyz
x,y,z
-x,-y,-z
loop_
_atom_site_type_symbol
_atom_site_label
_atom_site_fract_x
_atom_site_fract_y
_atom_site_fract_z
Si Si1 0.506034 0.959219 0.741033
Si Si2 0.394633 0.468209 0.938614
Si Si3 0.061478 0.503673 0.655167
Si Si4 0.063859 0.183466 0.699748
Si Si5 0.799057 0.335807 0.724103
Si Si6 0.329396 0.126324 0.046601
Si Si7 0.723714 0.477354 0.329850
Si Si8 0.133084 0.071209 0.938695
O O1 0.567077 0.017313 0.907419
O O2 0.596236 0.680731 0.520118
O O3 0.459125 0.172928 0.752561
O O4 0.387303 0.006158 0.826992
O O5 0.316143 0.583944 0.856200
O O6 0.500000 0.500000 0.000000
O O7 0.293354 0.609323 0.132828
O O8 0.061188 0.336571 0.667653
O O9 0.202259 0.408883 0.598276
O O10 0.000000 0.500000 0.500000
O O11 0.983959 0.783617 0.882152
O O12 0.099512 0.225169 0.883909
O O13 0.930356 0.251296 0.749954
O O14 0.172669 0.890425 0.503465
O O15 0.734331 0.580311 0.770589
O O16 0.232316 0.081222 0.040303
O O17 0.814802 0.211816 0.258435
#
# Coordination Sequence:
#
# PCOD8015367 Si02
#       8
#     2   2   2   2   2   2   2   2
#     4  10  23  42  65  93 131 179 230 277 334 395
#     4  11  25  43  68  97 140 182 226 282 345 400
#     4  12  28  44  71 101 141 180 223 282 350 406
#     4  11  25  42  73  99 135 177 231 276 340 413
#     4  10  23  42  68  97 133 177 231 271 339 406
#     4  10  21  42  68  92 132 175 229 281 333 396
#     4  12  27  42  68 100 144 172 228 282 341 406
#     4  12  25  43  69 100 136 176 228 278 344 406
#
# _framework density 22.857485
#
# number of rings (size 3 to 8) (size 9 to 14) (size 15 to 20)
#    0.000    1.000    1.250    4.125   10.500    1.500 
#    0.000    0.000    0.000    0.000    0.000    0.000 
#    0.000    0.000    0.000    0.000    0.000    0.000 
#
# Total GULP energy -198382.716981 kJ/mol
# GULP energy per Si atom -12398.919811 kJ/mol
# Density = 2.280546 g / cm^3
# Si number density = 22.857485 Si / 1000 Ang^3
#
#
#
# Elastic Constant Matrix: (Units=GPa)
#
#
# Indices 1 2 3 4 5 6 
#
# 1 92.2821 13.2394 20.2598 -5.7862 -2.6560 0.1884
# 2 13.2394 95.7896 38.8530 -2.4183 -5.7478 -0.6512
# 3 20.2598 38.8530 94.2406 14.2060 -15.0363 -2.2065
# 4 -5.7862 -2.4183 14.2060 38.9959 -14.8288 0.9922
# 5 -2.6560 -5.7478 -15.0363 -14.8288 36.2290 -2.2775
# 6 0.1884 -0.6512 -2.2065 0.9922 -2.2775 28.1697
#
#
#
# Elastic Compliance Matrix: (Units=1/GPa)
#
#
# Indices 1 2 3 4 5 6 
#
# 1 0.011697 -0.000406 -0.002668 0.003036 0.000908 -0.000330
# 2 -0.000406 0.012881 -0.005543 0.003137 0.000987 -0.000164
# 3 -0.002668 -0.005543 0.014749 -0.004969 0.003105 0.001471
# 4 0.003036 0.003137 -0.004969 0.032675 0.012000 -0.000518
# 5 0.000908 0.000987 0.003105 0.012000 0.034189 0.002601
# 6 -0.000330 -0.000164 0.001471 -0.000518 0.002601 0.035841
#
#
# Mechanical properties :
#
#
# Convention : Reuss Voigt Hill
#
# Bulk Modulus (GPa) = 45.25988 47.44631 46.35309
# Shear Modulus (GPa) = 30.00653 34.67624 32.34138
#
# Velocity S-wave (km/s) = 3.62714 3.89917 3.76562
# Velocity P-wave (km/s) = 6.11436 6.40889 6.26336
#
# Compressibility (1/GPa) = 0.02209462
#
# Stress axis : x y z
#
# Youngs Moduli (GPa) = 85.48873 77.63331 67.80273
#
# Poissons Ratio (x) = 0.03150 0.18090
# Poissons Ratio (y) = 0.03468 0.37580
# Poissons Ratio (z) = 0.22808 0.43029
#
# Static dielectric constant tensor:
#      x y z
#    x 4.019760 -0.134910 -0.250110 
#    y -0.134910 4.166740 0.082930 
#    z -0.250110 0.082930 4.096050 
# 
# 
# High freq. dielectric constant tensor:
#      x y z
#    x 1.900780 -0.009890 -0.014530 
#    y -0.009890 1.907820 0.003360 
#    z -0.014530 0.003360 1.907810 
# 
# From -- ./inp_files/271400.got.cif
#   From: 2010.06.25/outbox.cif.g09.slc.cpg/sg2_136_cif.got.tgz:271400.got - 2010.06.27 13:26:56.
