data_PCOD8015716
_publ_section_title
;
Structure prediction by ZEFSAII (Michael W. Deem and Ramdas Pophale) SiO2 
 PCOD8015716
Probable space group: P -1
;
_chemical_formula_sum "Si O2"
_cell_formula_units_Z 16
_cell_length_a 11.548192
_cell_length_b 12.937006
_cell_length_c 15.391652
_cell_angle_alpha 151.691291
_cell_angle_beta 58.622395
_cell_angle_gamma 101.677581
_cell_volume 721.258778
_symmetry_space_group_name_H-M "P -1"
_symmetry_group_IT_number 2
_symmetry_cell_setting 'triclinic'
loop_
_space_group_symop_operation_xyz
x,y,z
-x,-y,-z
loop_
_atom_site_type_symbol
_atom_site_label
_atom_site_fract_x
_atom_site_fract_y
_atom_site_fract_z
Si Si1 0.178622 0.528198 0.593203
Si Si2 0.356047 0.352949 0.924432
Si Si3 0.716841 0.148996 0.572410
Si Si4 0.508794 0.414683 0.334964
Si Si5 0.916643 0.199456 0.762175
Si Si6 0.831033 0.959015 0.762760
Si Si7 0.322700 0.899615 0.644755
Si Si8 0.005104 0.022843 0.135389
O O1 0.358108 0.382228 0.361618
O O2 0.154716 0.304389 0.468849
O O3 0.174679 0.700028 0.805093
O O4 0.018242 0.755671 0.759951
O O5 0.564544 0.156449 0.680474
O O6 0.323200 0.158372 0.838937
O O7 0.293087 0.597917 0.198194
O O8 0.237352 0.483438 0.978379
O O9 0.670317 0.204693 0.531386
O O10 0.916311 0.854556 0.294345
O O11 0.500000 0.500000 0.500000
O O12 0.483177 0.644436 0.449536
O O13 0.684478 0.122471 0.016353
O O14 0.815214 0.126339 0.807987
O O15 0.000000 0.000000 0.500000
O O16 0.997739 0.877888 0.692186
O O17 0.149292 0.993968 0.829518
#
# Coordination Sequence:
#
# PCOD8015716 Si02
#       8
#     2   2   2   2   2   2   2   2
#     4  10  23  42  66  94 132 173 212 271 334 394
#     4  10  23  43  64  95 134 175 221 283 332 389
#     4  10  21  43  63  95 133 170 229 275 323 405
#     4  11  24  46  62 101 137 163 228 279 321 413
#     4  10  23  42  65 101 135 167 233 279 318 410
#     4  12  22  43  68  92 131 178 212 272 341 384
#     4  11  23  42  67  89 131 179 209 272 346 387
#     4  10  22  40  64  98 129 162 225 268 314 415
#
# _framework density 22.183439
#
# number of rings (size 3 to 8) (size 9 to 14) (size 15 to 20)
#    0.000    1.500    2.500    1.875    3.500    0.500 
#   15.750    0.000    0.000    0.000    0.000    0.000 
#    0.000    0.000    0.000    0.000    0.000    0.000 
#
# Total GULP energy -198279.310876 kJ/mol
# GULP energy per Si atom -12392.456930 kJ/mol
# Density = 2.213295 g / cm^3
# Si number density = 22.183439 Si / 1000 Ang^3
#
#
#
# Elastic Constant Matrix: (Units=GPa)
#
#
# Indices 1 2 3 4 5 6 
#
# 1 82.6251 28.8969 25.1700 12.3309 -0.8254 -1.2012
# 2 28.8969 90.3157 12.9669 11.6829 10.2013 -3.0981
# 3 25.1700 12.9669 57.6802 0.4633 -3.1915 4.7648
# 4 12.3309 11.6829 0.4633 41.4050 -1.9222 5.0814
# 5 -0.8254 10.2013 -3.1915 -1.9222 25.1037 -6.2036
# 6 -1.2012 -3.0981 4.7648 5.0814 -6.2036 41.5027
#
#
#
# Elastic Compliance Matrix: (Units=1/GPa)
#
#
# Indices 1 2 3 4 5 6 
#
# 1 0.015889 -0.003836 -0.006091 -0.003705 0.001403 0.001536
# 2 -0.003836 0.013638 -0.001747 -0.003036 -0.005978 0.000586
# 3 -0.006091 -0.001747 0.020731 0.002518 0.002697 -0.002592
# 4 -0.003705 -0.003036 0.002518 0.026633 0.002608 -0.003494
# 5 0.001403 -0.005978 0.002697 0.002608 0.044231 0.005577
# 6 0.001536 0.000586 -0.002592 -0.003494 0.005577 0.025742
#
#
# Mechanical properties :
#
#
# Convention : Reuss Voigt Hill
#
# Bulk Modulus (GPa) = 37.15936 40.52098 38.84017
# Shear Modulus (GPa) = 27.90467 32.50810 30.20639
#
# Velocity S-wave (km/s) = 3.55054 3.83224 3.69408
# Velocity P-wave (km/s) = 5.79619 6.15527 5.97843
#
# Compressibility (1/GPa) = 0.02691112
#
# Stress axis : x y z
#
# Youngs Moduli (GPa) = 62.93644 73.32244 48.23780
#
# Poissons Ratio (x) = 0.28125 0.29380
# Poissons Ratio (y) = 0.24141 0.08427
# Poissons Ratio (z) = 0.38333 0.12809
#
# Static dielectric constant tensor:
#      x y z
#    x 4.552300 -0.020450 -0.688730 
#    y -0.020450 3.943080 -0.112020 
#    z -0.688730 -0.112020 4.347390 
# 
# 
# High freq. dielectric constant tensor:
#      x y z
#    x 1.875740 -0.000240 -0.013000 
#    y -0.000240 1.875070 -0.015660 
#    z -0.013000 -0.015660 1.863350 
# 
# From -- ./inp_files/519950.got.cif
#   From: 2010.06.25/outbox.cif.g09.slc.cpg/sg2_260_cif.got.tgz:519950.got - 2010.06.27 13:26:56.
