data_PCOD8015707
_publ_section_title
;
Structure prediction by ZEFSAII (Michael W. Deem and Ramdas Pophale) SiO2 
 PCOD8015707
Probable space group: P -1
;
_chemical_formula_sum "Si O2"
_cell_formula_units_Z 14
_cell_length_a 16.308528
_cell_length_b 17.032458
_cell_length_c 5.142443
_cell_angle_alpha 120.746103
_cell_angle_beta 119.923728
_cell_angle_gamma 35.217277
_cell_volume 698.402680
_symmetry_space_group_name_H-M "P -1"
_symmetry_group_IT_number 2
_symmetry_cell_setting 'triclinic'
loop_
_space_group_symop_operation_xyz
x,y,z
-x,-y,-z
loop_
_atom_site_type_symbol
_atom_site_label
_atom_site_fract_x
_atom_site_fract_y
_atom_site_fract_z
Si Si1 0.589182 0.343499 0.855371
Si Si2 0.988382 0.390628 0.029646
Si Si3 0.505139 0.768818 0.315636
Si Si4 0.642743 0.142050 0.271926
Si Si5 0.962360 0.849581 0.220906
Si Si6 0.087867 0.844134 0.902486
Si Si7 0.168024 0.433278 0.409600
O O1 0.505675 0.333914 0.896682
O O2 0.603870 0.279058 0.489058
O O3 0.500000 0.500000 0.000000
O O4 0.747483 0.251447 0.048293
O O5 0.884698 0.498937 0.277308
O O6 0.119871 0.365112 0.152558
O O7 0.057898 0.244477 0.978523
O O8 0.893045 0.455194 0.723628
O O9 0.391944 0.885098 0.556619
O O10 0.660193 0.690436 0.515870
O O11 0.454674 0.837315 0.066521
O O12 0.809236 0.011786 0.238377
O O13 0.041323 0.808929 0.546844
O O14 0.061770 0.814352 0.086608
O O15 0.000000 0.000000 0.000000
#
# Coordination Sequence:
#
# PCOD8015707 Si02
#       7
#     2   2   2   2   2   2   2
#     4  10  25  38  57  89 121 161 207 250 299 368
#     4  10  23  39  66  92 121 150 212 254 305 379
#     4  10  22  39  61  81 124 158 193 251 313 359
#     4  10  22  40  56  86 122 156 202 251 296 368
#     4  12  24  39  65  90 122 162 215 250 306 358
#     4  12  24  41  63  88 128 172 206 252 305 364
#     4  10  21  43  63  92 120 160 193 262 321 360
#
# _framework density 20.045743999999999
#
# number of rings (size 3 to 8) (size 9 to 14) (size 15 to 20)
#    0.857    0.571    1.429    3.857    6.000    0.571 
#    0.000    1.429    0.000    0.000    0.000    0.000 
#    0.000    0.000    0.000    0.000    0.000    0.000 
#
# Total GULP energy -173488.311990 kJ/mol
# GULP energy per Si atom -12392.022285 kJ/mol
# Density = 2.000012 g / cm^3
# Si number density = 20.045744 Si / 1000 Ang^3
#
#
#
# Elastic Constant Matrix: (Units=GPa)
#
#
# Indices 1 2 3 4 5 6 
#
# 1 74.0090 20.4468 27.8366 -2.9430 4.6090 -0.7922
# 2 20.4468 66.7414 29.6415 -11.2222 15.2099 -4.0504
# 3 27.8366 29.6415 87.0777 -18.6115 -3.8825 -6.9159
# 4 -2.9430 -11.2222 -18.6115 32.0378 3.1808 12.8553
# 5 4.6090 15.2099 -3.8825 3.1808 33.3290 -7.5247
# 6 -0.7922 -4.0504 -6.9159 12.8553 -7.5247 34.5867
#
#
#
# Elastic Compliance Matrix: (Units=1/GPa)
#
#
# Indices 1 2 3 4 5 6 
#
# 1 0.016068 -0.002890 -0.004661 -0.001911 -0.001375 -0.000491
# 2 -0.002890 0.022145 -0.006014 0.006681 -0.011890 -0.003746
# 3 -0.004661 -0.006014 0.016657 0.006097 0.005053 0.001353
# 4 -0.001911 0.006681 0.006097 0.044693 -0.010147 -0.016861
# 5 -0.001375 -0.011890 0.005053 -0.010147 0.039895 0.012037
# 6 -0.000491 -0.003746 0.001353 -0.016861 0.012037 0.037619
#
#
# Mechanical properties :
#
#
# Convention : Reuss Voigt Hill
#
# Bulk Modulus (GPa) = 36.04959 42.63087 39.34023
# Shear Modulus (GPa) = 23.42402 29.98424 26.70413
#
# Velocity S-wave (km/s) = 3.42208 3.87174 3.65384
# Velocity P-wave (km/s) = 5.79973 6.42652 6.12115
#
# Compressibility (1/GPa) = 0.02773956
#
# Stress axis : x y z
#
# Youngs Moduli (GPa) = 62.23561 45.15598 60.03374
#
# Poissons Ratio (x) = 0.13050 0.27984
# Poissons Ratio (y) = 0.17987 0.36105
# Poissons Ratio (z) = 0.29011 0.27157
#
# Static dielectric constant tensor:
#      x y z
#    x 3.716250 -0.035350 -0.119230 
#    y -0.035350 3.420760 -0.062420 
#    z -0.119230 -0.062420 3.887010 
# 
# 
# High freq. dielectric constant tensor:
#      x y z
#    x 1.783550 -0.011370 -0.008200 
#    y -0.011370 1.761770 -0.010480 
#    z -0.008200 -0.010480 1.793430 
# 
# From -- ./inp_files/111728.got.cif
#   From: 2010.06.25/outbox.cif.g09.slc.cpg/sg2_56_cif.got.tgz:111728.got - 2010.06.27 13:26:56.
