data_PCOD8015459
_publ_section_title
;
Structure prediction by ZEFSAII (Michael W. Deem and Ramdas Pophale) SiO2 
 PCOD8015459
Probable space group: P -1
;
_chemical_formula_sum "Si O2"
_cell_formula_units_Z 16
_cell_length_a 14.385853
_cell_length_b 11.529660
_cell_length_c 8.740343
_cell_angle_alpha 63.462574
_cell_angle_beta 46.792139
_cell_angle_gamma 43.938742
_cell_volume 730.133468
_symmetry_space_group_name_H-M "P -1"
_symmetry_group_IT_number 2
_symmetry_cell_setting 'triclinic'
loop_
_space_group_symop_operation_xyz
x,y,z
-x,-y,-z
loop_
_atom_site_type_symbol
_atom_site_label
_atom_site_fract_x
_atom_site_fract_y
_atom_site_fract_z
Si Si1 0.443507 0.440467 0.965879
Si Si2 0.793069 0.368476 0.146183
Si Si3 0.240607 0.908770 0.214267
Si Si4 0.109904 0.189849 0.718733
Si Si5 0.291393 0.309851 0.402336
Si Si6 0.639668 0.960642 0.210826
Si Si7 0.064839 0.983570 0.671432
Si Si8 0.811547 0.587447 0.211801
O O1 0.330400 0.396206 0.185799
O O2 0.500000 0.500000 0.000000
O O3 0.348149 0.569751 0.857273
O O4 0.612412 0.282249 0.795803
O O5 0.835855 0.207504 0.277325
O O6 0.740224 0.508490 0.249844
O O7 0.946810 0.334837 0.908042
O O8 0.138130 0.001770 0.426912
O O9 0.125937 0.925101 0.199042
O O10 0.318305 0.991028 0.020156
O O11 0.164756 0.279479 0.501320
O O12 0.247767 0.066162 0.760437
O O13 0.070698 0.085919 0.734312
O O14 0.203797 0.431666 0.577506
O O15 0.453139 0.118814 0.378136
O O16 0.679786 0.788100 0.215126
O O17 0.000000 0.500000 0.000000
#
# Coordination Sequence:
#
# PCOD8015459 Si02
#       8
#     2   2   2   2   2   2   2   2
#     4  11  27  45  63  96 141 172 214 279 339 391
#     4  12  25  41  67 102 134 173 220 277 339 387
#     4  10  23  45  63  96 129 180 221 268 332 393
#     4  11  21  41  66  98 123 175 227 267 321 404
#     4  10  24  43  67  95 132 181 215 267 339 395
#     4  10  21  42  69  92 133 175 220 269 331 395
#     4  11  24  41  71  95 130 174 229 272 323 402
#     4  11  20  41  67 102 135 165 219 283 328 390
#
# _framework density 21.913800999999999
#
# number of rings (size 3 to 8) (size 9 to 14) (size 15 to 20)
#    0.000    1.250    3.750    2.625    5.250    4.000 
#    2.250    2.500    0.000    0.000    0.000    0.000 
#    0.000    0.000    0.000    0.000    0.000    0.000 
#
# Total GULP energy -198300.179362 kJ/mol
# GULP energy per Si atom -12393.761210 kJ/mol
# Density = 2.186392 g / cm^3
# Si number density = 21.913801 Si / 1000 Ang^3
#
#
#
# Elastic Constant Matrix: (Units=GPa)
#
#
# Indices 1 2 3 4 5 6 
#
# 1 99.5738 40.8731 26.0770 -0.2700 10.4346 7.9619
# 2 40.8731 73.7737 38.0815 -0.2033 3.3099 2.9863
# 3 26.0770 38.0815 75.2235 16.1914 0.7537 5.4445
# 4 -0.2700 -0.2033 16.1914 28.6353 2.5931 3.7125
# 5 10.4346 3.3099 0.7537 2.5931 21.3106 3.8598
# 6 7.9619 2.9863 5.4445 3.7125 3.8598 42.4615
#
#
#
# Elastic Compliance Matrix: (Units=1/GPa)
#
#
# Indices 1 2 3 4 5 6 
#
# 1 0.013878 -0.006459 -0.001757 0.001794 -0.005665 -0.001565
# 2 -0.006459 0.022606 -0.010540 0.006065 -0.000807 0.000516
# 3 -0.001757 -0.010540 0.022012 -0.012726 0.003440 -0.000952
# 4 0.001794 0.006065 -0.012726 0.043040 -0.006185 -0.002332
# 5 -0.005665 -0.000807 0.003440 -0.006185 0.051075 -0.003424
# 6 -0.001565 0.000516 -0.000952 -0.002332 -0.003424 0.024445
#
#
# Mechanical properties :
#
#
# Convention : Reuss Voigt Hill
#
# Bulk Modulus (GPa) = 47.65612 50.95935 49.30774
# Shear Modulus (GPa) = 22.56677 28.05078 25.30877
#
# Velocity S-wave (km/s) = 3.21253 3.58166 3.40210
# Velocity P-wave (km/s) = 5.96278 6.35683 6.16296
#
# Compressibility (1/GPa) = 0.02098366
#
# Stress axis : x y z
#
# Youngs Moduli (GPa) = 72.05618 44.23529 45.42926
#
# Poissons Ratio (x) = 0.28574 0.07983
# Poissons Ratio (y) = 0.46544 0.47882
# Poissons Ratio (z) = 0.12661 0.46624
#
# Static dielectric constant tensor:
#      x y z
#    x 3.894460 -0.018310 -0.175130 
#    y -0.018310 4.012510 0.113710 
#    z -0.175130 0.113710 4.194140 
# 
# 
# High freq. dielectric constant tensor:
#      x y z
#    x 1.850730 0.002700 -0.007370 
#    y 0.002700 1.862790 0.003350 
#    z -0.007370 0.003350 1.878330 
# 
# From -- ./inp_files/306907.got.cif
#   From: 2010.06.25/outbox.cif.g09.slc.cpg/sg2_154_cif.got.tgz:306907.got - 2010.06.27 13:26:56.
