data_PCOD8015197
_publ_section_title
;
Structure prediction by ZEFSAII (Michael W. Deem and Ramdas Pophale) SiO2 
 PCOD8015197
Probable space group: P -1
;
_chemical_formula_sum "Si O2"
_cell_formula_units_Z 16
_cell_length_a 5.236510
_cell_length_b 18.462714
_cell_length_c 21.409935
_cell_angle_alpha 20.193198
_cell_angle_beta 104.976655
_cell_angle_gamma 107.063733
_cell_volume 682.150255
_symmetry_space_group_name_H-M "P -1"
_symmetry_group_IT_number 2
_symmetry_cell_setting 'triclinic'
loop_
_space_group_symop_operation_xyz
x,y,z
-x,-y,-z
loop_
_atom_site_type_symbol
_atom_site_label
_atom_site_fract_x
_atom_site_fract_y
_atom_site_fract_z
Si Si1 0.322578 0.941821 0.975264
Si Si2 0.270751 0.248090 0.383509
Si Si3 0.702979 0.742458 0.931226
Si Si4 0.199167 0.379223 0.573047
Si Si5 0.977821 0.501089 0.335343
Si Si6 0.837311 0.136510 0.535965
Si Si7 0.540487 0.665964 0.117295
Si Si8 0.888183 0.477595 0.942180
O O1 0.462938 0.879365 0.970701
O O2 0.173513 0.140243 0.789712
O O3 0.123752 0.738242 0.147713
O O4 0.500000 0.000000 0.000000
O O5 0.548209 0.156102 0.473103
O O6 0.041690 0.084142 0.537170
O O7 0.304785 0.490330 0.217910
O O8 0.172485 0.290332 0.272769
O O9 0.739290 0.743222 0.008601
O O10 0.387909 0.687032 0.940524
O O11 0.881725 0.585079 0.038165
O O12 0.807542 0.973500 0.722945
O O13 0.500000 0.500000 0.500000
O O14 0.087689 0.373188 0.501184
O O15 0.000000 0.500000 0.500000
O O16 0.994871 0.359471 0.390014
O O17 0.668947 0.542390 0.282577
O O18 0.000000 0.500000 0.000000
#
# Coordination Sequence:
#
# PCOD8015197 Si02
#       8
#     2   2   2   2   2   2   2   2
#     4  12  25  45  71  96 140 183 236 298 366 427
#     4  10  21  42  66  95 139 179 221 284 342 409
#     4  11  25  42  71 106 141 183 238 286 341 420
#     4  12  29  46  65  95 134 178 229 293 363 432
#     4  11  25  43  68  96 135 181 235 290 362 415
#     4  11  23  42  66 101 137 177 236 288 340 412
#     4  10  24  43  69  99 134 188 236 285 357 423
#     4  11  23  45  72 104 143 190 232 277 346 420
#
# _framework density 23.455241999999998
#
# number of rings (size 3 to 8) (size 9 to 14) (size 15 to 20)
#    0.000    1.000    2.500    4.125    5.250    2.000 
#    0.000    3.750    0.000    0.000    0.000    0.000 
#    0.000    0.000    0.000    0.000    0.000    0.000 
#
# Total GULP energy -198214.335773 kJ/mol
# GULP energy per Si atom -12388.395986 kJ/mol
# Density = 2.340186 g / cm^3
# Si number density = 23.455242 Si / 1000 Ang^3
#
#
#
# Elastic Constant Matrix: (Units=GPa)
#
#
# Indices 1 2 3 4 5 6 
#
# 1 126.2215 33.7144 18.1166 16.8358 1.2397 -6.0241
# 2 33.7144 81.1516 11.7460 30.4965 16.4510 4.8418
# 3 18.1166 11.7460 115.3157 32.0501 6.5542 3.8369
# 4 16.8358 30.4965 32.0501 41.5074 4.7116 4.9849
# 5 1.2397 16.4510 6.5542 4.7116 43.2869 4.3123
# 6 -6.0241 4.8418 3.8369 4.9849 4.3123 35.9104
#
#
#
# Elastic Compliance Matrix: (Units=1/GPa)
#
#
# Indices 1 2 3 4 5 6 
#
# 1 0.009267 -0.003893 -0.001070 -0.000464 0.001216 0.002112
# 2 -0.003893 0.020497 0.003098 -0.015037 -0.006422 -0.000889
# 3 -0.001070 0.003098 0.011561 -0.010553 -0.001733 -0.000159
# 4 -0.000464 -0.015037 -0.010553 0.043544 0.002917 -0.003318
# 5 0.001216 -0.006422 -0.001733 0.002917 0.025675 -0.002233
# 6 0.002112 -0.000889 -0.000159 -0.003318 -0.002233 0.029067
#
#
# Mechanical properties :
#
#
# Convention : Reuss Voigt Hill
#
# Bulk Modulus (GPa) = 26.59940 49.98250 38.29095
# Shear Modulus (GPa) = 32.07715 41.41506 36.74611
#
# Velocity S-wave (km/s) = 3.70211 4.20659 3.96238
# Velocity P-wave (km/s) = 5.44419 6.70447 6.10693
#
# Compressibility (1/GPa) = 0.03759483
#
# Stress axis : x y z
#
# Youngs Moduli (GPa) = 107.91243 48.78645 86.49558
#
# Poissons Ratio (x) = 0.18994 0.09253
# Poissons Ratio (y) = 0.42013 -0.26793
# Poissons Ratio (z) = 0.11544 -0.15112
#
# Static dielectric constant tensor:
#      x y z
#    x 4.402850 -0.007080 0.139720 
#    y -0.007080 4.337170 0.829970 
#    z 0.139720 0.829970 5.363200 
# 
# 
# High freq. dielectric constant tensor:
#      x y z
#    x 1.934160 0.008600 0.003160 
#    y 0.008600 1.926280 0.018930 
#    z 0.003160 0.018930 1.933960 
# 
# From -- ./inp_files/584042.got.cif
#   From: 2010.06.25/outbox.cif.g09.slc.cpg/sg2_293_cif.got.tgz:584042.got - 2010.06.27 13:26:56.
