data_PCOD8015215
_publ_section_title
;
Structure prediction by ZEFSAII (Michael W. Deem and Ramdas Pophale) SiO2 
 PCOD8015215
Probable space group: P -1
;
_chemical_formula_sum "Si O2"
_cell_formula_units_Z 14
_cell_length_a 8.725326
_cell_length_b 11.251358
_cell_length_c 19.232179
_cell_angle_alpha 147.221037
_cell_angle_beta 43.635421
_cell_angle_gamma 114.395348
_cell_volume 601.132239
_symmetry_space_group_name_H-M "P -1"
_symmetry_group_IT_number 2
_symmetry_cell_setting 'triclinic'
loop_
_space_group_symop_operation_xyz
x,y,z
-x,-y,-z
loop_
_atom_site_type_symbol
_atom_site_label
_atom_site_fract_x
_atom_site_fract_y
_atom_site_fract_z
Si Si1 0.397264 0.951875 0.206267
Si Si2 0.487277 0.408855 0.128549
Si Si3 0.751569 0.172515 0.213087
Si Si4 0.878890 0.369880 0.521195
Si Si5 0.584516 0.616488 0.394291
Si Si6 0.514150 0.852309 0.274559
Si Si7 0.971868 0.214625 0.957466
O O1 0.410724 0.855263 0.232630
O O2 0.523893 0.124738 0.241843
O O3 0.560113 0.702981 0.980882
O O4 0.100180 0.110966 0.357617
O O5 0.292114 0.428844 0.262497
O O6 0.437379 0.692904 0.271554
O O7 0.784620 0.211453 0.958950
O O8 0.639163 0.475253 0.383046
O O9 0.841668 0.078646 0.216965
O O10 0.000000 0.000000 0.000000
O O11 0.700769 0.299444 0.499125
O O12 0.000000 0.500000 0.500000
O O13 0.617343 0.859500 0.510415
O O14 0.803729 0.419005 0.172504
O O15 0.828646 0.709914 0.101947
#
# Coordination Sequence:
#
# PCOD8015215 Si02
#       7
#     2   2   2   2   2   2   2
#     4  11  24  42  64  97 134 175 216 273 326 391
#     4  11  25  44  66  98 136 174 220 267 327 398
#     4   9  19  40  63  93 128 164 221 268 325 378
#     4  11  24  44  66 101 133 174 216 271 338 383
#     4  10  21  42  66  97 132 170 220 276 319 395
#     4  11  24  42  68  98 131 179 219 265 328 390
#     4   9  21  39  66  96 126 172 218 274 327 378
#
# _framework density 23.289383999999998
#
# number of rings (size 3 to 8) (size 9 to 14) (size 15 to 20)
#    0.000    1.714    1.429    1.714    0.000   10.286 
#   10.286    0.000    0.000    0.000    0.000    0.000 
#    0.000    0.000    0.000    0.000    0.000    0.000 
#
# Total GULP energy -173627.760505 kJ/mol
# GULP energy per Si atom -12401.982893 kJ/mol
# Density = 2.323638 g / cm^3
# Si number density = 23.289384 Si / 1000 Ang^3
#
#
#
# Elastic Constant Matrix: (Units=GPa)
#
#
# Indices 1 2 3 4 5 6 
#
# 1 101.8160 25.6803 46.9354 6.7620 4.1199 -13.0475
# 2 25.6803 95.2089 33.0035 5.1572 -7.9344 0.4578
# 3 46.9354 33.0035 77.7367 9.7015 -13.5954 3.7962
# 4 6.7620 5.1572 9.7015 40.5737 1.4639 2.9123
# 5 4.1199 -7.9344 -13.5954 1.4639 38.4440 2.8248
# 6 -13.0475 0.4578 3.7962 2.9123 2.8248 22.8427
#
#
#
# Elastic Compliance Matrix: (Units=1/GPa)
#
#
# Indices 1 2 3 4 5 6 
#
# 1 0.017680 -0.001254 -0.011990 -0.000596 -0.007334 0.013100
# 2 -0.001254 0.012437 -0.004241 -0.000376 0.001243 -0.000367
# 3 -0.011990 -0.004241 0.024597 -0.002866 0.010080 -0.011733
# 4 -0.000596 -0.000376 -0.002866 0.025753 -0.001793 -0.002918
# 5 -0.007334 0.001243 0.010080 -0.001793 0.031388 -0.009542
# 6 0.013100 -0.000367 -0.011733 -0.002918 -0.009542 0.054769
#
#
# Mechanical properties :
#
#
# Convention : Reuss Voigt Hill
#
# Bulk Modulus (GPa) = 50.64826 54.00001 52.32414
# Shear Modulus (GPa) = 24.01797 31.64825 27.83311
#
# Velocity S-wave (km/s) = 3.21485 3.69034 3.46077
# Velocity P-wave (km/s) = 5.96447 6.43390 6.20362
#
# Compressibility (1/GPa) = 0.01974401
#
# Stress axis : x y z
#
# Youngs Moduli (GPa) = 56.55994 80.40330 40.65507
#
# Poissons Ratio (x) = 0.10086 0.48747
# Poissons Ratio (y) = 0.07095 0.17241
# Poissons Ratio (z) = 0.67817 0.34097
#
# Static dielectric constant tensor:
#      x y z
#    x 4.359450 -0.239570 -0.437740 
#    y -0.239570 4.300430 -0.559700 
#    z -0.437740 -0.559700 5.716290 
# 
# 
# High freq. dielectric constant tensor:
#      x y z
#    x 1.925290 -0.014580 -0.007870 
#    y -0.014580 1.913480 -0.009860 
#    z -0.007870 -0.009860 1.932670 
# 
# From -- ./inp_files/426584.got.cif
#   From: 2010.06.25/outbox.cif.g09.slc.cpg/sg2_214_cif.got.tgz:426584.got - 2010.06.27 13:26:56.
