data_PCOD8015686
_publ_section_title
;
Structure prediction by ZEFSAII (Michael W. Deem and Ramdas Pophale) SiO2 
 PCOD8015686
Probable space group: P -1
;
_chemical_formula_sum "Si O2"
_cell_formula_units_Z 16
_cell_length_a 6.381705
_cell_length_b 24.403115
_cell_length_c 17.725055
_cell_angle_alpha 20.920797
_cell_angle_beta 68.568550
_cell_angle_gamma 82.800008
_cell_volume 697.452950
_symmetry_space_group_name_H-M "P -1"
_symmetry_group_IT_number 2
_symmetry_cell_setting 'triclinic'
loop_
_space_group_symop_operation_xyz
x,y,z
-x,-y,-z
loop_
_atom_site_type_symbol
_atom_site_label
_atom_site_fract_x
_atom_site_fract_y
_atom_site_fract_z
Si Si1 0.703252 0.149322 0.391126
Si Si2 0.817518 0.228201 0.875842
Si Si3 0.595777 0.700532 0.692836
Si Si4 0.379378 0.115488 0.861858
Si Si5 0.191378 0.053429 0.240400
Si Si6 0.082646 0.762633 0.908839
Si Si7 0.718188 0.847909 0.332032
Si Si8 0.844762 0.460115 0.449649
O O1 0.647483 0.282194 0.272222
O O2 0.929546 0.277194 0.127632
O O3 0.842622 0.082144 0.512665
O O4 0.399402 0.958699 0.641208
O O5 0.938089 0.343898 0.630261
O O6 0.081662 0.368965 0.721464
O O7 0.518679 0.189747 0.985654
O O8 0.735378 0.016298 0.157252
O O9 0.580783 0.674481 0.636554
O O10 0.500000 0.500000 0.000000
O O11 0.932164 0.897104 0.416384
O O12 0.470535 0.224026 0.627698
O O13 0.505162 0.285702 0.691250
O O14 0.500000 0.000000 0.000000
O O15 0.036529 0.937440 0.147542
O O16 0.156988 0.211809 0.072048
O O17 0.023163 0.575537 0.201078
#
# Coordination Sequence:
#
# PCOD8015686 Si02
#       8
#     2   2   2   2   2   2   2   2
#     4  10  21  43  62  91 135 170 218 275 336 383
#     4  11  22  41  70  98 130 173 217 276 331 391
#     4  11  25  41  67  98 125 179 233 271 317 402
#     4  11  25  45  68  96 134 183 211 271 345 393
#     4  11  21  42  68  91 135 174 212 278 349 375
#     4  10  22  39  63  96 131 171 213 277 333 391
#     4  11  24  47  67  92 140 175 218 272 340 394
#     4  11  23  40  67 102 129 164 230 268 319 405
#
# _framework density 22.940615999999999
#
# number of rings (size 3 to 8) (size 9 to 14) (size 15 to 20)
#    0.000    1.250    3.750    1.875    0.000    5.500 
#    0.000    0.000    0.000    0.000    0.000    0.000 
#    0.000    0.000    0.000    0.000    0.000    0.000 
#
# Total GULP energy -198285.631239 kJ/mol
# GULP energy per Si atom -12392.851952 kJ/mol
# Density = 2.288840 g / cm^3
# Si number density = 22.940616 Si / 1000 Ang^3
#
#
#
# Elastic Constant Matrix: (Units=GPa)
#
#
# Indices 1 2 3 4 5 6 
#
# 1 96.6837 60.6702 23.0856 10.2117 11.9137 8.9852
# 2 60.6702 117.4182 40.3996 23.9635 10.2930 21.6569
# 3 23.0856 40.3996 92.3153 26.2426 21.9456 12.2331
# 4 10.2117 23.9635 26.2426 42.9817 24.7851 3.1921
# 5 11.9137 10.2930 21.9456 24.7851 29.8248 7.7794
# 6 8.9852 21.6569 12.2331 3.1921 7.7794 45.4423
#
#
#
# Elastic Compliance Matrix: (Units=1/GPa)
#
#
# Indices 1 2 3 4 5 6 
#
# 1 0.016572 -0.009568 0.000099 0.006675 -0.009571 0.002426
# 2 -0.009568 0.017278 -0.003900 -0.011320 0.011838 -0.006524
# 3 0.000099 -0.003900 0.015159 -0.002854 -0.007268 -0.000797
# 4 0.006675 -0.011320 -0.002854 0.054650 -0.044316 0.008591
# 5 -0.009571 0.011838 -0.007268 -0.044316 0.078608 -0.012137
# 6 0.002426 -0.006524 -0.000797 0.008591 -0.012137 0.026324
#
#
# Mechanical properties :
#
#
# Convention : Reuss Voigt Hill
#
# Bulk Modulus (GPa) = 44.90053 61.63642 53.26847
# Shear Modulus (GPa) = 20.59695 35.80055 28.19875
#
# Velocity S-wave (km/s) = 2.99964 3.95470 3.50981
# Velocity P-wave (km/s) = 5.62247 6.91223 6.30044
#
# Compressibility (1/GPa) = 0.02227145
#
# Stress axis : x y z
#
# Youngs Moduli (GPa) = 60.34255 57.87687 65.96573
#
# Poissons Ratio (x) = 0.55375 -0.00653
# Poissons Ratio (y) = 0.57734 0.25729
# Poissons Ratio (z) = -0.00597 0.22574
#
# Static dielectric constant tensor:
#      x y z
#    x 4.279540 0.322480 0.043940 
#    y 0.322480 4.451410 0.188940 
#    z 0.043940 0.188940 4.159680 
# 
# 
# High freq. dielectric constant tensor:
#      x y z
#    x 1.903820 0.023850 0.013030 
#    y 0.023850 1.906700 0.014280 
#    z 0.013030 0.014280 1.901310 
# 
# From -- ./inp_files/551179.got.cif
#   From: 2010.06.25/outbox.cif.g09.slc.cpg/sg2_276_cif.got.tgz:551179.got - 2010.06.27 13:26:56.
