data_PCOD8015702
_publ_section_title
;
Structure prediction by ZEFSAII (Michael W. Deem and Ramdas Pophale) SiO2 
 PCOD8015702
Probable space group: P -1
;
_chemical_formula_sum "Si O2"
_cell_formula_units_Z 14
_cell_length_a 8.036186
_cell_length_b 11.489141
_cell_length_c 12.194481
_cell_angle_alpha 145.311301
_cell_angle_beta 81.351963
_cell_angle_gamma 94.673913
_cell_volume 631.705266
_symmetry_space_group_name_H-M "P -1"
_symmetry_group_IT_number 2
_symmetry_cell_setting 'triclinic'
loop_
_space_group_symop_operation_xyz
x,y,z
-x,-y,-z
loop_
_atom_site_type_symbol
_atom_site_label
_atom_site_fract_x
_atom_site_fract_y
_atom_site_fract_z
Si Si1 0.656746 0.382398 0.332815
Si Si2 0.961976 0.616853 0.481541
Si Si3 0.094083 0.944675 0.837580
Si Si4 0.271544 0.672749 0.348595
Si Si5 0.565659 0.324300 0.062966
Si Si6 0.805106 0.477025 0.987042
Si Si7 0.680952 0.887571 0.211110
O O1 0.500000 0.500000 0.500000
O O2 0.783145 0.549102 0.403975
O O3 0.749102 0.224769 0.287602
O O4 0.604298 0.257962 0.133627
O O5 0.000000 0.500000 0.500000
O O6 0.956435 0.857441 0.701027
O O7 0.111933 0.577809 0.348856
O O8 0.171402 0.132578 0.912862
O O9 0.000000 0.000000 0.000000
O O10 0.433410 0.520627 0.235383
O O11 0.229434 0.680980 0.229914
O O12 0.314483 0.897398 0.559590
O O13 0.734601 0.386748 0.035443
O O14 0.493174 0.136976 0.856781
O O15 0.709891 0.700346 0.147263
O O16 0.000000 0.500000 0.000000
#
# Coordination Sequence:
#
# PCOD8015702 Si02
#       7
#     2   2   2   2   2   2   2
#     4  11  23  40  63  93 130 166 211 262 317 381
#     4   9  19  36  61  84 120 169 203 247 315 376
#     4  10  23  38  63  93 123 170 208 259 321 370
#     4  10  21  43  63  90 126 165 211 258 321 369
#     4  11  24  40  66  94 125 167 212 261 316 375
#     4  11  25  41  66  92 124 168 213 261 316 375
#     4  10  23  42  64  91 128 163 210 263 314 381
#
# _framework density 22.162233000000001
#
# number of rings (size 3 to 8) (size 9 to 14) (size 15 to 20)
#    0.000    1.714    0.000    5.143   12.000    3.429 
#    2.571    0.000    0.000    0.000    0.000    0.000 
#    0.000    0.000    0.000    0.000    0.000    0.000 
#
# Total GULP energy -173510.712601 kJ/mol
# GULP energy per Si atom -12393.622329 kJ/mol
# Density = 2.211179 g / cm^3
# Si number density = 22.162233 Si / 1000 Ang^3
#
#
#
# Elastic Constant Matrix: (Units=GPa)
#
#
# Indices 1 2 3 4 5 6 
#
# 1 100.8041 4.1001 40.1812 0.9997 13.4859 21.8083
# 2 4.1001 63.1995 19.6571 -10.6624 5.3421 21.3948
# 3 40.1812 19.6571 121.2388 -3.2708 11.3384 5.6305
# 4 0.9997 -10.6624 -3.2708 34.0463 8.0919 0.8636
# 5 13.4859 5.3421 11.3384 8.0919 42.6929 -9.7719
# 6 21.8083 21.3948 5.6305 0.8636 -9.7719 40.0973
#
#
#
# Elastic Compliance Matrix: (Units=1/GPa)
#
#
# Indices 1 2 3 4 5 6 
#
# 1 0.015347 0.006031 -0.004636 0.003206 -0.007936 -0.012917
# 2 0.006031 0.025884 -0.004034 0.010523 -0.010486 -0.019307
# 3 -0.004636 -0.004034 0.010280 -0.000228 0.000024 0.003241
# 4 0.003206 0.010523 -0.000228 0.035562 -0.011504 -0.010896
# 5 -0.007936 -0.010486 0.000024 -0.011504 0.033615 0.018348
# 6 -0.012917 -0.019307 0.003241 -0.010896 0.018348 0.046517
#
#
# Mechanical properties :
#
#
# Convention : Reuss Voigt Hill
#
# Bulk Modulus (GPa) = 21.62989 45.90214 33.76602
# Shear Modulus (GPa) = 26.61073 38.12092 32.36582
#
# Velocity S-wave (km/s) = 3.46891 4.15189 3.82567
# Velocity P-wave (km/s) = 5.08187 6.61370 5.89773
#
# Compressibility (1/GPa) = 0.04623232
#
# Stress axis : x y z
#
# Youngs Moduli (GPa) = 65.15921 38.63394 97.27911
#
# Poissons Ratio (x) = -0.23298 0.45095
# Poissons Ratio (y) = -0.39295 0.39244
# Poissons Ratio (z) = 0.30205 0.15586
#
# Static dielectric constant tensor:
#      x y z
#    x 4.359900 0.352490 0.487770 
#    y 0.352490 4.070420 -0.227740 
#    z 0.487770 -0.227740 4.073770 
# 
# 
# High freq. dielectric constant tensor:
#      x y z
#    x 1.872640 0.023700 0.017150 
#    y 0.023700 1.866030 -0.015770 
#    z 0.017150 -0.015770 1.878690 
# 
# From -- ./inp_files/391597.got.cif
#   From: 2010.06.25/outbox.cif.g09.slc.cpg/sg2_196_cif.got.tgz:391597.got - 2010.06.27 13:26:56.
