data_PCOD8015562
_publ_section_title
;
Structure prediction by ZEFSAII (Michael W. Deem and Ramdas Pophale) SiO2 
 PCOD8015562
Probable space group: P -1
;
_chemical_formula_sum "Si O2"
_cell_formula_units_Z 16
_cell_length_a 9.261349
_cell_length_b 11.827675
_cell_length_c 7.973201
_cell_angle_alpha 52.044019
_cell_angle_beta 77.251693
_cell_angle_gamma 80.088168
_cell_volume 670.921464
_symmetry_space_group_name_H-M "P -1"
_symmetry_group_IT_number 2
_symmetry_cell_setting 'triclinic'
loop_
_space_group_symop_operation_xyz
x,y,z
-x,-y,-z
loop_
_atom_site_type_symbol
_atom_site_label
_atom_site_fract_x
_atom_site_fract_y
_atom_site_fract_z
Si Si1 0.460122 0.665257 0.906886
Si Si2 0.363614 0.087117 0.881099
Si Si3 0.093297 0.400646 0.846662
Si Si4 0.425342 0.377123 0.728650
Si Si5 0.803392 0.150135 0.332168
Si Si6 0.046301 0.104442 0.038627
Si Si7 0.979707 0.697634 0.672743
Si Si8 0.694556 0.875555 0.509337
O O1 0.292906 0.716675 0.849286
O O2 0.569547 0.771399 0.692201
O O3 0.500000 0.500000 0.000000
O O4 0.473744 0.679419 0.090286
O O5 0.406682 0.251720 0.714976
O O6 0.336049 0.046474 0.732216
O O7 0.221553 0.064000 0.059751
O O8 0.500000 0.000000 0.000000
O O9 0.265217 0.434307 0.780416
O O10 0.007037 0.551775 0.692116
O O11 0.045391 0.277967 0.837744
O O12 0.057300 0.338653 0.094050
O O13 0.500000 0.500000 0.500000
O O14 0.939659 0.085310 0.241100
O O15 0.873282 0.206729 0.437198
O O16 0.705205 0.010193 0.513950
O O17 0.000000 0.000000 0.000000
O O18 0.848830 0.784823 0.534025
#
# Coordination Sequence:
#
# PCOD8015562 Si02
#       8
#     2   2   2   2   2   2   2   2
#     4  12  26  45  74 102 142 185 243 294 349 425
#     4  11  25  47  69  97 142 185 229 285 350 421
#     4   9  20  41  69  97 137 186 228 294 348 410
#     4  11  23  45  65  98 136 182 231 285 348 414
#     4  11  24  43  70 106 141 182 232 297 358 412
#     4  10  21  43  69  95 140 187 232 276 351 423
#     4  10  21  42  71 101 142 174 235 297 355 408
#     4  12  24  45  70 108 137 185 240 291 355 422
#
# _framework density 23.847799999999999
#
# number of rings (size 3 to 8) (size 9 to 14) (size 15 to 20)
#    0.000    1.250    2.500    3.000    3.500    0.000 
#    6.750    1.250    0.000    0.000    0.000    0.000 
#    0.000    0.000    0.000    0.000    0.000    0.000 
#
# Total GULP energy -198301.252399 kJ/mol
# GULP energy per Si atom -12393.828275 kJ/mol
# Density = 2.379352 g / cm^3
# Si number density = 23.847800 Si / 1000 Ang^3
#
#
#
# Elastic Constant Matrix: (Units=GPa)
#
#
# Indices 1 2 3 4 5 6 
#
# 1 135.1750 45.5668 39.6746 -17.7108 10.5908 -4.3689
# 2 45.5668 127.0418 16.4012 -29.3622 -1.8933 8.3781
# 3 39.6746 16.4012 69.5051 -14.2576 2.1611 -1.2438
# 4 -17.7108 -29.3622 -14.2576 32.5758 3.4916 3.0683
# 5 10.5908 -1.8933 2.1611 3.4916 44.2779 -11.3758
# 6 -4.3689 8.3781 -1.2438 3.0683 -11.3758 38.3012
#
#
#
# Elastic Compliance Matrix: (Units=1/GPa)
#
#
# Indices 1 2 3 4 5 6 
#
# 1 0.010100 -0.002877 -0.004811 0.000935 -0.002143 0.000914
# 2 -0.002877 0.011170 0.000863 0.009284 -0.000546 -0.003650
# 3 -0.004811 0.000863 0.018210 0.006245 -0.000389 -0.000762
# 4 0.000935 0.009284 0.006245 0.043515 -0.005306 -0.006783
# 5 -0.002143 -0.000546 -0.000389 -0.005306 0.025533 0.007871
# 6 0.000914 -0.003650 -0.000762 -0.006783 0.007871 0.029868
#
#
# Mechanical properties :
#
#
# Convention : Reuss Voigt Hill
#
# Bulk Modulus (GPa) = 38.71790 59.44523 49.08156
# Shear Modulus (GPa) = 31.12199 38.36960 34.74579
#
# Velocity S-wave (km/s) = 3.61643 4.01551 3.82118
# Velocity P-wave (km/s) = 5.80593 6.81763 6.33202
#
# Compressibility (1/GPa) = 0.02582785
#
# Stress axis : x y z
#
# Youngs Moduli (GPa) = 99.01045 89.52246 54.91540
#
# Poissons Ratio (x) = 0.25760 0.26422
# Poissons Ratio (y) = 0.28490 -0.04738
# Poissons Ratio (z) = 0.47638 -0.07723
#
# Static dielectric constant tensor:
#      x y z
#    x 3.638510 -0.837510 -0.126460 
#    y -0.837510 -0.047620 0.239770 
#    z -0.126460 0.239770 3.933620 
# 
# 
# High freq. dielectric constant tensor:
#      x y z
#    x 1.960090 0.005710 -0.012500 
#    y 0.005710 1.957690 -0.026900 
#    z -0.012500 -0.026900 1.919490 
# 
# From -- ./inp_files/184088.got.cif
#   From: 2010.06.25/outbox.cif.g09.slc.cpg/sg2_93_cif.got.tgz:184088.got - 2010.06.27 13:26:56.
