data_PCOD8015185
_publ_section_title
;
Structure prediction by ZEFSAII (Michael W. Deem and Ramdas Pophale) SiO2 
 PCOD8015185
Probable space group: P -1
;
_chemical_formula_sum "Si O2"
_cell_formula_units_Z 16
_cell_length_a 19.670821
_cell_length_b 8.235696
_cell_length_c 5.435134
_cell_angle_alpha 120.749459
_cell_angle_beta 100.456695
_cell_angle_gamma 58.086982
_cell_volume 637.565961
_symmetry_space_group_name_H-M "P -1"
_symmetry_group_IT_number 2
_symmetry_cell_setting 'triclinic'
loop_
_space_group_symop_operation_xyz
x,y,z
-x,-y,-z
loop_
_atom_site_type_symbol
_atom_site_label
_atom_site_fract_x
_atom_site_fract_y
_atom_site_fract_z
Si Si1 0.924203 0.737353 0.677402
Si Si2 0.683024 0.204291 0.894611
Si Si3 0.268027 0.528462 0.581991
Si Si4 0.583414 0.160651 0.173116
Si Si5 0.405858 0.449018 0.278655
Si Si6 0.277701 0.174774 0.688233
Si Si7 0.025240 0.174581 0.709349
Si Si8 0.148692 0.448396 0.213404
O O1 0.849129 0.703354 0.671140
O O2 0.000000 0.500000 0.500000
O O3 0.913234 0.859561 0.502601
O O4 0.936559 0.857798 0.018103
O O5 0.626193 0.447234 0.930085
O O6 0.736740 0.012235 0.588417
O O7 0.740461 0.244644 0.146682
O O8 0.629185 0.111867 0.904802
O O9 0.341472 0.405299 0.340183
O O10 0.280945 0.353920 0.661898
O O11 0.183570 0.601374 0.444767
O O12 0.491203 0.218310 0.131748
O O13 0.582682 0.378716 0.424693
O O14 0.633939 0.952522 0.222486
O O15 0.204753 0.285724 0.914999
O O16 0.942594 0.415122 0.839390
O O17 0.000000 0.000000 0.500000
#
# Coordination Sequence:
#
# PCOD8015185 Si02
#       8
#     2   2   2   2   2   2   2   2
#     4  10  23  47  77 103 138 186 228 281 351 423
#     4  10  21  42  66  94 134 176 242 282 346 414
#     4  11  24  42  64 100 137 181 229 285 349 417
#     4   9  19  39  65  93 132 178 236 288 347 405
#     4   9  19  39  64  95 132 179 231 295 342 404
#     4  11  24  42  64  99 136 182 227 284 351 415
#     4  11  25  50  76 111 138 178 239 289 348 424
#     4  11  25  45  68  95 141 179 218 281 345 419
#
# _framework density 25.095441000000001
#
# number of rings (size 3 to 8) (size 9 to 14) (size 15 to 20)
#    0.000    1.750    0.000    3.750    5.250    1.500 
#   11.250    4.375    0.000    0.000    0.000    0.000 
#    0.000    0.000    0.000    0.000    0.000    0.000 
#
# Total GULP energy -198303.556909 kJ/mol
# GULP energy per Si atom -12393.972307 kJ/mol
# Density = 2.503832 g / cm^3
# Si number density = 25.095441 Si / 1000 Ang^3
#
#
#
# Elastic Constant Matrix: (Units=GPa)
#
#
# Indices 1 2 3 4 5 6 
#
# 1 107.0358 -2.6618 14.9524 -13.0696 -12.9071 4.5736
# 2 -2.6618 48.6313 -2.8959 -8.4762 -16.6233 3.0933
# 3 14.9524 -2.8959 111.4103 -9.3098 -2.1687 3.3581
# 4 -13.0696 -8.4762 -9.3098 30.6173 10.0755 -3.5864
# 5 -12.9071 -16.6233 -2.1687 10.0755 38.0870 -7.6347
# 6 4.5736 3.0933 3.3581 -3.5864 -7.6347 37.2396
#
#
#
# Elastic Compliance Matrix: (Units=1/GPa)
#
#
# Indices 1 2 3 4 5 6 
#
# 1 0.010410 0.002354 -0.000956 0.003622 0.003477 -0.000326
# 2 0.002354 0.025201 0.000941 0.004794 0.010617 0.000171
# 3 -0.000956 0.000941 0.009368 0.002702 -0.000212 -0.000589
# 4 0.003622 0.004794 0.002702 0.038644 -0.006487 0.001305
# 5 0.003477 0.010617 -0.000212 -0.006487 0.034819 0.005224
# 6 -0.000326 0.000171 -0.000589 0.001305 0.005224 0.028129
#
#
# Mechanical properties :
#
#
# Convention : Reuss Voigt Hill
#
# Bulk Modulus (GPa) = 20.13785 31.76299 25.95042
# Shear Modulus (GPa) = 31.55652 38.36764 34.96208
#
# Velocity S-wave (km/s) = 3.54992 3.91432 3.73656
# Velocity P-wave (km/s) = 4.98442 5.75444 5.38321
#
# Compressibility (1/GPa) = 0.04965774
#
# Stress axis : x y z
#
# Youngs Moduli (GPa) = 96.05931 39.68028 106.74658
#
# Poissons Ratio (x) = -0.09339 0.10203
# Poissons Ratio (y) = -0.22608 -0.10048
# Poissons Ratio (z) = 0.09181 -0.03735
#
# Static dielectric constant tensor:
#      x y z
#    x 5.017460 0.060330 -0.296400 
#    y 0.060330 4.515350 -0.245420 
#    z -0.296400 -0.245420 4.830070 
# 
# 
# High freq. dielectric constant tensor:
#      x y z
#    x 2.008090 0.005950 -0.003400 
#    y 0.005950 1.986110 -0.005170 
#    z -0.003400 -0.005170 2.008990 
# 
# From -- ./inp_files/107636.got.cif
#   From: 2010.06.25/outbox.cif.g09.slc.cpg/sg2_54_cif.got.tgz:107636.got - 2010.06.27 13:26:56.
