data_PCOD8015598
_publ_section_title
;
Structure prediction by ZEFSAII (Michael W. Deem and Ramdas Pophale) SiO2 
 PCOD8015598
Probable space group: P -1
;
_chemical_formula_sum "Si O2"
_cell_formula_units_Z 14
_cell_length_a 5.377041
_cell_length_b 23.166872
_cell_length_c 11.518158
_cell_angle_alpha 27.557717
_cell_angle_beta 122.357649
_cell_angle_gamma 121.336322
_cell_volume 556.902859
_symmetry_space_group_name_H-M "P -1"
_symmetry_group_IT_number 2
_symmetry_cell_setting 'triclinic'
loop_
_space_group_symop_operation_xyz
x,y,z
-x,-y,-z
loop_
_atom_site_type_symbol
_atom_site_label
_atom_site_fract_x
_atom_site_fract_y
_atom_site_fract_z
Si Si1 0.203524 0.336137 0.373565
Si Si2 0.160287 0.662091 0.419301
Si Si3 0.011055 0.557427 0.082820
Si Si4 0.854933 0.954468 0.268858
Si Si5 0.013392 0.166436 0.105350
Si Si6 0.702704 0.185408 0.239316
Si Si7 0.814140 0.142180 0.736143
O O1 0.492964 0.293667 0.579291
O O2 0.134729 0.458387 0.206850
O O3 0.974042 0.204324 0.548805
O O4 0.233133 0.377064 0.171007
O O5 0.115524 0.513733 0.705207
O O6 0.042120 0.745378 0.343438
O O7 0.006735 0.693947 0.202571
O O8 0.265183 0.665225 0.995961
O O9 0.541853 0.865016 0.354192
O O10 0.135682 0.884902 0.495459
O O11 0.824595 0.067730 0.149540
O O12 0.907254 0.012672 0.046621
O O13 0.354108 0.136318 0.245755
O O14 0.861724 0.154572 0.213790
#
# Coordination Sequence:
#
# PCOD8015598 Si02
#       7
#     2   2   2   2   2   2   2
#     4  10  21  42  72 102 134 172 220 295 347 410
#     4  10  22  43  68 100 139 173 226 288 339 413
#     4  10  24  40  71 100 137 172 229 279 357 399
#     4  10  22  46  70  99 140 176 229 289 338 406
#     4  11  28  46  71  98 139 188 237 273 339 398
#     4  12  27  47  69 102 137 190 230 281 330 417
#     4   9  21  42  71 106 129 174 226 284 358 398
#
# _framework density 25.139033000000001
#
# number of rings (size 3 to 8) (size 9 to 14) (size 15 to 20)
#    0.000    1.714    0.000    2.143   10.000    2.286 
#    5.143    2.857    0.000    0.000    0.000    0.000 
#    0.000    0.000    0.000    0.000    0.000    0.000 
#
# Total GULP energy -173483.209746 kJ/mol
# GULP energy per Si atom -12391.657839 kJ/mol
# Density = 2.508182 g / cm^3
# Si number density = 25.139033 Si / 1000 Ang^3
#
#
#
# Elastic Constant Matrix: (Units=GPa)
#
#
# Indices 1 2 3 4 5 6 
#
# 1 99.9902 16.0320 51.5495 21.4351 -17.6757 12.0879
# 2 16.0320 78.6312 22.9516 -3.1139 -3.5978 -3.3460
# 3 51.5495 22.9516 133.5865 10.6969 5.5436 2.6491
# 4 21.4351 -3.1139 10.6969 49.8953 11.4524 3.1012
# 5 -17.6757 -3.5978 5.5436 11.4524 28.6445 4.5415
# 6 12.0879 -3.3460 2.6491 3.1012 4.5415 34.2382
#
#
#
# Elastic Compliance Matrix: (Units=1/GPa)
#
#
# Indices 1 2 3 4 5 6 
#
# 1 0.021633 -0.002060 -0.007720 -0.011985 0.020790 -0.008914
# 2 -0.002060 0.013809 -0.001770 0.002079 -0.000354 0.002072
# 3 -0.007720 -0.001770 0.010858 0.002684 -0.008574 0.002607
# 4 -0.011985 0.002079 0.002684 0.029059 -0.019944 0.004240
# 5 0.020790 -0.000354 -0.008574 -0.019944 0.059354 -0.012777
# 6 -0.008914 0.002072 0.002607 0.004240 -0.012777 0.033666
#
#
# Mechanical properties :
#
#
# Convention : Reuss Voigt Hill
#
# Bulk Modulus (GPa) = 43.10568 54.80825 48.95696
# Shear Modulus (GPa) = 25.09858 37.33393 31.21625
#
# Velocity S-wave (km/s) = 3.16316 3.85788 3.52766
# Velocity P-wave (km/s) = 5.52494 6.45706 6.00910
#
# Compressibility (1/GPa) = 0.02319880
#
# Stress axis : x y z
#
# Youngs Moduli (GPa) = 46.22474 72.41816 92.09481
#
# Poissons Ratio (x) = 0.14918 0.71101
# Poissons Ratio (y) = 0.09522 0.16305
# Poissons Ratio (z) = 0.35688 0.12821
#
# Static dielectric constant tensor:
#      x y z
#    x 4.194530 -0.140720 -0.225130 
#    y -0.140720 4.568390 -0.150820 
#    z -0.225130 -0.150820 5.167540 
# 
# 
# High freq. dielectric constant tensor:
#      x y z
#    x 1.982620 -0.012930 -0.007450 
#    y -0.012930 2.004180 -0.009210 
#    z -0.007450 -0.009210 2.032060 
# 
# From -- ./inp_files/371040.got.cif
#   From: 2010.06.25/outbox.cif.g09.slc.cpg/sg2_186_cif.got.tgz:371040.got - 2010.06.27 13:26:56.
