data_PCOD8015198
_publ_section_title
;
Structure prediction by ZEFSAII (Michael W. Deem and Ramdas Pophale) SiO2 
 PCOD8015198
Probable space group: P -1
;
_chemical_formula_sum "Si O2"
_cell_formula_units_Z 16
_cell_length_a 9.316624
_cell_length_b 11.892017
_cell_length_c 9.363420
_cell_angle_alpha 46.819150
_cell_angle_beta 76.476279
_cell_angle_gamma 78.625231
_cell_volume 734.485573
_symmetry_space_group_name_H-M "P -1"
_symmetry_group_IT_number 2
_symmetry_cell_setting 'triclinic'
loop_
_space_group_symop_operation_xyz
x,y,z
-x,-y,-z
loop_
_atom_site_type_symbol
_atom_site_label
_atom_site_fract_x
_atom_site_fract_y
_atom_site_fract_z
Si Si1 0.461340 0.768740 0.134905
Si Si2 0.457144 0.154655 0.458881
Si Si3 0.988169 0.669464 0.923739
Si Si4 0.204939 0.598880 0.450642
Si Si5 0.316738 0.094833 0.832728
Si Si6 0.737591 0.328194 0.302245
Si Si7 0.050672 0.294755 0.770993
Si Si8 0.668076 0.667892 0.924086
O O1 0.365838 0.623468 0.324482
O O2 0.585325 0.784908 0.211213
O O3 0.538903 0.741410 0.989355
O O4 0.352911 0.920666 0.024768
O O5 0.341783 0.114828 0.641855
O O6 0.606928 0.212501 0.443474
O O7 0.376994 0.286884 0.265195
O O8 0.500000 0.000000 0.500000
O O9 0.824373 0.742716 0.861896
O O10 0.123938 0.755377 0.744474
O O11 0.013310 0.670171 0.086995
O O12 0.000000 0.500000 0.000000
O O13 0.204671 0.631840 0.589864
O O14 0.163245 0.424132 0.584581
O O15 0.084085 0.712269 0.301658
O O16 0.145023 0.132491 0.879169
O O17 0.679948 0.483438 0.098053
#
# Coordination Sequence:
#
# PCOD8015198 Si02
#       8
#     2   2   2   2   2   2   2   2
#     4  11  23  43  68  94 133 176 218 275 328 386
#     4  12  26  44  66  99 134 172 224 275 329 394
#     4  10  21  42  66  95 140 169 214 269 332 387
#     4  11  24  41  68 101 133 170 224 271 324 390
#     4  11  24  43  68  93 136 177 222 272 326 387
#     4  11  24  44  66  99 132 176 217 274 332 395
#     4  11  24  41  69 101 134 174 219 271 327 391
#     4  11  23  42  69  98 129 175 216 274 333 388
#
# _framework density 21.783953
#
# number of rings (size 3 to 8) (size 9 to 14) (size 15 to 20)
#    0.000    1.000    6.250    0.375    5.250    2.500 
#    0.000    0.625    0.000    0.000    0.000    0.000 
#    0.000    0.000    0.000    0.000    0.000    0.000 
#
# Total GULP energy -198440.208817 kJ/mol
# GULP energy per Si atom -12402.513051 kJ/mol
# Density = 2.173437 g / cm^3
# Si number density = 21.783953 Si / 1000 Ang^3
#
#
#
# Elastic Constant Matrix: (Units=GPa)
#
#
# Indices 1 2 3 4 5 6 
#
# 1 77.2961 7.3073 18.2812 -1.5342 6.2789 -8.7699
# 2 7.3073 54.2902 8.0798 11.9552 3.4914 -10.5176
# 3 18.2812 8.0798 66.3980 27.7409 9.6560 -1.4999
# 4 -1.5342 11.9552 27.7409 30.1513 2.3457 -1.6305
# 5 6.2789 3.4914 9.6560 2.3457 36.0806 2.4763
# 6 -8.7699 -10.5176 -1.4999 -1.6305 2.4763 37.7754
#
#
#
# Elastic Compliance Matrix: (Units=1/GPa)
#
#
# Indices 1 2 3 4 5 6 
#
# 1 0.015536 -0.002223 -0.007407 0.008758 -0.001292 0.003157
# 2 -0.002223 0.021898 0.003037 -0.011129 -0.002189 0.005365
# 3 -0.007407 0.003037 0.029157 -0.028055 -0.004943 -0.000603
# 4 0.008758 -0.011129 -0.028055 0.063632 0.002898 0.000377
# 5 -0.001292 -0.002189 -0.004943 0.002898 0.029487 -0.002914
# 6 0.003157 0.005365 -0.000603 0.000377 -0.002914 0.028882
#
#
# Mechanical properties :
#
#
# Convention : Reuss Voigt Hill
#
# Bulk Modulus (GPa) = 18.72489 29.48010 24.10250
# Shear Modulus (GPa) = 22.77090 31.75584 27.26337
#
# Velocity S-wave (km/s) = 3.23663 3.82221 3.54154
# Velocity P-wave (km/s) = 4.75206 5.74816 5.27368
#
# Compressibility (1/GPa) = 0.05340484
#
# Stress axis : x y z
#
# Youngs Moduli (GPa) = 64.36607 45.66716 34.29720
#
# Poissons Ratio (x) = 0.10150 0.25403
# Poissons Ratio (y) = 0.14307 -0.10415
# Poissons Ratio (z) = 0.47675 -0.13867
#
# Static dielectric constant tensor:
#      x y z
#    x 4.368170 -0.141540 -0.091070 
#    y -0.141540 3.758010 0.161040 
#    z -0.091070 0.161040 3.929940 
# 
# 
# High freq. dielectric constant tensor:
#      x y z
#    x 1.868590 -0.005480 0.002220 
#    y -0.005480 1.843470 0.017420 
#    z 0.002220 0.017420 1.853310 
# 
# From -- ./inp_files/184079.got.cif
#   From: 2010.06.25/outbox.cif.g09.slc.cpg/sg2_93_cif.got.tgz:184079.got - 2010.06.27 13:26:56.
