data_PCOD8015238
_publ_section_title
;
Structure prediction by ZEFSAII (Michael W. Deem and Ramdas Pophale) SiO2 
 PCOD8015238
Probable space group: P -1
;
_chemical_formula_sum "Si O2"
_cell_formula_units_Z 14
_cell_length_a 7.403537
_cell_length_b 7.641185
_cell_length_c 11.688621
_cell_angle_alpha 110.954305
_cell_angle_beta 87.531673
_cell_angle_gamma 114.993782
_cell_volume 555.109413
_symmetry_space_group_name_H-M "P -1"
_symmetry_group_IT_number 2
_symmetry_cell_setting 'triclinic'
loop_
_space_group_symop_operation_xyz
x,y,z
-x,-y,-z
loop_
_atom_site_type_symbol
_atom_site_label
_atom_site_fract_x
_atom_site_fract_y
_atom_site_fract_z
Si Si1 0.567026 0.678455 0.251296
Si Si2 0.380946 0.187134 0.149095
Si Si3 0.311451 0.006016 0.871771
Si Si4 0.959236 0.317293 0.355731
Si Si5 0.055678 0.265023 0.604129
Si Si6 0.748247 0.889758 0.622274
Si Si7 0.660702 0.322304 0.535196
O O1 0.459841 0.431288 0.181728
O O2 0.568125 0.782953 0.154178
O O3 0.787915 0.751634 0.314211
O O4 0.445224 0.763946 0.360419
O O5 0.227458 0.106521 0.240716
O O6 0.564198 0.128774 0.153672
O O7 0.260107 0.065369 0.011255
O O8 0.104779 0.866659 0.777178
O O9 0.901274 0.494993 0.348896
O O10 0.824746 0.243286 0.462897
O O11 0.204530 0.426150 0.394362
O O12 0.089318 0.178718 0.457790
O O13 0.829026 0.127567 0.628692
O O14 0.516554 0.734535 0.565434
#
# Coordination Sequence:
#
# PCOD8015238 Si02
#       7
#     2   2   2   2   2   2   2
#     4  11  23  44  68  99 130 178 221 276 327 396
#     4  11  23  46  68  94 138 177 222 272 321 399
#     4  11  25  42  69  99 132 180 222 269 328 393
#     4  11  22  41  62 105 137 171 218 281 327 402
#     4  10  22  39  69  98 140 168 221 276 338 388
#     4  10  21  42  67 102 130 184 213 272 340 391
#     4  10  23  37  70  98 138 170 219 279 339 384
#
# _framework density 25.220253
#
# number of rings (size 3 to 8) (size 9 to 14) (size 15 to 20)
#    0.000    1.429    2.857    1.286    2.000   11.429 
#    0.000    5.000    0.000    0.000    0.000    0.000 
#    0.000    0.000    0.000    0.000    0.000    0.000 
#
# Total GULP energy -173500.987220 kJ/mol
# GULP energy per Si atom -12392.927659 kJ/mol
# Density = 2.516285 g / cm^3
# Si number density = 25.220253 Si / 1000 Ang^3
#
#
#
# Elastic Constant Matrix: (Units=GPa)
#
#
# Indices 1 2 3 4 5 6 
#
# 1 119.7948 19.1169 37.9129 -3.2608 -4.3877 26.2662
# 2 19.1169 105.5306 67.9633 -16.2477 14.6850 27.8513
# 3 37.9129 67.9633 205.9031 -13.7457 18.6781 18.9904
# 4 -3.2608 -16.2477 -13.7457 42.6200 0.9135 5.7998
# 5 -4.3877 14.6850 18.6781 0.9135 26.5188 5.8250
# 6 26.2662 27.8513 18.9904 5.7998 5.8250 39.0775
#
#
#
# Elastic Compliance Matrix: (Units=1/GPa)
#
#
# Indices 1 2 3 4 5 6 
#
# 1 0.010692 0.000981 -0.001844 0.001576 0.004194 -0.007849
# 2 0.000981 0.016066 -0.003697 0.006547 -0.004008 -0.010687
# 3 -0.001844 -0.003697 0.006644 0.000518 -0.003184 0.001043
# 4 0.001576 0.006547 0.000518 0.027621 -0.002552 -0.009697
# 5 0.004194 -0.004008 -0.003184 -0.002552 0.043961 -0.004589
# 6 -0.007849 -0.010687 0.001043 -0.009697 -0.004589 0.040099
#
#
# Mechanical properties :
#
#
# Convention : Reuss Voigt Hill
#
# Bulk Modulus (GPa) = 41.18388 75.69052 58.43720
# Shear Modulus (GPa) = 30.80775 42.05894 36.43334
#
# Velocity S-wave (km/s) = 3.49886 4.08814 3.80492
# Velocity P-wave (km/s) = 5.71732 7.23607 6.52106
#
# Compressibility (1/GPa) = 0.02428135
#
# Stress axis : x y z
#
# Youngs Moduli (GPa) = 93.52703 62.24498 150.51813
#
# Poissons Ratio (x) = -0.06106 0.27755
# Poissons Ratio (y) = -0.09175 0.55648
# Poissons Ratio (z) = 0.17246 0.23012
#
# Static dielectric constant tensor:
#      x y z
#    x 4.593130 -0.034520 0.039450 
#    y -0.034520 4.734990 -0.044080 
#    z 0.039450 -0.044080 4.643850 
# 
# 
# High freq. dielectric constant tensor:
#      x y z
#    x 2.030280 -0.013290 0.003650 
#    y -0.013290 2.030980 -0.004690 
#    z 0.003650 -0.004690 1.989850 
# 
# From -- ./inp_files/383190.got.cif
#   From: 2010.06.25/outbox.cif.g09.slc.cpg/sg2_192_cif.got.tgz:383190.got - 2010.06.27 13:26:56.
