data_PCOD8015237
_publ_section_title
;
Structure prediction by ZEFSAII (Michael W. Deem and Ramdas Pophale) SiO2 
 PCOD8015237
Probable space group: P -1
;
_chemical_formula_sum "Si O2"
_cell_formula_units_Z 16
_cell_length_a 9.691192
_cell_length_b 18.306377
_cell_length_c 21.042260
_cell_angle_alpha 19.340512
_cell_angle_beta 139.984441
_cell_angle_gamma 142.674644
_cell_volume 747.395191
_symmetry_space_group_name_H-M "P -1"
_symmetry_group_IT_number 2
_symmetry_cell_setting 'triclinic'
loop_
_space_group_symop_operation_xyz
x,y,z
-x,-y,-z
loop_
_atom_site_type_symbol
_atom_site_label
_atom_site_fract_x
_atom_site_fract_y
_atom_site_fract_z
Si Si1 0.495960 0.904536 0.451120
Si Si2 0.051570 0.753749 0.631959
Si Si3 0.871682 0.439741 0.314581
Si Si4 0.455288 0.288727 0.029297
Si Si5 0.362443 0.616091 0.400433
Si Si6 0.074960 0.425382 0.022217
Si Si7 0.396240 0.856875 0.930912
Si Si8 0.441818 0.410085 0.378690
O O1 0.305106 0.799034 0.523567
O O2 0.479050 0.697026 0.566635
O O3 0.747162 0.993240 0.500443
O O4 0.437894 0.117611 0.223102
O O5 0.075162 0.607031 0.699983
O O6 0.798510 0.772776 0.528785
O O7 0.070656 0.620154 0.811327
O O8 0.097473 0.520444 0.369801
O O9 0.776489 0.656184 0.104266
O O10 0.506145 0.161531 0.089365
O O11 0.657011 0.545908 0.900860
O O12 0.500000 0.500000 0.500000
O O13 0.377189 0.553511 0.530839
O O14 0.465552 0.893650 0.195779
O O15 0.878764 0.176576 0.140010
O O16 0.000000 0.500000 0.000000
O O17 0.426587 0.660838 0.149413
#
# Coordination Sequence:
#
# PCOD8015237 Si02
#       8
#     2   2   2   2   2   2   2   2
#     4  11  23  42  71 103 131 173 222 272 339 395
#     4  10  22  42  68 101 140 171 214 280 336 393
#     4  12  26  44  63 100 141 176 222 272 335 392
#     4  10  21  42  67 101 135 169 217 273 336 397
#     4  12  27  47  66  93 134 179 232 272 325 399
#     4   8  18  37  68 101 128 165 220 265 328 396
#     4  10  21  43  70  97 128 174 222 279 326 385
#     4  11  22  45  72  99 128 175 231 270 326 400
#
# _framework density 21.407682999999999
#
# number of rings (size 3 to 8) (size 9 to 14) (size 15 to 20)
#    0.000    1.500    3.750    0.750    0.000    5.500 
#    6.750    0.000    0.000    0.000    0.000    0.000 
#    0.000    0.000    0.000    0.000    0.000    0.000 
#
# Total GULP energy -198344.730352 kJ/mol
# GULP energy per Si atom -12396.545647 kJ/mol
# Density = 2.135896 g / cm^3
# Si number density = 21.407683 Si / 1000 Ang^3
#
#
#
# Elastic Constant Matrix: (Units=GPa)
#
#
# Indices 1 2 3 4 5 6 
#
# 1 81.1923 33.8064 16.4970 5.3875 -3.6362 3.3524
# 2 33.8064 123.7442 27.2671 6.4638 -6.8512 0.9528
# 3 16.4970 27.2671 55.5639 -2.5136 -13.8169 2.8724
# 4 5.3875 6.4638 -2.5136 31.1447 9.3575 1.6250
# 5 -3.6362 -6.8512 -13.8169 9.3575 29.3362 -3.0606
# 6 3.3524 0.9528 2.8724 1.6250 -3.0606 34.8625
#
#
#
# Elastic Compliance Matrix: (Units=1/GPa)
#
#
# Indices 1 2 3 4 5 6 
#
# 1 0.014386 -0.003209 -0.002654 -0.002093 0.000352 -0.000948
# 2 -0.003209 0.009958 -0.003847 -0.002102 0.000841 0.000525
# 3 -0.002654 -0.003847 0.023079 0.000314 0.009467 -0.000725
# 4 -0.002093 -0.002102 0.000314 0.036862 -0.012631 -0.002594
# 5 0.000352 0.000841 0.009467 -0.012631 0.043185 0.003543
# 6 -0.000948 0.000525 -0.000725 -0.002594 0.003543 0.029253
#
#
# Mechanical properties :
#
#
# Convention : Reuss Voigt Hill
#
# Bulk Modulus (GPa) = 35.71216 46.18237 40.94727
# Shear Modulus (GPa) = 26.95740 31.26399 29.11069
#
# Velocity S-wave (km/s) = 3.55243 3.82568 3.69158
# Velocity P-wave (km/s) = 5.79176 6.41358 6.11059
#
# Compressibility (1/GPa) = 0.02800167
#
# Stress axis : x y z
#
# Youngs Moduli (GPa) = 69.51312 100.42257 43.32952
#
# Poissons Ratio (x) = 0.32227 0.11502
# Poissons Ratio (y) = 0.22307 0.16669
# Poissons Ratio (z) = 0.18452 0.38632
#
# Static dielectric constant tensor:
#      x y z
#    x 3.868620 0.200150 -0.197610 
#    y 0.200150 4.255400 0.142690 
#    z -0.197610 0.142690 3.722740 
# 
# 
# High freq. dielectric constant tensor:
#      x y z
#    x 1.840110 0.002730 -0.018460 
#    y 0.002730 1.845920 0.009910 
#    z -0.018460 0.009910 1.836810 
# 
# From -- ./inp_files/399967.got.cif
#   From: 2010.06.25/outbox.cif.g09.slc.cpg/sg2_200_cif.got.tgz:399967.got - 2010.06.27 13:26:56.
