data_PCOD8015482
_publ_section_title
;
Structure prediction by ZEFSAII (Michael W. Deem and Ramdas Pophale) SiO2 
 PCOD8015482
Probable space group: P -1
;
_chemical_formula_sum "Si O2"
_cell_formula_units_Z 16
_cell_length_a 10.987230
_cell_length_b 15.903643
_cell_length_c 14.465128
_cell_angle_alpha 28.881980
_cell_angle_beta 137.333167
_cell_angle_gamma 119.300932
_cell_volume 729.521899
_symmetry_space_group_name_H-M "P -1"
_symmetry_group_IT_number 2
_symmetry_cell_setting 'triclinic'
loop_
_space_group_symop_operation_xyz
x,y,z
-x,-y,-z
loop_
_atom_site_type_symbol
_atom_site_label
_atom_site_fract_x
_atom_site_fract_y
_atom_site_fract_z
Si Si1 0.803322 0.508241 0.335680
Si Si2 0.333506 0.026992 0.808038
Si Si3 0.046101 0.648969 0.785468
Si Si4 0.514318 0.945155 0.798111
Si Si5 0.787466 0.161367 0.763829
Si Si6 0.096807 0.233774 0.219610
Si Si7 0.739812 0.349070 0.276214
Si Si8 0.955801 0.079546 0.134337
O O1 0.722376 0.372529 0.475091
O O2 0.847798 0.436323 0.322829
O O3 0.000000 0.500000 0.500000
O O4 0.643092 0.736385 0.022987
O O5 0.458518 0.900889 0.911377
O O6 0.188719 0.254037 0.476383
O O7 0.177669 0.960940 0.826255
O O8 0.500000 0.000000 0.000000
O O9 0.195231 0.669999 0.775529
O O10 0.042833 0.756749 0.777975
O O11 0.134951 0.419545 0.072511
O O12 0.623426 0.084209 0.730325
O O13 0.316337 0.044075 0.528639
O O14 0.818564 0.184082 0.868301
O O15 0.000000 0.000000 0.000000
O O16 0.004082 0.235227 0.066014
O O17 0.500000 0.500000 0.000000
O O18 0.831506 0.118965 0.581777
#
# Coordination Sequence:
#
# PCOD8015482 Si02
#       8
#     2   2   2   2   2   2   2   2
#     4  12  26  43  66  98 139 182 224 275 336 399
#     4  10  21  42  69  96 136 173 219 283 336 394
#     4   9  23  42  67  92 139 168 219 272 348 386
#     4  11  24  45  68  99 137 180 225 276 342 401
#     4  12  24  44  67  97 139 179 223 277 333 399
#     4  10  23  44  69  98 130 174 221 288 331 402
#     4  11  24  41  65  96 130 178 221 270 331 402
#     4  11  23  43  69  97 134 171 226 279 337 393
#
# _framework density 21.932172000000001
#
# number of rings (size 3 to 8) (size 9 to 14) (size 15 to 20)
#    0.000    1.250    3.750    0.750    5.250    5.500 
#    4.500    3.125    0.000    0.000    0.000    0.000 
#    0.000    0.000    0.000    0.000    0.000    0.000 
#
# Total GULP energy -198254.666582 kJ/mol
# GULP energy per Si atom -12390.916661 kJ/mol
# Density = 2.188225 g / cm^3
# Si number density = 21.932172 Si / 1000 Ang^3
#
#
#
# Elastic Constant Matrix: (Units=GPa)
#
#
# Indices 1 2 3 4 5 6 
#
# 1 73.6391 20.4660 4.0907 -4.9580 0.8149 -3.3684
# 2 20.4660 111.4582 13.0948 -6.6462 -1.3787 -14.9334
# 3 4.0907 13.0948 65.5991 -19.2066 -0.6896 -0.1849
# 4 -4.9580 -6.6462 -19.2066 29.4314 -2.3010 -2.4852
# 5 0.8149 -1.3787 -0.6896 -2.3010 35.5059 -0.3710
# 6 -3.3684 -14.9334 -0.1849 -2.4852 -0.3710 30.8843
#
#
#
# Elastic Compliance Matrix: (Units=1/GPa)
#
#
# Indices 1 2 3 4 5 6 
#
# 1 0.014422 -0.002482 0.000183 0.002011 -0.000288 0.000532
# 2 -0.002482 0.010341 -0.001478 0.001406 0.000571 0.004840
# 3 0.000183 -0.001478 0.019146 0.012314 0.001113 0.000424
# 4 0.002011 0.001406 0.012314 0.043292 0.003100 0.004494
# 5 -0.000288 0.000571 0.001113 0.003100 0.028424 0.000842
# 6 0.000532 0.004840 0.000424 0.004494 0.000842 0.035152
#
#
# Mechanical properties :
#
#
# Convention : Reuss Voigt Hill
#
# Bulk Modulus (GPa) = 27.50608 36.22217 31.86412
# Shear Modulus (GPa) = 29.33422 33.36732 31.35077
#
# Velocity S-wave (km/s) = 3.66115 3.90473 3.78490
# Velocity P-wave (km/s) = 5.51731 6.07294 5.80178
#
# Compressibility (1/GPa) = 0.03635560
#
# Stress axis : x y z
#
# Youngs Moduli (GPa) = 69.33691 96.70395 52.22978
#
# Poissons Ratio (x) = 0.24003 -0.00958
# Poissons Ratio (y) = 0.17210 0.07721
# Poissons Ratio (z) = -0.01272 0.14295
#
# Static dielectric constant tensor:
#      x y z
#    x 4.339320 -0.368690 -0.078390 
#    y -0.368690 3.862700 -0.082960 
#    z -0.078390 -0.082960 4.171200 
# 
# 
# High freq. dielectric constant tensor:
#      x y z
#    x 1.860010 -0.022480 0.001000 
#    y -0.022480 1.860240 0.005860 
#    z 0.001000 0.005860 1.870960 
# 
# From -- ./inp_files/398503.got.cif
#   From: 2010.06.25/outbox.cif.g09.slc.cpg/sg2_200_cif.got.tgz:398503.got - 2010.06.27 13:26:56.
