data_PCOD8015028
_publ_section_title
;
Structure prediction by ZEFSAII (Michael W. Deem and Ramdas Pophale) SiO2 
 PCOD8015028
Probable space group: P -1
;
_chemical_formula_sum "Si O2"
_cell_formula_units_Z 16
_cell_length_a 20.707527
_cell_length_b 8.864576
_cell_length_c 8.020674
_cell_angle_alpha 86.000166
_cell_angle_beta 83.982185
_cell_angle_gamma 30.152163
_cell_volume 734.815633
_symmetry_space_group_name_H-M "P -1"
_symmetry_group_IT_number 2
_symmetry_cell_setting 'triclinic'
loop_
_space_group_symop_operation_xyz
x,y,z
-x,-y,-z
loop_
_atom_site_type_symbol
_atom_site_label
_atom_site_fract_x
_atom_site_fract_y
_atom_site_fract_z
Si Si1 0.163233 0.180379 0.166606
Si Si2 0.576360 0.190935 0.197300
Si Si3 0.557877 0.233318 0.831826
Si Si4 0.804679 0.256055 0.314661
Si Si5 0.047575 0.206119 0.944027
Si Si6 0.846267 0.517145 0.240831
Si Si7 0.033101 0.267104 0.451643
Si Si8 0.523238 0.781411 0.458179
O O1 0.144743 0.071812 0.298584
O O2 0.050933 0.534977 0.194862
O O3 0.303174 0.967044 0.173063
O O4 0.131290 0.180888 0.989871
O O5 0.549242 0.424135 0.204816
O O6 0.506796 0.253301 0.366662
O O7 0.729550 0.856405 0.184084
O O8 0.526251 0.229009 0.026169
O O9 0.559837 0.105001 0.691759
O O10 0.793624 0.457654 0.301034
O O11 0.669542 0.457844 0.390532
O O12 0.844909 0.124710 0.128636
O O13 0.915322 0.966119 0.423784
O O14 0.961974 0.286340 0.094434
O O15 0.898336 0.475913 0.403066
O O16 0.000000 0.500000 0.500000
O O17 0.500000 0.000000 0.500000
#
# Coordination Sequence:
#
# PCOD8015028 Si02
#       8
#     2   2   2   2   2   2   2   2
#     4  10  21  42  65 107 132 170 230 293 340 415
#     4  11  25  47  73 105 139 185 241 285 350 414
#     4  11  26  44  78 103 140 190 238 290 350 414
#     4  12  25  45  68  98 140 182 229 283 357 417
#     4  10  22  40  71  98 136 174 227 281 355 410
#     4  11  24  46  67  99 143 177 223 293 349 423
#     4  11  24  38  70 101 131 177 227 284 350 413
#     4  12  28  48  69 105 144 192 234 292 349 417
#
# _framework density 21.774169000000001
#
# number of rings (size 3 to 8) (size 9 to 14) (size 15 to 20)
#    0.000    1.000    3.750    1.875    7.000    0.500 
#    2.250    0.000    0.000    0.000    0.000    0.000 
#    0.000    0.000    0.000    0.000    0.000    0.000 
#
# Total GULP energy -198279.057868 kJ/mol
# GULP energy per Si atom -12392.441117 kJ/mol
# Density = 2.172461 g / cm^3
# Si number density = 21.774169 Si / 1000 Ang^3
#
#
#
# Elastic Constant Matrix: (Units=GPa)
#
#
# Indices 1 2 3 4 5 6 
#
# 1 105.9820 44.4678 58.0295 -0.5018 14.8145 -10.8386
# 2 44.4678 122.2708 50.3909 0.7340 15.8815 -4.6993
# 3 58.0295 50.3909 116.3940 1.4658 1.3177 -16.0360
# 4 -0.5018 0.7340 1.4658 39.2729 -2.7030 -5.0413
# 5 14.8145 15.8815 1.3177 -2.7030 36.9559 4.0300
# 6 -10.8386 -4.6993 -16.0360 -5.0413 4.0300 25.2559
#
#
#
# Elastic Compliance Matrix: (Units=1/GPa)
#
#
# Indices 1 2 3 4 5 6 
#
# 1 0.014547 -0.002106 -0.005875 0.000487 -0.005011 0.003018
# 2 -0.002106 0.010937 -0.003741 -0.000440 -0.003674 -0.000745
# 3 -0.005875 -0.003741 0.013812 0.000343 0.002933 0.005153
# 4 0.000487 -0.000440 0.000343 0.026245 0.001315 0.005374
# 5 -0.005011 -0.003674 0.002933 0.001315 0.031259 -0.005697
# 6 0.003018 -0.000745 0.005153 0.005374 -0.005697 0.046005
#
#
# Mechanical properties :
#
#
# Convention : Reuss Voigt Hill
#
# Bulk Modulus (GPa) = 63.07402 72.26924 67.67163
# Shear Modulus (GPa) = 29.14900 33.08084 31.11492
#
# Velocity S-wave (km/s) = 3.66279 3.90201 3.78429
# Velocity P-wave (km/s) = 6.84969 7.31870 7.08807
#
# Compressibility (1/GPa) = 0.01585439
#
# Stress axis : x y z
#
# Youngs Moduli (GPa) = 68.74315 91.43115 72.39875
#
# Poissons Ratio (x) = 0.19251 0.42531
# Poissons Ratio (y) = 0.14474 0.27084
# Poissons Ratio (z) = 0.40384 0.34204
#
# Static dielectric constant tensor:
#      x y z
#    x 4.018190 -0.172230 -0.385530 
#    y -0.172230 4.041290 0.190680 
#    z -0.385530 0.190680 4.833200 
# 
# 
# High freq. dielectric constant tensor:
#      x y z
#    x 1.845440 -0.006050 -0.008480 
#    y -0.006050 1.856660 0.003140 
#    z -0.008480 0.003140 1.871540 
# 
# From -- ./inp_files/343603.got.cif
#   From: 2010.06.25/outbox.cif.g09.slc.cpg/sg2_172_cif.got.tgz:343603.got - 2010.06.27 13:26:56.
