data_PCOD8015106
_publ_section_title
;
Structure prediction by ZEFSAII (Michael W. Deem and Ramdas Pophale) SiO2 
 PCOD8015106
Probable space group: P -1
;
_chemical_formula_sum "Si O2"
_cell_formula_units_Z 14
_cell_length_a 14.305942
_cell_length_b 15.526438
_cell_length_c 10.104234
_cell_angle_alpha 34.381707
_cell_angle_beta 145.179868
_cell_angle_gamma 151.151625
_cell_volume 570.521409
_symmetry_space_group_name_H-M "P -1"
_symmetry_group_IT_number 2
_symmetry_cell_setting 'triclinic'
loop_
_space_group_symop_operation_xyz
x,y,z
-x,-y,-z
loop_
_atom_site_type_symbol
_atom_site_label
_atom_site_fract_x
_atom_site_fract_y
_atom_site_fract_z
Si Si1 0.652049 0.695638 0.766131
Si Si2 0.002049 0.618906 0.972966
Si Si3 0.744267 0.250049 0.314749
Si Si4 0.520265 0.719961 0.842221
Si Si5 0.329329 0.970568 0.053260
Si Si6 0.900739 0.105213 0.866040
Si Si7 0.693848 0.713174 0.493329
O O1 0.503092 0.709201 0.674346
O O2 0.671375 0.765310 0.551098
O O3 0.557380 0.474410 0.929300
O O4 0.869983 0.819398 0.937028
O O5 0.894276 0.721006 0.691587
O O6 0.241470 0.801072 0.055696
O O7 0.879115 0.466943 0.141648
O O8 0.000000 0.500000 0.000000
O O9 0.617597 0.222553 0.334504
O O10 0.896224 0.204490 0.600041
O O11 0.576951 0.090436 0.214326
O O12 0.757942 0.875863 0.966365
O O13 0.289567 0.126645 0.778148
O O14 0.187292 0.851269 0.166324
O O15 0.500000 0.500000 0.500000
#
# Coordination Sequence:
#
# PCOD8015106 Si02
#       7
#     2   2   2   2   2   2   2
#     4  11  23  41  68 100 132 177 224 281 340 398
#     4  12  27  48  69 105 138 185 236 280 343 413
#     4  11  24  48  67  99 142 175 224 286 347 406
#     4  10  21  42  66 100 132 172 227 274 340 405
#     4  11  23  45  79  95 140 188 226 281 354 399
#     4  11  23  43  71  98 139 175 226 278 347 407
#     4  12  23  50  72  99 144 182 232 287 336 414
#
# _framework density 24.538958000000001
#
# number of rings (size 3 to 8) (size 9 to 14) (size 15 to 20)
#    0.000    0.857    4.286    3.429    0.000    5.143 
#   15.429    0.000    0.000    0.000    0.000    0.000 
#    0.000    0.000    0.000    0.000    0.000    0.000 
#
# Total GULP energy -173527.001118 kJ/mol
# GULP energy per Si atom -12394.785794 kJ/mol
# Density = 2.448311 g / cm^3
# Si number density = 24.538958 Si / 1000 Ang^3
#
#
#
# Elastic Constant Matrix: (Units=GPa)
#
#
# Indices 1 2 3 4 5 6 
#
# 1 88.2411 10.6724 6.2858 8.6116 -22.9965 -17.1602
# 2 10.6724 178.9360 46.5197 5.2112 6.1072 -16.9672
# 3 6.2858 46.5197 116.0356 10.2136 -10.2851 -1.9335
# 4 8.6116 5.2112 10.2136 34.2411 -0.4551 -5.8966
# 5 -22.9965 6.1072 -10.2851 -0.4551 19.3101 -0.8987
# 6 -17.1602 -16.9672 -1.9335 -5.8966 -0.8987 42.5758
#
#
#
# Elastic Compliance Matrix: (Units=1/GPa)
#
#
# Indices 1 2 3 4 5 6 
#
# 1 0.019961 -0.001894 0.002437 -0.003837 0.025923 0.007417
# 2 -0.001894 0.006899 -0.003224 0.000617 -0.006057 0.001797
# 3 0.002437 -0.003224 0.010921 -0.003261 0.009660 -0.000055
# 4 -0.003837 0.000617 -0.003261 0.031454 -0.005630 0.002789
# 5 0.025923 -0.006057 0.009660 -0.005630 0.090032 0.009594
# 6 0.007417 0.001797 -0.000055 0.002789 0.009594 0.027779
#
#
# Mechanical properties :
#
#
# Convention : Reuss Voigt Hill
#
# Bulk Modulus (GPa) = 30.84703 56.68537 43.76620
# Shear Modulus (GPa) = 24.60452 40.54107 32.57279
#
# Velocity S-wave (km/s) = 3.16993 4.06903 3.64729
# Velocity P-wave (km/s) = 5.09862 6.72505 5.96750
#
# Compressibility (1/GPa) = 0.03241803
#
# Stress axis : x y z
#
# Youngs Moduli (GPa) = 50.09877 144.94834 91.56624
#
# Poissons Ratio (x) = 0.27451 -0.22315
# Poissons Ratio (y) = 0.09488 0.29525
# Poissons Ratio (z) = -0.12209 0.46739
#
# Static dielectric constant tensor:
#      x y z
#    x 4.454220 0.002800 -0.188350 
#    y 0.002800 4.714000 0.146260 
#    z -0.188350 0.146260 4.330900 
# 
# 
# High freq. dielectric constant tensor:
#      x y z
#    x 1.965170 -0.006020 -0.013790 
#    y -0.006020 1.997470 -0.001660 
#    z -0.013790 -0.001660 1.964150 
# 
# From -- ./inp_files/314528.got.cif
#   From: 2010.06.25/outbox.cif.g09.slc.cpg/sg2_158_cif.got.tgz:314528.got - 2010.06.27 13:26:56.
