data_PCOD8015880
_publ_section_title
;
Structure prediction by ZEFSAII (Michael W. Deem and Ramdas Pophale) SiO2 
 PCOD8015880
Probable space group: P -1
;
_chemical_formula_sum "Si O2"
_cell_formula_units_Z 16
_cell_length_a 10.941250
_cell_length_b 11.341918
_cell_length_c 10.848729
_cell_angle_alpha 80.933205
_cell_angle_beta 106.638575
_cell_angle_gamma 38.727680
_cell_volume 623.045026
_symmetry_space_group_name_H-M "P -1"
_symmetry_group_IT_number 2
_symmetry_cell_setting 'triclinic'
loop_
_space_group_symop_operation_xyz
x,y,z
-x,-y,-z
loop_
_atom_site_type_symbol
_atom_site_label
_atom_site_fract_x
_atom_site_fract_y
_atom_site_fract_z
Si Si1 0.202378 0.595706 0.556377
Si Si2 0.743129 0.698765 0.318422
Si Si3 0.207566 0.168310 0.184385
Si Si4 0.303060 0.943537 0.810707
Si Si5 0.939024 0.146412 0.856009
Si Si6 0.595436 0.321493 0.313911
Si Si7 0.702914 0.151300 0.624917
Si Si8 0.810663 0.671629 0.071957
O O1 0.275825 0.427461 0.699037
O O2 0.250378 0.678827 0.630864
O O3 0.401811 0.415906 0.530326
O O4 0.913049 0.815055 0.378294
O O5 0.740669 0.771704 0.174398
O O6 0.000000 0.500000 0.500000
O O7 0.519898 0.929165 0.308060
O O8 0.064548 0.377806 0.199687
O O9 0.152274 0.078705 0.228941
O O10 0.114228 0.273676 0.998704
O O11 0.363904 0.765756 0.794919
O O12 0.193469 0.012718 0.907075
O O13 0.568868 0.801499 0.916112
O O14 0.713377 0.414394 0.799090
O O15 0.849199 0.153268 0.703963
O O16 0.000000 0.000000 0.000000
O O17 0.711816 0.135035 0.481686
#
# Coordination Sequence:
#
# PCOD8015880 Si02
#       8
#     2   2   2   2   2   2   2   2
#     4  10  21  43  67 102 139 175 232 288 333 414
#     4  11  25  47  75 101 128 186 236 286 351 405
#     4  10  25  49  68  99 141 182 227 291 351 403
#     4  12  25  41  71 102 140 185 229 280 350 414
#     4  11  25  42  66 101 146 182 230 285 346 417
#     4  11  23  43  67 104 141 187 228 281 350 406
#     4  10  21  45  70  95 137 189 231 284 348 400
#     4  11  27  47  68 103 143 178 235 289 345 417
#
# _framework density 25.680326999999998
#
# number of rings (size 3 to 8) (size 9 to 14) (size 15 to 20)
#    0.000    1.250    2.500    2.250    8.750    1.000 
#    9.000    0.000    0.000    0.000    0.000    0.000 
#    0.000    0.000    0.000    0.000    0.000    0.000 
#
# Total GULP energy -198330.446918 kJ/mol
# GULP energy per Si atom -12395.652932 kJ/mol
# Density = 2.562188 g / cm^3
# Si number density = 25.680327 Si / 1000 Ang^3
#
#
#
# Elastic Constant Matrix: (Units=GPa)
#
#
# Indices 1 2 3 4 5 6 
#
# 1 75.4924 19.5738 31.7565 -16.4581 -25.2791 -8.8299
# 2 19.5738 106.5003 37.0341 -23.1787 6.6169 -8.0331
# 3 31.7565 37.0341 91.8498 -14.0566 -0.8063 4.0365
# 4 -16.4581 -23.1787 -14.0566 41.4232 2.6273 -6.6439
# 5 -25.2791 6.6169 -0.8063 2.6273 44.3648 -5.3822
# 6 -8.8299 -8.0331 4.0365 -6.6439 -5.3822 32.9344
#
#
#
# Elastic Compliance Matrix: (Units=1/GPa)
#
#
# Indices 1 2 3 4 5 6 
#
# 1 0.024493 -0.000198 -0.007544 0.007962 0.014768 0.011463
# 2 -0.000198 0.012805 -0.004322 0.006479 -0.001928 0.004592
# 3 -0.007544 -0.004322 0.015321 -0.000890 -0.004025 -0.005792
# 4 0.007962 0.006479 -0.000890 0.032172 0.002959 0.010798
# 5 0.014768 -0.001928 -0.004025 0.002959 0.032188 0.009840
# 6 0.011463 0.004592 -0.005792 0.010798 0.009840 0.039053
#
#
# Mechanical properties :
#
#
# Convention : Reuss Voigt Hill
#
# Bulk Modulus (GPa) = 35.09855 50.06347 42.58101
# Shear Modulus (GPa) = 26.36352 36.10968 31.23660
#
# Velocity S-wave (km/s) = 3.20754 3.75390 3.49142
# Velocity P-wave (km/s) = 5.23593 6.19082 5.73329
#
# Compressibility (1/GPa) = 0.02849121
#
# Stress axis : x y z
#
# Youngs Moduli (GPa) = 40.82844 78.09418 65.26946
#
# Poissons Ratio (x) = 0.01548 0.49238
# Poissons Ratio (y) = 0.00809 0.28208
# Poissons Ratio (z) = 0.30800 0.33750
#
# Static dielectric constant tensor:
#      x y z
#    x 5.228730 0.189440 -0.319340 
#    y 0.189440 4.732900 -0.444840 
#    z -0.319340 -0.444840 4.627390 
# 
# 
# High freq. dielectric constant tensor:
#      x y z
#    x 2.032200 -0.004090 -0.012840 
#    y -0.004090 2.030230 -0.025110 
#    z -0.012840 -0.025110 2.018330 
# 
# From -- ./inp_files/428187.got.cif
#   From: 2010.06.25/outbox.cif.g09.slc.cpg/sg2_215_cif.got.tgz:428187.got - 2010.06.27 13:26:56.
