data_PCOD8015828
_publ_section_title
;
Structure prediction by ZEFSAII (Michael W. Deem and Ramdas Pophale) SiO2 
 PCOD8015828
Probable space group: P -1
;
_chemical_formula_sum "Si O2"
_cell_formula_units_Z 12
_cell_length_a 9.715105
_cell_length_b 9.889726
_cell_length_c 16.695145
_cell_angle_alpha 139.250856
_cell_angle_beta 149.722953
_cell_angle_gamma 43.619024
_cell_volume 515.927733
_symmetry_space_group_name_H-M "P -1"
_symmetry_group_IT_number 2
_symmetry_cell_setting 'triclinic'
loop_
_space_group_symop_operation_xyz
x,y,z
-x,-y,-z
loop_
_atom_site_type_symbol
_atom_site_label
_atom_site_fract_x
_atom_site_fract_y
_atom_site_fract_z
Si Si1 0.538484 0.169446 0.660880
Si Si2 0.954154 0.361812 0.491095
Si Si3 0.920650 0.827040 0.978315
Si Si4 0.903095 0.472233 0.211591
Si Si5 0.470356 0.242567 0.956140
Si Si6 0.402067 0.372761 0.155027
O O1 0.252324 0.200974 0.583217
O O2 0.586314 0.381959 0.736976
O O3 0.500000 0.000000 0.500000
O O4 0.806202 0.088888 0.817080
O O5 0.875258 0.491770 0.593224
O O6 0.000000 0.500000 0.500000
O O7 0.693825 0.253391 0.291185
O O8 0.859263 0.650670 0.931153
O O9 0.970757 0.727665 0.870777
O O10 0.651476 0.015353 0.922044
O O11 0.803725 0.687184 0.205748
O O12 0.644318 0.426049 0.112976
O O13 0.376466 0.251835 0.005226
#
# Coordination Sequence:
#
# PCOD8015828 Si02
#       6
#     2   2   2   2   2   2
#     4  11  22  39  70 101 129 176 231 267 321 406
#     4  10  21  43  66  91 132 181 216 271 333 395
#     4  12  25  41  72 105 131 178 225 275 340 392
#     4  11  22  42  67  96 140 172 224 282 322 400
#     4  11  22  42  67  98 135 180 221 269 336 403
#     4  11  23  45  68  98 144 170 222 284 330 392
#
# _framework density 23.259073000000001
#
# number of rings (size 3 to 8) (size 9 to 14) (size 15 to 20)
#    0.000    1.000    5.000    3.500    2.333    0.667 
#    0.000    0.833    0.000    0.000    0.000    0.000 
#    0.000    0.000    0.000    0.000    0.000    0.000 
#
# Total GULP energy -148754.863721 kJ/mol
# GULP energy per Si atom -12396.238643 kJ/mol
# Density = 2.320613 g / cm^3
# Si number density = 23.259073 Si / 1000 Ang^3
#
#
#
# Elastic Constant Matrix: (Units=GPa)
#
#
# Indices 1 2 3 4 5 6 
#
# 1 99.7811 -0.2716 60.3406 -2.6170 -27.7483 -6.7177
# 2 -0.2716 82.8120 29.1442 3.7551 -19.1305 -16.5447
# 3 60.3406 29.1442 128.0527 -12.4302 -37.8833 -9.6248
# 4 -2.6170 3.7551 -12.4302 22.2065 -1.8051 -6.4169
# 5 -27.7483 -19.1305 -37.8833 -1.8051 50.5383 2.4625
# 6 -6.7177 -16.5447 -9.6248 -6.4169 2.4625 32.5676
#
#
#
# Elastic Compliance Matrix: (Units=1/GPa)
#
#
# Indices 1 2 3 4 5 6 
#
# 1 0.015665 0.004187 -0.006840 -0.001523 0.004874 0.002668
# 2 0.004187 0.016125 -0.003748 -0.001831 0.005177 0.007195
# 3 -0.006840 -0.003748 0.014780 0.009299 0.006119 0.002423
# 4 -0.001523 -0.001831 0.009299 0.054298 0.006811 0.011687
# 5 0.004874 0.005177 0.006119 0.006811 0.029029 0.004591
# 6 0.002668 0.007195 0.002423 0.011687 0.004591 0.037583
#
#
# Mechanical properties :
#
#
# Convention : Reuss Voigt Hill
#
# Bulk Modulus (GPa) = 29.61452 54.34136 41.97794
# Shear Modulus (GPa) = 26.10453 35.82465 30.96459
#
# Velocity S-wave (km/s) = 3.35376 3.92885 3.65264
# Velocity P-wave (km/s) = 5.26850 6.63290 5.98968
#
# Compressibility (1/GPa) = 0.03376722
#
# Stress axis : x y z
#
# Youngs Moduli (GPa) = 63.83837 62.01620 67.65742
#
# Poissons Ratio (x) = -0.25963 0.46275
# Poissons Ratio (y) = -0.26726 0.25359
# Poissons Ratio (z) = 0.43663 0.23245
#
# Static dielectric constant tensor:
#      x y z
#    x 4.342740 -0.147530 0.152680 
#    y -0.147530 4.190910 -0.506910 
#    z 0.152680 -0.506910 4.560470 
# 
# 
# High freq. dielectric constant tensor:
#      x y z
#    x 1.916810 -0.011730 -0.016020 
#    y -0.011730 1.907740 -0.019410 
#    z -0.016020 -0.019410 1.915090 
# 
# From -- ./inp_files/148595.got.cif
#   From: 2010.06.25/outbox.cif.g09.slc.cpg/sg2_75_cif.got.tgz:148595.got - 2010.06.27 13:26:56.
