data_PCOD8015034
_publ_section_title
;
Structure prediction by ZEFSAII (Michael W. Deem and Ramdas Pophale) SiO2 
 PCOD8015034
Probable space group: P -1
;
_chemical_formula_sum "Si O2"
_cell_formula_units_Z 16
_cell_length_a 9.101590
_cell_length_b 19.629272
_cell_length_c 9.073303
_cell_angle_alpha 58.469599
_cell_angle_beta 132.759274
_cell_angle_gamma 138.440976
_cell_volume 789.176653
_symmetry_space_group_name_H-M "P -1"
_symmetry_group_IT_number 2
_symmetry_cell_setting 'triclinic'
loop_
_space_group_symop_operation_xyz
x,y,z
-x,-y,-z
loop_
_atom_site_type_symbol
_atom_site_label
_atom_site_fract_x
_atom_site_fract_y
_atom_site_fract_z
Si Si1 0.656856 0.727345 0.325606
Si Si2 0.248440 0.108316 0.992711
Si Si3 0.782474 0.389811 0.036670
Si Si4 0.671828 0.268901 0.668272
Si Si5 0.416103 0.894555 0.002544
Si Si6 0.508619 0.722603 0.780929
Si Si7 0.742446 0.616010 0.996026
Si Si8 0.023946 0.289813 0.233395
O O1 0.812566 0.841233 0.233344
O O2 0.458417 0.695600 0.359889
O O3 0.862343 0.713322 0.532920
O O4 0.486756 0.645716 0.172401
O O5 0.423638 0.086465 0.056219
O O6 0.378305 0.181477 0.141618
O O7 0.000000 0.000000 0.000000
O O8 0.750763 0.380382 0.202891
O O9 0.814320 0.306382 0.098660
O O10 0.000000 0.500000 0.000000
O O11 0.557880 0.157892 0.780533
O O12 0.572089 0.256007 0.449563
O O13 0.985003 0.349645 0.794206
O O14 0.118522 0.817255 0.832622
O O15 0.500000 0.000000 0.000000
O O16 0.707696 0.699421 0.926871
O O17 0.500000 0.500000 0.000000
O O18 0.753308 0.617952 0.822921
#
# Coordination Sequence:
#
# PCOD8015034 Si02
#       8
#     2   2   2   2   2   2   2   2
#     4  10  21  42  65  87 126 167 202 251 310 371
#     4  10  23  42  63  93 128 156 202 262 311 362
#     4  11  23  42  63  89 131 163 202 261 309 361
#     4  10  22  41  64  90 127 161 207 255 304 368
#     4  10  22  43  66  89 122 167 205 248 310 378
#     4  11  23  40  62  96 126 158 206 261 308 355
#     4  11  23  38  64  95 123 164 211 253 302 365
#     4  11  21  42  65  89 125 166 208 247 308 376
#
# _framework density 20.274296
#
# number of rings (size 3 to 8) (size 9 to 14) (size 15 to 20)
#    0.000    1.500    6.250    0.750    3.500    5.000 
#    0.000    3.750    0.000    0.000    0.000    0.000 
#    0.000    0.000    0.000    0.000    0.000    0.000 
#
# Total GULP energy -198237.774568 kJ/mol
# GULP energy per Si atom -12389.860911 kJ/mol
# Density = 2.022815 g / cm^3
# Si number density = 20.274296 Si / 1000 Ang^3
#
#
#
# Elastic Constant Matrix: (Units=GPa)
#
#
# Indices 1 2 3 4 5 6 
#
# 1 85.9694 31.9002 39.5792 -1.3625 -14.9941 8.8615
# 2 31.9002 103.8793 52.3808 1.1269 -3.5025 18.1721
# 3 39.5792 52.3808 147.0772 -4.1683 -12.0095 5.8353
# 4 -1.3625 1.1269 -4.1683 16.5109 5.8766 -6.6646
# 5 -14.9941 -3.5025 -12.0095 5.8766 30.8252 -7.4047
# 6 8.8615 18.1721 5.8353 -6.6646 -7.4047 40.8101
#
#
#
# Elastic Compliance Matrix: (Units=1/GPa)
#
#
# Indices 1 2 3 4 5 6 
#
# 1 0.015010 -0.003004 -0.002487 -0.001660 0.006133 -0.000724
# 2 -0.003004 0.013599 -0.004089 -0.003784 -0.002189 -0.005833
# 3 -0.002487 -0.004089 0.009072 0.002438 0.001826 0.001793
# 4 -0.001660 -0.003784 0.002438 0.069662 -0.010903 0.011095
# 5 0.006133 -0.002189 0.001826 -0.010903 0.039093 0.004695
# 6 -0.000724 -0.005833 0.001793 0.011095 0.004695 0.029666
#
#
# Mechanical properties :
#
#
# Convention : Reuss Voigt Hill
#
# Bulk Modulus (GPa) = 53.99511 64.96071 59.47791
# Shear Modulus (GPa) = 24.82195 31.83360 28.32778
#
# Velocity S-wave (km/s) = 3.50281 3.96681 3.74200
# Velocity P-wave (km/s) = 6.56122 7.28637 6.93328
#
# Compressibility (1/GPa) = 0.01852020
#
# Stress axis : x y z
#
# Youngs Moduli (GPa) = 66.62386 73.53621 110.23143
#
# Poissons Ratio (x) = 0.22089 0.27413
# Poissons Ratio (y) = 0.20013 0.45077
# Poissons Ratio (z) = 0.16568 0.30071
#
# Static dielectric constant tensor:
#      x y z
#    x 3.959400 0.171290 -0.122990 
#    y 0.171290 3.582370 -0.158410 
#    z -0.122990 -0.158410 3.658300 
# 
# 
# High freq. dielectric constant tensor:
#      x y z
#    x 1.803990 0.014090 -0.010170 
#    y 0.014090 1.784390 -0.010560 
#    z -0.010170 -0.010560 1.784530 
# 
# From -- ./inp_files/197688.got.cif
#   From: 2010.06.25/outbox.cif.g09.slc.cpg/sg2_99_cif.got.tgz:197688.got - 2010.06.27 13:26:56.
