data_PCOD8015695
_publ_section_title
;
Structure prediction by ZEFSAII (Michael W. Deem and Ramdas Pophale) SiO2 
 PCOD8015695
Probable space group: P -1
;
_chemical_formula_sum "Si O2"
_cell_formula_units_Z 14
_cell_length_a 16.889312
_cell_length_b 11.803330
_cell_length_c 8.794594
_cell_angle_alpha 102.081979
_cell_angle_beta 144.456028
_cell_angle_gamma 52.728454
_cell_volume 640.974217
_symmetry_space_group_name_H-M "P -1"
_symmetry_group_IT_number 2
_symmetry_cell_setting 'triclinic'
loop_
_space_group_symop_operation_xyz
x,y,z
-x,-y,-z
loop_
_atom_site_type_symbol
_atom_site_label
_atom_site_fract_x
_atom_site_fract_y
_atom_site_fract_z
Si Si1 0.159416 0.515197 0.430890
Si Si2 0.094528 0.308157 0.204007
Si Si3 0.472924 0.910480 0.756517
Si Si4 0.648758 0.590244 0.754040
Si Si5 0.429791 0.701433 0.139981
Si Si6 0.308851 0.991646 0.835798
Si Si7 0.839010 0.333568 0.240205
O O1 0.226431 0.334990 0.477996
O O2 0.350482 0.468439 0.650202
O O3 0.109559 0.594709 0.542825
O O4 0.950976 0.659290 0.038807
O O5 0.235669 0.103631 0.394301
O O6 0.876384 0.451975 0.994224
O O7 0.577682 0.758896 0.756595
O O8 0.442489 0.865539 0.859375
O O9 0.628391 0.918139 0.003736
O O10 0.469232 0.674010 0.375340
O O11 0.666993 0.485445 0.888616
O O12 0.260335 0.711920 0.840045
O O13 0.343452 0.881838 0.999268
O O14 0.058288 0.155241 0.453129
#
# Coordination Sequence:
#
# PCOD8015695 Si02
#       7
#     2   2   2   2   2   2   2
#     4  10  22  39  68  92 127 170 214 259 329 367
#     4  10  21  43  63 101 130 157 213 276 313 385
#     4  11  23  42  69  94 133 158 212 275 326 370
#     4  11  25  41  69  96 125 174 210 262 329 367
#     4  11  24  44  62  92 133 172 217 257 308 389
#     4  11  24  41  65  96 128 165 216 267 317 377
#     4  12  24  42  65  93 132 174 215 257 311 386
#
# _framework density 21.841754000000002
#
# number of rings (size 3 to 8) (size 9 to 14) (size 15 to 20)
#    0.000    1.143    2.857    3.000    4.000    1.714 
#    0.000    0.714    0.000    0.000    0.000    0.000 
#    0.000    0.000    0.000    0.000    0.000    0.000 
#
# Total GULP energy -173592.930285 kJ/mol
# GULP energy per Si atom -12399.495020 kJ/mol
# Density = 2.179204 g / cm^3
# Si number density = 21.841754 Si / 1000 Ang^3
#
#
#
# Elastic Constant Matrix: (Units=GPa)
#
#
# Indices 1 2 3 4 5 6 
#
# 1 92.0757 39.5754 34.6952 0.4590 -13.7466 14.9297
# 2 39.5754 63.4602 38.1690 -8.3091 -0.1724 7.9989
# 3 34.6952 38.1690 86.4659 -6.4198 -8.1832 7.3303
# 4 0.4590 -8.3091 -6.4198 31.4010 -0.8781 0.5890
# 5 -13.7466 -0.1724 -8.1832 -0.8781 41.8130 2.1049
# 6 14.9297 7.9989 7.3303 0.5890 2.1049 27.2083
#
#
#
# Elastic Compliance Matrix: (Units=1/GPa)
#
#
# Indices 1 2 3 4 5 6 
#
# 1 0.017539 -0.009186 -0.002092 -0.002832 0.005598 -0.006731
# 2 -0.009186 0.027263 -0.008309 0.005536 -0.004392 -0.000515
# 3 -0.002092 -0.008309 0.016506 0.001299 0.002590 -0.001085
# 4 -0.002832 0.005536 0.001299 0.033643 0.000111 -0.001161
# 5 0.005598 -0.004392 0.002590 0.000111 0.026476 -0.004529
# 6 -0.006731 -0.000515 -0.001085 -0.001161 -0.004529 0.041266
#
#
# Mechanical properties :
#
#
# Convention : Reuss Voigt Hill
#
# Bulk Modulus (GPa) = 45.18404 51.87567 48.52986
# Shear Modulus (GPa) = 23.89532 28.72194 26.30863
#
# Velocity S-wave (km/s) = 3.31119 3.63023 3.47437
# Velocity P-wave (km/s) = 5.94563 6.43224 6.19371
#
# Compressibility (1/GPa) = 0.02213171
#
# Stress axis : x y z
#
# Youngs Moduli (GPa) = 57.01640 36.68036 60.58269
#
# Poissons Ratio (x) = 0.33696 0.12675
# Poissons Ratio (y) = 0.52378 0.50340
# Poissons Ratio (z) = 0.11929 0.30479
#
# Static dielectric constant tensor:
#      x y z
#    x 3.966020 0.006600 -0.182650 
#    y 0.006600 3.656850 -0.100220 
#    z -0.182650 -0.100220 4.032530 
# 
# 
# High freq. dielectric constant tensor:
#      x y z
#    x 1.863390 0.000570 -0.005310 
#    y 0.000570 1.841500 -0.011740 
#    z -0.005310 -0.011740 1.865680 
# 
# From -- ./inp_files/157196.got.cif
#   From: 2010.06.25/outbox.cif.g09.slc.cpg/sg2_79_cif.got.tgz:157196.got - 2010.06.27 13:26:56.
