data_PCOD8015025
_publ_section_title
;
Structure prediction by ZEFSAII (Michael W. Deem and Ramdas Pophale) SiO2 
 PCOD8015025
Probable space group: P -1
;
_chemical_formula_sum "Si O2"
_cell_formula_units_Z 16
_cell_length_a 17.492108
_cell_length_b 17.497032
_cell_length_c 5.966851
_cell_angle_alpha 119.321133
_cell_angle_beta 110.943383
_cell_angle_gamma 24.308095
_cell_volume 635.042058
_symmetry_space_group_name_H-M "P -1"
_symmetry_group_IT_number 2
_symmetry_cell_setting 'triclinic'
loop_
_space_group_symop_operation_xyz
x,y,z
-x,-y,-z
loop_
_atom_site_type_symbol
_atom_site_label
_atom_site_fract_x
_atom_site_fract_y
_atom_site_fract_z
Si Si1 0.437572 0.466962 0.800275
Si Si2 0.559899 0.813407 0.681022
Si Si3 0.143205 0.465442 0.043938
Si Si4 0.818175 0.054348 0.383497
Si Si5 0.122303 0.839285 0.700647
Si Si6 0.769398 0.798065 0.378859
Si Si7 0.708709 0.997014 0.955268
Si Si8 0.647786 0.600763 0.104452
O O1 0.620942 0.233606 0.574706
O O2 0.294402 0.614641 0.654320
O O3 0.328991 0.523743 0.978125
O O4 0.500000 0.500000 0.000000
O O5 0.726153 0.694717 0.838623
O O6 0.667895 0.631785 0.404224
O O7 0.450656 0.982816 0.631179
O O8 0.392205 0.940349 0.841874
O O9 0.920864 0.685998 0.190401
O O10 0.183105 0.350464 0.734120
O O11 0.200712 0.505566 0.067049
O O12 0.792174 0.166022 0.367271
O O13 0.857199 0.929435 0.093652
O O14 0.996262 0.893186 0.504290
O O15 0.000000 0.000000 0.000000
O O16 0.804788 0.822103 0.673677
O O17 0.564835 0.183622 0.903586
#
# Coordination Sequence:
#
# PCOD8015025 Si02
#       8
#     2   2   2   2   2   2   2   2
#     4  12  23  46  74  97 139 185 220 282 348 403
#     4  10  21  42  65 101 135 179 228 281 347 404
#     4  10  23  45  67 100 141 174 237 286 338 419
#     4  11  24  47  68  98 143 175 226 290 338 413
#     4  11  25  45  68 108 130 181 233 280 342 413
#     4  10  23  43  70 100 134 187 227 284 352 401
#     4  10  22  43  69 100 138 183 226 283 347 409
#     4  10  23  43  68 103 138 182 230 285 345 411
#
# _framework density 25.195184000000001
#
# number of rings (size 3 to 8) (size 9 to 14) (size 15 to 20)
#    0.000    1.500    2.500    1.500    0.000    6.500 
#    6.750    3.750    0.000    0.000    0.000    0.000 
#    0.000    0.000    0.000    0.000    0.000    0.000 
#
# Total GULP energy -198370.677638 kJ/mol
# GULP energy per Si atom -12398.167352 kJ/mol
# Density = 2.513784 g / cm^3
# Si number density = 25.195184 Si / 1000 Ang^3
#
#
#
# Elastic Constant Matrix: (Units=GPa)
#
#
# Indices 1 2 3 4 5 6 
#
# 1 80.6932 17.5026 -5.4884 -13.9259 5.7174 -1.6854
# 2 17.5026 84.0390 2.7298 -16.5814 6.1645 -7.4488
# 3 -5.4884 2.7298 86.1798 -10.7322 23.9290 -4.9472
# 4 -13.9259 -16.5814 -10.7322 32.3248 -3.9226 -1.6316
# 5 5.7174 6.1645 23.9290 -3.9226 44.1516 -3.3652
# 6 -1.6854 -7.4488 -4.9472 -1.6316 -3.3652 32.2851
#
#
#
# Elastic Compliance Matrix: (Units=1/GPa)
#
#
# Indices 1 2 3 4 5 6 
#
# 1 0.014081 -0.001634 0.002349 0.005768 -0.002297 0.000770
# 2 -0.001634 0.013949 0.000866 0.006751 -0.001341 0.003467
# 3 0.002349 0.000866 0.014675 0.005493 -0.007735 0.002043
# 4 0.005768 0.006751 0.005493 0.038833 -0.000868 0.004573
# 5 -0.002297 -0.001341 -0.007735 -0.000868 0.027340 0.001191
# 6 0.000770 0.003467 0.002043 0.004573 0.001191 0.032482
#
#
# Mechanical properties :
#
#
# Convention : Reuss Voigt Hill
#
# Bulk Modulus (GPa) = 21.80201 31.15555 26.47878
# Shear Modulus (GPa) = 32.57597 37.49684 35.03640
#
# Velocity S-wave (km/s) = 3.59965 3.86198 3.73312
# Velocity P-wave (km/s) = 5.09399 5.68146 5.39573
#
# Compressibility (1/GPa) = 0.04586732
#
# Stress axis : x y z
#
# Youngs Moduli (GPa) = 71.01714 71.68864 68.14417
#
# Poissons Ratio (x) = 0.11715 -0.16006
# Poissons Ratio (y) = 0.11605 -0.05904
# Poissons Ratio (z) = -0.16681 -0.06211
#
# Static dielectric constant tensor:
#      x y z
#    x 4.465720 -0.083740 0.073040 
#    y -0.083740 4.470070 -0.214190 
#    z 0.073040 -0.214190 4.757470 
# 
# 
# High freq. dielectric constant tensor:
#      x y z
#    x 2.004850 -0.004580 0.003850 
#    y -0.004580 1.995240 -0.009210 
#    z 0.003850 -0.009210 2.010340 
# 
# From -- ./inp_files/111535.got.cif
#   From: 2010.06.25/outbox.cif.g09.slc.cpg/sg2_56_cif.got.tgz:111535.got - 2010.06.27 13:26:56.
