data_PCOD8015272
_publ_section_title
;
Structure prediction by ZEFSAII (Michael W. Deem and Ramdas Pophale) SiO2 
 PCOD8015272
Probable space group: P -1
;
_chemical_formula_sum "Si O2"
_cell_formula_units_Z 14
_cell_length_a 8.172021
_cell_length_b 6.747632
_cell_length_c 11.788028
_cell_angle_alpha 103.794440
_cell_angle_beta 94.872601
_cell_angle_gamma 87.614086
_cell_volume 628.830044
_symmetry_space_group_name_H-M "P -1"
_symmetry_group_IT_number 2
_symmetry_cell_setting 'triclinic'
loop_
_space_group_symop_operation_xyz
x,y,z
-x,-y,-z
loop_
_atom_site_type_symbol
_atom_site_label
_atom_site_fract_x
_atom_site_fract_y
_atom_site_fract_z
Si Si1 0.129679 0.956129 0.755147
Si Si2 0.940520 0.639878 0.116635
Si Si3 0.513243 0.113875 0.179874
Si Si4 0.625112 0.664113 0.580896
Si Si5 0.036440 0.457498 0.333291
Si Si6 0.143575 0.156210 0.554762
Si Si7 0.579327 0.710436 0.032426
O O1 0.287261 0.865726 0.821926
O O2 0.018767 0.773996 0.678428
O O3 0.009435 0.118036 0.840654
O O4 0.205082 0.090093 0.674043
O O5 0.003989 0.514295 0.210070
O O6 0.747580 0.671412 0.101304
O O7 0.000000 0.500000 0.000000
O O8 0.464839 0.196215 0.311349
O O9 0.410752 0.229755 0.091575
O O10 0.475034 0.875237 0.123859
O O11 0.500000 0.500000 0.500000
O O12 0.770485 0.529913 0.628607
O O13 0.698530 0.827531 0.516757
O O14 0.934220 0.614616 0.427484
O O15 0.000000 0.000000 0.500000
O O16 0.500000 0.500000 0.000000
#
# Coordination Sequence:
#
# PCOD8015272 Si02
#       7
#     2   2   2   2   2   2   2
#     4  10  22  42  66  92 131 179 221 268 333 398
#     4  10  22  39  65  98 127 170 227 274 326 399
#     4  10  23  41  63  99 133 169 222 271 334 393
#     4  12  26  42  67 102 138 174 224 283 330 395
#     4  11  23  43  66  91 133 176 222 271 333 398
#     4  11  24  44  67  91 130 181 223 265 330 396
#     4  10  21  42  67  92 133 174 212 274 340 391
#
# _framework density 22.263567999999999
#
# number of rings (size 3 to 8) (size 9 to 14) (size 15 to 20)
#    0.000    1.429    1.429    3.000    2.000    4.571 
#    2.571    0.000    0.000    0.000    0.000    0.000 
#    0.000    0.000    0.000    0.000    0.000    0.000 
#
# Total GULP energy -173437.195904 kJ/mol
# GULP energy per Si atom -12388.371136 kJ/mol
# Density = 2.221290 g / cm^3
# Si number density = 22.263568 Si / 1000 Ang^3
#
#
#
# Elastic Constant Matrix: (Units=GPa)
#
#
# Indices 1 2 3 4 5 6 
#
# 1 93.0280 56.2374 54.8153 0.1343 11.7658 -1.6075
# 2 56.2374 152.7664 68.7425 30.5837 4.5977 7.9665
# 3 54.8153 68.7425 139.0266 28.7655 -3.7262 -1.2595
# 4 0.1343 30.5837 28.7655 49.7340 -16.9731 10.4525
# 5 11.7658 4.5977 -3.7262 -16.9731 39.5523 4.3475
# 6 -1.6075 7.9665 -1.2595 10.4525 4.3475 40.4409
#
#
#
# Elastic Compliance Matrix: (Units=1/GPa)
#
#
# Indices 1 2 3 4 5 6 
#
# 1 0.017315 -0.004805 -0.005559 0.004983 -0.003032 0.000500
# 2 -0.004805 0.010598 -0.002178 -0.005995 -0.002523 -0.000526
# 3 -0.005559 -0.002178 0.011668 -0.005701 0.000339 0.002009
# 4 0.004983 -0.005995 -0.005701 0.033826 0.014190 -0.009067
# 5 -0.003032 -0.002523 0.000339 0.014190 0.033354 -0.006866
# 6 0.000500 -0.000526 0.002009 -0.009067 -0.006866 0.027995
#
#
# Mechanical properties :
#
#
# Convention : Reuss Voigt Hill
#
# Bulk Modulus (GPa) = 68.97504 82.71237 75.84370
# Shear Modulus (GPa) = 30.36343 39.61383 34.98863
#
# Velocity S-wave (km/s) = 3.69700 4.22277 3.96860
# Velocity P-wave (km/s) = 7.01941 7.81075 7.42563
#
# Compressibility (1/GPa) = 0.01449800
#
# Stress axis : x y z
#
# Youngs Moduli (GPa) = 57.75497 94.35391 85.70270
#
# Poissons Ratio (x) = 0.45338 0.47640
# Poissons Ratio (y) = 0.27752 0.18665
# Poissons Ratio (z) = 0.32104 0.20549
#
# Static dielectric constant tensor:
#      x y z
#    x 3.792800 -0.168180 0.169600 
#    y -0.168180 3.821630 0.178700 
#    z 0.169600 0.178700 4.307130 
# 
# 
# High freq. dielectric constant tensor:
#      x y z
#    x 1.855900 -0.020380 0.028140 
#    y -0.020380 1.889400 0.014180 
#    z 0.028140 0.014180 1.899470 
# 
# From -- ./inp_files/373170.got.cif
#   From: 2010.06.25/outbox.cif.g09.slc.cpg/sg2_187_cif.got.tgz:373170.got - 2010.06.27 13:26:56.
