data_PCOD8015812
_publ_section_title
;
Structure prediction by ZEFSAII (Michael W. Deem and Ramdas Pophale) SiO2 
 PCOD8015812
Probable space group: P -1
;
_chemical_formula_sum "Si O2"
_cell_formula_units_Z 16
_cell_length_a 8.394448
_cell_length_b 8.937825
_cell_length_c 12.206658
_cell_angle_alpha 74.272363
_cell_angle_beta 130.962080
_cell_angle_gamma 99.127609
_cell_volume 665.471085
_symmetry_space_group_name_H-M "P -1"
_symmetry_group_IT_number 2
_symmetry_cell_setting 'triclinic'
loop_
_space_group_symop_operation_xyz
x,y,z
-x,-y,-z
loop_
_atom_site_type_symbol
_atom_site_label
_atom_site_fract_x
_atom_site_fract_y
_atom_site_fract_z
Si Si1 0.392033 0.885154 0.890196
Si Si2 0.974674 0.659623 0.519539
Si Si3 0.936104 0.364685 0.191706
Si Si4 0.362518 0.290474 0.286773
Si Si5 0.376540 0.392738 0.048002
Si Si6 0.231664 0.882779 0.447574
Si Si7 0.813486 0.010697 0.827729
Si Si8 0.366881 0.106339 0.644846
O O1 0.210131 0.779117 0.886030
O O2 0.585128 0.781164 0.946506
O O3 0.284117 0.987232 0.723968
O O4 0.500000 0.000000 0.000000
O O5 0.733074 0.719929 0.419282
O O6 0.000000 0.500000 0.500000
O O7 0.096844 0.637859 0.692309
O O8 0.070121 0.797117 0.466804
O O9 0.181624 0.354640 0.272880
O O10 0.862322 0.535222 0.080121
O O11 0.442823 0.408333 0.204163
O O12 0.560290 0.227094 0.459420
O O13 0.264833 0.161768 0.189761
O O14 0.500000 0.500000 0.000000
O O15 0.118117 0.922608 0.273445
O O16 0.301300 0.041137 0.507890
O O17 0.620189 0.118291 0.765923
O O18 0.000000 0.000000 0.000000
#
# Coordination Sequence:
#
# PCOD8015812 Si02
#       8
#     2   2   2   2   2   2   2   2
#     4  11  24  41  71 104 140 190 246 298 353 423
#     4  12  27  45  73 103 140 195 245 295 360 431
#     4  11  24  43  69 105 146 189 240 298 365 424
#     4  11  22  43  72 103 141 191 239 289 365 431
#     4  10  21  43  66 101 143 188 232 291 354 424
#     4  11  22  47  75  99 141 190 238 298 361 433
#     4  11  25  41  70 109 143 177 240 307 358 423
#     4  11  23  47  71 100 141 187 246 288 361 428
#
# _framework density 24.043119000000001
#
# number of rings (size 3 to 8) (size 9 to 14) (size 15 to 20)
#    0.000    1.000    3.750    4.500    5.250    1.000 
#    0.000    3.750    0.000    0.000    0.000    0.000 
#    0.000    0.000    0.000    0.000    0.000    0.000 
#
# Total GULP energy -198312.591992 kJ/mol
# GULP energy per Si atom -12394.536999 kJ/mol
# Density = 2.398840 g / cm^3
# Si number density = 24.043119 Si / 1000 Ang^3
#
#
#
# Elastic Constant Matrix: (Units=GPa)
#
#
# Indices 1 2 3 4 5 6 
#
# 1 97.3324 23.4158 35.7286 0.1667 -8.8306 -17.5613
# 2 23.4158 94.4033 48.5083 -13.8124 5.6524 -30.8727
# 3 35.7286 48.5083 167.2688 -5.1207 -11.2502 -10.5032
# 4 0.1667 -13.8124 -5.1207 35.3148 0.6647 8.2288
# 5 -8.8306 5.6524 -11.2502 0.6647 46.5344 -14.9595
# 6 -17.5613 -30.8727 -10.5032 8.2288 -14.9595 36.9725
#
#
#
# Elastic Compliance Matrix: (Units=1/GPa)
#
#
# Indices 1 2 3 4 5 6 
#
# 1 0.012850 -0.000298 -0.001948 -0.002323 0.004492 0.007636
# 2 -0.000298 0.017341 -0.003993 0.003184 0.000969 0.012888
# 3 -0.001948 -0.003993 0.007553 -0.000138 0.001464 -0.001491
# 4 -0.002323 0.003184 -0.000138 0.031216 -0.003509 -0.006852
# 5 0.004492 0.000969 0.001464 -0.003509 0.027541 0.015283
# 6 0.007636 0.012888 -0.001491 -0.006852 0.015283 0.048721
#
#
# Mechanical properties :
#
#
# Convention : Reuss Voigt Hill
#
# Bulk Modulus (GPa) = 39.57972 63.81222 51.69597
# Shear Modulus (GPa) = 30.09825 40.52112 35.30968
#
# Velocity S-wave (km/s) = 3.54198 4.10976 3.83639
# Velocity P-wave (km/s) = 5.76413 7.00846 6.41653
#
# Compressibility (1/GPa) = 0.02526546
#
# Stress axis : x y z
#
# Youngs Moduli (GPa) = 77.82114 57.66594 132.39427
#
# Poissons Ratio (x) = 0.01720 0.25788
# Poissons Ratio (y) = 0.02321 0.52870
# Poissons Ratio (z) = 0.15158 0.23028
#
# Static dielectric constant tensor:
#      x y z
#    x 4.679270 -0.258340 0.039970 
#    y -0.258340 4.264130 -0.686980 
#    z 0.039970 -0.686980 4.653060 
# 
# 
# High freq. dielectric constant tensor:
#      x y z
#    x 1.971040 -0.015170 -0.011060 
#    y -0.015170 1.920930 -0.036090 
#    z -0.011060 -0.036090 1.958930 
# 
# From -- ./inp_files/382104.got.cif
#   From: 2010.06.25/outbox.cif.g09.slc.cpg/sg2_192_cif.got.tgz:382104.got - 2010.06.27 13:26:56.
