data_PCOD8015225
_publ_section_title
;
Structure prediction by ZEFSAII (Michael W. Deem and Ramdas Pophale) SiO2 
 PCOD8015225
Probable space group: P -1
;
_chemical_formula_sum "Si O2"
_cell_formula_units_Z 16
_cell_length_a 14.551384
_cell_length_b 14.007065
_cell_length_c 12.535111
_cell_angle_alpha 41.290014
_cell_angle_beta 61.792637
_cell_angle_gamma 30.871099
_cell_volume 744.733661
_symmetry_space_group_name_H-M "P -1"
_symmetry_group_IT_number 2
_symmetry_cell_setting 'triclinic'
loop_
_space_group_symop_operation_xyz
x,y,z
-x,-y,-z
loop_
_atom_site_type_symbol
_atom_site_label
_atom_site_fract_x
_atom_site_fract_y
_atom_site_fract_z
Si Si1 0.998356 0.612073 0.006643
Si Si2 0.064419 0.967757 0.876609
Si Si3 0.797328 0.451254 0.463446
Si Si4 0.863554 0.061872 0.449793
Si Si5 0.393690 0.772425 0.371460
Si Si6 0.254573 0.034645 0.748585
Si Si7 0.713933 0.480044 0.032309
Si Si8 0.986619 0.512804 0.332283
O O1 0.181387 0.509049 0.974883
O O2 0.036145 0.489757 0.201893
O O3 0.000000 0.500000 0.000000
O O4 0.778429 0.961031 0.839925
O O5 0.238035 0.885861 0.851403
O O6 0.855173 0.274656 0.676228
O O7 0.154029 0.718885 0.977997
O O8 0.000000 0.000000 0.000000
O O9 0.565482 0.691452 0.352710
O O10 0.804249 0.610448 0.359628
O O11 0.973986 0.225752 0.465467
O O12 0.719164 0.123871 0.541533
O O13 0.711870 0.343205 0.225631
O O14 0.000000 0.000000 0.500000
O O15 0.500000 0.500000 0.500000
O O16 0.097930 0.249661 0.753445
O O17 0.194447 0.202882 0.536623
O O18 0.484877 0.799126 0.855209
#
# Coordination Sequence:
#
# PCOD8015225 Si02
#       8
#     2   2   2   2   2   2   2   2
#     4  12  27  44  65 102 142 180 228 276 341 423
#     4  10  21  42  66  98 130 166 227 286 335 400
#     4  10  23  41  63  95 133 177 220 274 339 397
#     4  11  21  41  63  95 141 166 221 289 327 403
#     4  12  24  40  68  98 129 183 228 269 346 399
#     4  10  23  43  68  95 128 180 225 280 344 393
#     4  11  24  41  68 101 132 173 224 280 349 399
#     4  10  24  45  65  91 139 173 228 279 327 419
#
# _framework density 21.484189000000001
#
# number of rings (size 3 to 8) (size 9 to 14) (size 15 to 20)
#    0.000    1.250    2.500    2.625    5.250    1.000 
#    2.250    0.000    0.000    0.000    0.000    0.000 
#    0.000    0.000    0.000    0.000    0.000    0.000 
#
# Total GULP energy -198430.278221 kJ/mol
# GULP energy per Si atom -12401.892389 kJ/mol
# Density = 2.143529 g / cm^3
# Si number density = 21.484189 Si / 1000 Ang^3
#
#
#
# Elastic Constant Matrix: (Units=GPa)
#
#
# Indices 1 2 3 4 5 6 
#
# 1 106.8733 25.7889 22.2691 -18.1797 10.2556 -4.3743
# 2 25.7889 77.6191 58.4549 14.8581 6.1341 -6.1641
# 3 22.2691 58.4549 115.1991 -2.0720 18.5488 -2.1848
# 4 -18.1797 14.8581 -2.0720 38.8898 -1.1594 15.1536
# 5 10.2556 6.1341 18.5488 -1.1594 32.0185 -5.1119
# 6 -4.3743 -6.1641 -2.1848 15.1536 -5.1119 43.4497
#
#
#
# Elastic Compliance Matrix: (Units=1/GPa)
#
#
# Indices 1 2 3 4 5 6 
#
# 1 0.012869 -0.008132 0.002435 0.010667 -0.004219 -0.003952
# 2 -0.008132 0.031852 -0.015832 -0.020892 0.006670 0.010975
# 3 0.002435 -0.015832 0.017691 0.010067 -0.008529 -0.005626
# 4 0.010667 -0.020892 0.010067 0.046130 -0.006487 -0.018235
# 5 -0.004219 0.006670 -0.008529 -0.006487 0.037084 0.006718
# 6 -0.003952 0.010975 -0.005626 -0.018235 0.006718 0.031042
#
#
# Mechanical properties :
#
#
# Convention : Reuss Voigt Hill
#
# Bulk Modulus (GPa) = 51.66767 56.96859 54.31813
# Shear Modulus (GPa) = 22.10648 35.75018 28.92833
#
# Velocity S-wave (km/s) = 3.21123 4.08367 3.67344
# Velocity P-wave (km/s) = 6.15229 6.98636 6.58255
#
# Compressibility (1/GPa) = 0.01935446
#
# Stress axis : x y z
#
# Youngs Moduli (GPa) = 77.70415 31.39530 56.52506
#
# Poissons Ratio (x) = 0.25530 -0.13762
# Poissons Ratio (y) = 0.63186 0.89491
# Poissons Ratio (z) = -0.18919 0.49705
#
# Static dielectric constant tensor:
#      x y z
#    x 4.650180 0.009580 0.070220 
#    y 0.009580 3.799710 0.061430 
#    z 0.070220 0.061430 4.025470 
# 
# 
# High freq. dielectric constant tensor:
#      x y z
#    x 1.857260 0.009320 0.004000 
#    y 0.009320 1.825220 0.002080 
#    z 0.004000 0.002080 1.851340 
# 
# From -- ./inp_files/455471.got.cif
#   From: 2010.06.25/outbox.cif.g09.slc.cpg/sg2_228_cif.got.tgz:455471.got - 2010.06.27 13:26:56.
