data_PCOD8015841
_publ_section_title
;
Structure prediction by ZEFSAII (Michael W. Deem and Ramdas Pophale) SiO2 
 PCOD8015841
Probable space group: P -1
;
_chemical_formula_sum "Si O2"
_cell_formula_units_Z 16
_cell_length_a 17.798069
_cell_length_b 8.668002
_cell_length_c 9.052991
_cell_angle_alpha 90.148248
_cell_angle_beta 92.099556
_cell_angle_gamma 148.969870
_cell_volume 717.901099
_symmetry_space_group_name_H-M "P -1"
_symmetry_group_IT_number 2
_symmetry_cell_setting 'triclinic'
loop_
_space_group_symop_operation_xyz
x,y,z
-x,-y,-z
loop_
_atom_site_type_symbol
_atom_site_label
_atom_site_fract_x
_atom_site_fract_y
_atom_site_fract_z
Si Si1 0.942493 0.804825 0.632314
Si Si2 0.122252 0.625989 0.916969
Si Si3 0.866352 0.130523 0.318101
Si Si4 0.661341 0.226206 0.474443
Si Si5 0.651951 0.854088 0.535326
Si Si6 0.663651 0.604244 0.079378
Si Si7 0.826193 0.610853 0.183379
Si Si8 0.359901 0.177764 0.135046
O O1 0.765800 0.482390 0.612278
O O2 0.987650 0.703607 0.627080
O O3 0.000000 0.000000 0.500000
O O4 0.021513 0.028250 0.775916
O O5 0.104947 0.648617 0.744661
O O6 0.115826 0.430041 0.909798
O O7 0.000000 0.500000 0.000000
O O8 0.275961 0.932599 0.005098
O O9 0.769857 0.962555 0.456272
O O10 0.793275 0.913945 0.176274
O O11 0.730892 0.400030 0.322243
O O12 0.500000 0.000000 0.500000
O O13 0.648707 0.020186 0.472795
O O14 0.500000 0.500000 0.500000
O O15 0.708626 0.949422 0.708139
O O16 0.713506 0.513106 0.073447
O O17 0.517407 0.374385 0.162970
O O18 0.636933 0.636783 0.917115
#
# Coordination Sequence:
#
# PCOD8015841 Si02
#       8
#     2   2   2   2   2   2   2   2
#     4   9  22  41  67  96 133 182 223 281 352 404
#     4  11  25  44  65  97 137 181 235 290 337 413
#     4  10  21  43  66  93 139 179 227 285 340 413
#     4  11  24  41  67 107 143 169 229 294 343 412
#     4  12  24  40  70 105 136 180 226 281 347 411
#     4   9  19  41  69  92 135 177 226 279 337 415
#     4  10  21  46  71  95 135 191 228 283 354 411
#     4  10  22  39  65  99 136 178 224 280 340 399
#
# _framework density 22.287192000000001
#
# number of rings (size 3 to 8) (size 9 to 14) (size 15 to 20)
#    0.000    1.750    2.500    0.750    5.250    3.000 
#    0.000    8.125    0.000    0.000    0.000    0.000 
#    0.000    0.000    0.000    0.000    0.000    0.000 
#
# Total GULP energy -198238.301965 kJ/mol
# GULP energy per Si atom -12389.893873 kJ/mol
# Density = 2.223647 g / cm^3
# Si number density = 22.287192 Si / 1000 Ang^3
#
#
#
# Elastic Constant Matrix: (Units=GPa)
#
#
# Indices 1 2 3 4 5 6 
#
# 1 176.3606 54.6695 50.6864 3.0204 7.9357 0.3934
# 2 54.6695 115.1609 16.9103 7.3428 3.6403 9.8456
# 3 50.6864 16.9103 77.6282 -3.8889 3.4955 4.6452
# 4 3.0204 7.3428 -3.8889 23.0469 6.1404 -0.2120
# 5 7.9357 3.6403 3.4955 6.1404 32.8323 -1.9167
# 6 0.3934 9.8456 4.6452 -0.2120 -1.9167 38.7951
#
#
#
# Elastic Compliance Matrix: (Units=1/GPa)
#
#
# Indices 1 2 3 4 5 6 
#
# 1 0.008027 -0.003174 -0.004610 -0.000562 -0.000921 0.001227
# 2 -0.003174 0.010646 -0.000242 -0.003049 0.000028 -0.002656
# 3 -0.004610 -0.000242 0.016312 0.003793 -0.001416 -0.001894
# 4 -0.000562 -0.003049 0.003793 0.047418 -0.008789 0.000150
# 5 -0.000921 0.000028 -0.001416 -0.008789 0.032573 0.001733
# 6 0.001227 -0.002656 -0.001894 0.000150 0.001733 0.026751
#
#
# Mechanical properties :
#
#
# Convention : Reuss Voigt Hill
#
# Bulk Modulus (GPa) = 52.81552 68.18691 60.50122
# Shear Modulus (GPa) = 30.47096 35.39376 32.93236
#
# Velocity S-wave (km/s) = 3.70157 3.98939 3.84817
# Velocity P-wave (km/s) = 6.48213 7.20287 6.85199
#
# Compressibility (1/GPa) = 0.01893383
#
# Stress axis : x y z
#
# Youngs Moduli (GPa) = 124.57463 93.92960 61.30509
#
# Poissons Ratio (x) = 0.29811 0.28262
# Poissons Ratio (y) = 0.39537 0.01483
# Poissons Ratio (z) = 0.57431 0.02272
#
# Static dielectric constant tensor:
#      x y z
#    x 4.376780 -0.169060 0.393420 
#    y -0.169060 4.303610 0.075540 
#    z 0.393420 0.075540 4.056770 
# 
# 
# High freq. dielectric constant tensor:
#      x y z
#    x 1.885870 0.000830 0.020840 
#    y 0.000830 1.878750 -0.000600 
#    z 0.020840 -0.000600 1.864770 
# 
# From -- ./inp_files/329034.got.cif
#   From: 2010.06.25/outbox.cif.g09.slc.cpg/sg2_165_cif.got.tgz:329034.got - 2010.06.27 13:26:56.
