data_PCOD8015721
_publ_section_title
;
Structure prediction by ZEFSAII (Michael W. Deem and Ramdas Pophale) SiO2 
 PCOD8015721
Probable space group: P -1
;
_chemical_formula_sum "Si O2"
_cell_formula_units_Z 14
_cell_length_a 14.062909
_cell_length_b 11.080745
_cell_length_c 7.536778
_cell_angle_alpha 134.674762
_cell_angle_beta 48.507872
_cell_angle_gamma 117.351564
_cell_volume 625.524308
_symmetry_space_group_name_H-M "P -1"
_symmetry_group_IT_number 2
_symmetry_cell_setting 'triclinic'
loop_
_space_group_symop_operation_xyz
x,y,z
-x,-y,-z
loop_
_atom_site_type_symbol
_atom_site_label
_atom_site_fract_x
_atom_site_fract_y
_atom_site_fract_z
Si Si1 0.360479 0.939911 0.572015
Si Si2 0.144531 0.444169 0.693571
Si Si3 0.020518 0.740238 0.964808
Si Si4 0.741670 0.403825 0.612428
Si Si5 0.827776 0.947153 0.789972
Si Si6 0.360043 0.037116 0.278362
Si Si7 0.753535 0.629277 0.156236
O O1 0.359490 0.744799 0.437890
O O2 0.500000 0.000000 0.500000
O O3 0.328802 0.943499 0.405228
O O4 0.259204 0.053475 0.925931
O O5 0.028405 0.582833 0.940239
O O6 0.252871 0.478403 0.446509
O O7 0.113170 0.240879 0.515392
O O8 0.213887 0.488934 0.838160
O O9 0.119367 0.690378 0.634362
O O10 0.878749 0.740395 0.062431
O O11 0.055836 0.921645 0.194005
O O12 0.705202 0.514323 0.939808
O O13 0.743164 0.011160 0.793693
O O14 0.358056 0.239174 0.524040
O O15 0.500000 0.000000 0.000000
#
# Coordination Sequence:
#
# PCOD8015721 Si02
#       7
#     2   2   2   2   2   2   2
#     4  11  22  42  67  85 126 171 212 263 320 363
#     4   9  21  37  63  90 133 161 207 256 308 376
#     4   9  21  40  64  98 131 166 203 260 314 383
#     4   9  22  39  62  95 124 162 209 262 315 375
#     4  10  21  43  63  97 129 163 215 257 317 373
#     4  11  24  40  65  90 123 168 215 265 303 376
#     4  11  21  42  64  93 131 167 209 254 326 370
#
# _framework density 22.381225000000001
#
# number of rings (size 3 to 8) (size 9 to 14) (size 15 to 20)
#    0.857    1.143    1.429    1.714    2.000    2.286 
#    2.571    7.143    0.000    0.000    0.000    0.000 
#    0.000    0.000    0.000    0.000    0.000    0.000 
#
# Total GULP energy -173524.261544 kJ/mol
# GULP energy per Si atom -12394.590110 kJ/mol
# Density = 2.233028 g / cm^3
# Si number density = 22.381225 Si / 1000 Ang^3
#
#
#
# Elastic Constant Matrix: (Units=GPa)
#
#
# Indices 1 2 3 4 5 6 
#
# 1 63.0097 37.4451 30.4009 -2.0548 3.8321 4.2393
# 2 37.4451 108.8855 28.2931 14.3072 2.1270 0.5292
# 3 30.4009 28.2931 113.6085 4.1640 1.7782 7.7481
# 4 -2.0548 14.3072 4.1640 27.9961 -8.3429 11.6385
# 5 3.8321 2.1270 1.7782 -8.3429 34.6415 -3.4445
# 6 4.2393 0.5292 7.7481 11.6385 -3.4445 35.9960
#
#
#
# Elastic Compliance Matrix: (Units=1/GPa)
#
#
# Indices 1 2 3 4 5 6 
#
# 1 0.023188 -0.007909 -0.004229 0.008076 -0.000350 -0.004349
# 2 -0.007909 0.013449 -0.001123 -0.009417 -0.001778 0.003850
# 3 -0.004229 -0.001123 0.010348 -0.000748 -0.000324 -0.001502
# 4 0.008076 -0.009417 -0.000748 0.051058 0.010413 -0.016164
# 5 -0.000350 -0.001778 -0.000324 0.010413 0.031518 -0.000214
# 6 -0.004349 0.003850 -0.001502 -0.016164 -0.000214 0.033766
#
#
# Mechanical properties :
#
#
# Convention : Reuss Voigt Hill
#
# Bulk Modulus (GPa) = 48.86554 53.08686 50.97620
# Shear Modulus (GPa) = 25.42332 32.35104 28.88718
#
# Velocity S-wave (km/s) = 3.37400 3.80604 3.59651
# Velocity P-wave (km/s) = 6.08762 6.56395 6.33027
#
# Compressibility (1/GPa) = 0.02046432
#
# Stress axis : x y z
#
# Youngs Moduli (GPa) = 43.12524 74.35646 96.63318
#
# Poissons Ratio (x) = 0.58805 0.40870
# Poissons Ratio (y) = 0.34106 0.10848
# Poissons Ratio (z) = 0.18239 0.08347
#
# Static dielectric constant tensor:
#      x y z
#    x 3.694880 -0.190940 0.146130 
#    y -0.190940 4.063000 -0.161170 
#    z 0.146130 -0.161170 4.241130 
# 
# 
# High freq. dielectric constant tensor:
#      x y z
#    x 1.851540 -0.007880 0.009430 
#    y -0.007880 1.884690 -0.012070 
#    z 0.009430 -0.012070 1.904340 
# 
# From -- ./inp_files/268180.got.cif
#   From: 2010.06.25/outbox.cif.g09.slc.cpg/sg2_135_cif.got.tgz:268180.got - 2010.06.27 13:26:56.
