data_PCOD8015184
_publ_section_title
;
Structure prediction by ZEFSAII (Michael W. Deem and Ramdas Pophale) SiO2 
 PCOD8015184
Probable space group: P -1
;
_chemical_formula_sum "Si O2"
_cell_formula_units_Z 16
_cell_length_a 6.841351
_cell_length_b 16.828529
_cell_length_c 7.678697
_cell_angle_alpha 51.444686
_cell_angle_beta 86.624241
_cell_angle_gamma 77.673924
_cell_volume 672.204609
_symmetry_space_group_name_H-M "P -1"
_symmetry_group_IT_number 2
_symmetry_cell_setting 'triclinic'
loop_
_space_group_symop_operation_xyz
x,y,z
-x,-y,-z
loop_
_atom_site_type_symbol
_atom_site_label
_atom_site_fract_x
_atom_site_fract_y
_atom_site_fract_z
Si Si1 0.816060 0.252463 0.782626
Si Si2 0.957968 0.108989 0.676469
Si Si3 0.184732 0.247021 0.315365
Si Si4 0.893127 0.629907 0.202752
Si Si5 0.301818 0.931276 0.796056
Si Si6 0.448911 0.414279 0.493126
Si Si7 0.582090 0.073653 0.585301
Si Si8 0.889069 0.552089 0.764778
O O1 0.974376 0.172096 0.766474
O O2 0.654638 0.329482 0.562431
O O3 0.929568 0.320244 0.803086
O O4 0.687923 0.189370 0.996971
O O5 0.729656 0.096746 0.694749
O O6 0.021790 0.175162 0.421361
O O7 0.109539 0.996451 0.823479
O O8 0.404229 0.174745 0.430988
O O9 0.126714 0.325031 0.378131
O O10 0.187223 0.309080 0.052721
O O11 0.712626 0.642148 0.330828
O O12 0.976306 0.505283 0.325510
O O13 0.283381 0.951521 0.561974
O O14 0.500427 0.972050 0.786723
O O15 0.500000 0.500000 0.500000
O O16 0.340969 0.460394 0.252055
O O17 0.000000 0.500000 0.000000
#
# Coordination Sequence:
#
# PCOD8015184 Si02
#       8
#     2   2   2   2   2   2   2   2
#     4  12  25  41  67  98 133 177 221 272 337 401
#     4  11  23  39  66  95 132 173 218 274 331 395
#     4  10  22  41  65  97 128 176 224 270 333 390
#     4  11  24  43  67  93 137 176 222 277 330 399
#     4  10  23  41  64  96 131 173 221 269 337 394
#     4  12  25  42  68  97 134 176 223 271 337 396
#     4  10  21  42  66  94 134 167 222 278 326 397
#     4  10  22  44  67  95 134 175 221 275 328 394
#
# _framework density 23.802273
#
# number of rings (size 3 to 8) (size 9 to 14) (size 15 to 20)
#    0.000    1.250    1.250    4.125    1.750    4.500 
#    0.000    1.250    0.000    0.000    0.000    0.000 
#    0.000    0.000    0.000    0.000    0.000    0.000 
#
# Total GULP energy -198284.276602 kJ/mol
# GULP energy per Si atom -12392.767288 kJ/mol
# Density = 2.374810 g / cm^3
# Si number density = 23.802273 Si / 1000 Ang^3
#
#
#
# Elastic Constant Matrix: (Units=GPa)
#
#
# Indices 1 2 3 4 5 6 
#
# 1 130.6684 44.9906 42.8790 -8.1454 10.2739 20.0950
# 2 44.9906 123.9235 25.2060 -8.2682 7.9517 4.4477
# 3 42.8790 25.2060 64.8110 -5.0319 6.1514 11.6585
# 4 -8.1454 -8.2682 -5.0319 29.7735 3.2616 0.5330
# 5 10.2739 7.9517 6.1514 3.2616 37.7398 3.8388
# 6 20.0950 4.4477 11.6585 0.5330 3.8388 43.5015
#
#
#
# Elastic Compliance Matrix: (Units=1/GPa)
#
#
# Indices 1 2 3 4 5 6 
#
# 1 0.011046 -0.002588 -0.005459 0.001590 -0.001377 -0.003273
# 2 -0.002588 0.009562 -0.001900 0.001747 -0.001234 0.000815
# 3 -0.005459 -0.001900 0.020516 0.001640 -0.001326 -0.002686
# 4 0.001590 0.001747 0.001640 0.035245 -0.003968 -0.001434
# 5 -0.001377 -0.001234 -0.001326 -0.003968 0.027822 -0.001289
# 6 -0.003273 0.000815 -0.002686 -0.001434 -0.001289 0.025267
#
#
# Mechanical properties :
#
#
# Convention : Reuss Voigt Hill
#
# Bulk Modulus (GPa) = 47.10258 60.61714 53.85986
# Shear Modulus (GPa) = 31.96326 35.95811 33.96069
#
# Velocity S-wave (km/s) = 3.66849 3.89099 3.78138
# Velocity P-wave (km/s) = 6.14620 6.76082 6.46082
#
# Compressibility (1/GPa) = 0.02123026
#
# Stress axis : x y z
#
# Youngs Moduli (GPa) = 90.53032 104.57904 48.74183
#
# Poissons Ratio (x) = 0.27066 0.26606
# Poissons Ratio (y) = 0.23430 0.09263
# Poissons Ratio (z) = 0.49417 0.19874
#
# Static dielectric constant tensor:
#      x y z
#    x 4.329800 0.109620 0.092040 
#    y 0.109620 4.705150 -0.156450 
#    z 0.092040 -0.156450 4.214360 
# 
# 
# High freq. dielectric constant tensor:
#      x y z
#    x 1.939720 0.004070 0.002240 
#    y 0.004070 1.962220 -0.010500 
#    z 0.002240 -0.010500 1.933010 
# 
# From -- ./inp_files/138542.got.cif
#   From: 2010.06.25/outbox.cif.g09.slc.cpg/sg2_70_cif.got.tgz:138542.got - 2010.06.27 13:26:56.
