data_PCOD8015901
_publ_section_title
;
Structure prediction by ZEFSAII (Michael W. Deem and Ramdas Pophale) SiO2 
 PCOD8015901
Probable space group: P -1
;
_chemical_formula_sum "Si O2"
_cell_formula_units_Z 14
_cell_length_a 6.933082
_cell_length_b 15.092835
_cell_length_c 24.710701
_cell_angle_alpha 19.674375
_cell_angle_beta 76.800873
_cell_angle_gamma 89.393071
_cell_volume 662.545809
_symmetry_space_group_name_H-M "P -1"
_symmetry_group_IT_number 2
_symmetry_cell_setting 'triclinic'
loop_
_space_group_symop_operation_xyz
x,y,z
-x,-y,-z
loop_
_atom_site_type_symbol
_atom_site_label
_atom_site_fract_x
_atom_site_fract_y
_atom_site_fract_z
Si Si1 0.197603 0.164658 0.534616
Si Si2 0.044750 0.799580 0.572286
Si Si3 0.486615 0.912063 0.264100
Si Si4 0.642166 0.272612 0.251849
Si Si5 0.950715 0.268547 0.961807
Si Si6 0.542419 0.547310 0.386235
Si Si7 0.730597 0.741009 0.885948
O O1 0.444296 0.474119 0.372998
O O2 0.107172 0.292431 0.421098
O O3 0.261030 0.944813 0.628005
O O4 0.988520 0.962396 0.710056
O O5 0.939281 0.445266 0.808648
O O6 0.341947 0.033088 0.407561
O O7 0.000000 0.000000 0.500000
O O8 0.383197 0.618874 0.393936
O O9 0.483671 0.767815 0.406165
O O10 0.310635 0.022623 0.214172
O O11 0.771482 0.234780 0.041717
O O12 0.760627 0.506761 0.163757
O O13 0.755150 0.517499 0.052881
O O14 0.837964 0.889055 0.170077
O O15 0.500000 0.500000 0.000000
#
# Coordination Sequence:
#
# PCOD8015901 Si02
#       7
#     2   2   2   2   2   2   2
#     4  12  25  42  67  98 137 167 219 274 326 382
#     4  12  25  44  66  97 131 171 225 266 323 391
#     4   9  20  43  67  95 136 166 218 264 328 388
#     4  12  24  43  69  96 129 174 214 276 325 381
#     4  10  21  43  67  92 127 176 219 255 325 393
#     4   9  22  43  67  97 134 172 213 272 326 388
#     4  12  22  38  67 104 130 167 219 275 325 384
#
# _framework density 21.130614000000001
#
# number of rings (size 3 to 8) (size 9 to 14) (size 15 to 20)
#    0.857    0.286    2.857    4.286    0.000    1.143 
#    0.000    0.714    0.000    0.000    0.000    0.000 
#    0.000    0.000    0.000    0.000    0.000    0.000 
#
# Total GULP energy -173556.971869 kJ/mol
# GULP energy per Si atom -12396.926562 kJ/mol
# Density = 2.108252 g / cm^3
# Si number density = 21.130614 Si / 1000 Ang^3
#
#
#
# Elastic Constant Matrix: (Units=GPa)
#
#
# Indices 1 2 3 4 5 6 
#
# 1 82.0096 36.2411 29.4316 -0.8172 7.3090 24.6613
# 2 36.2411 74.1959 45.4551 0.4390 0.3160 31.8490
# 3 29.4316 45.4551 94.4613 10.0178 15.4728 26.7428
# 4 -0.8172 0.4390 10.0178 35.7646 13.8577 2.3238
# 5 7.3090 0.3160 15.4728 13.8577 26.6631 4.2492
# 6 24.6613 31.8490 26.7428 2.3238 4.2492 50.5718
#
#
#
# Elastic Compliance Matrix: (Units=1/GPa)
#
#
# Indices 1 2 3 4 5 6 
#
# 1 0.016740 -0.006204 -0.000690 0.002827 -0.005011 -0.003600
# 2 -0.006204 0.026188 -0.009420 -0.000566 0.008614 -0.009184
# 3 -0.000690 -0.009420 0.017545 -0.001226 -0.008892 -0.002206
# 4 0.002827 -0.000566 -0.001226 0.035560 -0.018466 -0.000457
# 5 -0.005011 0.008614 -0.008892 -0.018466 0.053846 -0.001955
# 6 -0.003600 -0.009184 -0.002206 -0.000457 -0.001955 0.028665
#
#
# Mechanical properties :
#
#
# Convention : Reuss Voigt Hill
#
# Bulk Modulus (GPa) = 35.91254 52.54694 44.22974
# Shear Modulus (GPa) = 22.68047 31.90249 27.29148
#
# Velocity S-wave (km/s) = 3.27975 3.88980 3.59773
# Velocity P-wave (km/s) = 5.60132 6.71533 6.18346
#
# Compressibility (1/GPa) = 0.02784543
#
# Stress axis : x y z
#
# Youngs Moduli (GPa) = 59.73564 38.18573 56.99563
#
# Poissons Ratio (x) = 0.23690 0.03935
# Poissons Ratio (y) = 0.37059 0.53688
# Poissons Ratio (z) = 0.04124 0.35970
#
# Static dielectric constant tensor:
#      x y z
#    x 3.810670 0.071180 0.087700 
#    y 0.071180 3.729470 0.106730 
#    z 0.087700 0.106730 3.950150 
# 
# 
# High freq. dielectric constant tensor:
#      x y z
#    x 1.817050 0.014360 0.004120 
#    y 0.014360 1.821600 0.004840 
#    z 0.004120 0.004840 1.832570 
# 
# From -- ./inp_files/604695.got.cif
#   From: 2010.06.25/outbox.cif.g09.slc.cpg/sg2_303_cif.got.tgz:604695.got - 2010.06.27 13:26:56.
