data_PCOD8015801
_publ_section_title
;
Structure prediction by ZEFSAII (Michael W. Deem and Ramdas Pophale) SiO2 
 PCOD8015801
Probable space group: P -1
;
_chemical_formula_sum "Si O2"
_cell_formula_units_Z 16
_cell_length_a 8.920054
_cell_length_b 12.071296
_cell_length_c 8.652282
_cell_angle_alpha 73.029851
_cell_angle_beta 66.585691
_cell_angle_gamma 62.002119
_cell_volume 748.469832
_symmetry_space_group_name_H-M "P -1"
_symmetry_group_IT_number 2
_symmetry_cell_setting 'triclinic'
loop_
_space_group_symop_operation_xyz
x,y,z
-x,-y,-z
loop_
_atom_site_type_symbol
_atom_site_label
_atom_site_fract_x
_atom_site_fract_y
_atom_site_fract_z
Si Si1 0.425557 0.993462 0.697496
Si Si2 0.850812 0.477183 0.669425
Si Si3 0.226597 0.733284 0.367337
Si Si4 0.958377 0.962886 0.198096
Si Si5 0.572166 0.772596 0.285563
Si Si6 0.531198 0.724961 0.674068
Si Si7 0.146569 0.771905 0.731983
Si Si8 0.042304 0.371469 0.944378
O O1 0.491417 0.842809 0.762780
O O2 0.500000 0.000000 0.500000
O O3 0.213255 0.068303 0.740511
O O4 0.485757 0.073631 0.766102
O O5 0.758496 0.402661 0.638505
O O6 0.690060 0.607391 0.734221
O O7 0.000000 0.500000 0.500000
O O8 0.935862 0.397838 0.818132
O O9 0.421566 0.733372 0.294167
O O10 0.132423 0.753325 0.563491
O O11 0.115888 0.839648 0.247778
O O12 0.920745 0.077944 0.283774
O O13 0.000000 0.000000 0.000000
O O14 0.600288 0.742491 0.468858
O O15 0.747753 0.695735 0.147077
O O16 0.349511 0.702206 0.739869
O O17 0.017049 0.720921 0.892494
O O18 0.000000 0.500000 0.000000
#
# Coordination Sequence:
#
# PCOD8015801 Si02
#       8
#     2   2   2   2   2   2   2   2
#     4   9  19  39  67  95 130 167 216 275 322 385
#     4  12  24  43  69  96 128 182 224 263 332 402
#     4  11  25  42  71  96 130 177 220 269 332 399
#     4  11  22  43  67  96 132 175 220 272 332 389
#     4  10  21  43  65  98 134 171 218 275 328 384
#     4   9  21  39  69  96 129 174 224 268 324 391
#     4  10  23  42  65  99 132 172 221 279 326 387
#     4  12  26  45  65  97 139 173 220 277 328 390
#
# _framework density 21.376947000000001
#
# number of rings (size 3 to 8) (size 9 to 14) (size 15 to 20)
#    0.000    1.500    1.250    4.125    3.500    1.500 
#    6.750    1.250    0.000    0.000    0.000    0.000 
#    0.000    0.000    0.000    0.000    0.000    0.000 
#
# Total GULP energy -198387.889832 kJ/mol
# GULP energy per Si atom -12399.243115 kJ/mol
# Density = 2.132829 g / cm^3
# Si number density = 21.376947 Si / 1000 Ang^3
#
#
#
# Elastic Constant Matrix: (Units=GPa)
#
#
# Indices 1 2 3 4 5 6 
#
# 1 115.3389 64.0092 51.0948 1.2577 -20.0522 13.6029
# 2 64.0092 126.4783 26.2823 11.3142 -7.2427 7.2361
# 3 51.0948 26.2823 110.8747 2.5990 -17.9782 -6.0996
# 4 1.2577 11.3142 2.5990 34.9282 -1.5814 2.4683
# 5 -20.0522 -7.2427 -17.9782 -1.5814 37.9908 1.5571
# 6 13.6029 7.2361 -6.0996 2.4683 1.5571 48.6307
#
#
#
# Elastic Compliance Matrix: (Units=1/GPa)
#
#
# Indices 1 2 3 4 5 6 
#
# 1 0.016149 -0.006749 -0.005337 0.002544 0.005001 -0.004472
# 2 -0.006749 0.011482 0.000268 -0.003591 -0.001414 0.000441
# 3 -0.005337 0.000268 0.012047 -0.000871 0.002779 0.002919
# 4 0.002544 -0.003591 -0.000871 0.029969 0.001569 -0.001858
# 5 0.005001 -0.001414 0.002779 0.001569 0.030150 -0.001885
# 6 -0.004472 0.000441 0.002919 -0.001858 -0.001885 0.022269
#
#
# Mechanical properties :
#
#
# Convention : Reuss Voigt Hill
#
# Bulk Modulus (GPa) = 62.34205 70.60716 66.47461
# Shear Modulus (GPa) = 33.10191 38.39700 35.74945
#
# Velocity S-wave (km/s) = 3.93935 4.24274 4.09386
# Velocity P-wave (km/s) = 7.06526 7.55662 7.31506
#
# Compressibility (1/GPa) = 0.01604054
#
# Stress axis : x y z
#
# Youngs Moduli (GPa) = 61.92379 87.09576 83.00961
#
# Poissons Ratio (x) = 0.58782 0.44301
# Poissons Ratio (y) = 0.41793 -0.02222
# Poissons Ratio (z) = 0.33048 -0.02331
#
# Static dielectric constant tensor:
#      x y z
#    x 1.499440 2.931410 0.725150 
#    y 2.931410 1.484120 -0.834200 
#    z 0.725150 -0.834200 3.524220 
# 
# 
# High freq. dielectric constant tensor:
#      x y z
#    x 1.838210 0.012800 -0.018700 
#    y 0.012800 1.852130 0.010230 
#    z -0.018700 0.010230 1.835110 
# 
# From -- ./inp_files/185689.got.cif
#   From: 2010.06.25/outbox.cif.g09.slc.cpg/sg2_93_cif.got.tgz:185689.got - 2010.06.27 13:26:56.
