data_PCOD8015948
_publ_section_title
;
Structure prediction by ZEFSAII (Michael W. Deem and Ramdas Pophale) SiO2 
 PCOD8015948
Probable space group: P -1
;
_chemical_formula_sum "Si O2"
_cell_formula_units_Z 16
_cell_length_a 14.338784
_cell_length_b 8.785660
_cell_length_c 12.330343
_cell_angle_alpha 102.852268
_cell_angle_beta 67.157991
_cell_angle_gamma 148.455948
_cell_volume 729.727863
_symmetry_space_group_name_H-M "P -1"
_symmetry_group_IT_number 2
_symmetry_cell_setting 'triclinic'
loop_
_space_group_symop_operation_xyz
x,y,z
-x,-y,-z
loop_
_atom_site_type_symbol
_atom_site_label
_atom_site_fract_x
_atom_site_fract_y
_atom_site_fract_z
Si Si1 0.163933 0.691873 0.541881
Si Si2 0.643132 0.320283 0.944724
Si Si3 0.540028 0.404329 0.182767
Si Si4 0.534630 0.372602 0.424755
Si Si5 0.372493 0.179101 0.907625
Si Si6 0.094627 0.253799 0.574273
Si Si7 0.170078 0.938656 0.174634
Si Si8 0.971450 0.367898 0.180840
O O1 0.153758 0.493064 0.529558
O O2 0.000000 0.500000 0.500000
O O3 0.130286 0.741894 0.675398
O O4 0.362294 0.020673 0.455792
O O5 0.532408 0.256519 0.881294
O O6 0.857690 0.534863 0.859594
O O7 0.677615 0.487912 0.053675
O O8 0.500000 0.000000 0.000000
O O9 0.612117 0.477938 0.283407
O O10 0.526024 0.566119 0.177762
O O11 0.315458 0.056498 0.218663
O O12 0.500000 0.500000 0.500000
O O13 0.701519 0.540750 0.453070
O O14 0.185937 0.878679 0.877490
O O15 0.293373 0.161403 0.050349
O O16 0.959249 0.098205 0.716979
O O17 0.000000 0.000000 0.500000
O O18 0.047894 0.631153 0.140560
#
# Coordination Sequence:
#
# PCOD8015948 Si02
#       8
#     2   2   2   2   2   2   2   2
#     4  11  25  48  70 102 136 179 236 290 347 416
#     4  11  23  41  71 102 134 182 222 274 357 408
#     4  11  24  45  66  96 143 176 222 286 336 408
#     4  12  25  47  69  98 140 183 235 288 345 412
#     4  11  24  43  66 103 143 173 225 283 345 412
#     4  11  25  45  72 102 134 183 229 288 354 415
#     4  10  21  43  67  98 138 172 219 281 344 410
#     4  11  23  43  71 101 136 175 226 285 342 416
#
# _framework density 21.925982999999999
#
# number of rings (size 3 to 8) (size 9 to 14) (size 15 to 20)
#    0.000    1.000    2.500    6.000    1.750    1.500 
#   15.750    0.000    0.000    0.000    0.000    0.000 
#    0.000    0.000    0.000    0.000    0.000    0.000 
#
# Total GULP energy -198257.156124 kJ/mol
# GULP energy per Si atom -12391.072258 kJ/mol
# Density = 2.187608 g / cm^3
# Si number density = 21.925983 Si / 1000 Ang^3
#
#
#
# Elastic Constant Matrix: (Units=GPa)
#
#
# Indices 1 2 3 4 5 6 
#
# 1 162.2059 65.7420 61.3748 8.8046 -0.3064 11.1284
# 2 65.7420 121.8122 45.7795 19.7006 4.7877 11.1084
# 3 61.3748 45.7795 96.2801 4.4264 5.1763 -1.5391
# 4 8.8046 19.7006 4.4264 30.7218 -2.6635 5.4667
# 5 -0.3064 4.7877 5.1763 -2.6635 39.9550 0.0846
# 6 11.1284 11.1084 -1.5391 5.4667 0.0846 44.1602
#
#
#
# Elastic Compliance Matrix: (Units=1/GPa)
#
#
# Indices 1 2 3 4 5 6 
#
# 1 0.009282 -0.003301 -0.004457 0.000500 0.001081 -0.001728
# 2 -0.003301 0.012565 -0.003520 -0.006440 -0.001501 -0.001651
# 3 -0.004457 -0.003520 0.014983 0.000812 -0.001505 0.002433
# 4 0.000500 -0.006440 0.000812 0.037244 0.003160 -0.003094
# 5 0.001081 -0.001501 -0.001505 0.003160 0.025623 -0.000388
# 6 -0.001728 -0.001651 0.002433 -0.003094 -0.000388 0.023964
#
#
# Mechanical properties :
#
#
# Convention : Reuss Voigt Hill
#
# Bulk Modulus (GPa) = 70.04564 80.67677 75.36120
# Shear Modulus (GPa) = 33.11807 36.79419 34.95613
#
# Velocity S-wave (km/s) = 3.89067 4.10092 3.99717
# Velocity P-wave (km/s) = 7.22487 7.70054 7.46649
#
# Compressibility (1/GPa) = 0.01427641
#
# Stress axis : x y z
#
# Youngs Moduli (GPa) = 107.73000 79.58796 66.74068
#
# Poissons Ratio (x) = 0.26268 0.29743
# Poissons Ratio (y) = 0.35557 0.23492
# Poissons Ratio (z) = 0.48011 0.28014
#
# Static dielectric constant tensor:
#      x y z
#    x 4.058960 0.016900 -0.188630 
#    y 0.016900 4.163110 0.221490 
#    z -0.188630 0.221490 3.406040 
# 
# 
# High freq. dielectric constant tensor:
#      x y z
#    x 1.865250 0.002710 0.004260 
#    y 0.002710 1.883380 0.006360 
#    z 0.004260 0.006360 1.861080 
# 
# From -- ./inp_files/271387.got.cif
#   From: 2010.06.25/outbox.cif.g09.slc.cpg/sg2_136_cif.got.tgz:271387.got - 2010.06.27 13:26:56.
