data_PCOD8015659
_publ_section_title
;
Structure prediction by ZEFSAII (Michael W. Deem and Ramdas Pophale) SiO2 
 PCOD8015659
Probable space group: P -1
;
_chemical_formula_sum "Si O2"
_cell_formula_units_Z 14
_cell_length_a 18.416818
_cell_length_b 8.574605
_cell_length_c 5.334497
_cell_angle_alpha 58.075080
_cell_angle_beta 111.055536
_cell_angle_gamma 131.427115
_cell_volume 536.037160
_symmetry_space_group_name_H-M "P -1"
_symmetry_group_IT_number 2
_symmetry_cell_setting 'triclinic'
loop_
_space_group_symop_operation_xyz
x,y,z
-x,-y,-z
loop_
_atom_site_type_symbol
_atom_site_label
_atom_site_fract_x
_atom_site_fract_y
_atom_site_fract_z
Si Si1 0.992803 0.703729 0.355803
Si Si2 0.341996 0.000116 0.472939
Si Si3 0.900131 0.131882 0.142936
Si Si4 0.299744 0.609242 0.058541
Si Si5 0.818416 0.402759 0.686501
Si Si6 0.544561 0.407267 0.457329
Si Si7 0.712241 0.719538 0.042510
O O1 0.056365 0.860149 0.540526
O O2 0.000000 0.500000 0.500000
O O3 0.879528 0.585509 0.381144
O O4 0.030872 0.846179 0.020425
O O5 0.287202 0.819298 0.334479
O O6 0.456784 0.172207 0.417778
O O7 0.322097 0.855770 0.821854
O O8 0.294110 0.137708 0.312130
O O9 0.798103 0.884740 0.200451
O O10 0.885341 0.332581 0.940431
O O11 0.206133 0.477655 0.237096
O O12 0.393722 0.649719 0.259182
O O13 0.272890 0.462347 0.896192
O O14 0.500000 0.500000 0.500000
O O15 0.610285 0.592513 0.169037
#
# Coordination Sequence:
#
# PCOD8015659 Si02
#       7
#     2   2   2   2   2   2   2
#     4  10  21  42  74 115 147 203 254 311 374 466
#     4  11  26  46  74 104 144 197 250 304 385 445
#     4  10  24  42  79 107 154 203 254 306 389 447
#     4  12  27  45  74 109 152 190 254 315 377 452
#     4  10  24  40  72 107 150 189 252 311 373 455
#     4  12  27  48  75 103 149 198 252 313 382 457
#     4  11  27  48  73 107 153 194 252 317 377 455
#
# _framework density 26.117591999999998
#
# number of rings (size 3 to 8) (size 9 to 14) (size 15 to 20)
#    0.000    1.143    1.429    3.429   14.000    2.286 
#    0.000    1.429    0.000    0.000    0.000    0.000 
#    0.000    0.000    0.000    0.000    0.000    0.000 
#
# Total GULP energy -173563.614047 kJ/mol
# GULP energy per Si atom -12397.401003 kJ/mol
# Density = 2.605815 g / cm^3
# Si number density = 26.117592 Si / 1000 Ang^3
#
#
#
# Elastic Constant Matrix: (Units=GPa)
#
#
# Indices 1 2 3 4 5 6 
#
# 1 175.4629 69.4515 47.5652 -2.1788 -41.7474 3.8665
# 2 69.4515 129.3972 38.5180 9.2167 -11.1697 19.0062
# 3 47.5652 38.5180 106.6708 2.1372 -4.9803 -8.4917
# 4 -2.1788 9.2167 2.1372 38.2917 -3.8223 -1.3380
# 5 -41.7474 -11.1697 -4.9803 -3.8223 45.5232 2.3119
# 6 3.8665 19.0062 -8.4917 -1.3380 2.3119 24.3216
#
#
#
# Elastic Compliance Matrix: (Units=1/GPa)
#
#
# Indices 1 2 3 4 5 6 
#
# 1 0.009971 -0.004044 -0.002658 0.002495 0.008070 0.000018
# 2 -0.004044 0.012732 -0.003609 -0.003540 -0.000734 -0.010692
# 3 -0.002658 -0.003609 0.012371 0.000064 -0.002359 0.007790
# 4 0.002495 -0.003540 0.000064 0.027586 0.003562 0.003571
# 5 0.008070 -0.000734 -0.002359 0.003562 0.029438 -0.004135
# 6 0.000018 -0.010692 0.007790 0.003571 -0.004135 0.052777
#
#
# Mechanical properties :
#
#
# Convention : Reuss Voigt Hill
#
# Bulk Modulus (GPa) = 69.18709 80.28893 74.73801
# Shear Modulus (GPa) = 29.35736 38.69371 34.02554
#
# Velocity S-wave (km/s) = 3.35632 3.85323 3.61332
# Velocity P-wave (km/s) = 6.44732 7.11369 6.78868
#
# Compressibility (1/GPa) = 0.01445356
#
# Stress axis : x y z
#
# Youngs Moduli (GPa) = 100.29013 78.54028 80.83184
#
# Poissons Ratio (x) = 0.31765 0.21482
# Poissons Ratio (y) = 0.40562 0.29169
# Poissons Ratio (z) = 0.26653 0.28342
#
# Static dielectric constant tensor:
#      x y z
#    x 4.987740 0.237560 -0.127180 
#    y 0.237560 4.882160 -0.103700 
#    z -0.127180 -0.103700 4.716630 
# 
# 
# High freq. dielectric constant tensor:
#      x y z
#    x 2.047360 0.012600 0.003790 
#    y 0.012600 2.047650 0.002960 
#    z 0.003790 0.002960 2.043050 
# 
# From -- ./inp_files/106365.got.cif
#   From: 2010.06.25/outbox.cif.g09.slc.cpg/sg2_54_cif.got.tgz:106365.got - 2010.06.27 13:26:56.
