data_PCOD8015273
_publ_section_title
;
Structure prediction by ZEFSAII (Michael W. Deem and Ramdas Pophale) SiO2 
 PCOD8015273
Probable space group: P -1
;
_chemical_formula_sum "Si O2"
_cell_formula_units_Z 16
_cell_length_a 10.689578
_cell_length_b 9.410360
_cell_length_c 8.526093
_cell_angle_alpha 86.774104
_cell_angle_beta 70.309498
_cell_angle_gamma 107.116189
_cell_volume 760.146338
_symmetry_space_group_name_H-M "P -1"
_symmetry_group_IT_number 2
_symmetry_cell_setting 'triclinic'
loop_
_space_group_symop_operation_xyz
x,y,z
-x,-y,-z
loop_
_atom_site_type_symbol
_atom_site_label
_atom_site_fract_x
_atom_site_fract_y
_atom_site_fract_z
Si Si1 0.801128 0.376772 0.501701
Si Si2 0.702511 0.905730 0.685122
Si Si3 0.615157 0.162469 0.118024
Si Si4 0.346576 0.442156 0.250460
Si Si5 0.337111 0.927546 0.585652
Si Si6 0.161729 0.808660 0.221693
Si Si7 0.934585 0.576641 0.155878
Si Si8 0.663105 0.497078 0.100997
O O1 0.720826 0.487160 0.591131
O O2 0.694452 0.235513 0.467728
O O3 0.872996 0.313049 0.615158
O O4 0.916488 0.471565 0.323229
O O5 0.554101 0.915195 0.813918
O O6 0.708351 0.738708 0.697360
O O7 0.732505 0.967449 0.488819
O O8 0.825556 0.023454 0.732047
O O9 0.693650 0.082798 0.213049
O O10 0.644096 0.327633 0.166599
O O11 0.684709 0.172844 0.917795
O O12 0.515296 0.524359 0.191632
O O13 0.294133 0.474185 0.100717
O O14 0.500000 0.000000 0.500000
O O15 0.040169 0.743991 0.146438
O O16 0.789929 0.598478 0.152368
O O17 0.000000 0.500000 0.000000
#
# Coordination Sequence:
#
# PCOD8015273 Si02
#       8
#     2   2   2   2   2   2   2   2
#     4  11  21  37  62  90 115 159 201 241 295 353
#     4   9  21  35  57  86 123 153 194 243 300 346
#     4  10  16  36  58  86 116 147 197 251 290 335
#     4  10  21  40  60  86 123 155 198 239 297 359
#     4   9  18  34  54  87 121 143 193 249 295 336
#     4  11  21  36  60  90 114 156 203 244 295 345
#     4  12  22  38  60  88 121 152 204 251 288 349
#     4  10  20  37  60  87 119 157 192 249 293 343
#
# _framework density 21.048577000000002
#
# number of rings (size 3 to 8) (size 9 to 14) (size 15 to 20)
#    0.000    1.750    3.750    0.750    0.000    0.500 
#    0.000    1.250    0.000    0.000    0.000    0.000 
#    0.000    0.000    0.000    0.000    0.000    0.000 
#
# Total GULP energy -198258.445372 kJ/mol
# GULP energy per Si atom -12391.152836 kJ/mol
# Density = 2.100067 g / cm^3
# Si number density = 21.048577 Si / 1000 Ang^3
#
#
#
# Elastic Constant Matrix: (Units=GPa)
#
#
# Indices 1 2 3 4 5 6 
#
# 1 72.7013 42.8202 19.5991 1.3831 14.6226 23.2133
# 2 42.8202 105.7593 25.9307 -1.6898 4.5009 23.1455
# 3 19.5991 25.9307 108.6417 -13.8562 5.6485 0.1917
# 4 1.3831 -1.6898 -13.8562 25.8806 -3.3101 5.6370
# 5 14.6226 4.5009 5.6485 -3.3101 26.3884 4.8484
# 6 23.2133 23.1455 0.1917 5.6370 4.8484 28.9181
#
#
#
# Elastic Compliance Matrix: (Units=1/GPa)
#
#
# Indices 1 2 3 4 5 6 
#
# 1 0.023883 -0.005918 -0.002573 -0.001538 -0.009568 -0.012514
# 2 -0.005918 0.013858 -0.002121 0.002035 0.002951 -0.007219
# 3 -0.002573 -0.002121 0.010848 0.005157 -0.000393 0.002752
# 4 -0.001538 0.002035 0.005157 0.044744 0.006908 -0.010308
# 5 -0.009568 0.002951 -0.000393 0.006908 0.044278 -0.003449
# 6 -0.012514 -0.007219 0.002752 -0.010308 -0.003449 0.052973
#
#
# Mechanical properties :
#
#
# Convention : Reuss Voigt Hill
#
# Bulk Modulus (GPa) = 36.54107 51.53360 44.03734
# Shear Modulus (GPa) = 22.63138 29.48758 26.05948
#
# Velocity S-wave (km/s) = 3.28258 3.74696 3.52243
# Velocity P-wave (km/s) = 5.63606 6.57693 6.12458
#
# Compressibility (1/GPa) = 0.02736646
#
# Stress axis : x y z
#
# Youngs Moduli (GPa) = 41.86993 72.15842 92.17968
#
# Poissons Ratio (x) = 0.42702 0.23716
# Poissons Ratio (y) = 0.24778 0.19554
# Poissons Ratio (z) = 0.10772 0.15307
#
# Static dielectric constant tensor:
#      x y z
#    x 3.743100 0.423500 0.395570 
#    y 0.423500 3.214130 -0.009320 
#    z 0.395570 -0.009320 4.346820 
# 
# 
# High freq. dielectric constant tensor:
#      x y z
#    x 1.798310 0.029020 0.019940 
#    y 0.029020 1.818630 -0.015550 
#    z 0.019940 -0.015550 1.832650 
# 
# From -- ./inp_files/181475.got.cif
#   From: 2010.06.25/outbox.cif.g09.slc.cpg/sg2_91_cif.got.tgz:181475.got - 2010.06.27 13:26:56.
