data_PCOD8015854
_publ_section_title
;
Structure prediction by ZEFSAII (Michael W. Deem and Ramdas Pophale) SiO2 
 PCOD8015854
Probable space group: P -1
;
_chemical_formula_sum "Si O2"
_cell_formula_units_Z 16
_cell_length_a 23.149939
_cell_length_b 13.339402
_cell_length_c 9.570265
_cell_angle_alpha 134.659666
_cell_angle_beta 25.107763
_cell_angle_gamma 143.494343
_cell_volume 742.367389
_symmetry_space_group_name_H-M "P -1"
_symmetry_group_IT_number 2
_symmetry_cell_setting 'triclinic'
loop_
_space_group_symop_operation_xyz
x,y,z
-x,-y,-z
loop_
_atom_site_type_symbol
_atom_site_label
_atom_site_fract_x
_atom_site_fract_y
_atom_site_fract_z
Si Si1 0.843037 0.873081 0.136681
Si Si2 0.820466 0.365005 0.195460
Si Si3 0.335515 0.964963 0.626467
Si Si4 0.397783 0.468148 0.556297
Si Si5 0.315099 0.732946 0.896579
Si Si6 0.850062 0.867191 0.792718
Si Si7 0.612111 0.501132 0.874153
Si Si8 0.310568 0.920866 0.334616
O O1 0.778687 0.697815 0.186476
O O2 0.716861 0.929571 0.487511
O O3 0.893471 0.870249 0.863553
O O4 0.000000 0.000000 0.000000
O O5 0.753169 0.172498 0.192540
O O6 0.818873 0.369264 0.032947
O O7 0.676474 0.383085 0.583615
O O8 0.000000 0.500000 0.000000
O O9 0.252859 0.857658 0.558421
O O10 0.533998 0.081466 0.305904
O O11 0.293423 0.102957 0.877724
O O12 0.500000 0.500000 0.500000
O O13 0.382175 0.621951 0.697343
O O14 0.495987 0.432058 0.194173
O O15 0.228599 0.769849 0.250383
O O16 0.779820 0.683028 0.704721
O O17 0.000000 0.000000 0.500000
O O18 0.500000 0.500000 0.000000
O O19 0.500000 0.000000 0.000000
#
# Coordination Sequence:
#
# PCOD8015854 Si02
#       8
#     2   2   2   2   2   2   2   2
#     4  11  26  43  66 105 133 173 221 282 345 394
#     4  12  27  43  63 101 142 177 224 275 339 399
#     4  10  21  43  66  95 129 172 227 272 331 401
#     4  12  23  45  73  97 137 174 236 281 329 408
#     4  11  23  44  67 100 129 177 226 278 329 398
#     4  11  23  43  67  97 138 174 220 277 338 403
#     4  12  25  44  69 101 131 185 228 276 334 393
#     4   9  21  41  69  94 125 171 221 272 333 395
#
# _framework density 21.552671
#
# number of rings (size 3 to 8) (size 9 to 14) (size 15 to 20)
#    0.000    1.000    3.750    2.625    7.000    4.000 
#    0.000    1.250    0.000    0.000    0.000    0.000 
#    0.000    0.000    0.000    0.000    0.000    0.000 
#
# Total GULP energy -198294.256924 kJ/mol
# GULP energy per Si atom -12393.391058 kJ/mol
# Density = 2.150362 g / cm^3
# Si number density = 21.552671 Si / 1000 Ang^3
#
#
#
# Elastic Constant Matrix: (Units=GPa)
#
#
# Indices 1 2 3 4 5 6 
#
# 1 144.9872 43.6285 27.7444 -4.9839 7.2514 14.4202
# 2 43.6285 98.8387 12.1207 -19.2591 5.6936 3.2415
# 3 27.7444 12.1207 66.7959 -4.2086 17.7333 2.4884
# 4 -4.9839 -19.2591 -4.2086 43.7018 3.7597 2.1663
# 5 7.2514 5.6936 17.7333 3.7597 36.9392 0.5917
# 6 14.4202 3.2415 2.4884 2.1663 0.5917 39.8267
#
#
#
# Elastic Compliance Matrix: (Units=1/GPa)
#
#
# Indices 1 2 3 4 5 6 
#
# 1 0.008779 -0.003589 -0.003056 -0.000779 0.000419 -0.002659
# 2 -0.003589 0.012865 -0.000019 0.005416 -0.001820 -0.000014
# 3 -0.003056 -0.000019 0.018660 0.002180 -0.008576 -0.000049
# 4 -0.000779 0.005416 0.002180 0.025844 -0.004333 -0.001636
# 5 0.000419 -0.001820 -0.008576 -0.004333 0.031823 0.000295
# 6 -0.002659 -0.000014 -0.000049 -0.001636 0.000295 0.026160
#
#
# Mechanical properties :
#
#
# Convention : Reuss Voigt Hill
#
# Bulk Modulus (GPa) = 37.07100 53.06768 45.06934
# Shear Modulus (GPa) = 34.14121 39.23542 36.68831
#
# Velocity S-wave (km/s) = 3.98437 4.27129 4.13032
# Velocity P-wave (km/s) = 6.19713 7.00007 6.61081
#
# Compressibility (1/GPa) = 0.02697527
#
# Stress axis : x y z
#
# Youngs Moduli (GPa) = 113.91167 77.73308 53.59076
#
# Poissons Ratio (x) = 0.27898 0.16379
# Poissons Ratio (y) = 0.40882 0.00100
# Poissons Ratio (z) = 0.34815 0.00145
#
# Static dielectric constant tensor:
#      x y z
#    x 4.228270 0.212300 0.304280 
#    y 0.212300 4.033860 0.250730 
#    z 0.304280 0.250730 4.068850 
# 
# 
# High freq. dielectric constant tensor:
#      x y z
#    x 1.859930 0.002850 0.009650 
#    y 0.002850 1.843900 0.011710 
#    z 0.009650 0.011710 1.841110 
# 
# From -- ./inp_files/346326.got.cif
#   From: 2010.06.25/outbox.cif.g09.slc.cpg/sg2_174_cif.got.tgz:346326.got - 2010.06.27 13:26:56.
