data_PCOD8015520
_publ_section_title
;
Structure prediction by ZEFSAII (Michael W. Deem and Ramdas Pophale) SiO2 
 PCOD8015520
Probable space group: P -1
;
_chemical_formula_sum "Si O2"
_cell_formula_units_Z 16
_cell_length_a 9.244808
_cell_length_b 9.280944
_cell_length_c 21.006800
_cell_angle_alpha 143.038146
_cell_angle_beta 123.233858
_cell_angle_gamma 47.635747
_cell_volume 800.568265
_symmetry_space_group_name_H-M "P -1"
_symmetry_group_IT_number 2
_symmetry_cell_setting 'triclinic'
loop_
_space_group_symop_operation_xyz
x,y,z
-x,-y,-z
loop_
_atom_site_type_symbol
_atom_site_label
_atom_site_fract_x
_atom_site_fract_y
_atom_site_fract_z
Si Si1 0.558294 0.905449 0.787118
Si Si2 0.069367 0.384283 0.406248
Si Si3 0.124277 0.338026 0.859342
Si Si4 0.486098 0.228932 0.412006
Si Si5 0.846551 0.200012 0.808182
Si Si6 0.784989 0.346009 0.711618
Si Si7 0.294224 0.704445 0.052562
Si Si8 0.146712 0.072925 0.523772
O O1 0.528882 0.896365 0.702162
O O2 0.633418 0.618640 0.737245
O O3 0.347619 0.105834 0.835952
O O4 0.724505 0.006023 0.871834
O O5 0.296444 0.301536 0.433322
O O6 0.000000 0.500000 0.500000
O O7 0.954448 0.609280 0.404146
O O8 0.039893 0.126384 0.288969
O O9 0.013908 0.300474 0.881917
O O10 0.004162 0.322547 0.762600
O O11 0.126120 0.629893 0.961550
O O12 0.500000 0.500000 0.500000
O O13 0.666534 0.000948 0.413484
O O14 0.706971 0.332083 0.758929
O O15 0.712025 0.303253 0.874490
O O16 0.794419 0.094330 0.586515
O O17 0.500000 0.500000 0.000000
O O18 0.000000 0.000000 0.500000
#
# Coordination Sequence:
#
# PCOD8015520 Si02
#       8
#     2   2   2   2   2   2   2   2
#     4  11  21  41  65  96 124 167 215 265 308 383
#     4  12  24  42  61  96 135 169 217 264 307 386
#     4   9  22  40  68  86 126 167 206 262 333 363
#     4  12  24  38  66  90 133 173 213 258 324 371
#     4  10  22  43  63  93 133 166 208 267 315 385
#     4  10  22  38  64  91 130 166 215 251 318 383
#     4  10  21  42  70  92 122 165 216 274 317 369
#     4  12  23  39  64  95 129 176 215 256 316 386
#
# _framework density 19.985804000000002
#
# number of rings (size 3 to 8) (size 9 to 14) (size 15 to 20)
#    0.750    0.500    5.000    1.125    1.750    1.000 
#    2.250    2.500    2.750    0.000    0.000    0.000 
#    0.000    0.000    0.000    0.000    0.000    0.000 
#
# Total GULP energy -198244.011607 kJ/mol
# GULP energy per Si atom -12390.250725 kJ/mol
# Density = 1.994032 g / cm^3
# Si number density = 19.985804 Si / 1000 Ang^3
#
#
#
# Elastic Constant Matrix: (Units=GPa)
#
#
# Indices 1 2 3 4 5 6 
#
# 1 111.3179 32.1710 27.8421 3.4385 -11.7729 3.6981
# 2 32.1710 127.8063 29.0209 -5.1070 3.0028 -3.6637
# 3 27.8421 29.0209 95.4638 5.0330 1.8054 6.1095
# 4 3.4385 -5.1070 5.0330 17.8125 6.8253 -0.3191
# 5 -11.7729 3.0028 1.8054 6.8253 44.1865 -4.4316
# 6 3.6981 -3.6637 6.1095 -0.3191 -4.4316 24.3600
#
#
#
# Elastic Compliance Matrix: (Units=1/GPa)
#
#
# Indices 1 2 3 4 5 6 
#
# 1 0.010765 -0.002456 -0.002220 -0.003545 0.003589 -0.000840
# 2 -0.002456 0.009278 -0.002447 0.004502 -0.001666 0.002138
# 3 -0.002220 -0.002447 0.012276 -0.003528 -0.000711 -0.003286
# 4 -0.003545 0.004502 -0.003528 0.063261 -0.010781 0.000968
# 5 0.003589 -0.001666 -0.000711 -0.010781 0.025790 0.003933
# 6 -0.000840 0.002138 -0.003286 0.000968 0.003933 0.043052
#
#
# Mechanical properties :
#
#
# Convention : Reuss Voigt Hill
#
# Bulk Modulus (GPa) = 55.32877 56.96177 56.14527
# Shear Modulus (GPa) = 27.07180 33.64206 30.35693
#
# Velocity S-wave (km/s) = 3.68442 4.10725 3.90157
# Velocity P-wave (km/s) = 6.77082 7.14533 6.96059
#
# Compressibility (1/GPa) = 0.01807378
#
# Stress axis : x y z
#
# Youngs Moduli (GPa) = 92.89071 107.77625 81.45716
#
# Poissons Ratio (x) = 0.26467 0.18087
# Poissons Ratio (y) = 0.22811 0.19934
# Poissons Ratio (z) = 0.20625 0.26374
#
# Static dielectric constant tensor:
#      x y z
#    x 3.811870 0.127960 0.224480 
#    y 0.127960 3.673340 0.171940 
#    z 0.224480 0.171940 4.007680 
# 
# 
# High freq. dielectric constant tensor:
#      x y z
#    x 1.786110 0.013030 0.005330 
#    y 0.013030 1.759220 0.007290 
#    z 0.005330 0.007290 1.789740 
# 
# From -- ./inp_files/588220.got.cif
#   From: 2010.06.25/outbox.cif.g09.slc.cpg/sg2_295_cif.got.tgz:588220.got - 2010.06.27 13:26:56.
