data_PCOD8015694
_publ_section_title
;
Structure prediction by ZEFSAII (Michael W. Deem and Ramdas Pophale) SiO2 
 PCOD8015694
Probable space group: P -1
;
_chemical_formula_sum "Si O2"
_cell_formula_units_Z 16
_cell_length_a 14.457472
_cell_length_b 8.650555
_cell_length_c 9.378192
_cell_angle_alpha 55.395067
_cell_angle_beta 99.032159
_cell_angle_gamma 63.491848
_cell_volume 717.318734
_symmetry_space_group_name_H-M "P -1"
_symmetry_group_IT_number 2
_symmetry_cell_setting 'triclinic'
loop_
_space_group_symop_operation_xyz
x,y,z
-x,-y,-z
loop_
_atom_site_type_symbol
_atom_site_label
_atom_site_fract_x
_atom_site_fract_y
_atom_site_fract_z
Si Si1 0.206087 0.189315 0.243953
Si Si2 0.209777 0.247362 0.522693
Si Si3 0.841924 0.066297 0.206254
Si Si4 0.432651 0.430047 0.109459
Si Si5 0.461953 0.020421 0.816172
Si Si6 0.466972 0.723413 0.466335
Si Si7 0.978023 0.269031 0.139344
Si Si8 0.006408 0.209390 0.861264
O O1 0.260568 0.208263 0.393659
O O2 0.109620 0.155561 0.298993
O O3 0.318206 0.955369 0.300835
O O4 0.139241 0.442224 0.000964
O O5 0.324776 0.109240 0.732757
O O6 0.110091 0.542181 0.381257
O O7 0.152504 0.111890 0.588179
O O8 0.946596 0.090354 0.251911
O O9 0.711215 0.340567 0.022649
O O10 0.871286 0.927315 0.134366
O O11 0.495110 0.335540 0.328594
O O12 0.440932 0.232861 0.118215
O O13 0.500000 0.500000 0.000000
O O14 0.454302 0.224325 0.623646
O O15 0.500000 0.000000 0.000000
O O16 0.500000 0.500000 0.500000
O O17 0.011903 0.294858 0.972062
O O18 0.000000 0.000000 0.000000
#
# Coordination Sequence:
#
# PCOD8015694 Si02
#       8
#     2   2   2   2   2   2   2   2
#     4  10  21  43  62  97 134 179 234 290 343 429
#     4  11  23  42  67  94 141 179 230 293 354 418
#     4  11  22  39  67  96 135 179 224 282 360 411
#     4  12  24  46  71 102 145 187 232 298 355 427
#     4  12  27  46  69 103 142 191 246 296 350 420
#     4  12  27  41  71 104 138 191 239 292 365 423
#     4   9  21  38  67  94 131 176 232 287 345 419
#     4   9  21  38  64  96 128 174 225 283 341 416
#
# _framework density 22.305285999999999
#
# number of rings (size 3 to 8) (size 9 to 14) (size 15 to 20)
#    0.000    1.250    2.500    2.250    7.000    1.500 
#    0.000    3.750    0.000    0.000    0.000    0.000 
#    0.000    0.000    0.000    0.000    0.000    0.000 
#
# Total GULP energy -198241.548110 kJ/mol
# GULP energy per Si atom -12390.096757 kJ/mol
# Density = 2.225452 g / cm^3
# Si number density = 22.305286 Si / 1000 Ang^3
#
#
#
# Elastic Constant Matrix: (Units=GPa)
#
#
# Indices 1 2 3 4 5 6 
#
# 1 102.6287 29.2336 32.3032 -8.8493 -9.3289 8.4296
# 2 29.2336 163.0486 53.0356 -18.8258 9.5838 -9.6459
# 3 32.3032 53.0356 96.6786 0.7083 -4.0713 1.9648
# 4 -8.8493 -18.8258 0.7083 47.6603 2.0743 -0.8735
# 5 -9.3289 9.5838 -4.0713 2.0743 35.5037 -6.6271
# 6 8.4296 -9.6459 1.9648 -0.8735 -6.6271 37.6862
#
#
#
# Elastic Compliance Matrix: (Units=1/GPa)
#
#
# Indices 1 2 3 4 5 6 
#
# 1 0.011600 -0.001170 -0.003095 0.001588 0.002495 -0.002257
# 2 -0.001170 0.008482 -0.004454 0.003366 -0.002887 0.002235
# 3 -0.003095 -0.004454 0.013942 -0.002643 0.001976 -0.000888
# 4 0.001588 0.003366 -0.002643 0.022746 -0.001970 0.000825
# 5 0.002495 -0.002887 0.001976 -0.001970 0.030680 0.003949
# 6 -0.002257 0.002235 -0.000888 0.000825 0.003949 0.028372
#
#
# Mechanical properties :
#
#
# Convention : Reuss Voigt Hill
#
# Bulk Modulus (GPa) = 60.28961 65.72230 63.00595
# Shear Modulus (GPa) = 36.02594 40.68893 38.35744
#
# Velocity S-wave (km/s) = 4.02323 4.27568 4.15137
# Velocity P-wave (km/s) = 6.97637 7.34194 7.16149
#
# Compressibility (1/GPa) = 0.01658661
#
# Stress axis : x y z
#
# Youngs Moduli (GPa) = 86.20403 117.89299 71.72788
#
# Poissons Ratio (x) = 0.13794 0.22199
# Poissons Ratio (y) = 0.10086 0.31947
# Poissons Ratio (z) = 0.26679 0.52508
#
# Static dielectric constant tensor:
#      x y z
#    x 3.951270 -0.204970 -0.070480 
#    y -0.204970 4.825410 0.232070 
#    z -0.070480 0.232070 4.093250 
# 
# 
# High freq. dielectric constant tensor:
#      x y z
#    x 1.876340 -0.000180 -0.007410 
#    y -0.000180 1.892810 -0.011860 
#    z -0.007410 -0.011860 1.870720 
# 
# From -- ./inp_files/297683.got.cif
#   From: 2010.06.25/outbox.cif.g09.slc.cpg/sg2_149_cif.got.tgz:297683.got - 2010.06.27 13:26:56.
