data_PCOD8015961
_publ_section_title
;
Structure prediction by ZEFSAII (Michael W. Deem and Ramdas Pophale) SiO2 
 PCOD8015961
Probable space group: P -1
;
_chemical_formula_sum "Si O2"
_cell_formula_units_Z 12
_cell_length_a 12.638807
_cell_length_b 12.179703
_cell_length_c 5.206631
_cell_angle_alpha 59.724248
_cell_angle_beta 64.872394
_cell_angle_gamma 48.897906
_cell_volume 516.205544
_symmetry_space_group_name_H-M "P -1"
_symmetry_group_IT_number 2
_symmetry_cell_setting 'triclinic'
loop_
_space_group_symop_operation_xyz
x,y,z
-x,-y,-z
loop_
_atom_site_type_symbol
_atom_site_label
_atom_site_fract_x
_atom_site_fract_y
_atom_site_fract_z
Si Si1 0.747073 0.119967 0.827809
Si Si2 0.397358 0.960607 0.539173
Si Si3 0.855334 0.844841 0.738883
Si Si4 0.999446 0.651190 0.313439
Si Si5 0.732080 0.366994 0.838251
Si Si6 0.523346 0.337681 0.431483
O O1 0.815657 0.201037 0.799125
O O2 0.590269 0.262551 0.727148
O O3 0.850338 0.000929 0.635504
O O4 0.722747 0.016066 0.166921
O O5 0.492204 0.782843 0.568609
O O6 0.500000 0.000000 0.500000
O O7 0.309687 0.081171 0.253733
O O8 0.952406 0.746258 0.515918
O O9 0.901763 0.739856 0.065373
O O10 0.000000 0.500000 0.500000
O O11 0.157470 0.608920 0.159631
O O12 0.634001 0.505925 0.572248
O O13 0.631962 0.369674 0.154210
#
# Coordination Sequence:
#
# PCOD8015961 Si02
#       6
#     2   2   2   2   2   2
#     4  10  21  43  68 101 133 176 230 285 338 393
#     4  10  22  41  71 101 134 181 224 286 337 394
#     4  11  25  48  68 100 138 173 234 277 337 411
#     4  12  28  47  69 100 139 185 223 278 344 410
#     4  10  23  41  67 100 139 181 226 281 339 402
#     4   9  21  41  66 102 137 174 233 281 336 399
#
# _framework density 23.246552999999999
#
# number of rings (size 3 to 8) (size 9 to 14) (size 15 to 20)
#    0.000    1.667    1.667    1.000    4.667    5.333 
#    0.000    0.000    0.000    0.000    0.000    0.000 
#    0.000    0.000    0.000    0.000    0.000    0.000 
#
# Total GULP energy -148678.681928 kJ/mol
# GULP energy per Si atom -12389.890161 kJ/mol
# Density = 2.319364 g / cm^3
# Si number density = 23.246553 Si / 1000 Ang^3
#
#
#
# Elastic Constant Matrix: (Units=GPa)
#
#
# Indices 1 2 3 4 5 6 
#
# 1 164.9491 64.2798 57.9888 -25.4228 -7.7764 23.0787
# 2 64.2798 127.4513 46.6016 -9.0382 0.6555 8.7475
# 3 57.9888 46.6016 98.4892 -24.2097 26.4886 6.4156
# 4 -25.4228 -9.0382 -24.2097 37.8381 -0.1142 12.3798
# 5 -7.7764 0.6555 26.4886 -0.1142 37.5035 -9.7422
# 6 23.0787 8.7475 6.4156 12.3798 -9.7422 25.4416
#
#
#
# Elastic Compliance Matrix: (Units=1/GPa)
#
#
# Indices 1 2 3 4 5 6 
#
# 1 0.011590 -0.003524 -0.001738 0.010370 0.000123 -0.013863
# 2 -0.003524 0.011092 -0.006144 -0.005401 0.004801 0.005399
# 3 -0.001738 -0.006144 0.029303 0.024634 -0.027706 -0.026296
# 4 0.010370 -0.005401 0.024634 0.066637 -0.029926 -0.057646
# 5 0.000123 0.004801 -0.027706 -0.029926 0.056881 0.041568
# 6 -0.013863 0.005399 -0.026296 -0.057646 0.041568 0.100624
#
#
# Mechanical properties :
#
#
# Convention : Reuss Voigt Hill
#
# Bulk Modulus (GPa) = 34.27699 80.95890 57.61795
# Shear Modulus (GPa) = 16.19893 34.95792 25.57842
#
# Velocity S-wave (km/s) = 2.64262 3.88208 3.32069
# Velocity P-wave (km/s) = 4.90798 7.41592 6.28825
#
# Compressibility (1/GPa) = 0.02917409
#
# Stress axis : x y z
#
# Youngs Moduli (GPa) = 86.27920 90.15827 34.12603
#
# Poissons Ratio (x) = 0.31771 0.05930
# Poissons Ratio (y) = 0.30404 0.20966
# Poissons Ratio (z) = 0.14993 0.55392
#
# Static dielectric constant tensor:
#      x y z
#    x 4.048010 0.147300 0.391680 
#    y 0.147300 4.530130 -0.270840 
#    z 0.391680 -0.270840 4.156380 
# 
# 
# High freq. dielectric constant tensor:
#      x y z
#    x 1.908790 0.017090 0.031490 
#    y 0.017090 1.932710 -0.018300 
#    z 0.031490 -0.018300 1.905150 
# 
# From -- ./inp_files/23470.got.cif
#   From: 2010.06.25/outbox.cif.g09.slc.cpg/sg2_12_cif.got.tgz:23470.got - 2010.06.27 13:26:56.
