data_PCOD8015173
_publ_section_title
;
Structure prediction by ZEFSAII (Michael W. Deem and Ramdas Pophale) SiO2 
 PCOD8015173
Probable space group: P -1
;
_chemical_formula_sum "Si O2"
_cell_formula_units_Z 16
_cell_length_a 8.928636
_cell_length_b 5.671572
_cell_length_c 28.784622
_cell_angle_alpha 128.130763
_cell_angle_beta 139.191180
_cell_angle_gamma 52.677811
_cell_volume 721.444244
_symmetry_space_group_name_H-M "P -1"
_symmetry_group_IT_number 2
_symmetry_cell_setting 'triclinic'
loop_
_space_group_symop_operation_xyz
x,y,z
-x,-y,-z
loop_
_atom_site_type_symbol
_atom_site_label
_atom_site_fract_x
_atom_site_fract_y
_atom_site_fract_z
Si Si1 0.015092 0.841562 0.310537
Si Si2 0.328001 0.704614 0.218605
Si Si3 0.239077 0.714561 0.968690
Si Si4 0.129953 0.372359 0.061345
Si Si5 0.516604 0.470188 0.422023
Si Si6 0.209314 0.379965 0.418974
Si Si7 0.779587 0.887874 0.355813
Si Si8 0.075252 0.357291 0.192694
O O1 0.817502 0.900577 0.311053
O O2 0.289828 0.683849 0.369272
O O3 0.934575 0.639154 0.227105
O O4 0.031004 0.176369 0.337866
O O5 0.325371 0.533184 0.147116
O O6 0.593942 0.681431 0.295017
O O7 0.225025 0.521451 0.212680
O O8 0.212992 0.075684 0.225102
O O9 0.077542 0.545629 0.939183
O O10 0.115330 0.780327 0.896915
O O11 0.500000 0.500000 0.000000
O O12 0.257940 0.012839 0.038700
O O13 0.000000 0.500000 0.000000
O O14 0.424753 0.298823 0.422553
O O15 0.680876 0.670808 0.509175
O O16 0.678652 0.230261 0.394968
O O17 0.038361 0.732436 0.419727
#
# Coordination Sequence:
#
# PCOD8015173 Si02
#       8
#     2   2   2   2   2   2   2   2
#     4  11  24  39  64  93 128 170 225 270 331 396
#     4  11  24  44  70  94 135 182 215 274 337 390
#     4  10  23  42  66  99 130 174 219 273 328 391
#     4  10  21  42  66  93 134 169 220 268 329 393
#     4  10  21  43  62  90 132 170 213 278 335 390
#     4  10  23  39  64  94 127 171 220 273 330 400
#     4  11  24  39  64  95 126 172 225 270 329 393
#     4  11  24  45  68  95 137 177 218 271 338 394
#
# _framework density 22.177734999999998
#
# number of rings (size 3 to 8) (size 9 to 14) (size 15 to 20)
#    0.000    1.500    2.500    1.500    3.500    4.000 
#    2.250    0.000    0.000    0.000    0.000    0.000 
#    0.000    0.000    0.000    0.000    0.000    0.000 
#
# Total GULP energy -198218.914105 kJ/mol
# GULP energy per Si atom -12388.682132 kJ/mol
# Density = 2.212726 g / cm^3
# Si number density = 22.177735 Si / 1000 Ang^3
#
#
#
# Elastic Constant Matrix: (Units=GPa)
#
#
# Indices 1 2 3 4 5 6 
#
# 1 92.1405 42.1148 19.8590 6.5353 -13.5113 -19.5296
# 2 42.1148 71.9718 5.2077 1.7275 4.3643 -10.2030
# 3 19.8590 5.2077 76.0744 12.9817 -10.3930 -12.3011
# 4 6.5353 1.7275 12.9817 39.0158 -1.6196 -0.3177
# 5 -13.5113 4.3643 -10.3930 -1.6196 32.9256 2.3238
# 6 -19.5296 -10.2030 -12.3011 -0.3177 2.3238 41.0875
#
#
#
# Elastic Compliance Matrix: (Units=1/GPa)
#
#
# Indices 1 2 3 4 5 6 
#
# 1 0.018317 -0.010291 -0.001902 -0.001612 0.007839 0.005126
# 2 -0.010291 0.020388 0.000398 0.000411 -0.006827 0.000680
# 3 -0.001902 0.000398 0.015480 -0.004672 0.003570 0.003591
# 4 -0.001612 0.000411 -0.004672 0.027393 -0.000716 -0.001811
# 5 0.007839 -0.006827 0.003570 -0.000716 0.035508 0.001086
# 6 0.005126 0.000680 0.003591 -0.001811 0.001086 0.027943
#
#
# Mechanical properties :
#
#
# Convention : Reuss Voigt Hill
#
# Bulk Modulus (GPa) = 32.68571 41.61665 37.15118
# Shear Modulus (GPa) = 27.96159 34.13946 31.05053
#
# Velocity S-wave (km/s) = 3.55462 3.92772 3.74582
# Velocity P-wave (km/s) = 5.62291 6.27496 5.95786
#
# Compressibility (1/GPa) = 0.03059441
#
# Stress axis : x y z
#
# Youngs Moduli (GPa) = 54.59481 49.04921 64.59944
#
# Poissons Ratio (x) = 0.50474 0.12288
# Poissons Ratio (y) = 0.56181 -0.02570
# Poissons Ratio (z) = 0.10385 -0.01951
#
# Static dielectric constant tensor:
#      x y z
#    x 3.952430 -0.062000 -0.305530 
#    y -0.062000 4.120020 0.562160 
#    z -0.305530 0.562160 5.329930 
# 
# 
# High freq. dielectric constant tensor:
#      x y z
#    x 1.861460 -0.002960 -0.011050 
#    y -0.002960 1.866720 0.008570 
#    z -0.011050 0.008570 1.888320 
# 
# From -- ./inp_files/10619.got.cif
#   From: 2010.06.25/outbox.cif.g09.slc.cpg/sg2_6_cif.got.tgz:10619.got - 2010.06.27 13:26:56.
