data_PCOD8015157
_publ_section_title
;
Structure prediction by ZEFSAII (Michael W. Deem and Ramdas Pophale) SiO2 
 PCOD8015157
Probable space group: P -1
;
_chemical_formula_sum "Si O2"
_cell_formula_units_Z 16
_cell_length_a 5.949757
_cell_length_b 18.326558
_cell_length_c 9.102384
_cell_angle_alpha 128.778875
_cell_angle_beta 88.029130
_cell_angle_gamma 100.393419
_cell_volume 757.026552
_symmetry_space_group_name_H-M "P -1"
_symmetry_group_IT_number 2
_symmetry_cell_setting 'triclinic'
loop_
_space_group_symop_operation_xyz
x,y,z
-x,-y,-z
loop_
_atom_site_type_symbol
_atom_site_label
_atom_site_fract_x
_atom_site_fract_y
_atom_site_fract_z
Si Si1 0.009341 0.003282 0.256363
Si Si2 0.275297 0.551147 0.084257
Si Si3 0.720392 0.431701 0.561392
Si Si4 0.736209 0.077749 0.604472
Si Si5 0.666173 0.926091 0.915341
Si Si6 0.702767 0.285796 0.937574
Si Si7 0.415646 0.268025 0.207106
Si Si8 0.931179 0.632956 0.739568
O O1 0.187420 0.071728 0.232960
O O2 0.898769 0.067719 0.451035
O O3 0.140466 0.934812 0.259524
O O4 0.817028 0.941736 0.079500
O O5 0.277240 0.592575 0.298841
O O6 0.350230 0.640766 0.088538
O O7 0.500000 0.500000 0.000000
O O8 0.000000 0.500000 0.000000
O O9 0.497523 0.368586 0.413969
O O10 0.726399 0.544289 0.678326
O O11 0.935423 0.400820 0.440675
O O12 0.702890 0.185518 0.731281
O O13 0.500000 0.000000 0.500000
O O14 0.528253 0.817524 0.801580
O O15 0.500000 0.000000 0.000000
O O16 0.509336 0.263013 0.036056
O O17 0.935410 0.336485 0.074944
O O18 0.149444 0.271547 0.194287
#
# Coordination Sequence:
#
# PCOD8015157 Si02
#       8
#     2   2   2   2   2   2   2   2
#     4  10  23  41  66  93 132 174 215 277 342 404
#     4  12  27  47  69 101 142 183 230 289 351 413
#     4  10  23  40  65  95 128 169 220 277 333 403
#     4  11  23  43  66  98 133 171 226 277 343 410
#     4  11  23  42  65  92 134 169 220 279 336 403
#     4  11  24  41  68  95 131 177 223 279 344 413
#     4  11  23  39  67  96 124 174 225 272 337 404
#     4  10  21  42  66  92 128 168 220 276 334 400
#
# _framework density 21.135324000000001
#
# number of rings (size 3 to 8) (size 9 to 14) (size 15 to 20)
#    0.000    1.250    1.250    4.125    1.750    7.000 
#    0.000    0.000    0.000    0.000    0.000    0.000 
#    0.000    0.000    0.000    0.000    0.000    0.000 
#
# Total GULP energy -198230.686707 kJ/mol
# GULP energy per Si atom -12389.417919 kJ/mol
# Density = 2.108722 g / cm^3
# Si number density = 21.135324 Si / 1000 Ang^3
#
#
#
# Elastic Constant Matrix: (Units=GPa)
#
#
# Indices 1 2 3 4 5 6 
#
# 1 72.4897 31.8892 72.0212 22.8284 136.8745 -44.3107
# 2 31.8892 141.1209 85.2626 15.1167 93.9972 -34.2735
# 3 72.0212 85.2626 82.3893 -20.4128 -120.0961 18.0220
# 4 22.8284 15.1167 -20.4128 37.0999 -66.0089 9.3166
# 5 136.8745 93.9972 -120.0961 -66.0089 -475.9817 102.2533
# 6 -44.3107 -34.2735 18.0220 9.3166 102.2533 14.9752
#
#
#
# Elastic Compliance Matrix: (Units=1/GPa)
#
#
# Indices 1 2 3 4 5 6 
#
# 1 0.011755 -0.003330 -0.001908 -0.000669 0.003938 0.002984
# 2 -0.003330 0.009057 -0.003761 -0.000302 0.002096 0.001277
# 3 -0.001908 -0.003761 0.011635 0.001317 -0.004319 0.000420
# 4 -0.000669 -0.000302 0.001317 0.022091 -0.003046 0.002801
# 5 0.003938 0.002096 -0.004319 -0.003046 0.002438 0.006893
# 6 0.002984 0.001277 0.000420 0.002801 0.006893 0.029218
#
#
# Mechanical properties :
#
#
# Convention : Reuss Voigt Hill
#
# Bulk Modulus (GPa) = 69.20413 74.92733 72.06573
# Shear Modulus (GPa) = 45.86835 -77.65951 -15.89558
#
# Velocity S-wave (km/s) = 4.66362 -6.06825 -2.74539
# Velocity P-wave (km/s) = 7.86216 3.68376 4.91139
#
# Compressibility (1/GPa) = 0.01445001
#
# Stress axis : x y z
#
# Youngs Moduli (GPa) = 85.07091 110.41065 85.94567
#
# Poissons Ratio (x) = 0.36768 0.16397
# Poissons Ratio (y) = 0.28329 0.32322
# Poissons Ratio (z) = 0.16230 0.41522
#
# Static dielectric constant tensor:
#      x y z
#    x 4.122720 0.027090 0.026740 
#    y 0.027090 3.897500 -0.061950 
#    z 0.026740 -0.061950 3.883940 
# 
# 
# High freq. dielectric constant tensor:
#      x y z
#    x 1.834990 -0.003370 -0.003330 
#    y -0.003370 1.836300 -0.008190 
#    z -0.003330 -0.008190 1.834780 
# 
# From -- ./inp_files/39288.got.cif
#   From: 2010.06.25/outbox.cif.g09.slc.cpg/sg2_20_cif.got.tgz:39288.got - 2010.06.27 13:26:56.
