data_PCOD8015319
_publ_section_title
;
Structure prediction by ZEFSAII (Michael W. Deem and Ramdas Pophale) SiO2 
 PCOD8015319
Probable space group: P -1
;
_chemical_formula_sum "Si O2"
_cell_formula_units_Z 16
_cell_length_a 11.383306
_cell_length_b 19.756347
_cell_length_c 9.717592
_cell_angle_alpha 107.224640
_cell_angle_beta 106.687905
_cell_angle_gamma 20.211583
_cell_volume 720.886859
_symmetry_space_group_name_H-M "P -1"
_symmetry_group_IT_number 2
_symmetry_cell_setting 'triclinic'
loop_
_space_group_symop_operation_xyz
x,y,z
-x,-y,-z
loop_
_atom_site_type_symbol
_atom_site_label
_atom_site_fract_x
_atom_site_fract_y
_atom_site_fract_z
Si Si1 0.349364 0.934906 0.588826
Si Si2 0.672508 0.625250 0.457309
Si Si3 0.807899 0.336241 0.608088
Si Si4 0.318453 0.292386 0.909117
Si Si5 0.775562 0.389415 0.935870
Si Si6 0.888367 0.691389 0.406926
Si Si7 0.473063 0.682029 0.132851
Si Si8 0.765730 0.979839 0.095861
O O1 0.345737 0.852445 0.505967
O O2 0.620553 0.830893 0.525108
O O3 0.435731 0.896643 0.756290
O O4 0.975605 0.167928 0.573122
O O5 0.636818 0.603105 0.290088
O O6 0.000000 0.500000 0.500000
O O7 0.736124 0.533634 0.544568
O O8 0.500000 0.500000 0.500000
O O9 0.674871 0.433229 0.769575
O O10 0.093722 0.237479 0.593571
O O11 0.207452 0.307806 0.749558
O O12 0.568558 0.220271 0.898791
O O13 0.000000 0.500000 0.000000
O O14 0.518265 0.131089 0.978413
O O15 0.135914 0.157243 0.953393
O O16 0.500000 0.500000 0.000000
O O17 0.753212 0.484604 0.022796
O O18 0.106441 0.843459 0.118157
#
# Coordination Sequence:
#
# PCOD8015319 Si02
#       8
#     2   2   2   2   2   2   2   2
#     4  10  22  45  63  97 132 170 221 261 336 391
#     4  10  21  42  67  97 131 173 220 266 336 390
#     4  11  25  45  68 100 131 172 221 275 327 393
#     4  12  24  43  65  99 135 174 223 274 331 395
#     4   9  22  44  64  96 130 171 216 267 333 381
#     4  11  24  44  66  96 134 173 220 268 333 396
#     4  11  22  44  69  96 134 174 226 277 324 389
#     4  10  24  42  68  99 132 174 226 271 328 391
#
# _framework density 22.194883000000001
#
# number of rings (size 3 to 8) (size 9 to 14) (size 15 to 20)
#    0.000    1.500    2.500    2.250    7.000    2.500 
#    9.000    1.875    0.000    0.000    0.000    0.000 
#    0.000    0.000    0.000    0.000    0.000    0.000 
#
# Total GULP energy -198347.219931 kJ/mol
# GULP energy per Si atom -12396.701246 kJ/mol
# Density = 2.214437 g / cm^3
# Si number density = 22.194883 Si / 1000 Ang^3
#
#
#
# Elastic Constant Matrix: (Units=GPa)
#
#
# Indices 1 2 3 4 5 6 
#
# 1 48.6889 26.4010 41.8618 -2.1170 -8.9880 12.3544
# 2 26.4010 101.7052 81.4152 -2.9617 3.1974 27.1305
# 3 41.8618 81.4152 178.4877 3.3569 -12.6440 21.8524
# 4 -2.1170 -2.9617 3.3569 35.3762 7.8070 -6.0198
# 5 -8.9880 3.1974 -12.6440 7.8070 38.8471 4.5019
# 6 12.3544 27.1305 21.8524 -6.0198 4.5019 44.4192
#
#
#
# Elastic Compliance Matrix: (Units=1/GPa)
#
#
# Indices 1 2 3 4 5 6 
#
# 1 0.027997 -0.002779 -0.004315 -0.000227 0.005880 -0.004593
# 2 -0.002779 0.018128 -0.007204 0.001920 -0.004162 -0.006073
# 3 -0.004315 -0.007204 0.010211 -0.002615 0.003458 -0.000128
# 4 -0.000227 0.001920 -0.002615 0.031309 -0.007960 0.005227
# 5 0.005880 -0.004162 0.003458 -0.007960 0.030748 -0.004990
# 6 -0.004593 -0.006073 -0.000128 0.005227 -0.004990 0.028776
#
#
# Mechanical properties :
#
#
# Convention : Reuss Voigt Hill
#
# Bulk Modulus (GPa) = 36.05280 69.80421 52.92850
# Shear Modulus (GPa) = 27.02524 35.67541 31.35033
#
# Velocity S-wave (km/s) = 3.49325 4.01355 3.76240
# Velocity P-wave (km/s) = 5.70521 7.27990 6.54012
#
# Compressibility (1/GPa) = 0.02773709
#
# Stress axis : x y z
#
# Youngs Moduli (GPa) = 35.71827 55.16474 97.93632
#
# Poissons Ratio (x) = 0.15332 0.42264
# Poissons Ratio (y) = 0.09927 0.70556
# Poissons Ratio (z) = 0.15414 0.39742
#
# Static dielectric constant tensor:
#      x y z
#    x 4.068580 0.564260 -0.340900 
#    y 0.564260 4.450050 0.108940 
#    z -0.340900 0.108940 4.094170 
# 
# 
# High freq. dielectric constant tensor:
#      x y z
#    x 1.882340 0.021220 -0.010890 
#    y 0.021220 1.868200 0.007400 
#    z -0.010890 0.007400 1.882350 
# 
# From -- ./inp_files/283140.got.cif
#   From: 2010.06.25/outbox.cif.g09.slc.cpg/sg2_142_cif.got.tgz:283140.got - 2010.06.27 13:26:56.
