data_PCOD8015413
_publ_section_title
;
Structure prediction by ZEFSAII (Michael W. Deem and Ramdas Pophale) SiO2 
 PCOD8015413
Probable space group: P -1
;
_chemical_formula_sum "Si O2"
_cell_formula_units_Z 16
_cell_length_a 12.119346
_cell_length_b 9.720922
_cell_length_c 20.793600
_cell_angle_alpha 34.505239
_cell_angle_beta 153.976851
_cell_angle_gamma 129.889924
_cell_volume 558.226893
_symmetry_space_group_name_H-M "P -1"
_symmetry_group_IT_number 2
_symmetry_cell_setting 'triclinic'
loop_
_space_group_symop_operation_xyz
x,y,z
-x,-y,-z
loop_
_atom_site_type_symbol
_atom_site_label
_atom_site_fract_x
_atom_site_fract_y
_atom_site_fract_z
Si Si1 0.634386 0.337911 0.756041
Si Si2 0.112040 0.044504 0.747111
Si Si3 0.450005 0.348765 0.791293
Si Si4 0.374203 0.820366 0.315208
Si Si5 0.053184 0.769965 0.274941
Si Si6 0.404848 0.770546 0.699185
Si Si7 0.998615 0.384236 0.211205
Si Si8 0.773603 0.459707 0.196218
O O1 0.672772 0.254932 0.884184
O O2 0.720481 0.095220 0.841393
O O3 0.307016 0.486899 0.520743
O O4 0.768682 0.544655 0.728780
O O5 0.960544 0.923714 0.663340
O O6 0.187005 0.278814 0.665514
O O7 0.401770 0.803190 0.008459
O O8 0.943242 0.114887 0.697513
O O9 0.346459 0.660810 0.639660
O O10 0.500000 0.500000 0.500000
O O11 0.113240 0.938174 0.182720
O O12 0.595001 0.931764 0.415768
O O13 0.777049 0.720979 0.133779
O O14 0.187935 0.757930 0.643925
O O15 0.713773 0.589592 0.953555
O O16 0.010241 0.393014 0.291799
O O17 0.500000 0.500000 0.000000
#
# Coordination Sequence:
#
# PCOD8015413 Si02
#       8
#     2   2   2   2   2   2   2   2
#     4  11  25  42  63  99 138 175 226 268 339 399
#     4  10  23  42  68  96 138 177 222 279 323 393
#     4  10  23  42  66 102 132 174 228 274 331 396
#     4  10  24  44  62  95 134 176 219 278 333 393
#     4  11  23  45  66  92 139 180 216 279 332 396
#     4  10  22  42  69  96 131 173 227 281 329 390
#     4  10  23  40  65 105 132 173 222 277 331 395
#     4  10  21  42  68  98 131 171 229 272 335 392
#
# _framework density 28.662178999999998
#
# number of rings (size 3 to 8) (size 9 to 14) (size 15 to 20)
#    0.000    1.750    2.500    0.000    7.000    3.500 
#    2.250    2.500    0.000    0.000    0.000    0.000 
#    0.000    0.000    0.000    0.000    0.000    0.000 
#
# Total GULP energy -198285.940937 kJ/mol
# GULP energy per Si atom -12392.871309 kJ/mol
# Density = 2.859694 g / cm^3
# Si number density = 28.662179 Si / 1000 Ang^3
#
#
#
# Elastic Constant Matrix: (Units=GPa)
#
#
# Indices 1 2 3 4 5 6 
#
# 1 228.8219 99.7553 22.2739 0.4126 -13.0377 -5.5262
# 2 99.7553 249.3661 30.5123 21.0345 -11.3247 -0.4723
# 3 22.2739 30.5123 43.3856 12.0225 -3.8574 0.9068
# 4 0.4126 21.0345 12.0225 42.9759 -6.0791 -1.2617
# 5 -13.0377 -11.3247 -3.8574 -6.0791 38.6152 0.6522
# 6 -5.5262 -0.4723 0.9068 -1.2617 0.6522 53.2783
#
#
#
# Elastic Compliance Matrix: (Units=1/GPa)
#
#
# Indices 1 2 3 4 5 6 
#
# 1 0.005533 -0.002079 -0.001731 0.001656 0.001336 0.000608
# 2 -0.002079 0.005274 -0.002070 -0.001940 0.000335 -0.000184
# 3 -0.001731 -0.002070 0.027272 -0.006551 0.000515 -0.000823
# 4 0.001656 -0.001940 -0.006551 0.026555 0.003502 0.000852
# 5 0.001336 0.000335 0.000515 0.003502 0.027051 -0.000115
# 6 0.000608 -0.000184 -0.000823 0.000852 -0.000115 0.018866
#
#
# Mechanical properties :
#
#
# Convention : Reuss Voigt Hill
#
# Bulk Modulus (GPa) = 37.99707 91.85074 64.92390
# Shear Modulus (GPa) = 38.14317 51.57601 44.85959
#
# Velocity S-wave (km/s) = 3.65195 4.24659 3.96044
# Velocity P-wave (km/s) = 5.57386 7.49401 6.60410
#
# Compressibility (1/GPa) = 0.02631782
#
# Stress axis : x y z
#
# Youngs Moduli (GPa) = 180.73204 189.61400 36.66770
#
# Poissons Ratio (x) = 0.39430 0.06347
# Poissons Ratio (y) = 0.37583 0.07591
# Poissons Ratio (z) = 0.31283 0.39253
#
# Static dielectric constant tensor:
#      x y z
#    x 6.317780 -0.330500 -0.291050 
#    y -0.330500 5.875920 0.153540 
#    z -0.291050 0.153540 5.730560 
# 
# 
# High freq. dielectric constant tensor:
#      x y z
#    x 2.175250 -0.010940 -0.000630 
#    y -0.010940 2.172450 0.012160 
#    z -0.000630 0.012160 2.204890 
# 
# From -- ./inp_files/594008.got.cif
#   From: 2010.06.25/outbox.cif.g09.slc.cpg/sg2_298_cif.got.tgz:594008.got - 2010.06.27 13:26:56.
