data_PCOD8015696
_publ_section_title
;
Structure prediction by ZEFSAII (Michael W. Deem and Ramdas Pophale) SiO2 
 PCOD8015696
Probable space group: P -1
;
_chemical_formula_sum "Si O2"
_cell_formula_units_Z 16
_cell_length_a 17.919706
_cell_length_b 7.941692
_cell_length_c 12.659828
_cell_angle_alpha 100.413297
_cell_angle_beta 36.878428
_cell_angle_gamma 73.528812
_cell_volume 732.046102
_symmetry_space_group_name_H-M "P -1"
_symmetry_group_IT_number 2
_symmetry_cell_setting 'triclinic'
loop_
_space_group_symop_operation_xyz
x,y,z
-x,-y,-z
loop_
_atom_site_type_symbol
_atom_site_label
_atom_site_fract_x
_atom_site_fract_y
_atom_site_fract_z
Si Si1 0.923927 0.582245 0.836422
Si Si2 0.252369 0.442389 0.540884
Si Si3 0.903738 0.918035 0.762198
Si Si4 0.893146 0.054473 0.323170
Si Si5 0.804418 0.532082 0.766579
Si Si6 0.550713 0.277151 0.858309
Si Si7 0.885478 0.465333 0.076585
Si Si8 0.627329 0.049293 0.960135
O O1 0.841266 0.841763 0.914043
O O2 0.919901 0.441495 0.733009
O O3 0.809656 0.612113 0.066649
O O4 0.124852 0.420771 0.634236
O O5 0.179253 0.702586 0.622816
O O6 0.267605 0.421857 0.649453
O O7 0.447277 0.207631 0.248752
O O8 0.955266 0.046153 0.772293
O O9 0.085990 0.678299 0.469683
O O10 0.737999 0.104553 0.887883
O O11 0.725890 0.120819 0.570627
O O12 0.990789 0.828110 0.107322
O O13 0.765658 0.756439 0.786799
O O14 0.616295 0.621227 0.012338
O O15 0.585059 0.102538 0.890616
O O16 0.500000 0.500000 0.000000
O O17 0.000000 0.500000 0.000000
#
# Coordination Sequence:
#
# PCOD8015696 Si02
#       8
#     2   2   2   2   2   2   2   2
#     4   9  20  39  62  88 116 158 203 244 295 354
#     4  10  21  43  63  88 122 160 209 248 298 352
#     4  10  22  40  59  92 130 162 190 243 313 365
#     4  11  23  40  64  88 127 160 198 248 307 365
#     4  11  23  38  60  91 133 160 193 245 305 365
#     4  12  23  38  59  97 124 158 199 247 301 365
#     4  10  23  40  68  88 112 160 213 254 295 354
#     4  11  23  38  64  91 126 162 201 244 298 361
#
# _framework density 21.856549000000001
#
# number of rings (size 3 to 8) (size 9 to 14) (size 15 to 20)
#    0.000    1.500    2.500    3.000    7.000    1.500 
#    0.000    3.125    2.750    0.000    0.000    0.000 
#    0.000    0.000    0.000    0.000    0.000    0.000 
#
# Total GULP energy -198312.437630 kJ/mol
# GULP energy per Si atom -12394.527352 kJ/mol
# Density = 2.180680 g / cm^3
# Si number density = 21.856549 Si / 1000 Ang^3
#
#
#
# Elastic Constant Matrix: (Units=GPa)
#
#
# Indices 1 2 3 4 5 6 
#
# 1 120.2831 25.9489 50.3989 -6.4667 -0.7151 5.3381
# 2 25.9489 62.7994 25.4048 -16.1207 15.1441 -5.6326
# 3 50.3989 25.4048 96.8788 -21.1672 0.7145 -8.9365
# 4 -6.4667 -16.1207 -21.1672 35.4571 1.4658 7.0406
# 5 -0.7151 15.1441 0.7145 1.4658 37.6216 -3.6238
# 6 5.3381 -5.6326 -8.9365 7.0406 -3.6238 30.1077
#
#
#
# Elastic Compliance Matrix: (Units=1/GPa)
#
#
# Indices 1 2 3 4 5 6 
#
# 1 0.011679 -0.003756 -0.005991 -0.002468 0.001579 -0.003784
# 2 -0.003756 0.022899 -0.001969 0.008706 -0.009476 0.001189
# 3 -0.005991 -0.001969 0.015757 0.006628 0.000495 0.003880
# 4 -0.002468 0.008706 0.006628 0.036950 -0.005626 -0.005284
# 5 0.001579 -0.009476 0.000495 -0.005626 0.030937 0.003133
# 6 -0.003784 0.001189 0.003880 -0.005284 0.003133 0.036872
#
#
# Mechanical properties :
#
#
# Convention : Reuss Voigt Hill
#
# Bulk Modulus (GPa) = 37.16934 53.71851 45.44392
# Shear Modulus (GPa) = 26.66763 32.51787 29.59275
#
# Velocity S-wave (km/s) = 3.49681 3.86137 3.68360
# Velocity P-wave (km/s) = 5.77465 6.67168 6.23931
#
# Compressibility (1/GPa) = 0.02690389
#
# Stress axis : x y z
#
# Youngs Moduli (GPa) = 85.62573 43.66986 63.46205
#
# Poissons Ratio (x) = 0.16403 0.38017
# Poissons Ratio (y) = 0.32161 0.12496
# Poissons Ratio (z) = 0.51294 0.08599
#
# Static dielectric constant tensor:
#      x y z
#    x 4.583240 -0.242770 0.174760 
#    y -0.242770 4.237580 -0.499510 
#    z 0.174760 -0.499510 3.978930 
# 
# 
# High freq. dielectric constant tensor:
#      x y z
#    x 1.868750 0.007600 0.000980 
#    y 0.007600 1.858870 -0.016240 
#    z 0.000980 -0.016240 1.836800 
# 
# From -- ./inp_files/243521.got.cif
#   From: 2010.06.25/outbox.cif.g09.slc.cpg/sg2_122_cif.got.tgz:243521.got - 2010.06.27 13:26:56.
