data_PCOD8015556
_publ_section_title
;
Structure prediction by ZEFSAII (Michael W. Deem and Ramdas Pophale) SiO2 
 PCOD8015556
Probable space group: P -1
;
_chemical_formula_sum "Si O2"
_cell_formula_units_Z 12
_cell_length_a 11.839880
_cell_length_b 7.013060
_cell_length_c 8.974058
_cell_angle_alpha 128.128953
_cell_angle_beta 121.849010
_cell_angle_gamma 53.427386
_cell_volume 455.433031
_symmetry_space_group_name_H-M "P -1"
_symmetry_group_IT_number 2
_symmetry_cell_setting 'triclinic'
loop_
_space_group_symop_operation_xyz
x,y,z
-x,-y,-z
loop_
_atom_site_type_symbol
_atom_site_label
_atom_site_fract_x
_atom_site_fract_y
_atom_site_fract_z
Si Si1 0.145774 0.007207 0.728069
Si Si2 0.125379 0.093178 0.173835
Si Si3 0.149758 0.589995 0.296369
Si Si4 0.630925 0.304671 0.689613
Si Si5 0.220893 0.211845 0.591763
Si Si6 0.625888 0.412509 0.164649
O O1 0.164797 0.207683 0.717368
O O2 0.990333 0.188463 0.781117
O O3 0.155290 0.734558 0.525672
O O4 0.270947 0.902991 0.893842
O O5 0.135015 0.313815 0.174885
O O6 0.101237 0.221632 0.387184
O O7 0.000000 0.000000 0.000000
O O8 0.289785 0.531227 0.261028
O O9 0.462912 0.486972 0.692597
O O10 0.636493 0.062681 0.470032
O O11 0.721244 0.171919 0.842424
O O12 0.262505 0.457683 0.729100
O O13 0.500000 0.500000 0.000000
#
# Coordination Sequence:
#
# PCOD8015556 Si02
#       6
#     2   2   2   2   2   2
#     4  10  22  42  69 102 138 178 223 284 349 391
#     4  10  22  41  67 103 136 180 228 279 336 404
#     4  10  21  42  71 101 135 176 226 286 338 408
#     4   9  23  42  67  99 132 184 224 275 342 400
#     4   9  22  43  66 102 135 180 225 281 335 406
#     4  12  25  44  70 100 139 183 228 281 339 409
#
# _framework density 26.348548999999998
#
# number of rings (size 3 to 8) (size 9 to 14) (size 15 to 20)
#    1.000    1.000    1.667    0.500    0.000   10.000 
#    0.000    0.000    0.000    0.000    0.000    0.000 
#    0.000    0.000    0.000    0.000    0.000    0.000 
#
# Total GULP energy -148668.289787 kJ/mol
# GULP energy per Si atom -12389.024149 kJ/mol
# Density = 2.628858 g / cm^3
# Si number density = 26.348549 Si / 1000 Ang^3
#
#
#
# Elastic Constant Matrix: (Units=GPa)
#
#
# Indices 1 2 3 4 5 6 
#
# 1 77.8269 32.4139 21.2241 8.4747 25.1129 31.5460
# 2 32.4139 114.7289 31.6502 -11.4482 18.3326 16.8543
# 3 21.2241 31.6502 78.2968 -15.5525 24.2434 18.9018
# 4 8.4747 -11.4482 -15.5525 43.2746 2.7227 0.7870
# 5 25.1129 18.3326 24.2434 2.7227 21.8716 1.9685
# 6 31.5460 16.8543 18.9018 0.7870 1.9685 47.8109
#
#
#
# Elastic Compliance Matrix: (Units=1/GPa)
#
#
# Indices 1 2 3 4 5 6 
#
# 1 0.040863 -0.001638 0.016076 0.001721 -0.060855 -0.030262
# 2 -0.001638 0.011176 -0.000620 0.003540 -0.007026 -0.002383
# 3 0.016076 -0.000620 0.033093 0.012383 -0.054232 -0.021443
# 4 0.001721 0.003540 0.012383 0.029651 -0.021742 -0.006872
# 5 -0.060855 -0.007026 -0.054232 -0.021742 0.179169 0.057051
# 6 -0.030262 -0.002383 -0.021443 -0.006872 0.057051 0.047965
#
#
# Mechanical properties :
#
#
# Convention : Reuss Voigt Hill
#
# Bulk Modulus (GPa) = 8.86779 49.04767 28.95773
# Shear Modulus (GPa) = 14.20980 34.96238 24.58609
#
# Velocity S-wave (km/s) = 2.32480 3.64664 3.05800
# Velocity P-wave (km/s) = 3.25256 6.03208 4.84588
#
# Compressibility (1/GPa) = 0.11276768
#
# Stress axis : x y z
#
# Youngs Moduli (GPa) = 24.47220 89.47769 30.21773
#
# Poissons Ratio (x) = 0.14658 -0.48577
# Poissons Ratio (y) = 0.04009 0.01873
# Poissons Ratio (z) = -0.39341 0.05545
#
# Static dielectric constant tensor:
#      x y z
#    x 4.917370 -0.330000 0.019600 
#    y -0.330000 5.084680 -0.407620 
#    z 0.019600 -0.407620 4.915780 
# 
# 
# High freq. dielectric constant tensor:
#      x y z
#    x 2.054940 0.005230 -0.015120 
#    y 0.005230 2.064690 -0.006460 
#    z -0.015120 -0.006460 2.040140 
# 
# From -- ./inp_files/246132.got.cif
#   From: 2010.06.25/outbox.cif.g09.slc.cpg/sg2_124_cif.got.tgz:246132.got - 2010.06.27 13:26:56.
