data_PCOD8015303
_publ_section_title
;
Structure prediction by ZEFSAII (Michael W. Deem and Ramdas Pophale) SiO2 
 PCOD8015303
Probable space group: P -1
;
_chemical_formula_sum "Si O2"
_cell_formula_units_Z 16
_cell_length_a 20.043300
_cell_length_b 20.011011
_cell_length_c 8.706102
_cell_angle_alpha 129.014015
_cell_angle_beta 40.512168
_cell_angle_gamma 158.538125
_cell_volume 783.941825
_symmetry_space_group_name_H-M "P -1"
_symmetry_group_IT_number 2
_symmetry_cell_setting 'triclinic'
loop_
_space_group_symop_operation_xyz
x,y,z
-x,-y,-z
loop_
_atom_site_type_symbol
_atom_site_label
_atom_site_fract_x
_atom_site_fract_y
_atom_site_fract_z
Si Si1 0.090034 0.150055 0.471319
Si Si2 0.183073 0.099538 0.710702
Si Si3 0.288467 0.854403 0.276823
Si Si4 0.111889 0.547036 0.719428
Si Si5 0.415210 0.448824 0.741340
Si Si6 0.242205 0.787709 0.595207
Si Si7 0.012277 0.798401 0.009572
Si Si8 0.377773 0.109456 0.598641
O O1 0.369924 0.354357 0.246225
O O2 0.043313 0.201122 0.727026
O O3 0.000000 0.000000 0.500000
O O4 0.948037 0.045355 0.410365
O O5 0.350492 0.303514 0.683131
O O6 0.344988 0.150787 0.579022
O O7 0.000000 0.000000 0.000000
O O8 0.281666 0.790108 0.350740
O O9 0.047623 0.653677 0.328122
O O10 0.288013 0.951185 0.468924
O O11 0.500000 0.000000 0.000000
O O12 0.128878 0.628295 0.667407
O O13 0.358142 0.691940 0.531052
O O14 0.000000 0.500000 0.000000
O O15 0.500000 0.500000 0.500000
O O16 0.196162 0.349498 0.966624
O O17 0.500000 0.000000 0.500000
O O18 0.076901 0.747012 0.844848
O O19 0.224635 0.013960 0.879842
#
# Coordination Sequence:
#
# PCOD8015303 Si02
#       8
#     2   2   2   2   2   2   2   2
#     4  11  22  43  69  94 131 178 216 272 338 391
#     4  12  24  43  68  99 137 171 221 275 332 395
#     4  11  23  45  68  97 139 174 224 278 333 401
#     4  12  24  45  70  95 139 179 224 281 335 396
#     4  10  21  42  67  95 133 164 223 270 326 398
#     4  11  22  43  71  98 134 179 223 277 338 396
#     4  10  21  44  67  96 135 169 222 277 326 400
#     4  11  24  45  65  97 138 174 219 280 331 392
#
# _framework density 20.409678
#
# number of rings (size 3 to 8) (size 9 to 14) (size 15 to 20)
#    0.000    1.000    7.500    0.375    0.000    5.500 
#    9.000    0.000    0.000    0.000    0.000    0.000 
#    0.000    0.000    0.000    0.000    0.000    0.000 
#
# Total GULP energy -198216.210044 kJ/mol
# GULP energy per Si atom -12388.513128 kJ/mol
# Density = 2.036323 g / cm^3
# Si number density = 20.409678 Si / 1000 Ang^3
#
#
#
# Elastic Constant Matrix: (Units=GPa)
#
#
# Indices 1 2 3 4 5 6 
#
# 1 149.4366 58.0690 48.5490 -15.1265 -3.5686 8.1926
# 2 58.0690 162.3467 38.0887 -24.5756 -6.9744 17.9119
# 3 48.5490 38.0887 100.2196 -19.8237 8.4943 12.9793
# 4 -15.1265 -24.5756 -19.8237 35.7933 5.4507 2.1119
# 5 -3.5686 -6.9744 8.4943 5.4507 40.9164 -10.9637
# 6 8.1926 17.9119 12.9793 2.1119 -10.9637 33.9990
#
#
#
# Elastic Compliance Matrix: (Units=1/GPa)
#
#
# Indices 1 2 3 4 5 6 
#
# 1 0.008745 -0.002356 -0.003628 -0.000203 0.001405 0.000985
# 2 -0.002356 0.008258 -0.000521 0.004680 -0.000385 -0.003999
# 3 -0.003628 -0.000521 0.014943 0.007788 -0.006453 -0.007121
# 4 -0.000203 0.004680 0.007788 0.037310 -0.008617 -0.010486
# 5 0.001405 -0.000385 -0.006453 -0.008617 0.030376 0.012658
# 6 0.000985 -0.003999 -0.007121 -0.010486 0.012658 0.038734
#
#
# Mechanical properties :
#
#
# Convention : Reuss Voigt Hill
#
# Bulk Modulus (GPa) = 52.80757 77.93516 65.37136
# Shear Modulus (GPa) = 31.70853 39.96148 35.83501
#
# Velocity S-wave (km/s) = 3.94585 4.42969 4.19475
# Velocity P-wave (km/s) = 6.83298 8.02690 7.45389
#
# Compressibility (1/GPa) = 0.01893668
#
# Stress axis : x y z
#
# Youngs Moduli (GPa) = 114.35361 121.10031 66.92105
#
# Poissons Ratio (x) = 0.28529 0.24277
# Poissons Ratio (y) = 0.26939 0.03486
# Poissons Ratio (z) = 0.41483 0.06308
#
# Static dielectric constant tensor:
#      x y z
#    x 4.687160 -0.101750 0.769000 
#    y -0.101750 3.079370 0.295110 
#    z 0.769000 0.295110 4.102250 
# 
# 
# High freq. dielectric constant tensor:
#      x y z
#    x 1.804000 0.002900 0.006890 
#    y 0.002900 1.807390 -0.016700 
#    z 0.006890 -0.016700 1.800340 
# 
# From -- ./inp_files/349532.got.cif
#   From: 2010.06.25/outbox.cif.g09.slc.cpg/sg2_175_cif.got.tgz:349532.got - 2010.06.27 13:26:56.
