data_PCOD8015156
_publ_section_title
;
Structure prediction by ZEFSAII (Michael W. Deem and Ramdas Pophale) SiO2 
 PCOD8015156
Probable space group: P -1
;
_chemical_formula_sum "Si O2"
_cell_formula_units_Z 16
_cell_length_a 10.582959
_cell_length_b 24.016789
_cell_length_c 7.942639
_cell_angle_alpha 123.316897
_cell_angle_beta 57.385315
_cell_angle_gamma 156.153894
_cell_volume 677.997632
_symmetry_space_group_name_H-M "P -1"
_symmetry_group_IT_number 2
_symmetry_cell_setting 'triclinic'
loop_
_space_group_symop_operation_xyz
x,y,z
-x,-y,-z
loop_
_atom_site_type_symbol
_atom_site_label
_atom_site_fract_x
_atom_site_fract_y
_atom_site_fract_z
Si Si1 0.489562 0.156679 0.235538
Si Si2 0.755222 0.684937 0.064737
Si Si3 0.500596 0.100021 0.504295
Si Si4 0.512161 0.328919 0.024495
Si Si5 0.174183 0.435027 0.280745
Si Si6 0.035715 0.610212 0.288133
Si Si7 0.579166 0.059255 0.863632
Si Si8 0.105079 0.100013 0.208084
O O1 0.430449 0.107855 0.387478
O O2 0.270694 0.133351 0.310170
O O3 0.847179 0.320385 0.230388
O O4 0.442585 0.081050 0.997998
O O5 0.443747 0.575595 0.215140
O O6 0.040580 0.796908 0.178996
O O7 0.755838 0.745702 0.030166
O O8 0.757808 0.617631 0.843741
O O9 0.796064 0.251983 0.635384
O O10 0.580495 0.052309 0.343844
O O11 0.200063 0.981000 0.642254
O O12 0.344522 0.241818 0.173358
O O13 0.778922 0.489988 0.132654
O O14 0.679347 0.331780 0.817986
O O15 0.156207 0.461731 0.520247
O O16 0.500000 0.000000 0.000000
O O17 0.000000 0.000000 0.000000
#
# Coordination Sequence:
#
# PCOD8015156 Si02
#       8
#     2   2   2   2   2   2   2   2
#     4   9  21  41  66  90 123 164 208 264 306 366
#     4  10  22  41  66  96 122 162 208 267 309 367
#     4  10  21  42  66  92 122 163 218 258 305 368
#     4  11  26  41  62  90 137 166 205 252 319 377
#     4   9  21  42  68  92 120 162 220 257 308 363
#     4  10  23  44  59  95 124 172 203 254 315 371
#     4   9  20  38  68  90 117 156 214 258 309 358
#     4  12  25  40  60  95 131 168 207 253 319 373
#
# _framework density 23.598903
#
# number of rings (size 3 to 8) (size 9 to 14) (size 15 to 20)
#    0.000    2.000    1.250    1.125    8.750    3.000 
#    0.000    1.875    0.000    0.000    0.000    0.000 
#    0.000    0.000    0.000    0.000    0.000    0.000 
#
# Total GULP energy -198300.919236 kJ/mol
# GULP energy per Si atom -12393.807452 kJ/mol
# Density = 2.354519 g / cm^3
# Si number density = 23.598903 Si / 1000 Ang^3
#
#
#
# Elastic Constant Matrix: (Units=GPa)
#
#
# Indices 1 2 3 4 5 6 
#
# 1 42.9627 -1.4797 -6.8094 -3.0262 7.0462 -8.3280
# 2 -1.4797 104.5050 42.0476 -8.0368 -3.6121 -11.2754
# 3 -6.8094 42.0476 111.5343 -2.8262 -10.3562 -9.1303
# 4 -3.0262 -8.0368 -2.8262 48.0468 -7.5568 1.3402
# 5 7.0462 -3.6121 -10.3562 -7.5568 18.6623 -1.6657
# 6 -8.3280 -11.2754 -9.1303 1.3402 -1.6657 15.1332
#
#
#
# Elastic Compliance Matrix: (Units=1/GPa)
#
#
# Indices 1 2 3 4 5 6 
#
# 1 0.028138 0.001184 0.001933 0.000413 -0.007668 0.016653
# 2 0.001184 0.012059 -0.003708 0.001863 0.001242 0.007371
# 3 0.001933 -0.003708 0.011524 0.000937 0.005846 0.005815
# 4 0.000413 0.001863 0.000937 0.022751 0.010050 0.001272
# 5 -0.007668 0.001242 0.005846 0.010050 0.064609 0.006454
# 6 0.016653 0.007371 0.005815 0.001272 0.006454 0.084842
#
#
# Mechanical properties :
#
#
# Convention : Reuss Voigt Hill
#
# Bulk Modulus (GPa) = 19.78640 36.27986 28.03313
# Shear Modulus (GPa) = 20.66528 31.38469 26.02498
#
# Velocity S-wave (km/s) = 2.96241 3.65077 3.32445
# Velocity P-wave (km/s) = 4.48373 5.76001 5.16147
#
# Compressibility (1/GPa) = 0.05053978
#
# Stress axis : x y z
#
# Youngs Moduli (GPa) = 35.53920 82.92491 86.77344
#
# Poissons Ratio (x) = -0.09819 -0.16775
# Poissons Ratio (y) = -0.04208 0.32175
# Poissons Ratio (z) = -0.06870 0.30748
#
# Static dielectric constant tensor:
#      x y z
#    x 4.001790 -0.125520 -0.589350 
#    y -0.125520 4.447300 -0.352480 
#    z -0.589350 -0.352480 4.824990 
# 
# 
# High freq. dielectric constant tensor:
#      x y z
#    x 1.903020 -0.001460 -0.011610 
#    y -0.001460 1.946420 -0.006060 
#    z -0.011610 -0.006060 1.942280 
# 
# From -- ./inp_files/285828.got.cif
#   From: 2010.06.25/outbox.cif.g09.slc.cpg/sg2_143_cif.got.tgz:285828.got - 2010.06.27 13:26:56.
