data_PCOD8015736
_publ_section_title
;
Structure prediction by ZEFSAII (Michael W. Deem and Ramdas Pophale) SiO2 
 PCOD8015736
Probable space group: P -1
;
_chemical_formula_sum "Si O2"
_cell_formula_units_Z 16
_cell_length_a 11.273877
_cell_length_b 8.170882
_cell_length_c 14.566595
_cell_angle_alpha 71.158075
_cell_angle_beta 86.650426
_cell_angle_gamma 37.250510
_cell_volume 720.998256
_symmetry_space_group_name_H-M "P -1"
_symmetry_group_IT_number 2
_symmetry_cell_setting 'triclinic'
loop_
_space_group_symop_operation_xyz
x,y,z
-x,-y,-z
loop_
_atom_site_type_symbol
_atom_site_label
_atom_site_fract_x
_atom_site_fract_y
_atom_site_fract_z
Si Si1 0.358744 0.441509 0.586388
Si Si2 0.253021 0.308825 0.467738
Si Si3 0.158940 0.498124 0.733202
Si Si4 0.776677 0.016593 0.539220
Si Si5 0.038836 0.260368 0.760802
Si Si6 0.659162 0.657423 0.063257
Si Si7 0.456235 0.565455 0.882885
Si Si8 0.172335 0.656425 0.080485
O O1 0.209941 0.488624 0.523816
O O2 0.361135 0.348364 0.703467
O O3 0.585927 0.176883 0.580804
O O4 0.268644 0.744375 0.548077
O O5 0.135188 0.542259 0.346309
O O6 0.500000 0.000000 0.500000
O O7 0.175160 0.198146 0.498290
O O8 0.159852 0.295416 0.747673
O O9 0.160522 0.518123 0.839036
O O10 0.959147 0.830444 0.637673
O O11 0.918915 0.377527 0.841051
O O12 0.221267 0.901820 0.805601
O O13 0.529282 0.649744 0.110987
O O14 0.759484 0.515611 0.985002
O O15 0.500000 0.000000 0.000000
O O16 0.634245 0.479408 0.850518
O O17 0.500000 0.500000 0.000000
O O18 0.000000 0.000000 0.000000
#
# Coordination Sequence:
#
# PCOD8015736 Si02
#       8
#     2   2   2   2   2   2   2   2
#     4  10  21  43  64  89 139 169 212 281 333 389
#     4   9  21  40  65  97 130 175 230 274 334 405
#     4  11  24  41  62  96 131 168 220 267 336 396
#     4   9  21  40  63  95 128 168 222 273 327 403
#     4  11  23  42  69 100 130 182 229 278 338 410
#     4  11  25  43  66  98 138 172 220 282 343 402
#     4  10  21  43  65  95 133 166 228 275 332 405
#     4  11  23  45  70  93 133 181 225 282 337 405
#
# _framework density 22.191455999999999
#
# number of rings (size 3 to 8) (size 9 to 14) (size 15 to 20)
#    0.000    1.750    2.500    1.875    1.750    8.500 
#   11.250    0.000    0.000    0.000    0.000    0.000 
#    0.000    0.000    0.000    0.000    0.000    0.000 
#
# Total GULP energy -198255.996429 kJ/mol
# GULP energy per Si atom -12390.999777 kJ/mol
# Density = 2.214095 g / cm^3
# Si number density = 22.191456 Si / 1000 Ang^3
#
#
#
# Elastic Constant Matrix: (Units=GPa)
#
#
# Indices 1 2 3 4 5 6 
#
# 1 111.6465 40.7413 40.6530 -0.3021 -12.4740 5.2472
# 2 40.7413 90.7742 43.1038 -10.4060 -5.4309 20.7966
# 3 40.6530 43.1038 107.2802 -5.8166 -0.1577 2.7357
# 4 -0.3021 -10.4060 -5.8166 32.0106 -4.9632 0.8293
# 5 -12.4740 -5.4309 -0.1577 -4.9632 48.0026 0.3064
# 6 5.2472 20.7966 2.7357 0.8293 0.3064 37.3773
#
#
#
# Elastic Compliance Matrix: (Units=1/GPa)
#
#
# Indices 1 2 3 4 5 6 
#
# 1 0.011735 -0.004106 -0.002891 -0.001395 0.002426 0.000860
# 2 -0.004106 0.018180 -0.005216 0.005411 0.001591 -0.009290
# 3 -0.002891 -0.005216 0.012465 0.000280 -0.001287 0.002400
# 4 -0.001395 0.005411 0.000280 0.033713 0.003759 -0.003614
# 5 0.002426 0.001591 -0.001287 0.003759 0.022036 -0.001396
# 6 0.000860 -0.009290 0.002400 -0.003614 -0.001396 0.031718
#
#
# Mechanical properties :
#
#
# Convention : Reuss Voigt Hill
#
# Bulk Modulus (GPa) = 55.69942 62.07747 58.88844
# Shear Modulus (GPa) = 31.20003 35.82497 33.51250
#
# Velocity S-wave (km/s) = 3.75366 4.02227 3.89028
# Velocity P-wave (km/s) = 6.62877 7.04314 6.83910
#
# Compressibility (1/GPa) = 0.01795351
#
# Stress axis : x y z
#
# Youngs Moduli (GPa) = 85.21785 55.00647 80.22618
#
# Poissons Ratio (x) = 0.22584 0.23195
# Poissons Ratio (y) = 0.34988 0.41845
# Poissons Ratio (z) = 0.24638 0.28691
#
# Static dielectric constant tensor:
#      x y z
#    x 4.762170 0.012160 0.168920 
#    y 0.012160 3.924760 0.000150 
#    z 0.168920 0.000150 4.051790 
# 
# 
# High freq. dielectric constant tensor:
#      x y z
#    x 1.893290 0.002270 -0.004160 
#    y 0.002270 1.865510 -0.013900 
#    z -0.004160 -0.013900 1.868370 
# 
# From -- ./inp_files/515205.got.cif
#   From: 2010.06.25/outbox.cif.g09.slc.cpg/sg2_258_cif.got.tgz:515205.got - 2010.06.27 13:26:56.
