data_PCOD8015584
_publ_section_title
;
Structure prediction by ZEFSAII (Michael W. Deem and Ramdas Pophale) SiO2 
 PCOD8015584
Probable space group: P -1
;
_chemical_formula_sum "Si O2"
_cell_formula_units_Z 16
_cell_length_a 23.342829
_cell_length_b 5.790960
_cell_length_c 5.119620
_cell_angle_alpha 84.575630
_cell_angle_beta 102.509971
_cell_angle_gamma 96.583850
_cell_volume 669.435214
_symmetry_space_group_name_H-M "P -1"
_symmetry_group_IT_number 2
_symmetry_cell_setting 'triclinic'
loop_
_space_group_symop_operation_xyz
x,y,z
-x,-y,-z
loop_
_atom_site_type_symbol
_atom_site_label
_atom_site_fract_x
_atom_site_fract_y
_atom_site_fract_z
Si Si1 0.430890 0.453724 0.966922
Si Si2 0.184569 0.678987 0.061829
Si Si3 0.349546 0.810562 0.793857
Si Si4 0.376568 0.224067 0.425697
Si Si5 0.763345 0.506447 0.377899
Si Si6 0.066787 0.437831 0.055416
Si Si7 0.270122 0.096279 0.034935
Si Si8 0.033667 0.258003 0.542152
O O1 0.402066 0.687094 0.999227
O O2 0.400665 0.392375 0.664253
O O3 0.500000 0.500000 0.000000
O O4 0.417030 0.261795 0.201557
O O5 0.206052 0.488369 0.307315
O O6 0.113454 0.664764 0.030111
O O7 0.217212 0.932432 0.138500
O O8 0.198893 0.624573 0.782740
O O9 0.301584 0.621589 0.641932
O O10 0.377738 0.963861 0.565700
O O11 0.320133 0.952923 0.974345
O O12 0.307476 0.256940 0.273227
O O13 0.758422 0.764969 0.238664
O O14 0.079980 0.298883 0.346319
O O15 0.071359 0.253083 0.844458
O O16 0.000000 0.500000 0.000000
O O17 0.000000 0.500000 0.500000
O O18 0.000000 0.000000 0.500000
#
# Coordination Sequence:
#
# PCOD8015584 Si02
#       8
#     2   2   2   2   2   2   2   2
#     4  12  29  46  68 103 142 180 231 285 344 423
#     4  11  25  44  68 106 142 178 234 292 354 419
#     4  11  24  43  75  93 139 182 226 283 352 409
#     4  12  24  45  70  99 132 183 234 278 352 410
#     4  11  24  41  69 101 139 176 235 290 351 412
#     4  10  22  45  70 101 143 186 232 288 359 438
#     4  11  25  44  73 102 135 183 236 290 354 410
#     4  10  21  42  71  97 134 189 243 285 350 433
#
# _framework density 23.900744
#
# number of rings (size 3 to 8) (size 9 to 14) (size 15 to 20)
#    0.000    1.000    3.750    1.500    5.250    1.000 
#   13.500    0.000    0.000    0.000    0.000    0.000 
#    0.000    0.000    0.000    0.000    0.000    0.000 
#
# Total GULP energy -198230.103406 kJ/mol
# GULP energy per Si atom -12389.381463 kJ/mol
# Density = 2.384634 g / cm^3
# Si number density = 23.900744 Si / 1000 Ang^3
#
#
#
# Elastic Constant Matrix: (Units=GPa)
#
#
# Indices 1 2 3 4 5 6 
#
# 1 139.6853 49.3678 30.3342 -14.9981 -3.5089 41.3278
# 2 49.3678 109.6726 32.7817 -15.7761 -2.4080 28.8952
# 3 30.3342 32.7817 146.1330 0.2499 -16.1329 25.3011
# 4 -14.9981 -15.7761 0.2499 40.3801 7.9622 -2.3318
# 5 -3.5089 -2.4080 -16.1329 7.9622 30.0189 -11.4541
# 6 41.3278 28.8952 25.3011 -2.3318 -11.4541 42.9860
#
#
#
# Elastic Compliance Matrix: (Units=1/GPa)
#
#
# Indices 1 2 3 4 5 6 
#
# 1 0.011191 -0.001753 -0.000633 0.003681 -0.003992 -0.010073
# 2 -0.001753 0.012793 -0.001798 0.004752 -0.003942 -0.006649
# 3 -0.000633 -0.001798 0.008166 -0.001872 0.003882 -0.002056
# 4 0.003681 0.004752 -0.001872 0.029713 -0.010697 -0.006870
# 5 -0.003992 -0.003942 0.003882 -0.010697 0.043231 0.015143
# 6 -0.010073 -0.006649 -0.002056 -0.006870 0.015143 0.042289
#
#
# Mechanical properties :
#
#
# Convention : Reuss Voigt Hill
#
# Bulk Modulus (GPa) = 42.04810 68.93984 55.49397
# Shear Modulus (GPa) = 30.54781 41.54416 36.04599
#
# Velocity S-wave (km/s) = 3.57895 4.17369 3.88771
# Velocity P-wave (km/s) = 5.89147 7.22032 6.58948
#
# Compressibility (1/GPa) = 0.02378229
#
# Stress axis : x y z
#
# Youngs Moduli (GPa) = 89.35799 78.16659 122.46433
#
# Poissons Ratio (x) = 0.13699 0.07751
# Poissons Ratio (y) = 0.15660 0.22022
# Poissons Ratio (z) = 0.05656 0.14056
#
# Static dielectric constant tensor:
#      x y z
#    x 4.173710 0.185360 -0.109120 
#    y 0.185360 4.316630 0.261030 
#    z -0.109120 0.261030 4.691540 
# 
# 
# High freq. dielectric constant tensor:
#      x y z
#    x 1.927740 0.023550 -0.013170 
#    y 0.023550 1.934950 -0.001970 
#    z -0.013170 -0.001970 1.973460 
# 
# From -- ./inp_files/121170.got.cif
#   From: 2010.06.25/outbox.cif.g09.slc.cpg/sg2_61_cif.got.tgz:121170.got - 2010.06.27 13:26:56.
