data_PCOD8015439
_publ_section_title
;
Structure prediction by ZEFSAII (Michael W. Deem and Ramdas Pophale) SiO2 
 PCOD8015439
Probable space group: P -1
;
_chemical_formula_sum "Si O2"
_cell_formula_units_Z 16
_cell_length_a 8.674371
_cell_length_b 13.165581
_cell_length_c 18.538172
_cell_angle_alpha 22.134625
_cell_angle_beta 102.276812
_cell_angle_gamma 90.320629
_cell_volume 665.885582
_symmetry_space_group_name_H-M "P -1"
_symmetry_group_IT_number 2
_symmetry_cell_setting 'triclinic'
loop_
_space_group_symop_operation_xyz
x,y,z
-x,-y,-z
loop_
_atom_site_type_symbol
_atom_site_label
_atom_site_fract_x
_atom_site_fract_y
_atom_site_fract_z
Si Si1 0.183539 0.722224 0.495207
Si Si2 0.036205 0.381437 0.983001
Si Si3 0.427792 0.702158 0.012625
Si Si4 0.795653 0.588551 0.434691
Si Si5 0.446171 0.344651 0.382881
Si Si6 0.195801 0.382649 0.851070
Si Si7 0.204450 0.807657 0.177333
Si Si8 0.312070 0.343015 0.147096
O O1 0.275722 0.434197 0.636426
O O2 0.347736 0.733615 0.539613
O O3 0.089638 0.643410 0.605119
O O4 0.047959 0.053332 0.223506
O O5 0.202809 0.410526 0.015776
O O6 0.048777 0.417442 0.874326
O O7 0.833576 0.652217 0.811331
O O8 0.357393 0.558742 0.162448
O O9 0.643562 0.583302 0.118471
O O10 0.372980 0.598891 0.000810
O O11 0.318826 0.075486 0.760866
O O12 0.789248 0.335144 0.650822
O O13 0.000000 0.500000 0.500000
O O14 0.327774 0.522812 0.323293
O O15 0.488793 0.987969 0.614028
O O16 0.281593 0.040867 0.045382
O O17 0.000000 0.000000 0.000000
#
# Coordination Sequence:
#
# PCOD8015439 Si02
#       8
#     2   2   2   2   2   2   2   2
#     4  10  21  42  69 102 138 174 222 283 343 403
#     4  10  22  44  73  99 138 184 233 279 333 401
#     4  11  24  41  68 100 137 183 228 280 340 402
#     4  12  24  40  67 100 140 176 221 288 348 405
#     4  10  23  43  68  97 136 180 229 276 341 406
#     4  11  24  43  72 105 135 179 226 283 349 402
#     4  12  26  43  70 104 134 175 228 286 349 413
#     4  10  23  44  70  95 140 188 228 282 331 396
#
# _framework density 24.028154000000001
#
# number of rings (size 3 to 8) (size 9 to 14) (size 15 to 20)
#    0.000    1.250    1.250    4.125    5.250    3.500 
#    0.000   10.000    0.000    0.000    0.000    0.000 
#    0.000    0.000    0.000    0.000    0.000    0.000 
#
# Total GULP energy -198306.468715 kJ/mol
# GULP energy per Si atom -12394.154295 kJ/mol
# Density = 2.397346 g / cm^3
# Si number density = 24.028154 Si / 1000 Ang^3
#
#
#
# Elastic Constant Matrix: (Units=GPa)
#
#
# Indices 1 2 3 4 5 6 
#
# 1 51.1924 27.2720 31.3047 -3.4354 -11.5619 -13.0766
# 2 27.2720 128.0129 59.5814 -8.8169 -17.5891 -13.1526
# 3 31.3047 59.5814 99.4020 2.0758 -12.8660 -14.5343
# 4 -3.4354 -8.8169 2.0758 43.8952 -8.5356 -12.0868
# 5 -11.5619 -17.5891 -12.8660 -8.5356 33.6425 -4.5180
# 6 -13.0766 -13.1526 -14.5343 -12.0868 -4.5180 54.0222
#
#
#
# Elastic Compliance Matrix: (Units=1/GPa)
#
#
# Indices 1 2 3 4 5 6 
#
# 1 0.028104 -0.000562 -0.006378 0.006188 0.009453 0.007125
# 2 -0.000562 0.012051 -0.006082 0.004395 0.005244 0.002584
# 3 -0.006378 -0.006082 0.015908 -0.002207 0.000257 0.000783
# 4 0.006188 0.004395 -0.002207 0.029273 0.012290 0.009552
# 5 0.009453 0.005244 0.000257 0.012290 0.040240 0.009749
# 6 0.007125 0.002584 0.000783 0.009552 0.009749 0.024028
#
#
# Mechanical properties :
#
#
# Convention : Reuss Voigt Hill
#
# Bulk Modulus (GPa) = 33.31112 57.21371 45.26242
# Shear Modulus (GPa) = 26.93205 37.00858 31.97031
#
# Velocity S-wave (km/s) = 3.35155 3.92882 3.65161
# Velocity P-wave (km/s) = 5.37314 6.66660 6.05451
#
# Compressibility (1/GPa) = 0.03002001
#
# Stress axis : x y z
#
# Youngs Moduli (GPa) = 35.58235 82.98369 62.86170
#
# Poissons Ratio (x) = 0.04661 0.40093
# Poissons Ratio (y) = 0.01998 0.38229
# Poissons Ratio (z) = 0.22694 0.50467
#
# Static dielectric constant tensor:
#      x y z
#    x 4.071930 0.184750 -0.313450 
#    y 0.184750 4.337890 0.188830 
#    z -0.313450 0.188830 4.165600 
# 
# 
# High freq. dielectric constant tensor:
#      x y z
#    x 1.938520 0.008140 -0.008170 
#    y 0.008140 1.970190 -0.007830 
#    z -0.008170 -0.007830 1.944670 
# 
# From -- ./inp_files/590194.got.cif
#   From: 2010.06.25/outbox.cif.g09.slc.cpg/sg2_296_cif.got.tgz:590194.got - 2010.06.27 13:26:56.
