data_PCOD8015061
_publ_section_title
;
Structure prediction by ZEFSAII (Michael W. Deem and Ramdas Pophale) SiO2 
 PCOD8015061
Probable space group: P -1
;
_chemical_formula_sum "Si O2"
_cell_formula_units_Z 16
_cell_length_a 14.213779
_cell_length_b 9.165013
_cell_length_c 19.293475
_cell_angle_alpha 145.125400
_cell_angle_beta 32.900247
_cell_angle_gamma 143.518358
_cell_volume 724.890950
_symmetry_space_group_name_H-M "P -1"
_symmetry_group_IT_number 2
_symmetry_cell_setting 'triclinic'
loop_
_space_group_symop_operation_xyz
x,y,z
-x,-y,-z
loop_
_atom_site_type_symbol
_atom_site_label
_atom_site_fract_x
_atom_site_fract_y
_atom_site_fract_z
Si Si1 0.178796 0.556233 0.003012
Si Si2 0.591353 0.814403 0.279737
Si Si3 0.903073 0.253555 0.730103
Si Si4 0.811569 0.099042 0.000705
Si Si5 0.736610 0.316169 0.476033
Si Si6 0.503314 0.965392 0.251711
Si Si7 0.719667 0.732358 0.545896
Si Si8 0.861745 0.549116 0.745335
O O1 0.338232 0.434677 0.869926
O O2 0.235957 0.749809 0.976189
O O3 0.171611 0.742969 0.145296
O O4 0.978523 0.312641 0.024703
O O5 0.371734 0.696413 0.390041
O O6 0.619963 0.986786 0.258014
O O7 0.706887 0.012886 0.347330
O O8 0.889610 0.512020 0.796058
O O9 0.113790 0.262838 0.605940
O O10 0.776756 0.980591 0.662350
O O11 0.629499 0.965990 0.108309
O O12 0.865772 0.849429 0.843045
O O13 0.647125 0.455789 0.527966
O O14 0.957541 0.482962 0.416467
O O15 0.326502 0.680455 0.255136
O O16 0.441072 0.228737 0.387287
#
# Coordination Sequence:
#
# PCOD8015061 Si02
#       8
#     2   2   2   2   2   2   2   2
#     4  11  24  42  64  94 128 171 211 263 320 370
#     4  11  24  41  63  98 125 169 216 256 320 376
#     4   9  20  39  68  91 124 168 209 254 318 376
#     4  11  24  40  62  95 132 164 215 264 312 377
#     4  10  22  42  67  87 132 172 207 263 310 382
#     4  11  24  39  64  96 128 164 213 265 312 373
#     4   9  20  41  61  94 126 163 210 257 311 377
#     4  10  21  42  65  92 129 167 205 263 317 373
#
# _framework density 22.072285999999998
#
# number of rings (size 3 to 8) (size 9 to 14) (size 15 to 20)
#    0.000    1.750    1.250    2.625    3.500    5.000 
#    2.250    3.750    0.000    0.000    0.000    0.000 
#    0.000    0.000    0.000    0.000    0.000    0.000 
#
# Total GULP energy -198427.015561 kJ/mol
# GULP energy per Si atom -12401.688473 kJ/mol
# Density = 2.202205 g / cm^3
# Si number density = 22.072286 Si / 1000 Ang^3
#
#
#
# Elastic Constant Matrix: (Units=GPa)
#
#
# Indices 1 2 3 4 5 6 
#
# 1 68.6854 13.8371 41.3339 -2.6374 -7.8864 -17.9801
# 2 13.8371 85.1953 33.9103 -6.9180 -3.5359 -10.2140
# 3 41.3339 33.9103 130.2670 -5.1353 3.5045 -11.7801
# 4 -2.6374 -6.9180 -5.1353 39.9232 -6.2223 -7.4353
# 5 -7.8864 -3.5359 3.5045 -6.2223 33.6024 3.9422
# 6 -17.9801 -10.2140 -11.7801 -7.4353 3.9422 32.2641
#
#
#
# Elastic Compliance Matrix: (Units=1/GPa)
#
#
# Indices 1 2 3 4 5 6 
#
# 1 0.021451 0.000634 -0.006062 0.003436 0.005185 0.010100
# 2 0.000634 0.013780 -0.003367 0.003050 0.002053 0.003938
# 3 -0.006062 -0.003367 0.010523 -0.000129 -0.002865 -0.000282
# 4 0.003436 0.003050 -0.000129 0.028239 0.005351 0.008687
# 5 0.005185 0.002053 -0.002865 0.005351 0.032511 -0.000246
# 6 0.010100 0.003938 -0.000282 0.008687 -0.000246 0.039799
#
#
# Mechanical properties :
#
#
# Convention : Reuss Voigt Hill
#
# Bulk Modulus (GPa) = 35.50715 51.36777 43.43746
# Shear Modulus (GPa) = 28.85499 34.16239 31.50869
#
# Velocity S-wave (km/s) = 3.61958 3.93841 3.78236
# Velocity P-wave (km/s) = 5.79570 6.63359 6.22875
#
# Compressibility (1/GPa) = 0.02816334
#
# Stress axis : x y z
#
# Youngs Moduli (GPa) = 46.61881 72.56879 95.02947
#
# Poissons Ratio (x) = -0.04601 0.57607
# Poissons Ratio (y) = -0.02956 0.31998
# Poissons Ratio (z) = 0.28260 0.24435
#
# Static dielectric constant tensor:
#      x y z
#    x 3.845030 -0.200220 -0.258810 
#    y -0.200220 3.979710 -0.011730 
#    z -0.258810 -0.011730 3.907050 
# 
# 
# High freq. dielectric constant tensor:
#      x y z
#    x 1.853770 -0.011840 -0.015810 
#    y -0.011840 1.870510 -0.001440 
#    z -0.015810 -0.001440 1.871070 
# 
# From -- ./inp_files/572922.got.cif
#   From: 2010.06.25/outbox.cif.g09.slc.cpg/sg2_287_cif.got.tgz:572922.got - 2010.06.27 13:26:56.
