data_PCOD8015029
_publ_section_title
;
Structure prediction by ZEFSAII (Michael W. Deem and Ramdas Pophale) SiO2 
 PCOD8015029
Probable space group: P -1
;
_chemical_formula_sum "Si O2"
_cell_formula_units_Z 14
_cell_length_a 9.275035
_cell_length_b 12.683212
_cell_length_c 8.982754
_cell_angle_alpha 63.474038
_cell_angle_beta 119.942263
_cell_angle_gamma 121.945504
_cell_volume 752.675044
_symmetry_space_group_name_H-M "P -1"
_symmetry_group_IT_number 2
_symmetry_cell_setting 'triclinic'
loop_
_space_group_symop_operation_xyz
x,y,z
-x,-y,-z
loop_
_atom_site_type_symbol
_atom_site_label
_atom_site_fract_x
_atom_site_fract_y
_atom_site_fract_z
Si Si1 0.400187 0.541180 0.052371
Si Si2 0.239409 0.736740 0.831169
Si Si3 0.394941 0.196837 0.920100
Si Si4 0.802670 0.893987 0.422641
Si Si5 0.152246 0.082468 0.135186
Si Si6 0.682227 0.038426 0.480316
Si Si7 0.132945 0.286497 0.218925
O O1 0.265794 0.606853 0.877590
O O2 0.500000 0.500000 0.000000
O O3 0.555891 0.649482 0.164030
O O4 0.284764 0.423055 0.170411
O O5 0.238638 0.816407 0.631356
O O6 0.055716 0.701889 0.850614
O O7 0.411945 0.820175 0.974803
O O8 0.246198 0.119459 0.769306
O O9 0.328945 0.154773 0.081245
O O10 0.790375 0.759348 0.567118
O O11 0.654027 0.938762 0.392187
O O12 0.000000 0.000000 0.500000
O O13 0.099519 0.186166 0.130529
O O14 0.172128 0.979373 0.323600
O O15 0.000000 0.000000 0.000000
O O16 0.500000 0.000000 0.500000
#
# Coordination Sequence:
#
# PCOD8015029 Si02
#       7
#     2   2   2   2   2   2   2
#     4  10  21  42  65  86 120 165 212 249 302 366
#     4  10  22  37  63  89 120 159 211 248 305 357
#     4  10  22  40  60  93 118 165 206 245 308 369
#     4  11  23  39  63  92 125 158 198 258 313 359
#     4  11  23  36  63  92 122 162 203 245 315 367
#     4  11  21  39  58  89 125 161 194 252 308 364
#     4  11  21  40  65  86 124 163 201 256 305 358
#
# _framework density 18.600324000000001
#
# number of rings (size 3 to 8) (size 9 to 14) (size 15 to 20)
#    0.857    0.571    4.286    2.143    2.000    2.286 
#    0.000    0.000    0.000    1.714    0.000    0.000 
#    0.000    0.000    0.000    0.000    0.000    0.000 
#
# Total GULP energy -173440.272836 kJ/mol
# GULP energy per Si atom -12388.590917 kJ/mol
# Density = 1.855799 g / cm^3
# Si number density = 18.600324 Si / 1000 Ang^3
#
#
#
# Elastic Constant Matrix: (Units=GPa)
#
#
# Indices 1 2 3 4 5 6 
#
# 1 128.3357 29.7559 34.3990 -8.7163 -6.2380 -4.7539
# 2 29.7559 93.6123 55.8668 -17.9073 -2.5550 6.0095
# 3 34.3990 55.8668 104.9830 -11.4656 -11.3482 -2.2190
# 4 -8.7163 -17.9073 -11.4656 40.9602 -0.7685 -2.2684
# 5 -6.2380 -2.5550 -11.3482 -0.7685 24.4950 -6.1167
# 6 -4.7539 6.0095 -2.2190 -2.2684 -6.1167 36.7326
#
#
#
# Elastic Compliance Matrix: (Units=1/GPa)
#
#
# Indices 1 2 3 4 5 6 
#
# 1 0.008838 -0.001721 -0.001672 0.000785 0.001737 0.001662
# 2 -0.001721 0.017430 -0.008672 0.004546 -0.003468 -0.003895
# 3 -0.001672 -0.008672 0.015538 0.000510 0.006706 0.003289
# 4 0.000785 0.004546 0.000510 0.026828 0.002101 0.001395
# 5 0.001737 -0.003468 0.006706 0.002101 0.046336 0.009043
# 6 0.001662 -0.003895 0.003289 0.001395 0.009043 0.029867
#
#
# Mechanical properties :
#
#
# Convention : Reuss Voigt Hill
#
# Bulk Modulus (GPa) = 56.57102 62.99718 59.78410
# Shear Modulus (GPa) = 28.59460 34.23152 31.41306
#
# Velocity S-wave (km/s) = 3.92512 4.29461 4.11401
# Velocity P-wave (km/s) = 7.14297 7.65075 7.40122
#
# Compressibility (1/GPa) = 0.01767689
#
# Stress axis : x y z
#
# Youngs Moduli (GPa) = 113.14216 57.37332 64.35802
#
# Poissons Ratio (x) = 0.09873 0.10758
# Poissons Ratio (y) = 0.19471 0.55812
# Poissons Ratio (z) = 0.18913 0.49755
#
# Static dielectric constant tensor:
#      x y z
#    x 3.892570 0.029690 -0.155810 
#    y 0.029690 3.455870 -0.331730 
#    z -0.155810 -0.331730 3.496350 
# 
# 
# High freq. dielectric constant tensor:
#      x y z
#    x 1.743090 0.004360 -0.003920 
#    y 0.004360 1.708290 -0.022790 
#    z -0.003920 -0.022790 1.708810 
# 
# From -- ./inp_files/186141.got.cif
#   From: 2010.06.25/outbox.cif.g09.slc.cpg/sg2_94_cif.got.tgz:186141.got - 2010.06.27 13:26:56.
