data_PCOD8015227
_publ_section_title
;
Structure prediction by ZEFSAII (Michael W. Deem and Ramdas Pophale) SiO2 
 PCOD8015227
Probable space group: P -1
;
_chemical_formula_sum "Si O2"
_cell_formula_units_Z 16
_cell_length_a 12.428475
_cell_length_b 8.876609
_cell_length_c 14.441021
_cell_angle_alpha 98.030529
_cell_angle_beta 151.509424
_cell_angle_gamma 73.438787
_cell_volume 706.719531
_symmetry_space_group_name_H-M "P -1"
_symmetry_group_IT_number 2
_symmetry_cell_setting 'triclinic'
loop_
_space_group_symop_operation_xyz
x,y,z
-x,-y,-z
loop_
_atom_site_type_symbol
_atom_site_label
_atom_site_fract_x
_atom_site_fract_y
_atom_site_fract_z
Si Si1 0.344254 0.677791 0.863113
Si Si2 0.923884 0.343308 0.609756
Si Si3 0.852441 0.188495 0.908919
Si Si4 0.836457 0.792217 0.395307
Si Si5 0.605897 0.161853 0.262583
Si Si6 0.909332 0.808611 0.086333
Si Si7 0.675911 0.722171 0.444631
Si Si8 0.933509 0.153151 0.168030
O O1 0.478204 0.748811 0.892741
O O2 0.288347 0.785999 0.922906
O O3 0.092410 0.687970 0.626121
O O4 0.500000 0.500000 0.000000
O O5 0.730201 0.260014 0.428790
O O6 0.810799 0.533681 0.538178
O O7 0.154088 0.279855 0.707843
O O8 0.003852 0.310087 0.772633
O O9 0.571660 0.222854 0.681887
O O10 0.955461 0.275150 0.913601
O O11 0.877589 0.252639 0.036910
O O12 0.000000 0.000000 0.000000
O O13 0.633316 0.764230 0.305435
O O14 0.796453 0.982559 0.374221
O O15 0.374504 0.149891 0.139556
O O16 0.981585 0.965425 0.172247
O O17 0.828591 0.826952 0.608547
#
# Coordination Sequence:
#
# PCOD8015227 Si02
#       8
#     2   2   2   2   2   2   2   2
#     4  10  22  37  68 100 134 170 212 268 341 396
#     4  11  24  40  66  99 137 167 220 276 341 392
#     4  10  24  43  66  94 124 179 233 268 325 387
#     4  10  21  42  66  98 134 179 217 266 334 406
#     4  11  24  44  67  97 141 177 220 270 328 400
#     4  11  25  43  67  97 127 181 233 267 325 394
#     4  11  24  41  68  97 133 169 217 283 334 384
#     4  10  23  43  66  95 131 170 223 270 329 399
#
# _framework density 22.639814000000001
#
# number of rings (size 3 to 8) (size 9 to 14) (size 15 to 20)
#    0.000    1.500    0.000    5.625    7.000    6.500 
#    0.000    1.250    0.000    0.000    0.000    0.000 
#    0.000    0.000    0.000    0.000    0.000    0.000 
#
# Total GULP energy -198334.715722 kJ/mol
# GULP energy per Si atom -12395.919733 kJ/mol
# Density = 2.258829 g / cm^3
# Si number density = 22.639814 Si / 1000 Ang^3
#
#
#
# Elastic Constant Matrix: (Units=GPa)
#
#
# Indices 1 2 3 4 5 6 
#
# 1 179.6117 5.1755 28.2640 -10.0767 6.1555 9.5152
# 2 5.1755 55.5371 9.2635 -30.0204 6.8091 4.4394
# 3 28.2640 9.2635 50.7996 -5.4481 2.8948 10.2468
# 4 -10.0767 -30.0204 -5.4481 6.2113 6.5440 -25.4816
# 5 6.1555 6.8091 2.8948 6.5440 45.2938 -2.3716
# 6 9.5152 4.4394 10.2468 -25.4816 -2.3716 13.4482
#
#
#
# Elastic Compliance Matrix: (Units=1/GPa)
#
#
# Indices 1 2 3 4 5 6 
#
# 1 0.006178 0.000216 -0.002971 0.000031 -0.000805 -0.002262
# 2 0.000216 0.015601 0.000585 -0.007894 -0.002378 -0.021126
# 3 -0.002971 0.000585 0.022743 0.006578 -0.002264 -0.003355
# 4 0.000031 -0.007894 0.006578 -0.017455 0.001438 -0.035248
# 5 -0.000805 -0.002378 -0.002264 0.001438 0.022998 0.009860
# 6 -0.002262 -0.021126 -0.003355 -0.035248 0.009860 0.020441
#
#
# Mechanical properties :
#
#
# Convention : Reuss Voigt Hill
#
# Bulk Modulus (GPa) = 24.88692 41.26161 33.07427
# Shear Modulus (GPa) = 56.66320 29.20703 42.93511
#
# Velocity S-wave (km/s) = 5.00824 3.59566 4.35954
# Velocity P-wave (km/s) = 6.66781 5.95845 6.32309
#
# Compressibility (1/GPa) = 0.04018175
#
# Stress axis : x y z
#
# Youngs Moduli (GPa) = 161.86278 64.09695 43.96983
#
# Poissons Ratio (x) = -0.01386 0.13065
# Poissons Ratio (y) = -0.03499 -0.02572
# Poissons Ratio (z) = 0.48095 -0.03749
#
# Static dielectric constant tensor:
#      x y z
#    x 5.376340 0.123310 -0.172980 
#    y 0.123310 3.773950 -0.012960 
#    z -0.172980 -0.012960 4.029810 
# 
# 
# High freq. dielectric constant tensor:
#      x y z
#    x 1.910970 0.008920 -0.003730 
#    y 0.008920 1.873360 -0.004630 
#    z -0.003730 -0.004630 1.895420 
# 
# From -- ./inp_files/398782.got.cif
#   From: 2010.06.25/outbox.cif.g09.slc.cpg/sg2_200_cif.got.tgz:398782.got - 2010.06.27 13:26:56.
