data_PCOD8015078
_publ_section_title
;
Structure prediction by ZEFSAII (Michael W. Deem and Ramdas Pophale) SiO2 
 PCOD8015078
Probable space group: P -1
;
_chemical_formula_sum "Si O2"
_cell_formula_units_Z 14
_cell_length_a 14.051067
_cell_length_b 14.508522
_cell_length_c 9.063328
_cell_angle_alpha 128.324177
_cell_angle_beta 73.370371
_cell_angle_gamma 150.576808
_cell_volume 535.644843
_symmetry_space_group_name_H-M "P -1"
_symmetry_group_IT_number 2
_symmetry_cell_setting 'triclinic'
loop_
_space_group_symop_operation_xyz
x,y,z
-x,-y,-z
loop_
_atom_site_type_symbol
_atom_site_label
_atom_site_fract_x
_atom_site_fract_y
_atom_site_fract_z
Si Si1 0.310318 0.464545 0.088793
Si Si2 0.305063 0.859376 0.847876
Si Si3 0.575038 0.681970 0.455399
Si Si4 0.885411 0.242206 0.896708
Si Si5 0.292342 0.546853 0.876165
Si Si6 0.152264 0.213801 0.397854
Si Si7 0.418979 0.834240 0.511640
O O1 0.546334 0.663025 0.271683
O O2 0.261966 0.545308 0.249973
O O3 0.374205 0.546171 0.969214
O O4 0.078431 0.121440 0.876679
O O5 0.232054 0.701960 0.579248
O O6 0.074180 0.645684 0.851721
O O7 0.500000 0.000000 0.000000
O O8 0.446348 0.132687 0.003944
O O9 0.298121 0.413005 0.382434
O O10 0.650830 0.635566 0.426953
O O11 0.793734 0.009370 0.741634
O O12 0.159671 0.523218 0.971794
O O13 0.686512 0.091016 0.728441
O O14 0.090192 0.262911 0.570877
O O15 0.500000 0.000000 0.500000
#
# Coordination Sequence:
#
# PCOD8015078 Si02
#       7
#     2   2   2   2   2   2   2
#     4  11  23  40  66 101 135 169 230 273 327 408
#     4  10  22  43  69  90 132 176 218 274 334 390
#     4  10  22  42  68  96 136 180 213 277 341 388
#     4  10  22  42  69  96 129 174 224 268 338 399
#     4  12  23  42  70 101 130 176 225 273 335 401
#     4  11  23  43  68  98 137 175 223 272 337 404
#     4  10  21  42  65  95 131 173 218 281 328 385
#
# _framework density 26.136723
#
# number of rings (size 3 to 8) (size 9 to 14) (size 15 to 20)
#    0.000    1.429    4.286    0.857    0.000    2.857 
#    2.571    2.143    0.000    0.000    0.000    0.000 
#    0.000    0.000    0.000    0.000    0.000    0.000 
#
# Total GULP energy -173512.351801 kJ/mol
# GULP energy per Si atom -12393.739414 kJ/mol
# Density = 2.607723 g / cm^3
# Si number density = 26.136723 Si / 1000 Ang^3
#
#
#
# Elastic Constant Matrix: (Units=GPa)
#
#
# Indices 1 2 3 4 5 6 
#
# 1 27.9980 15.1965 0.5206 -7.8120 -9.3870 1.0671
# 2 15.1965 91.1021 18.7994 -23.4526 -5.9939 -3.4566
# 3 0.5206 18.7994 147.1111 -21.8898 -17.4574 -4.8917
# 4 -7.8120 -23.4526 -21.8898 35.4182 -7.1601 -13.0176
# 5 -9.3870 -5.9939 -17.4574 -7.1601 26.5422 -0.7756
# 6 1.0671 -3.4566 -4.8917 -13.0176 -0.7756 37.7934
#
#
#
# Elastic Compliance Matrix: (Units=1/GPa)
#
#
# Indices 1 2 3 4 5 6 
#
# 1 0.053124 -0.001882 0.007499 0.024220 0.030071 0.008258
# 2 -0.001882 0.015673 0.001441 0.015074 0.008093 0.007031
# 3 0.007499 0.001441 0.010615 0.014413 0.014039 0.006547
# 4 0.024220 0.015074 0.014413 0.071098 0.041445 0.027900
# 5 0.030071 0.008093 0.014039 0.041445 0.071062 0.017442
# 6 0.008258 0.007031 0.006547 0.027900 0.017442 0.037685
#
#
# Mechanical properties :
#
#
# Convention : Reuss Voigt Hill
#
# Bulk Modulus (GPa) = 10.69188 37.24935 23.97062
# Shear Modulus (GPa) = 18.09512 35.39707 26.74609
#
# Velocity S-wave (km/s) = 2.63406 3.68408 3.20240
# Velocity P-wave (km/s) = 3.65386 5.69028 4.78173
#
# Compressibility (1/GPa) = 0.09352888
#
# Stress axis : x y z
#
# Youngs Moduli (GPa) = 18.82384 63.80354 94.20448
#
# Poissons Ratio (x) = 0.12009 -0.70648
# Poissons Ratio (y) = 0.03543 -0.13575
# Poissons Ratio (z) = -0.14117 -0.09194
#
# Static dielectric constant tensor:
#      x y z
#    x 4.778300 -0.131850 -0.140190 
#    y -0.131850 5.047110 -0.249700 
#    z -0.140190 -0.249700 4.951930 
# 
# 
# High freq. dielectric constant tensor:
#      x y z
#    x 2.046680 -0.020140 -0.008270 
#    y -0.020140 2.038340 -0.016250 
#    z -0.008270 -0.016250 2.062340 
# 
# From -- ./inp_files/314702.got.cif
#   From: 2010.06.25/outbox.cif.g09.slc.cpg/sg2_158_cif.got.tgz:314702.got - 2010.06.27 13:26:56.
