data_PCOD8015404
_publ_section_title
;
Structure prediction by ZEFSAII (Michael W. Deem and Ramdas Pophale) SiO2 
 PCOD8015404
Probable space group: P -1
;
_chemical_formula_sum "Si O2"
_cell_formula_units_Z 12
_cell_length_a 7.880021
_cell_length_b 6.858131
_cell_length_c 12.437253
_cell_angle_alpha 99.531407
_cell_angle_beta 58.959436
_cell_angle_gamma 107.261095
_cell_volume 549.886782
_symmetry_space_group_name_H-M "P -1"
_symmetry_group_IT_number 2
_symmetry_cell_setting 'triclinic'
loop_
_space_group_symop_operation_xyz
x,y,z
-x,-y,-z
loop_
_atom_site_type_symbol
_atom_site_label
_atom_site_fract_x
_atom_site_fract_y
_atom_site_fract_z
Si Si1 0.677802 0.784382 0.676609
Si Si2 0.888243 0.192778 0.751482
Si Si3 0.355340 0.879013 0.629448
Si Si4 0.739574 0.540645 0.448261
Si Si5 0.313542 0.443473 0.135204
Si Si6 0.987428 0.950825 0.874851
O O1 0.481665 0.810430 0.677973
O O2 0.794840 0.644755 0.556367
O O3 0.608871 0.660214 0.796900
O O4 0.824632 0.007161 0.670686
O O5 0.747568 0.348881 0.794393
O O6 0.126027 0.304682 0.666911
O O7 0.863353 0.098650 0.871681
O O8 0.210387 0.680145 0.598852
O O9 0.207584 0.999644 0.746716
O O10 0.500000 0.000000 0.500000
O O11 0.500000 0.500000 0.500000
O O12 0.124952 0.286857 0.124414
O O13 0.500000 0.500000 0.000000
O O14 0.000000 0.000000 0.000000
#
# Coordination Sequence:
#
# PCOD8015404 Si02
#       6
#     2   2   2   2   2   2
#     4  10  25  42  71  99 136 178 223 274 346 401
#     4  11  24  46  67 100 138 174 226 280 339 405
#     4  11  24  44  70 104 138 178 229 284 336 405
#     4  10  21  42  68  97 135 173 223 277 338 398
#     4  11  27  45  67  99 137 181 228 275 337 409
#     4  11  26  44  70 100 135 181 232 279 339 402
#
# _framework density 21.822673000000002
#
# number of rings (size 3 to 8) (size 9 to 14) (size 15 to 20)
#    0.000    1.333    1.667    2.500    7.000    6.667 
#    0.000    0.000    0.000    0.000    0.000    0.000 
#    0.000    0.000    0.000    0.000    0.000    0.000 
#
# Total GULP energy -148750.146330 kJ/mol
# GULP energy per Si atom -12395.845527 kJ/mol
# Density = 2.177300 g / cm^3
# Si number density = 21.822673 Si / 1000 Ang^3
#
#
#
# Elastic Constant Matrix: (Units=GPa)
#
#
# Indices 1 2 3 4 5 6 
#
# 1 82.8940 48.5807 52.7652 -1.2057 9.3337 -3.2817
# 2 48.5807 159.8809 74.7057 2.2077 11.9874 8.1295
# 3 52.7652 74.7057 158.8743 -2.3249 3.2586 4.6021
# 4 -1.2057 2.2077 -2.3249 35.9126 5.2221 1.9526
# 5 9.3337 11.9874 3.2586 5.2221 42.4996 -2.1697
# 6 -3.2817 8.1295 4.6021 1.9526 -2.1697 33.6342
#
#
#
# Elastic Compliance Matrix: (Units=1/GPa)
#
#
# Indices 1 2 3 4 5 6 
#
# 1 0.016974 -0.003181 -0.004162 0.000701 -0.002455 0.002795
# 2 -0.003181 0.008872 -0.003028 -0.000498 -0.001619 -0.002116
# 3 -0.004162 -0.003028 0.009115 0.000546 0.000957 -0.000891
# 4 0.000701 -0.000498 0.000546 0.028563 -0.003656 -0.001780
# 5 -0.002455 -0.001619 0.000957 -0.003656 0.024995 0.001845
# 6 0.002795 -0.002116 -0.000891 -0.001780 0.001845 0.030860
#
#
# Mechanical properties :
#
#
# Convention : Reuss Voigt Hill
#
# Bulk Modulus (GPa) = 70.32940 83.75029 77.03984
# Shear Modulus (GPa) = 34.51572 37.44912 35.98242
#
# Velocity S-wave (km/s) = 3.98130 4.14704 4.06501
# Velocity P-wave (km/s) = 7.30972 7.83527 7.57705
#
# Compressibility (1/GPa) = 0.01421881
#
# Stress axis : x y z
#
# Youngs Moduli (GPa) = 58.91226 112.71596 109.71242
#
# Poissons Ratio (x) = 0.35851 0.45665
# Poissons Ratio (y) = 0.18738 0.33223
# Poissons Ratio (z) = 0.24521 0.34132
#
# Static dielectric constant tensor:
#      x y z
#    x 2.033170 2.361990 -0.134960 
#    y 2.361990 1.429860 0.527850 
#    z -0.134960 0.527850 4.033820 
# 
# 
# High freq. dielectric constant tensor:
#      x y z
#    x 1.844540 0.003520 0.002060 
#    y 0.003520 1.879790 0.001260 
#    z 0.002060 0.001260 1.860470 
# 
# From -- ./inp_files/28562.got.cif
#   From: 2010.06.25/outbox.cif.g09.slc.cpg/sg2_15_cif.got.tgz:28562.got - 2010.06.27 13:26:56.
