data_PCOD8015314
_publ_section_title
;
Structure prediction by ZEFSAII (Michael W. Deem and Ramdas Pophale) SiO2 
 PCOD8015314
Probable space group: P -1
;
_chemical_formula_sum "Si O2"
_cell_formula_units_Z 14
_cell_length_a 15.724519
_cell_length_b 9.179578
_cell_length_c 8.659190
_cell_angle_alpha 132.653930
_cell_angle_beta 89.038753
_cell_angle_gamma 123.384875
_cell_volume 625.381094
_symmetry_space_group_name_H-M "P -1"
_symmetry_group_IT_number 2
_symmetry_cell_setting 'triclinic'
loop_
_space_group_symop_operation_xyz
x,y,z
-x,-y,-z
loop_
_atom_site_type_symbol
_atom_site_label
_atom_site_fract_x
_atom_site_fract_y
_atom_site_fract_z
Si Si1 0.030727 0.256739 0.274237
Si Si2 0.356576 0.744899 0.266456
Si Si3 0.024085 0.628998 0.338799
Si Si4 0.383889 0.412843 0.510153
Si Si5 0.529134 0.364577 0.004709
Si Si6 0.805133 0.188799 0.809382
Si Si7 0.691615 0.317792 0.447688
O O1 0.961165 0.177031 0.386352
O O2 0.175791 0.511974 0.507439
O O3 0.999480 0.377714 0.242919
O O4 0.000000 0.000000 0.000000
O O5 0.306937 0.852893 0.258254
O O6 0.275467 0.562958 0.291122
O O7 0.500000 0.000000 0.500000
O O8 0.355681 0.561935 0.018053
O O9 0.145281 0.820511 0.360995
O O10 0.911264 0.481910 0.116367
O O11 0.500000 0.500000 0.500000
O O12 0.410022 0.449665 0.713791
O O13 0.374814 0.616631 0.590590
O O14 0.252153 0.072024 0.257556
O O15 0.500000 0.500000 0.000000
O O16 0.401958 0.027172 0.801097
#
# Coordination Sequence:
#
# PCOD8015314 Si02
#       7
#     2   2   2   2   2   2   2
#     4  11  24  46  71 105 136 184 243 299 361 411
#     4  10  21  42  67  96 137 179 229 285 346 421
#     4  10  25  46  73  99 144 190 241 293 355 417
#     4  12  25  40  67 102 140 181 233 285 361 423
#     4  11  24  41  66 101 135 186 232 284 361 419
#     4  11  23  47  69 103 142 189 235 294 349 427
#     4  11  23  42  66  97 140 175 228 298 346 420
#
# _framework density 22.386348999999999
#
# number of rings (size 3 to 8) (size 9 to 14) (size 15 to 20)
#    0.000    1.143    1.429    5.571    4.000    1.143 
#    2.571    2.143    0.000    0.000    0.000    0.000 
#    0.000    0.000    0.000    0.000    0.000    0.000 
#
# Total GULP energy -173490.782327 kJ/mol
# GULP energy per Si atom -12392.198738 kJ/mol
# Density = 2.233540 g / cm^3
# Si number density = 22.386349 Si / 1000 Ang^3
#
#
#
# Elastic Constant Matrix: (Units=GPa)
#
#
# Indices 1 2 3 4 5 6 
#
# 1 136.4283 33.9790 31.5767 6.3684 -6.8595 -11.4294
# 2 33.9790 96.6650 22.5580 2.3485 -14.5115 -6.7994
# 3 31.5767 22.5580 85.6622 -10.2011 -19.1410 0.2074
# 4 6.3684 2.3485 -10.2011 39.5297 4.0679 -6.1174
# 5 -6.8595 -14.5115 -19.1410 4.0679 35.0684 -5.9933
# 6 -11.4294 -6.7994 0.2074 -6.1174 -5.9933 48.2663
#
#
#
# Elastic Compliance Matrix: (Units=1/GPa)
#
#
# Indices 1 2 3 4 5 6 
#
# 1 0.008770 -0.002309 -0.002922 -0.001760 -0.000375 0.001494
# 2 -0.002309 0.012281 -0.001571 -0.000945 0.004154 0.001586
# 3 -0.002922 -0.001571 0.015102 0.003830 0.006634 0.000331
# 4 -0.001760 -0.000945 0.003830 0.027183 -0.001334 0.002713
# 5 -0.000375 0.004154 0.006634 -0.001334 0.034724 0.004610
# 6 0.001494 0.001586 0.000331 0.002713 0.004610 0.022211
#
#
# Mechanical properties :
#
#
# Convention : Reuss Voigt Hill
#
# Bulk Modulus (GPa) = 44.34802 54.99810 49.67306
# Shear Modulus (GPa) = 35.36282 39.94900 37.65591
#
# Velocity S-wave (km/s) = 3.97881 4.22895 4.10578
# Velocity P-wave (km/s) = 6.40009 6.96178 6.68683
#
# Compressibility (1/GPa) = 0.02254892
#
# Stress axis : x y z
#
# Youngs Moduli (GPa) = 114.02919 81.42336 66.21639
#
# Poissons Ratio (x) = 0.18804 0.19346
# Poissons Ratio (y) = 0.26334 0.10404
# Poissons Ratio (z) = 0.33315 0.12793
#
# Static dielectric constant tensor:
#      x y z
#    x 4.136580 0.191020 -0.233000 
#    y 0.191020 4.395650 -0.399800 
#    z -0.233000 -0.399800 4.151980 
# 
# 
# High freq. dielectric constant tensor:
#      x y z
#    x 1.896970 0.004190 -0.001320 
#    y 0.004190 1.890040 -0.017170 
#    z -0.001320 -0.017170 1.872250 
# 
# From -- ./inp_files/213449.got.cif
#   From: 2010.06.25/outbox.cif.g09.slc.cpg/sg2_107_cif.got.tgz:213449.got - 2010.06.27 13:26:56.
