data_PCOD8015002
_publ_section_title
;
Structure prediction by ZEFSAII (Michael W. Deem and Ramdas Pophale) SiO2 
 PCOD8015002
Probable space group: P -1
;
_chemical_formula_sum "Si O2"
_cell_formula_units_Z 16
_cell_length_a 21.282557
_cell_length_b 9.044619
_cell_length_c 24.599771
_cell_angle_alpha 29.644473
_cell_angle_beta 17.804167
_cell_angle_gamma 37.800838
_cell_volume 693.972924
_symmetry_space_group_name_H-M "P -1"
_symmetry_group_IT_number 2
_symmetry_cell_setting 'triclinic'
loop_
_space_group_symop_operation_xyz
x,y,z
-x,-y,-z
loop_
_atom_site_type_symbol
_atom_site_label
_atom_site_fract_x
_atom_site_fract_y
_atom_site_fract_z
Si Si1 0.511979 0.657124 0.999216
Si Si2 0.876132 0.576194 0.805423
Si Si3 0.703883 0.339662 0.630198
Si Si4 0.620895 0.527104 0.469315
Si Si5 0.760141 0.683343 0.577794
Si Si6 0.956576 0.706133 0.815779
Si Si7 0.606437 0.991209 0.250507
Si Si8 0.447303 0.660732 0.675826
O O1 0.719753 0.644301 0.866631
O O2 0.521242 0.021746 0.874297
O O3 0.500000 0.500000 0.000000
O O4 0.301904 0.477191 0.261440
O O5 0.856680 0.739608 0.827667
O O6 0.110582 0.690482 0.553203
O O7 0.824834 0.211209 0.978001
O O8 0.794269 0.421468 0.590845
O O9 0.600103 0.624323 0.611214
O O10 0.640755 0.883340 0.318846
O O11 0.442392 0.312838 0.647859
O O12 0.520507 0.458010 0.633306
O O13 0.844166 0.441062 0.309387
O O14 0.573439 0.824298 0.663875
O O15 0.973246 0.954756 0.323143
O O16 0.795640 0.479788 0.061418
O O17 0.500000 0.000000 0.500000
#
# Coordination Sequence:
#
# PCOD8015002 Si02
#       8
#     2   2   2   2   2   2   2   2
#     4  11  25  46  73  96 136 181 228 288 352 414
#     4  11  23  42  67  98 137 176 232 277 350 405
#     4  12  25  42  68 104 138 181 231 284 346 407
#     4  10  21  42  64  96 135 188 230 277 343 391
#     4  10  23  44  65  99 137 174 233 288 342 407
#     4  11  24  43  70  99 140 186 229 282 340 410
#     4   9  21  40  65  91 137 181 227 282 337 405
#     4  12  26  41  67 102 144 180 238 279 335 409
#
# _framework density 23.055655000000002
#
# number of rings (size 3 to 8) (size 9 to 14) (size 15 to 20)
#    0.000    1.250    1.250    4.500    7.000    1.000 
#    0.000    4.375    0.000    0.000    0.000    0.000 
#    0.000    0.000    0.000    0.000    0.000    0.000 
#
# Total GULP energy -198319.712482 kJ/mol
# GULP energy per Si atom -12394.982030 kJ/mol
# Density = 2.300318 g / cm^3
# Si number density = 23.055655 Si / 1000 Ang^3
#
#
#
# Elastic Constant Matrix: (Units=GPa)
#
#
# Indices 1 2 3 4 5 6 
#
# 1 135.8941 37.3305 52.7727 -12.6851 10.4077 21.5854
# 2 37.3305 59.2301 40.9900 -13.9652 8.7843 15.8392
# 3 52.7727 40.9900 156.7452 -8.8360 14.2010 24.6649
# 4 -12.6851 -13.9652 -8.8360 38.0034 6.4540 2.7225
# 5 10.4077 8.7843 14.2010 6.4540 38.7199 1.4728
# 6 21.5854 15.8392 24.6649 2.7225 1.4728 41.8196
#
#
#
# Elastic Compliance Matrix: (Units=1/GPa)
#
#
# Indices 1 2 3 4 5 6 
#
# 1 0.009715 -0.003550 -0.001666 0.001990 -0.001421 -0.002767
# 2 -0.003550 0.026188 -0.003724 0.008848 -0.004857 -0.006295
# 3 -0.001666 -0.003724 0.008544 0.000569 -0.001832 -0.002741
# 4 0.001990 0.008848 0.000569 0.032165 -0.007864 -0.006532
# 5 -0.001421 -0.004857 -0.001832 -0.007864 0.029174 0.003138
# 6 -0.002767 -0.006295 -0.002741 -0.006532 0.003138 0.029656
#
#
# Mechanical properties :
#
#
# Convention : Reuss Voigt Hill
#
# Bulk Modulus (GPa) = 37.64079 68.22845 52.93462
# Shear Modulus (GPa) = 30.83057 38.42699 34.62878
#
# Velocity S-wave (km/s) = 3.66077 4.08696 3.87972
# Velocity P-wave (km/s) = 5.85063 7.20612 6.56346
#
# Compressibility (1/GPa) = 0.02656692
#
# Stress axis : x y z
#
# Youngs Moduli (GPa) = 102.93342 38.18606 117.04230
#
# Poissons Ratio (x) = 0.13556 0.19501
# Poissons Ratio (y) = 0.36541 0.43583
# Poissons Ratio (z) = 0.17150 0.14219
#
# Static dielectric constant tensor:
#      x y z
#    x 4.531420 0.110070 0.220470 
#    y 0.110070 3.963760 -0.239180 
#    z 0.220470 -0.239180 4.395220 
# 
# 
# High freq. dielectric constant tensor:
#      x y z
#    x 1.927040 0.009060 0.010660 
#    y 0.009060 1.898900 -0.012150 
#    z 0.010660 -0.012150 1.917090 
# 
# From -- ./inp_files/613569.got.cif
#   From: 2010.06.25/outbox.cif.g09.slc.cpg/sg2_307_cif.got.tgz:613569.got - 2010.06.27 13:26:56.
