data_PCOD8015942
_publ_section_title
;
Structure prediction by ZEFSAII (Michael W. Deem and Ramdas Pophale) SiO2 
 PCOD8015942
Probable space group: P -1
;
_chemical_formula_sum "Si O2"
_cell_formula_units_Z 16
_cell_length_a 17.065134
_cell_length_b 19.998326
_cell_length_c 9.556441
_cell_angle_alpha 138.162252
_cell_angle_beta 41.543884
_cell_angle_gamma 160.062405
_cell_volume 725.053962
_symmetry_space_group_name_H-M "P -1"
_symmetry_group_IT_number 2
_symmetry_cell_setting 'triclinic'
loop_
_space_group_symop_operation_xyz
x,y,z
-x,-y,-z
loop_
_atom_site_type_symbol
_atom_site_label
_atom_site_fract_x
_atom_site_fract_y
_atom_site_fract_z
Si Si1 0.985104 0.491023 0.709681
Si Si2 0.731106 0.428248 0.153843
Si Si3 0.216720 0.022042 0.116611
Si Si4 0.862492 0.882590 0.856951
Si Si5 0.028495 0.692183 0.748340
Si Si6 0.946900 0.146845 0.634809
Si Si7 0.448451 0.748934 0.586577
Si Si8 0.551426 0.431262 0.892547
O O1 0.928687 0.543717 0.767499
O O2 0.269768 0.689831 0.649266
O O3 0.879333 0.309454 0.505486
O O4 0.855538 0.417502 0.914939
O O5 0.478024 0.256233 0.151954
O O6 0.901410 0.643243 0.218575
O O7 0.703365 0.403223 0.317722
O O8 0.086293 0.990899 0.123587
O O9 0.068434 0.922015 0.303143
O O10 0.229640 0.914216 0.883532
O O11 0.930197 0.828383 0.609611
O O12 0.588064 0.678444 0.945814
O O13 0.000000 0.000000 0.000000
O O14 0.823948 0.616270 0.850283
O O15 0.679740 0.979549 0.684866
O O16 0.536572 0.719627 0.331573
O O17 0.500000 0.500000 0.000000
#
# Coordination Sequence:
#
# PCOD8015942 Si02
#       8
#     2   2   2   2   2   2   2   2
#     4  10  21  43  67  98 133 174 229 271 336 400
#     4  11  23  43  67  97 133 180 224 267 341 405
#     4  11  25  44  68  99 140 174 224 277 340 398
#     4  12  24  42  69 101 132 178 226 275 338 403
#     4  10  22  42  69  96 133 178 217 283 337 396
#     4  11  24  45  66  98 141 175 223 276 336 401
#     4  10  23  42  66  98 133 175 223 281 329 398
#     4  11  22  42  70  98 136 172 226 283 337 395
#
# _framework density 22.067322999999998
#
# number of rings (size 3 to 8) (size 9 to 14) (size 15 to 20)
#    0.000    1.250    2.500    3.000    0.000    2.500 
#    2.250    0.000    0.000    0.000    0.000    0.000 
#    0.000    0.000    0.000    0.000    0.000    0.000 
#
# Total GULP energy -198413.356968 kJ/mol
# GULP energy per Si atom -12400.834811 kJ/mol
# Density = 2.201710 g / cm^3
# Si number density = 22.067323 Si / 1000 Ang^3
#
#
#
# Elastic Constant Matrix: (Units=GPa)
#
#
# Indices 1 2 3 4 5 6 
#
# 1 100.5225 23.0661 37.0976 1.3575 2.5687 5.3346
# 2 23.0661 100.4102 42.3997 5.7601 7.4365 -4.0375
# 3 37.0976 42.3997 152.6848 -14.0427 10.7351 -1.1109
# 4 1.3575 5.7601 -14.0427 37.4294 0.2293 6.6202
# 5 2.5687 7.4365 10.7351 0.2293 33.3509 -1.2560
# 6 5.3346 -4.0375 -1.1109 6.6202 -1.2560 21.1396
#
#
#
# Elastic Compliance Matrix: (Units=1/GPa)
#
#
# Indices 1 2 3 4 5 6 
#
# 1 0.011388 -0.001729 -0.002364 -0.000474 0.000153 -0.003171
# 2 -0.001729 0.012150 -0.003163 -0.003630 -0.001396 0.003645
# 3 -0.002364 -0.003163 0.008491 0.003930 -0.001907 -0.000905
# 4 -0.000474 -0.003630 0.003930 0.030541 -0.001005 -0.009991
# 5 0.000153 -0.001396 -0.001907 -0.001005 0.030970 0.001749
# 6 -0.003171 0.003645 -0.000905 -0.009991 0.001749 0.051986
#
#
# Mechanical properties :
#
#
# Convention : Reuss Voigt Hill
#
# Bulk Modulus (GPa) = 57.08995 62.08272 59.58633
# Shear Modulus (GPa) = 30.14258 35.12091 32.63175
#
# Velocity S-wave (km/s) = 3.69987 3.99373 3.84961
# Velocity P-wave (km/s) = 6.64673 7.03285 6.84251
#
# Compressibility (1/GPa) = 0.01751622
#
# Stress axis : x y z
#
# Youngs Moduli (GPa) = 87.81103 82.30301 117.76959
#
# Poissons Ratio (x) = 0.14234 0.27842
# Poissons Ratio (y) = 0.15186 0.37251
# Poissons Ratio (z) = 0.20760 0.26033
#
# Static dielectric constant tensor:
#      x y z
#    x 3.847520 0.074330 0.205540 
#    y 0.074330 3.873630 -0.049440 
#    z 0.205540 -0.049440 4.318260 
# 
# 
# High freq. dielectric constant tensor:
#      x y z
#    x 1.864130 0.007720 0.012350 
#    y 0.007720 1.856830 -0.000150 
#    z 0.012350 -0.000150 1.887230 
# 
# From -- ./inp_files/338190.got.cif
#   From: 2010.06.25/outbox.cif.g09.slc.cpg/sg2_170_cif.got.tgz:338190.got - 2010.06.27 13:26:56.
