data_PCOD8015817
_publ_section_title
;
Structure prediction by ZEFSAII (Michael W. Deem and Ramdas Pophale) SiO2 
 PCOD8015817
Probable space group: P -1
;
_chemical_formula_sum "Si O2"
_cell_formula_units_Z 16
_cell_length_a 15.973159
_cell_length_b 21.421366
_cell_length_c 7.637707
_cell_angle_alpha 112.542540
_cell_angle_beta 80.216590
_cell_angle_gamma 158.281756
_cell_volume 748.922049
_symmetry_space_group_name_H-M "P -1"
_symmetry_group_IT_number 2
_symmetry_cell_setting 'triclinic'
loop_
_space_group_symop_operation_xyz
x,y,z
-x,-y,-z
loop_
_atom_site_type_symbol
_atom_site_label
_atom_site_fract_x
_atom_site_fract_y
_atom_site_fract_z
Si Si1 0.434088 0.424347 0.698652
Si Si2 0.159275 0.877134 0.637512
Si Si3 0.090724 0.917408 0.385340
Si Si4 0.695824 0.748165 0.794262
Si Si5 0.672399 0.378732 0.611723
Si Si6 0.284798 0.561503 0.725023
Si Si7 0.739050 0.344616 0.876609
Si Si8 0.070429 0.287986 0.085726
O O1 0.573563 0.603429 0.822327
O O2 0.317610 0.302217 0.435420
O O3 0.642217 0.531691 0.831265
O O4 0.173457 0.236002 0.715809
O O5 0.066214 0.867217 0.533200
O O6 0.006992 0.693604 0.446754
O O7 0.087514 0.849256 0.827393
O O8 0.476102 0.100146 0.742120
O O9 0.363901 0.167240 0.539630
O O10 0.108831 0.871189 0.184990
O O11 0.516806 0.680397 0.776084
O O12 0.000000 0.000000 0.000000
O O13 0.690283 0.375547 0.394716
O O14 0.754211 0.376356 0.700034
O O15 0.877827 0.593363 0.818993
O O16 0.299466 0.618127 0.951695
O O17 0.000000 0.500000 0.000000
#
# Coordination Sequence:
#
# PCOD8015817 Si02
#       8
#     2   2   2   2   2   2   2   2
#     4  11  22  38  56  95 133 168 227 252 294 371
#     4  10  21  43  66  86 129 165 202 263 318 382
#     4  11  22  36  60  90 129 172 208 261 301 355
#     4  11  24  36  64  94 132 180 217 251 308 368
#     4  10  24  41  64  94 126 161 217 257 316 387
#     4  11  22  45  66  91 130 173 207 260 321 366
#     4  11  26  44  70  98 120 158 212 268 336 392
#     4  11  22  40  61  92 129 172 213 253 307 370
#
# _framework density 21.364038000000001
#
# number of rings (size 3 to 8) (size 9 to 14) (size 15 to 20)
#    0.000    1.250    3.750    2.625    7.000    1.500 
#    0.000    2.500    0.000    0.000    0.000    0.000 
#    0.000    0.000    0.000    0.000    0.000    0.000 
#
# Total GULP energy -198394.725757 kJ/mol
# GULP energy per Si atom -12399.670360 kJ/mol
# Density = 2.131541 g / cm^3
# Si number density = 21.364038 Si / 1000 Ang^3
#
#
#
# Elastic Constant Matrix: (Units=GPa)
#
#
# Indices 1 2 3 4 5 6 
#
# 1 58.7751 38.0159 26.6336 14.2639 15.1103 -3.7135
# 2 38.0159 97.5708 41.7109 14.1280 11.3156 -8.0650
# 3 26.6336 41.7109 99.1124 10.4004 0.5939 -0.7468
# 4 14.2639 14.1280 10.4004 38.1527 4.3928 7.8108
# 5 15.1103 11.3156 0.5939 4.3928 27.3778 5.5840
# 6 -3.7135 -8.0650 -0.7468 7.8108 5.5840 19.2424
#
#
#
# Elastic Compliance Matrix: (Units=1/GPa)
#
#
# Indices 1 2 3 4 5 6 
#
# 1 0.029015 -0.005742 -0.004375 -0.008011 -0.014392 0.010452
# 2 -0.005742 0.016330 -0.004842 -0.003774 -0.004585 0.008411
# 3 -0.004375 -0.004842 0.013242 0.000032 0.004897 -0.003794
# 4 -0.008011 -0.003774 0.000032 0.033808 0.004244 -0.018081
# 5 -0.014392 -0.004585 0.004897 0.004244 0.049795 -0.020682
# 6 0.010452 0.008411 -0.003794 -0.018081 -0.020682 0.070705
#
#
# Mechanical properties :
#
#
# Convention : Reuss Voigt Hill
#
# Bulk Modulus (GPa) = 34.88159 52.01991 43.45075
# Shear Modulus (GPa) = 19.81232 26.89443 23.35338
#
# Velocity S-wave (km/s) = 3.04858 3.55190 3.30982
# Velocity P-wave (km/s) = 5.36232 6.42055 5.91515
#
# Compressibility (1/GPa) = 0.02866842
#
# Stress axis : x y z
#
# Youngs Moduli (GPa) = 34.46518 61.23844 75.51842
#
# Poissons Ratio (x) = 0.35160 0.33039
# Poissons Ratio (y) = 0.19788 0.36569
# Poissons Ratio (z) = 0.15078 0.29654
#
# Static dielectric constant tensor:
#      x y z
#    x 3.496550 -0.234720 0.033060 
#    y -0.234720 4.076850 0.041860 
#    z 0.033060 0.041860 4.128850 
# 
# 
# High freq. dielectric constant tensor:
#      x y z
#    x 1.801310 -0.018230 0.006060 
#    y -0.018230 1.845400 0.004640 
#    z 0.006060 0.004640 1.855520 
# 
# From -- ./inp_files/299635.got.cif
#   From: 2010.06.25/outbox.cif.g09.slc.cpg/sg2_150_cif.got.tgz:299635.got - 2010.06.27 13:26:56.
