data_PCOD8015322
_publ_section_title
;
Structure prediction by ZEFSAII (Michael W. Deem and Ramdas Pophale) SiO2 
 PCOD8015322
Probable space group: P -1
;
_chemical_formula_sum "Si O2"
_cell_formula_units_Z 16
_cell_length_a 6.822829
_cell_length_b 10.693729
_cell_length_c 12.675088
_cell_angle_alpha 86.358886
_cell_angle_beta 130.664808
_cell_angle_gamma 93.847546
_cell_volume 699.667613
_symmetry_space_group_name_H-M "P -1"
_symmetry_group_IT_number 2
_symmetry_cell_setting 'triclinic'
loop_
_space_group_symop_operation_xyz
x,y,z
-x,-y,-z
loop_
_atom_site_type_symbol
_atom_site_label
_atom_site_fract_x
_atom_site_fract_y
_atom_site_fract_z
Si Si1 0.596289 0.673468 0.920582
Si Si2 0.629030 0.512190 0.296836
Si Si3 0.600677 0.132686 0.755950
Si Si4 0.877410 0.375898 0.813463
Si Si5 0.855631 0.360465 0.570979
Si Si6 0.417969 0.865246 0.021160
Si Si7 0.473420 0.146187 0.488456
Si Si8 0.187451 0.140965 0.188012
O O1 0.370001 0.579567 0.800580
O O2 0.494780 0.752709 0.979017
O O3 0.676464 0.761119 0.846995
O O4 0.833369 0.589304 0.047217
O O5 0.341541 0.563720 0.195318
O O6 0.684911 0.438955 0.427581
O O7 0.840703 0.626719 0.353945
O O8 0.853829 0.224641 0.827849
O O9 0.412523 0.173189 0.589905
O O10 0.693953 0.992530 0.785679
O O11 0.456964 0.150901 0.817140
O O12 0.831031 0.420033 0.675365
O O13 0.742784 0.216972 0.542120
O O14 0.114510 0.862783 0.935290
O O15 0.500000 0.000000 0.000000
O O16 0.244836 0.184518 0.327238
O O17 0.500000 0.000000 0.500000
#
# Coordination Sequence:
#
# PCOD8015322 Si02
#       8
#     2   2   2   2   2   2   2   2
#     4  12  25  42  68 101 139 178 231 281 339 413
#     4  11  25  46  68  99 136 184 230 279 334 406
#     4  10  21  42  67  97 134 178 226 273 348 403
#     4  11  24  43  68  96 134 185 225 282 336 403
#     4  10  23  45  71  98 134 177 232 279 341 409
#     4  12  24  40  68 101 139 182 223 280 347 408
#     4   9  20  42  74  99 135 174 221 289 340 402
#     4  11  21  44  67 100 139 177 221 282 352 406
#
# _framework density 22.868001
#
# number of rings (size 3 to 8) (size 9 to 14) (size 15 to 20)
#    0.000    1.250    3.750    1.875    1.750    1.500 
#    9.000    0.625    0.000    0.000    0.000    0.000 
#    0.000    0.000    0.000    0.000    0.000    0.000 
#
# Total GULP energy -198281.293161 kJ/mol
# GULP energy per Si atom -12392.580823 kJ/mol
# Density = 2.281595 g / cm^3
# Si number density = 22.868001 Si / 1000 Ang^3
#
#
#
# Elastic Constant Matrix: (Units=GPa)
#
#
# Indices 1 2 3 4 5 6 
#
# 1 79.1186 39.7705 45.7496 -0.0516 -17.7266 3.9349
# 2 39.7705 94.9027 46.7574 8.7050 1.9125 14.2217
# 3 45.7496 46.7574 154.4185 7.7689 -34.1822 -0.6412
# 4 -0.0516 8.7050 7.7689 24.5227 0.9999 5.2865
# 5 -17.7266 1.9125 -34.1822 0.9999 41.4746 -0.8318
# 6 3.9349 14.2217 -0.6412 5.2865 -0.8318 36.4886
#
#
#
# Elastic Compliance Matrix: (Units=1/GPa)
#
#
# Indices 1 2 3 4 5 6 
#
# 1 0.019060 -0.007474 -0.002035 0.002944 0.006754 0.000549
# 2 -0.007474 0.017239 -0.004604 -0.003125 -0.007823 -0.005719
# 3 -0.002035 -0.004604 0.010390 -0.002582 0.008023 0.002753
# 4 0.002944 -0.003125 -0.002582 0.043988 -0.001898 -0.005561
# 5 0.006754 -0.007823 0.008023 -0.001898 0.034088 0.003514
# 6 0.000549 -0.005719 0.002753 -0.005561 0.003514 0.030510
#
#
# Mechanical properties :
#
#
# Convention : Reuss Voigt Hill
#
# Bulk Modulus (GPa) = 54.15655 65.88830 60.02243
# Shear Modulus (GPa) = 26.36374 33.57468 29.96921
#
# Velocity S-wave (km/s) = 3.39907 3.83586 3.62405
# Velocity P-wave (km/s) = 6.25608 6.96372 6.61937
#
# Compressibility (1/GPa) = 0.01846499
#
# Stress axis : x y z
#
# Youngs Moduli (GPa) = 52.46462 58.00936 96.24448
#
# Poissons Ratio (x) = 0.43353 0.19584
# Poissons Ratio (y) = 0.39209 0.44309
# Poissons Ratio (z) = 0.10675 0.26707
#
# Static dielectric constant tensor:
#      x y z
#    x 3.884460 0.283130 -0.365950 
#    y 0.283130 4.134310 0.212490 
#    z -0.365950 0.212490 4.924310 
# 
# 
# High freq. dielectric constant tensor:
#      x y z
#    x 1.877420 0.023700 -0.023040 
#    y 0.023700 1.902460 0.003730 
#    z -0.023040 0.003730 1.931090 
# 
# From -- ./inp_files/364542.got.cif
#   From: 2010.06.25/outbox.cif.g09.slc.cpg/sg2_183_cif.got.tgz:364542.got - 2010.06.27 13:26:56.
