data_PCOD8015822
_publ_section_title
;
Structure prediction by ZEFSAII (Michael W. Deem and Ramdas Pophale) SiO2 
 PCOD8015822
Probable space group: P -1
;
_chemical_formula_sum "Si O2"
_cell_formula_units_Z 16
_cell_length_a 8.839713
_cell_length_b 15.546858
_cell_length_c 13.156414
_cell_angle_alpha 46.207704
_cell_angle_beta 112.374530
_cell_angle_gamma 74.319321
_cell_volume 724.863218
_symmetry_space_group_name_H-M "P -1"
_symmetry_group_IT_number 2
_symmetry_cell_setting 'triclinic'
loop_
_space_group_symop_operation_xyz
x,y,z
-x,-y,-z
loop_
_atom_site_type_symbol
_atom_site_label
_atom_site_fract_x
_atom_site_fract_y
_atom_site_fract_z
Si Si1 0.820155 0.099550 0.972376
Si Si2 0.330154 0.215755 0.767021
Si Si3 0.276791 0.733173 0.527540
Si Si4 0.088812 0.598893 0.668490
Si Si5 0.668371 0.909896 0.460205
Si Si6 0.776649 0.722405 0.081819
Si Si7 0.722914 0.020883 0.574321
Si Si8 0.814383 0.352656 0.864993
O O1 0.530693 0.205995 0.793927
O O2 0.748900 0.273995 0.847058
O O3 0.996131 0.920454 0.243427
O O4 0.000000 0.000000 0.000000
O O5 0.185891 0.322558 0.751624
O O6 0.115050 0.322392 0.536771
O O7 0.500000 0.000000 0.000000
O O8 0.263309 0.613348 0.675687
O O9 0.294887 0.826934 0.539412
O O10 0.539970 0.576428 0.650590
O O11 0.278312 0.371979 0.911982
O O12 0.951567 0.699067 0.660531
O O13 0.540586 0.878856 0.518924
O O14 0.713739 0.999050 0.469882
O O15 0.485955 0.045956 0.203182
O O16 0.045432 0.631048 0.184065
O O17 0.992150 0.800074 0.867936
#
# Coordination Sequence:
#
# PCOD8015822 Si02
#       8
#     2   2   2   2   2   2   2   2
#     4  11  24  39  62  89 122 162 202 250 298 353
#     4  12  22  42  61  87 127 162 203 245 297 362
#     4  11  23  41  60  91 125 159 201 252 304 356
#     4  12  25  39  63  89 125 164 200 249 301 362
#     4  10  21  43  66  90 117 158 207 252 306 357
#     4  11  23  40  63  91 122 164 203 246 299 362
#     4   9  22  42  67  89 119 156 203 260 302 356
#     4  10  23  40  63  91 124 158 204 250 301 358
#
# _framework density 22.073131
#
# number of rings (size 3 to 8) (size 9 to 14) (size 15 to 20)
#    0.000    1.250    2.500    2.625    5.250    3.000 
#    0.000    5.000    0.000    0.000    0.000    0.000 
#    0.000    0.000    0.000    0.000    0.000    0.000 
#
# Total GULP energy -198413.878140 kJ/mol
# GULP energy per Si atom -12400.867384 kJ/mol
# Density = 2.202289 g / cm^3
# Si number density = 22.073131 Si / 1000 Ang^3
#
#
#
# Elastic Constant Matrix: (Units=GPa)
#
#
# Indices 1 2 3 4 5 6 
#
# 1 133.1177 51.4645 11.0648 -2.5502 -0.5570 11.8842
# 2 51.4645 129.1587 11.5915 -4.1541 2.1725 -2.3101
# 3 11.0648 11.5915 26.7022 -4.6835 2.3196 -0.2910
# 4 -2.5502 -4.1541 -4.6835 37.4274 4.4953 -2.6898
# 5 -0.5570 2.1725 2.3196 4.4953 28.5862 -5.3456
# 6 11.8842 -2.3101 -0.2910 -2.6898 -5.3456 43.0710
#
#
#
# Elastic Compliance Matrix: (Units=1/GPa)
#
#
# Indices 1 2 3 4 5 6 
#
# 1 0.009334 -0.003564 -0.002416 -0.000282 0.000173 -0.002779
# 2 -0.003564 0.009437 -0.002453 0.000653 -0.000417 0.001462
# 3 -0.002416 -0.002453 0.040766 0.005175 -0.003860 0.000654
# 4 -0.000282 0.000653 0.005175 0.028072 -0.004642 0.001325
# 5 0.000173 -0.000417 -0.003860 -0.004642 0.036843 0.004186
# 6 -0.002779 0.001462 0.000654 0.001325 0.004186 0.024669
#
#
# Mechanical properties :
#
#
# Convention : Reuss Voigt Hill
#
# Bulk Modulus (GPa) = 23.43477 48.58001 36.00739
# Shear Modulus (GPa) = 27.74522 36.14078 31.94300
#
# Velocity S-wave (km/s) = 3.54922 4.05077 3.80826
# Velocity P-wave (km/s) = 5.23793 6.62833 5.97372
#
# Compressibility (1/GPa) = 0.04267164
#
# Stress axis : x y z
#
# Youngs Moduli (GPa) = 107.13130 105.96654 24.53021
#
# Poissons Ratio (x) = 0.37769 0.05925
# Poissons Ratio (y) = 0.38185 0.06017
# Poissons Ratio (z) = 0.25878 0.25994
#
# Static dielectric constant tensor:
#      x y z
#    x 4.306070 0.091540 -0.459060 
#    y 0.091540 4.097010 0.051430 
#    z -0.459060 0.051430 4.364750 
# 
# 
# High freq. dielectric constant tensor:
#      x y z
#    x 1.872980 0.005820 -0.003260 
#    y 0.005820 1.883340 -0.013260 
#    z -0.003260 -0.013260 1.856600 
# 
# From -- ./inp_files/272604.got.cif
#   From: 2010.06.25/outbox.cif.g09.slc.cpg/sg2_137_cif.got.tgz:272604.got - 2010.06.27 13:26:56.
