data_PCOD8015494
_publ_section_title
;
Structure prediction by ZEFSAII (Michael W. Deem and Ramdas Pophale) SiO2 
 PCOD8015494
Probable space group: P -1
;
_chemical_formula_sum "Si O2"
_cell_formula_units_Z 12
_cell_length_a 6.592007
_cell_length_b 9.501609
_cell_length_c 17.455675
_cell_angle_alpha 43.915311
_cell_angle_beta 98.763653
_cell_angle_gamma 126.669665
_cell_volume 526.960171
_symmetry_space_group_name_H-M "P -1"
_symmetry_group_IT_number 2
_symmetry_cell_setting 'triclinic'
loop_
_space_group_symop_operation_xyz
x,y,z
-x,-y,-z
loop_
_atom_site_type_symbol
_atom_site_label
_atom_site_fract_x
_atom_site_fract_y
_atom_site_fract_z
Si Si1 0.651624 0.979466 0.950327
Si Si2 0.060723 0.816813 0.549764
Si Si3 0.526094 0.071815 0.349807
Si Si4 0.821773 0.171937 0.105623
Si Si5 0.537605 0.314073 0.616778
Si Si6 0.790084 0.639865 0.085440
O O1 0.512093 0.984712 0.865919
O O2 0.575350 0.683151 0.063260
O O3 0.003784 0.236396 0.875293
O O4 0.500000 0.000000 0.000000
O O5 0.297873 0.996746 0.426293
O O6 0.775602 0.502559 0.624145
O O7 0.180138 0.785902 0.643930
O O8 0.000000 0.000000 0.500000
O O9 0.377147 0.785825 0.405431
O O10 0.600753 0.302315 0.202687
O O11 0.772764 0.981388 0.248163
O O12 0.000000 0.500000 0.000000
O O13 0.990201 0.173036 0.047066
O O14 0.500000 0.500000 0.500000
#
# Coordination Sequence:
#
# PCOD8015494 Si02
#       6
#     2   2   2   2   2   2
#     4   9  21  40  64  96 133 173 219 275 340 405
#     4  11  25  45  69 100 137 186 230 284 340 411
#     4  11  24  45  71 101 138 179 236 281 347 405
#     4  11  23  42  66  98 136 172 225 279 340 403
#     4  12  25  47  70 101 141 185 230 285 342 411
#     4  10  21  42  69  99 129 177 223 284 341 405
#
# _framework density 22.772119
#
# number of rings (size 3 to 8) (size 9 to 14) (size 15 to 20)
#    0.000    1.333    3.333    1.500    0.000    8.667 
#    6.000    0.000    0.000    0.000    0.000    0.000 
#    0.000    0.000    0.000    0.000    0.000    0.000 
#
# Total GULP energy -148696.732135 kJ/mol
# GULP energy per Si atom -12391.394345 kJ/mol
# Density = 2.272029 g / cm^3
# Si number density = 22.772119 Si / 1000 Ang^3
#
#
#
# Elastic Constant Matrix: (Units=GPa)
#
#
# Indices 1 2 3 4 5 6 
#
# 1 129.7846 40.3763 54.3308 -4.1545 18.9967 -32.0538
# 2 40.3763 124.2222 32.5664 -13.0594 9.1262 -18.7350
# 3 54.3308 32.5664 156.8199 -9.4745 14.2020 -16.1040
# 4 -4.1545 -13.0594 -9.4745 29.3234 -10.0723 2.5106
# 5 18.9967 9.1262 14.2020 -10.0723 29.4643 -9.6673
# 6 -32.0538 -18.7350 -16.1040 2.5106 -9.6673 34.3220
#
#
#
# Elastic Compliance Matrix: (Units=1/GPa)
#
#
# Indices 1 2 3 4 5 6 
#
# 1 0.011856 -0.001898 -0.002680 -0.002039 -0.003892 0.007832
# 2 -0.001898 0.009700 -0.000896 0.003832 0.000977 0.003097
# 3 -0.002680 -0.000896 0.007697 0.001278 -0.001207 0.000186
# 4 -0.002039 0.003832 0.001278 0.040577 0.013957 0.001750
# 5 -0.003892 0.000977 -0.001207 0.013957 0.044030 0.007713
# 6 0.007832 0.003097 0.000186 0.001750 0.007713 0.040273
#
#
# Mechanical properties :
#
#
# Convention : Reuss Voigt Hill
#
# Bulk Modulus (GPa) = 54.62884 73.93039 64.27962
# Shear Modulus (GPa) = 29.20865 37.52548 33.36706
#
# Velocity S-wave (km/s) = 3.58529 4.06380 3.83202
# Velocity P-wave (km/s) = 6.41721 7.38614 6.91866
#
# Compressibility (1/GPa) = 0.01830535
#
# Stress axis : x y z
#
# Youngs Moduli (GPa) = 84.34406 103.09236 129.92397
#
# Poissons Ratio (x) = 0.19570 0.34818
# Poissons Ratio (y) = 0.16011 0.11637
# Poissons Ratio (z) = 0.22603 0.09234
#
# Static dielectric constant tensor:
#      x y z
#    x 4.353350 0.209080 0.243530 
#    y 0.209080 4.742280 0.182010 
#    z 0.243530 0.182010 4.044250 
# 
# 
# High freq. dielectric constant tensor:
#      x y z
#    x 1.895460 -0.009810 0.014920 
#    y -0.009810 1.909130 -0.007060 
#    z 0.014920 -0.007060 1.891910 
# 
# From -- ./inp_files/30216.got.cif
#   From: 2010.06.25/outbox.cif.g09.slc.cpg/sg2_16_cif.got.tgz:30216.got - 2010.06.27 13:26:56.
