data_PCOD8015499
_publ_section_title
;
Structure prediction by ZEFSAII (Michael W. Deem and Ramdas Pophale) SiO2 
 PCOD8015499
Probable space group: P -1
;
_chemical_formula_sum "Si O2"
_cell_formula_units_Z 14
_cell_length_a 13.248645
_cell_length_b 18.842515
_cell_length_c 6.903116
_cell_angle_alpha 81.951676
_cell_angle_beta 83.088679
_cell_angle_gamma 19.688159
_cell_volume 574.514161
_symmetry_space_group_name_H-M "P -1"
_symmetry_group_IT_number 2
_symmetry_cell_setting 'triclinic'
loop_
_space_group_symop_operation_xyz
x,y,z
-x,-y,-z
loop_
_atom_site_type_symbol
_atom_site_label
_atom_site_fract_x
_atom_site_fract_y
_atom_site_fract_z
Si Si1 0.465953 0.202204 0.219328
Si Si2 0.298584 0.195903 0.557593
Si Si3 0.309826 0.042147 0.088511
Si Si4 0.366157 0.684048 0.035029
Si Si5 0.098132 0.575293 0.133600
Si Si6 0.207421 0.703194 0.733506
Si Si7 0.988767 0.071714 0.625091
O O1 0.289353 0.268019 0.385331
O O2 0.210601 0.422037 0.095321
O O3 0.692005 0.105536 0.318919
O O4 0.638514 0.040016 0.083634
O O5 0.970498 0.383416 0.630644
O O6 0.500000 0.000000 0.500000
O O7 0.404675 0.149725 0.765337
O O8 0.052709 0.182279 0.232987
O O9 0.200152 0.196056 0.997388
O O10 0.476727 0.541384 0.186595
O O11 0.171212 0.855409 0.174828
O O12 0.635530 0.546846 0.923741
O O13 0.146372 0.806724 0.865387
O O14 0.205952 0.736093 0.505104
O O15 0.000000 0.000000 0.500000
#
# Coordination Sequence:
#
# PCOD8015499 Si02
#       7
#     2   2   2   2   2   2   2
#     4  12  26  47  75 102 150 187 238 300 353 425
#     4  12  26  50  76 104 146 188 243 298 352 425
#     4  11  24  49  74 102 142 194 234 297 361 415
#     4  10  23  43  69  99 143 180 231 295 348 426
#     4  11  26  46  71 111 139 191 240 289 359 425
#     4  10  21  42  69  99 135 185 236 282 358 418
#     4  12  25  42  69 108 143 182 235 292 360 422
#
# _framework density 24.368416
#
# number of rings (size 3 to 8) (size 9 to 14) (size 15 to 20)
#    0.000    0.857    4.286    2.143    2.000    1.714 
#   15.429    0.000    0.000    0.000    0.000    0.000 
#    0.000    0.000    0.000    0.000    0.000    0.000 
#
# Total GULP energy -173456.293713 kJ/mol
# GULP energy per Si atom -12389.735265 kJ/mol
# Density = 2.431295 g / cm^3
# Si number density = 24.368416 Si / 1000 Ang^3
#
#
#
# Elastic Constant Matrix: (Units=GPa)
#
#
# Indices 1 2 3 4 5 6 
#
# 1 77.7127 31.3112 54.6254 3.4962 -6.6789 18.3006
# 2 31.3112 72.3869 29.8311 -0.1673 -15.2406 18.0198
# 3 54.6254 29.8311 123.0735 11.2766 -15.6478 -1.7413
# 4 3.4962 -0.1673 11.2766 49.4554 3.0044 -15.5451
# 5 -6.6789 -15.2406 -15.6478 3.0044 44.0950 5.7774
# 6 18.3006 18.0198 -1.7413 -15.5451 5.7774 33.2475
#
#
#
# Elastic Compliance Matrix: (Units=1/GPa)
#
#
# Indices 1 2 3 4 5 6 
#
# 1 0.024819 -0.002510 -0.010019 -0.004333 0.001614 -0.015132
# 2 -0.002510 0.021023 -0.002823 -0.003764 0.007882 -0.013290
# 3 -0.010019 -0.002823 0.013544 -0.000126 0.001344 0.007462
# 4 -0.004333 -0.003764 -0.000126 0.026542 -0.006155 0.017898
# 5 0.001614 0.007882 0.001344 -0.006155 0.028230 -0.012874
# 6 -0.015132 -0.013290 0.007462 0.017898 -0.012874 0.056606
#
#
# Mechanical properties :
#
#
# Convention : Reuss Voigt Hill
#
# Bulk Modulus (GPa) = 34.86418 56.07873 45.47145
# Shear Modulus (GPa) = 23.69344 35.85329 29.77336
#
# Velocity S-wave (km/s) = 3.12156 3.83992 3.49922
# Velocity P-wave (km/s) = 5.22784 6.53627 5.91832
#
# Compressibility (1/GPa) = 0.02868274
#
# Stress axis : x y z
#
# Youngs Moduli (GPa) = 40.29178 47.56764 73.83140
#
# Poissons Ratio (x) = 0.11938 0.73974
# Poissons Ratio (y) = 0.10112 0.20840
# Poissons Ratio (z) = 0.40369 0.13427
#
# Static dielectric constant tensor:
#      x y z
#    x 4.392540 0.077310 -0.374790 
#    y 0.077310 4.547250 -0.078050 
#    z -0.374790 -0.078050 4.672730 
# 
# 
# High freq. dielectric constant tensor:
#      x y z
#    x 1.968540 0.004350 -0.030620 
#    y 0.004350 1.970100 0.006540 
#    z -0.030620 0.006540 1.978770 
# 
# From -- ./inp_files/100555.got.cif
#   From: 2010.06.25/outbox.cif.g09.slc.cpg/sg2_51_cif.got.tgz:100555.got - 2010.06.27 13:26:56.
