data_PCOD8015407
_publ_section_title
;
Structure prediction by ZEFSAII (Michael W. Deem and Ramdas Pophale) SiO2 
 PCOD8015407
Probable space group: P -1
;
_chemical_formula_sum "Si O2"
_cell_formula_units_Z 12
_cell_length_a 11.817904
_cell_length_b 9.746321
_cell_length_c 9.878564
_cell_angle_alpha 85.201594
_cell_angle_beta 115.151920
_cell_angle_gamma 145.477276
_cell_volume 498.739961
_symmetry_space_group_name_H-M "P -1"
_symmetry_group_IT_number 2
_symmetry_cell_setting 'triclinic'
loop_
_space_group_symop_operation_xyz
x,y,z
-x,-y,-z
loop_
_atom_site_type_symbol
_atom_site_label
_atom_site_fract_x
_atom_site_fract_y
_atom_site_fract_z
Si Si1 0.242634 0.327690 0.055090
Si Si2 0.787431 0.277372 0.292276
Si Si3 0.959868 0.747135 0.582361
Si Si4 0.056950 0.434366 0.927622
Si Si5 0.783205 0.744572 0.256424
Si Si6 0.487490 0.107315 0.377204
O O1 0.519320 0.530038 0.223673
O O2 0.274491 0.375005 0.906562
O O3 0.210354 0.456159 0.077001
O O4 0.000000 0.000000 0.000000
O O5 0.532357 0.087009 0.250409
O O6 0.000000 0.500000 0.500000
O O7 0.800800 0.126762 0.284175
O O8 0.803948 0.370285 0.149900
O O9 0.938938 0.778295 0.414432
O O10 0.685431 0.413595 0.505549
O O11 0.026975 0.941704 0.694504
O O12 0.799736 0.112424 0.764656
O O13 0.000000 0.500000 0.000000
O O14 0.500000 0.000000 0.500000
#
# Coordination Sequence:
#
# PCOD8015407 Si02
#       6
#     2   2   2   2   2   2
#     4  11  25  45  68  96 141 182 221 279 347 412
#     4  10  21  42  68  97 136 176 221 288 343 393
#     4  10  21  44  70  96 128 177 232 282 337 396
#     4  12  27  43  68 107 140 181 231 283 351 415
#     4  10  24  45  68  96 134 180 230 277 339 415
#     4  11  22  41  69 101 135 176 227 290 341 403
#
# _framework density 24.060635000000001
#
# number of rings (size 3 to 8) (size 9 to 14) (size 15 to 20)
#    0.000    1.333    3.333    3.000    4.667    2.000 
#    0.000    2.500    0.000    0.000    0.000    0.000 
#    0.000    0.000    0.000    0.000    0.000    0.000 
#
# Total GULP energy -148664.472144 kJ/mol
# GULP energy per Si atom -12388.706012 kJ/mol
# Density = 2.400587 g / cm^3
# Si number density = 24.060635 Si / 1000 Ang^3
#
#
#
# Elastic Constant Matrix: (Units=GPa)
#
#
# Indices 1 2 3 4 5 6 
#
# 1 90.0162 42.3170 11.2013 -16.0235 7.6009 -2.3501
# 2 42.3170 145.5116 18.4493 -4.7615 5.2553 -8.0032
# 3 11.2013 18.4493 46.8287 -12.0443 0.6484 -0.3464
# 4 -16.0235 -4.7615 -12.0443 45.1158 2.1904 6.2187
# 5 7.6009 5.2553 0.6484 2.1904 40.1293 -3.5272
# 6 -2.3501 -8.0032 -0.3464 6.2187 -3.5272 40.6634
#
#
#
# Elastic Compliance Matrix: (Units=1/GPa)
#
#
# Indices 1 2 3 4 5 6 
#
# 1 0.013982 -0.003793 -0.000630 0.004637 -0.002471 -0.000867
# 2 -0.003793 0.008369 -0.002740 -0.001412 -0.000115 0.001611
# 3 -0.000630 -0.002740 0.024158 0.006139 -0.000365 -0.001340
# 4 0.004637 -0.001412 0.006139 0.026000 -0.002577 -0.004157
# 5 -0.002471 -0.000115 -0.000365 -0.002577 0.025765 0.002461
# 6 -0.000867 0.001611 -0.001340 -0.004157 0.002461 0.025697
#
#
# Mechanical properties :
#
#
# Convention : Reuss Voigt Hill
#
# Bulk Modulus (GPa) = 31.07024 47.36576 39.21800
# Shear Modulus (GPa) = 33.55141 39.20763 36.37952
#
# Velocity S-wave (km/s) = 3.73829 4.04113 3.89265
# Velocity P-wave (km/s) = 5.61911 6.44228 6.04473
#
# Compressibility (1/GPa) = 0.03218514
#
# Stress axis : x y z
#
# Youngs Moduli (GPa) = 71.52054 119.48479 41.39335
#
# Poissons Ratio (x) = 0.45321 0.02606
# Poissons Ratio (y) = 0.27128 0.11340
# Poissons Ratio (z) = 0.04503 0.32734
#
# Static dielectric constant tensor:
#      x y z
#    x 5.705880 0.299460 0.361740 
#    y 0.299460 3.885550 -0.214500 
#    z 0.361740 -0.214500 4.073280 
# 
# 
# High freq. dielectric constant tensor:
#      x y z
#    x 1.952680 -0.007810 0.013960 
#    y -0.007810 1.959190 -0.001180 
#    z 0.013960 -0.001180 1.949310 
# 
# From -- ./inp_files/108740.got.cif
#   From: 2010.06.25/outbox.cif.g09.slc.cpg/sg2_55_cif.got.tgz:108740.got - 2010.06.27 13:26:56.
