data_PCOD8015708
_publ_section_title
;
Structure prediction by ZEFSAII (Michael W. Deem and Ramdas Pophale) SiO2 
 PCOD8015708
Probable space group: P -1
;
_chemical_formula_sum "Si O2"
_cell_formula_units_Z 16
_cell_length_a 20.480745
_cell_length_b 8.733545
_cell_length_c 12.089747
_cell_angle_alpha 32.820160
_cell_angle_beta 141.021409
_cell_angle_gamma 135.716291
_cell_volume 724.737205
_symmetry_space_group_name_H-M "P -1"
_symmetry_group_IT_number 2
_symmetry_cell_setting 'triclinic'
loop_
_space_group_symop_operation_xyz
x,y,z
-x,-y,-z
loop_
_atom_site_type_symbol
_atom_site_label
_atom_site_fract_x
_atom_site_fract_y
_atom_site_fract_z
Si Si1 0.552236 0.307942 0.046244
Si Si2 0.639005 0.544309 0.406302
Si Si3 0.885147 0.258905 0.248112
Si Si4 0.049672 0.279583 0.623348
Si Si5 0.254179 0.978078 0.592988
Si Si6 0.586881 0.922308 0.802653
Si Si7 0.774089 0.781569 0.246738
Si Si8 0.065365 0.108010 0.131931
O O1 0.452981 0.271312 0.853290
O O2 0.595448 0.649519 0.902800
O O3 0.516760 0.165440 0.204869
O O4 0.644419 0.148606 0.228784
O O5 0.705550 0.695559 0.506559
O O6 0.715210 0.542016 0.400448
O O7 0.583981 0.213841 0.554836
O O8 0.999645 0.266526 0.444706
O O9 0.798659 0.218089 0.256551
O O10 0.866618 0.001981 0.293089
O O11 0.886924 0.558596 0.007471
O O12 0.174635 0.356733 0.708999
O O13 0.000000 0.500000 0.500000
O O14 0.020778 0.972655 0.834194
O O15 0.168817 0.966877 0.386565
O O16 0.692226 0.979383 0.980102
O O17 0.000000 0.000000 0.000000
#
# Coordination Sequence:
#
# PCOD8015708 Si02
#       8
#     2   2   2   2   2   2   2   2
#     4  10  22  39  60  94 128 163 202 265 308 363
#     4  10  21  43  63  92 122 168 210 253 311 379
#     4  10  22  41  60  90 124 163 211 256 307 370
#     4  11  23  40  60  88 125 159 209 262 304 367
#     4  10  23  39  65  90 128 165 209 258 311 365
#     4  10  22  38  62  91 129 161 208 250 311 379
#     4  10  23  40  63  88 126 165 204 259 313 365
#     4  11  23  39  62  90 125 163 210 259 308 371
#
# _framework density 22.076968000000001
#
# number of rings (size 3 to 8) (size 9 to 14) (size 15 to 20)
#    0.000    1.750    1.250    1.875    3.500    3.000 
#    2.250    0.000    0.000    0.000    0.000    0.000 
#    0.000    0.000    0.000    0.000    0.000    0.000 
#
# Total GULP energy -198222.964306 kJ/mol
# GULP energy per Si atom -12388.935269 kJ/mol
# Density = 2.202672 g / cm^3
# Si number density = 22.076968 Si / 1000 Ang^3
#
#
#
# Elastic Constant Matrix: (Units=GPa)
#
#
# Indices 1 2 3 4 5 6 
#
# 1 139.2557 37.0685 68.7922 -14.8340 17.6869 8.9139
# 2 37.0685 89.0893 38.9773 -2.0830 -2.4830 12.0678
# 3 68.7922 38.9773 105.9641 -9.2575 -9.6904 8.5852
# 4 -14.8340 -2.0830 -9.2575 44.8976 10.3640 -9.9062
# 5 17.6869 -2.4830 -9.6904 10.3640 31.1846 -3.0512
# 6 8.9139 12.0678 8.5852 -9.9062 -3.0512 26.0753
#
#
#
# Elastic Compliance Matrix: (Units=1/GPa)
#
#
# Indices 1 2 3 4 5 6 
#
# 1 0.014838 -0.002213 -0.009520 0.005906 -0.013538 -0.000254
# 2 -0.002213 0.014397 -0.003477 -0.002349 0.001567 -0.005470
# 3 -0.009520 -0.003477 0.017775 -0.002395 0.011387 -0.000566
# 4 0.005906 -0.002349 -0.002395 0.028633 -0.012894 0.009226
# 5 -0.013538 0.001567 0.011387 -0.012894 0.047776 0.000846
# 6 -0.000254 -0.005470 -0.000566 0.009226 0.000846 0.044759
#
#
# Mechanical properties :
#
#
# Convention : Reuss Voigt Hill
#
# Bulk Modulus (GPa) = 60.28672 69.33170 64.80921
# Shear Modulus (GPa) = 24.49420 33.06290 28.77855
#
# Velocity S-wave (km/s) = 3.33452 3.87411 3.61440
# Velocity P-wave (km/s) = 6.49555 7.17526 6.84385
#
# Compressibility (1/GPa) = 0.01658740
#
# Stress axis : x y z
#
# Youngs Moduli (GPa) = 67.39460 69.45974 56.25977
#
# Poissons Ratio (x) = 0.15375 0.53560
# Poissons Ratio (y) = 0.14918 0.19564
# Poissons Ratio (z) = 0.64161 0.24154
#
# Static dielectric constant tensor:
#      x y z
#    x 4.280540 0.094060 -0.134040 
#    y 0.094060 4.226460 0.213620 
#    z -0.134040 0.213620 3.993420 
# 
# 
# High freq. dielectric constant tensor:
#      x y z
#    x 1.862690 0.015710 -0.006070 
#    y 0.015710 1.881520 0.013970 
#    z -0.006070 0.013970 1.860670 
# 
# From -- ./inp_files/462253.got.cif
#   From: 2010.06.25/outbox.cif.g09.slc.cpg/sg2_232_cif.got.tgz:462253.got - 2010.06.27 13:26:56.
