data_PCOD8015501
_publ_section_title
;
Structure prediction by ZEFSAII (Michael W. Deem and Ramdas Pophale) SiO2 
 PCOD8015501
Probable space group: P -1
;
_chemical_formula_sum "Si O2"
_cell_formula_units_Z 14
_cell_length_a 15.849669
_cell_length_b 6.499770
_cell_length_c 5.936924
_cell_angle_alpha 102.436165
_cell_angle_beta 94.924843
_cell_angle_gamma 78.437497
_cell_volume 584.563309
_symmetry_space_group_name_H-M "P -1"
_symmetry_group_IT_number 2
_symmetry_cell_setting 'triclinic'
loop_
_space_group_symop_operation_xyz
x,y,z
-x,-y,-z
loop_
_atom_site_type_symbol
_atom_site_label
_atom_site_fract_x
_atom_site_fract_y
_atom_site_fract_z
Si Si1 0.404670 0.319999 0.358747
Si Si2 0.560463 0.379041 0.173222
Si Si3 0.036219 0.841134 0.673411
Si Si4 0.290149 0.660758 0.098184
Si Si5 0.842238 0.545564 0.264554
Si Si6 0.255441 0.107900 0.345501
Si Si7 0.102496 0.196462 0.028548
O O1 0.501943 0.235672 0.263981
O O2 0.410394 0.445577 0.618705
O O3 0.344830 0.469755 0.204807
O O4 0.356032 0.124156 0.349490
O O5 0.500000 0.500000 0.000000
O O6 0.647145 0.247276 0.047457
O O7 0.105344 0.622770 0.579904
O O8 0.958626 0.750380 0.755045
O O9 0.000000 0.000000 0.500000
O O10 0.086833 0.967476 0.885981
O O11 0.252949 0.854453 0.309154
O O12 0.214875 0.580877 0.930072
O O13 0.785978 0.753077 0.418812
O O14 0.911918 0.627913 0.134229
O O15 0.201087 0.185525 0.126788
#
# Coordination Sequence:
#
# PCOD8015501 Si02
#       7
#     2   2   2   2   2   2   2
#     4  10  21  42  69  99 141 183 234 289 345 410
#     4   9  20  42  68  98 141 185 227 288 347 410
#     4  11  26  48  73 103 141 186 235 290 354 428
#     4  11  23  43  68 101 141 182 234 291 343 416
#     4  12  25  45  73 102 143 184 230 299 349 417
#     4  12  25  40  72 107 132 186 238 281 357 415
#     4  11  25  46  70 103 140 183 234 289 358 418
#
# _framework density 23.949501999999999
#
# number of rings (size 3 to 8) (size 9 to 14) (size 15 to 20)
#    0.000    1.143    4.286    1.286    0.000    8.571 
#    0.000    6.429    0.000    0.000    0.000    0.000 
#    0.000    0.000    0.000    0.000    0.000    0.000 
#
# Total GULP energy -173469.759469 kJ/mol
# GULP energy per Si atom -12390.697105 kJ/mol
# Density = 2.389499 g / cm^3
# Si number density = 23.949502 Si / 1000 Ang^3
#
#
#
# Elastic Constant Matrix: (Units=GPa)
#
#
# Indices 1 2 3 4 5 6 
#
# 1 111.2272 45.0131 35.2687 9.7656 -2.2558 27.2023
# 2 45.0131 89.7365 25.8204 5.7900 -13.2831 1.5552
# 3 35.2687 25.8204 81.7751 6.5965 -2.2133 12.1660
# 4 9.7656 5.7900 6.5965 41.9595 2.7059 0.7422
# 5 -2.2558 -13.2831 -2.2133 2.7059 42.2669 3.3317
# 6 27.2023 1.5552 12.1660 0.7422 3.3317 30.6837
#
#
#
# Elastic Compliance Matrix: (Units=1/GPa)
#
#
# Indices 1 2 3 4 5 6 
#
# 1 0.015875 -0.006902 -0.002635 -0.002084 -0.000334 -0.012593
# 2 -0.006902 0.015940 -0.002796 -0.000521 0.004056 0.005992
# 3 -0.002635 -0.002796 0.014860 -0.001284 0.000109 -0.003395
# 4 -0.002084 -0.000521 -0.001284 0.024690 -0.002082 0.002012
# 5 -0.000334 0.004056 0.000109 -0.002082 0.025263 -0.002646
# 6 -0.012593 0.005992 -0.003395 0.002012 -0.002646 0.045035
#
#
# Mechanical properties :
#
#
# Convention : Reuss Voigt Hill
#
# Bulk Modulus (GPa) = 45.43507 54.99369 50.21438
# Shear Modulus (GPa) = 28.79088 34.75780 31.77434
#
# Velocity S-wave (km/s) = 3.47096 3.81372 3.64637
# Velocity P-wave (km/s) = 5.92249 6.51190 6.22417
#
# Compressibility (1/GPa) = 0.02200943
#
# Stress axis : x y z
#
# Youngs Moduli (GPa) = 62.99147 62.73355 67.29679
#
# Poissons Ratio (x) = 0.43297 0.17733
# Poissons Ratio (y) = 0.43475 0.18817
# Poissons Ratio (z) = 0.16599 0.17541
#
# Static dielectric constant tensor:
#      x y z
#    x 4.184570 0.740620 -0.915360 
#    y 0.740620 3.694050 0.563160 
#    z -0.915360 0.563160 3.537340 
# 
# 
# High freq. dielectric constant tensor:
#      x y z
#    x 1.968140 0.014020 0.013930 
#    y 0.014020 1.924470 0.007930 
#    z 0.013930 0.007930 1.953530 
# 
# From -- ./inp_files/7466.got.cif
#   From: 2010.06.25/outbox.cif.g09.slc.cpg/sg2_4_cif.got.tgz:7466.got - 2010.06.27 13:26:56.
