data_PCOD8015760
_publ_section_title
;
Structure prediction by ZEFSAII (Michael W. Deem and Ramdas Pophale) SiO2 
 PCOD8015760
Probable space group: P -1
;
_chemical_formula_sum "Si O2"
_cell_formula_units_Z 14
_cell_length_a 9.508427
_cell_length_b 5.218910
_cell_length_c 22.611124
_cell_angle_alpha 72.972962
_cell_angle_beta 148.116397
_cell_angle_gamma 106.962108
_cell_volume 564.614266
_symmetry_space_group_name_H-M "P -1"
_symmetry_group_IT_number 2
_symmetry_cell_setting 'triclinic'
loop_
_space_group_symop_operation_xyz
x,y,z
-x,-y,-z
loop_
_atom_site_type_symbol
_atom_site_label
_atom_site_fract_x
_atom_site_fract_y
_atom_site_fract_z
Si Si1 0.264279 0.690927 0.142294
Si Si2 0.823279 0.362934 0.222384
Si Si3 0.043738 0.864219 0.933909
Si Si4 0.253433 0.961159 0.670848
Si Si5 0.343504 0.168058 0.386700
Si Si6 0.215441 0.743349 0.548671
Si Si7 0.838973 0.954293 0.162466
O O1 0.181939 0.377123 0.146779
O O2 0.082150 0.875807 0.103119
O O3 0.569366 0.763549 0.266844
O O4 0.241310 0.751426 0.060204
O O5 0.711549 0.272239 0.252874
O O6 0.720310 0.649494 0.151292
O O7 0.149647 0.366868 0.336610
O O8 0.694243 0.151134 0.141908
O O9 0.210490 0.952421 0.928575
O O10 0.350354 0.854456 0.649983
O O11 0.943683 0.022239 0.554188
O O12 0.557371 0.338986 0.409711
O O13 0.500000 0.000000 0.500000
O O14 0.156181 0.969091 0.290652
O O15 0.000000 0.500000 0.500000
#
# Coordination Sequence:
#
# PCOD8015760 Si02
#       7
#     2   2   2   2   2   2   2
#     4  10  23  39  69  93 134 163 214 272 335 373
#     4  10  24  40  65  89 134 170 217 259 327 381
#     4  10  21  43  65 100 122 170 217 271 322 399
#     4  11  25  41  61  98 132 172 214 275 325 385
#     4  10  22  41  61  91 127 175 213 262 315 389
#     4  11  25  40  64  95 132 172 220 267 324 387
#     4  10  22  39  65  90 124 171 219 262 311 392
#
# _framework density 24.79569
#
# number of rings (size 3 to 8) (size 9 to 14) (size 15 to 20)
#    0.857    0.857    1.429    1.714    8.000    2.857 
#    0.000    1.429    0.000    0.000    0.000    0.000 
#    0.000    0.000    0.000    0.000    0.000    0.000 
#
# Total GULP energy -173581.254899 kJ/mol
# GULP energy per Si atom -12398.661064 kJ/mol
# Density = 2.473925 g / cm^3
# Si number density = 24.795690 Si / 1000 Ang^3
#
#
#
# Elastic Constant Matrix: (Units=GPa)
#
#
# Indices 1 2 3 4 5 6 
#
# 1 63.7027 15.7227 12.7535 5.5680 -29.7687 12.7890
# 2 15.7227 138.8393 25.6004 3.3885 -29.0862 0.2509
# 3 12.7535 25.6004 76.7095 8.9767 -33.5209 -5.2258
# 4 5.5680 3.3885 8.9767 35.8436 5.1162 -2.1810
# 5 -29.7687 -29.0862 -33.5209 5.1162 38.2030 -6.3206
# 6 12.7890 0.2509 -5.2258 -2.1810 -6.3206 31.5262
#
#
#
# Elastic Compliance Matrix: (Units=1/GPa)
#
#
# Indices 1 2 3 4 5 6 
#
# 1 0.033696 0.002744 0.012711 -0.014763 0.040742 -0.004437
# 2 0.002744 0.008985 0.001976 -0.003319 0.011354 0.001190
# 3 0.012711 0.001976 0.030749 -0.015367 0.041641 0.007210
# 4 -0.014763 -0.003319 -0.015367 0.039012 -0.032807 -0.000411
# 5 0.040742 0.011354 0.041641 -0.032807 0.109136 0.009895
# 6 -0.004437 0.001190 0.007210 -0.000411 0.009895 0.036661
#
#
# Mechanical properties :
#
#
# Convention : Reuss Voigt Hill
#
# Bulk Modulus (GPa) = 9.23425 43.04497 26.13961
# Shear Modulus (GPa) = 19.26971 36.12622 27.69796
#
# Velocity S-wave (km/s) = 2.79075 3.82115 3.34585
# Velocity P-wave (km/s) = 3.75720 6.07172 5.04888
#
# Compressibility (1/GPa) = 0.10829255
#
# Stress axis : x y z
#
# Youngs Moduli (GPa) = 29.67714 111.29721 32.52101
#
# Poissons Ratio (x) = -0.30539 -0.41337
# Poissons Ratio (y) = -0.08143 -0.06427
# Poissons Ratio (z) = -0.37722 -0.21996
#
# Static dielectric constant tensor:
#      x y z
#    x 4.268800 -0.045790 -0.183800 
#    y -0.045790 4.208430 0.066620 
#    z -0.183800 0.066620 4.482210 
# 
# 
# High freq. dielectric constant tensor:
#      x y z
#    x 1.979500 0.002820 -0.012420 
#    y 0.002820 1.976550 -0.001140 
#    z -0.012420 -0.001140 1.993350 
# 
# From -- ./inp_files/287699.got.cif
#   From: 2010.06.25/outbox.cif.g09.slc.cpg/sg2_144_cif.got.tgz:287699.got - 2010.06.27 13:26:56.
