data_PCOD8015608
_publ_section_title
;
Structure prediction by ZEFSAII (Michael W. Deem and Ramdas Pophale) SiO2 
 PCOD8015608
Probable space group: P -1
;
_chemical_formula_sum "Si O2"
_cell_formula_units_Z 16
_cell_length_a 6.084232
_cell_length_b 21.955053
_cell_length_c 4.978753
_cell_angle_alpha 86.945626
_cell_angle_beta 83.003901
_cell_angle_gamma 92.091784
_cell_volume 658.550178
_symmetry_space_group_name_H-M "P -1"
_symmetry_group_IT_number 2
_symmetry_cell_setting 'triclinic'
loop_
_space_group_symop_operation_xyz
x,y,z
-x,-y,-z
loop_
_atom_site_type_symbol
_atom_site_label
_atom_site_fract_x
_atom_site_fract_y
_atom_site_fract_z
Si Si1 0.478230 0.284017 0.244535
Si Si2 0.223835 0.514938 0.297520
Si Si3 0.841159 0.198425 0.147082
Si Si4 0.217123 0.016473 0.793734
Si Si5 0.766221 0.760312 0.218434
Si Si6 0.169763 0.130655 0.487410
Si Si7 0.458157 0.904300 0.907752
Si Si8 0.589930 0.424468 0.240189
O O1 0.669189 0.239736 0.320031
O O2 0.270360 0.274407 0.483165
O O3 0.566544 0.353092 0.214996
O O4 0.417249 0.264904 0.954928
O O5 0.352486 0.454009 0.219257
O O6 0.359239 0.561543 0.460430
O O7 0.000000 0.500000 0.500000
O O8 0.214534 0.549064 0.999895
O O9 0.735533 0.146096 0.969052
O O10 0.968550 0.162166 0.366315
O O11 0.991425 0.247714 0.942898
O O12 0.127131 0.056798 0.549239
O O13 0.342383 0.955017 0.721222
O O14 0.406335 0.061719 0.886456
O O15 0.000000 0.000000 0.000000
O O16 0.766068 0.834014 0.251847
O O17 0.386927 0.138979 0.272949
#
# Coordination Sequence:
#
# PCOD8015608 Si02
#       8
#     2   2   2   2   2   2   2   2
#     4  12  27  47  72 104 149 188 241 292 348 416
#     4  10  21  42  72 105 147 188 235 293 348 399
#     4  12  26  45  71  98 140 189 232 290 358 425
#     4  11  25  44  68 100 133 175 234 288 364 432
#     4  12  26  48  68 103 140 189 237 292 351 420
#     4  12  24  45  68  98 136 180 235 286 359 426
#     4  11  24  45  67  98 135 181 223 299 354 432
#     4  10  23  42  69 107 142 190 239 288 344 413
#
# _framework density 24.295794999999998
#
# number of rings (size 3 to 8) (size 9 to 14) (size 15 to 20)
#    0.000    0.750    2.500    4.500    1.750    7.000 
#    2.250    0.000    0.000    0.000    0.000    0.000 
#    0.000    0.000    0.000    0.000    0.000    0.000 
#
# Total GULP energy -198237.331743 kJ/mol
# GULP energy per Si atom -12389.833234 kJ/mol
# Density = 2.424050 g / cm^3
# Si number density = 24.295795 Si / 1000 Ang^3
#
#
#
# Elastic Constant Matrix: (Units=GPa)
#
#
# Indices 1 2 3 4 5 6 
#
# 1 93.6937 54.9477 20.2547 -2.1845 -9.7251 -1.4841
# 2 54.9477 145.9545 23.7110 -3.0868 0.0260 -0.4345
# 3 20.2547 23.7110 99.2626 -3.5794 -9.4443 -1.4670
# 4 -2.1845 -3.0868 -3.5794 37.8945 9.7930 -2.9669
# 5 -9.7251 0.0260 -9.4443 9.7930 30.7350 -4.2147
# 6 -1.4841 -0.4345 -1.4670 -2.9669 -4.2147 22.1547
#
#
#
# Elastic Compliance Matrix: (Units=1/GPa)
#
#
# Indices 1 2 3 4 5 6 
#
# 1 0.014535 -0.005280 -0.001265 -0.000799 0.004685 0.001571
# 2 -0.005280 0.009068 -0.001298 0.000896 -0.002446 -0.000607
# 3 -0.001265 -0.001298 0.010960 0.000155 0.003087 0.001224
# 4 -0.000799 0.000896 0.000155 0.028959 -0.009144 0.002113
# 5 0.004685 -0.002446 0.003087 -0.009144 0.038791 0.006626
# 6 0.001571 -0.000607 0.001224 0.002113 0.006626 0.046855
#
#
# Mechanical properties :
#
#
# Convention : Reuss Voigt Hill
#
# Bulk Modulus (GPa) = 52.97187 59.63748 56.30468
# Shear Modulus (GPa) = 29.21493 34.15667 31.68580
#
# Velocity S-wave (km/s) = 3.47143 3.75356 3.61524
# Velocity P-wave (km/s) = 6.15776 6.58675 6.37586
#
# Compressibility (1/GPa) = 0.01887794
#
# Stress axis : x y z
#
# Youngs Moduli (GPa) = 68.79755 110.28290 91.24264
#
# Poissons Ratio (x) = 0.58227 0.11539
# Poissons Ratio (y) = 0.36324 0.11843
# Poissons Ratio (z) = 0.08700 0.14315
#
# Static dielectric constant tensor:
#      x y z
#    x 4.525860 0.020660 -0.080680 
#    y 0.020660 4.340720 0.007340 
#    z -0.080680 0.007340 4.324540 
# 
# 
# High freq. dielectric constant tensor:
#      x y z
#    x 1.966210 0.008760 -0.010630 
#    y 0.008760 1.961410 0.003020 
#    z -0.010630 0.003020 1.961980 
# 
# From -- ./inp_files/12328.got.cif
#   From: 2010.06.25/outbox.cif.g09.slc.cpg/sg2_7_cif.got.tgz:12328.got - 2010.06.27 13:26:56.
