data_PCOD8015657
_publ_section_title
;
Structure prediction by ZEFSAII (Michael W. Deem and Ramdas Pophale) SiO2 
 PCOD8015657
Probable space group: P -1
;
_chemical_formula_sum "Si O2"
_cell_formula_units_Z 14
_cell_length_a 13.379737
_cell_length_b 19.465151
_cell_length_c 9.268706
_cell_angle_alpha 137.589299
_cell_angle_beta 30.162891
_cell_angle_gamma 152.631999
_cell_volume 553.010638
_symmetry_space_group_name_H-M "P -1"
_symmetry_group_IT_number 2
_symmetry_cell_setting 'triclinic'
loop_
_space_group_symop_operation_xyz
x,y,z
-x,-y,-z
loop_
_atom_site_type_symbol
_atom_site_label
_atom_site_fract_x
_atom_site_fract_y
_atom_site_fract_z
Si Si1 0.468318 0.228276 0.690682
Si Si2 0.451332 0.964134 0.672576
Si Si3 0.651593 0.872205 0.779048
Si Si4 0.846583 0.710857 0.948671
Si Si5 0.269423 0.433977 0.402847
Si Si6 0.156413 0.610169 0.786623
Si Si7 0.511567 0.350929 0.132367
O O1 0.372752 0.072222 0.556809
O O2 0.206558 0.192458 0.885366
O O3 0.759254 0.366633 0.450949
O O4 0.537203 0.290752 0.864023
O O5 0.500000 0.000000 0.500000
O O6 0.111322 0.806008 0.877353
O O7 0.488670 0.078667 0.899516
O O8 0.418272 0.774645 0.787348
O O9 0.628725 0.768164 0.751601
O O10 0.000000 0.000000 0.500000
O O11 0.584367 0.559201 0.126035
O O12 0.945126 0.689382 0.645768
O O13 0.148723 0.496832 0.702716
O O14 0.292004 0.363253 0.396683
O O15 0.817977 0.517562 0.064024
#
# Coordination Sequence:
#
# PCOD8015657 Si02
#       7
#     2   2   2   2   2   2   2
#     4  10  21  42  74 105 131 180 234 289 338 408
#     4  12  24  44  69  97 137 186 235 276 331 415
#     4  12  28  48  65 102 151 186 224 287 349 413
#     4   9  19  38  65 106 134 167 223 292 340 396
#     4   9  19  38  70 100 135 170 221 288 349 399
#     4  11  23  43  70 104 140 175 229 292 347 406
#     4  11  22  44  73 104 133 183 236 283 341 415
#
# _framework density 25.31597
#
# number of rings (size 3 to 8) (size 9 to 14) (size 15 to 20)
#    0.000    1.429    1.429    5.143    0.000    1.714 
#    5.143    2.857    0.000    0.000    0.000    0.000 
#    0.000    0.000    0.000    0.000    0.000    0.000 
#
# Total GULP energy -173435.323758 kJ/mol
# GULP energy per Si atom -12388.237411 kJ/mol
# Density = 2.525835 g / cm^3
# Si number density = 25.315970 Si / 1000 Ang^3
#
#
#
# Elastic Constant Matrix: (Units=GPa)
#
#
# Indices 1 2 3 4 5 6 
#
# 1 68.3570 20.0590 8.1847 0.2454 13.5266 -9.1327
# 2 20.0590 72.8230 18.1690 10.6796 -1.8755 -0.1454
# 3 8.1847 18.1690 65.9551 23.6254 2.0806 -3.0090
# 4 0.2454 10.6796 23.6254 42.2261 -9.1993 -6.3130
# 5 13.5266 -1.8755 2.0806 -9.1993 23.8293 1.7192
# 6 -9.1327 -0.1454 -3.0090 -6.3130 1.7192 46.4535
#
#
#
# Elastic Compliance Matrix: (Units=1/GPa)
#
#
# Indices 1 2 3 4 5 6 
#
# 1 0.019126 -0.005449 -0.000078 -0.000655 -0.011826 0.004087
# 2 -0.005449 0.016435 -0.003535 -0.001462 0.004247 -0.001605
# 3 -0.000078 -0.003535 0.020716 -0.012177 -0.006737 -0.000090
# 4 -0.000655 -0.001462 -0.012177 0.034489 0.014401 0.003232
# 5 -0.011826 0.004247 -0.006737 0.014401 0.055365 -0.002840
# 6 0.004087 -0.001605 -0.000090 0.003232 -0.002840 0.022864
#
#
# Mechanical properties :
#
#
# Convention : Reuss Voigt Hill
#
# Bulk Modulus (GPa) = 26.21053 33.32895 29.76974
# Shear Modulus (GPa) = 25.02033 33.21659 29.11846
#
# Velocity S-wave (km/s) = 3.14717 3.62620 3.39514
# Velocity P-wave (km/s) = 4.85614 5.54312 5.21096
#
# Compressibility (1/GPa) = 0.03815260
#
# Stress axis : x y z
#
# Youngs Moduli (GPa) = 52.28466 60.84440 48.27292
#
# Poissons Ratio (x) = 0.33155 0.00378
# Poissons Ratio (y) = 0.28490 0.17063
# Poissons Ratio (z) = 0.00409 0.21507
#
# Static dielectric constant tensor:
#      x y z
#    x 4.785600 0.010250 -0.070280 
#    y 0.010250 4.692620 0.149120 
#    z -0.070280 0.149120 4.549390 
# 
# 
# High freq. dielectric constant tensor:
#      x y z
#    x 2.016490 -0.006900 0.001470 
#    y -0.006900 2.006810 0.004770 
#    z 0.001470 0.004770 2.006950 
# 
# From -- ./inp_files/279771.got.cif
#   From: 2010.06.25/outbox.cif.g09.slc.cpg/sg2_140_cif.got.tgz:279771.got - 2010.06.27 13:26:56.
