data_PCOD8015097
_publ_section_title
;
Structure prediction by ZEFSAII (Michael W. Deem and Ramdas Pophale) SiO2 
 PCOD8015097
Probable space group: P -1
;
_chemical_formula_sum "Si O2"
_cell_formula_units_Z 16
_cell_length_a 11.261929
_cell_length_b 8.237429
_cell_length_c 11.104909
_cell_angle_alpha 101.204673
_cell_angle_beta 130.365047
_cell_angle_gamma 53.616994
_cell_volume 600.899556
_symmetry_space_group_name_H-M "P -1"
_symmetry_group_IT_number 2
_symmetry_cell_setting 'triclinic'
loop_
_space_group_symop_operation_xyz
x,y,z
-x,-y,-z
loop_
_atom_site_type_symbol
_atom_site_label
_atom_site_fract_x
_atom_site_fract_y
_atom_site_fract_z
Si Si1 0.542553 0.627868 0.305462
Si Si2 0.160286 0.865574 0.964262
Si Si3 0.710645 0.693746 0.767913
Si Si4 0.673735 0.221422 0.196375
Si Si5 0.746226 0.048358 0.464864
Si Si6 0.860290 0.669537 0.621655
Si Si7 0.764700 0.567788 0.043831
Si Si8 0.765188 0.288934 0.707434
O O1 0.631997 0.434731 0.244803
O O2 0.715124 0.642497 0.452602
O O3 0.454653 0.601265 0.364899
O O4 0.347634 0.841595 0.143792
O O5 0.182216 0.870087 0.835140
O O6 0.180875 0.659095 0.986589
O O7 0.941469 0.092042 0.881717
O O8 0.475372 0.869106 0.644701
O O9 0.785710 0.769284 0.723445
O O10 0.788342 0.467797 0.732743
O O11 0.797317 0.654252 0.954850
O O12 0.788403 0.042929 0.350279
O O13 0.462311 0.272388 0.035358
O O14 0.781139 0.201003 0.573037
O O15 0.889273 0.816712 0.584483
O O16 0.088993 0.453722 0.760408
#
# Coordination Sequence:
#
# PCOD8015097 Si02
#       8
#     2   2   2   2   2   2   2   2
#     4  11  22  41  71 101 130 168 221 279 326 380
#     4  11  23  43  71  97 127 182 226 265 317 396
#     4  11  22  39  65  98 136 172 211 271 337 388
#     4  10  23  47  72  89 131 184 225 259 324 393
#     4  11  22  40  66  98 137 170 211 278 329 388
#     4  12  24  39  64 105 135 168 212 277 342 386
#     4  10  21  42  65  98 130 173 215 271 326 397
#     4  12  21  40  70 101 132 160 234 272 318 382
#
# _framework density 26.626745
#
# number of rings (size 3 to 8) (size 9 to 14) (size 15 to 20)
#    0.000    1.000    6.250    3.750    0.000    0.500 
#    4.500    3.125    2.750    0.000    0.000    0.000 
#    0.000    0.000    0.000    0.000    0.000    0.000 
#
# Total GULP energy -198351.506137 kJ/mol
# GULP energy per Si atom -12396.969134 kJ/mol
# Density = 2.656614 g / cm^3
# Si number density = 26.626745 Si / 1000 Ang^3
#
#
#
# Elastic Constant Matrix: (Units=GPa)
#
#
# Indices 1 2 3 4 5 6 
#
# 1 50.3267 5.3475 17.6574 -4.4886 -1.9916 -0.3141
# 2 5.3475 30.2576 18.4199 -10.8097 7.0416 -3.4725
# 3 17.6574 18.4199 156.4286 -16.3899 17.0476 2.4640
# 4 -4.4886 -10.8097 -16.3899 33.6636 6.9102 -4.6704
# 5 -1.9916 7.0416 17.0476 6.9102 43.6615 -11.4093
# 6 -0.3141 -3.4725 2.4640 -4.6704 -11.4093 17.2804
#
#
#
# Elastic Compliance Matrix: (Units=1/GPa)
#
#
# Indices 1 2 3 4 5 6 
#
# 1 0.021141 -0.002465 -0.002369 0.000614 0.002770 0.002222
# 2 -0.002465 0.042735 -0.002732 0.014517 -0.005893 0.008965
# 3 -0.002369 -0.002732 0.007798 0.002947 -0.004128 -0.003633
# 4 0.000614 0.014517 0.002947 0.038526 -0.007474 0.007986
# 5 0.002770 -0.005893 -0.004128 -0.007474 0.031547 0.018263
# 6 0.002222 0.008965 -0.003633 0.007986 0.018263 0.074446
#
#
# Mechanical properties :
#
#
# Convention : Reuss Voigt Hill
#
# Bulk Modulus (GPa) = 17.68564 35.54025 26.61294
# Shear Modulus (GPa) = 19.98629 31.96031 25.97330
#
# Velocity S-wave (km/s) = 2.74270 3.46831 3.12662
# Velocity P-wave (km/s) = 4.08489 5.42360 4.80113
#
# Compressibility (1/GPa) = 0.05654306
#
# Stress axis : x y z
#
# Youngs Moduli (GPa) = 47.30060 23.40004 128.24553
#
# Poissons Ratio (x) = 0.05768 0.30378
# Poissons Ratio (y) = 0.11659 0.35035
# Poissons Ratio (z) = 0.11204 0.06393
#
# Static dielectric constant tensor:
#      x y z
#    x 4.675520 0.010420 -0.140910 
#    y 0.010420 4.420490 -0.449140 
#    z -0.140910 -0.449140 5.349240 
# 
# 
# High freq. dielectric constant tensor:
#      x y z
#    x 2.065380 -0.005000 -0.009580 
#    y -0.005000 2.028850 -0.030690 
#    z -0.009580 -0.030690 2.099310 
# 
# From -- ./inp_files/419623.got.cif
#   From: 2010.06.25/outbox.cif.g09.slc.cpg/sg2_210_cif.got.tgz:419623.got - 2010.06.27 13:26:56.
