data_PCOD8015763
_publ_section_title
;
Structure prediction by ZEFSAII (Michael W. Deem and Ramdas Pophale) SiO2 
 PCOD8015763
Probable space group: P -1
;
_chemical_formula_sum "Si O2"
_cell_formula_units_Z 14
_cell_length_a 9.202491
_cell_length_b 11.644574
_cell_length_c 10.878039
_cell_angle_alpha 128.868622
_cell_angle_beta 123.161173
_cell_angle_gamma 42.423545
_cell_volume 604.425618
_symmetry_space_group_name_H-M "P -1"
_symmetry_group_IT_number 2
_symmetry_cell_setting 'triclinic'
loop_
_space_group_symop_operation_xyz
x,y,z
-x,-y,-z
loop_
_atom_site_type_symbol
_atom_site_label
_atom_site_fract_x
_atom_site_fract_y
_atom_site_fract_z
Si Si1 0.140129 0.116439 0.441486
Si Si2 0.164088 0.963909 0.884536
Si Si3 0.531398 0.258920 0.901467
Si Si4 0.790341 0.335560 0.908828
Si Si5 0.501595 0.256417 0.306564
Si Si6 0.566236 0.907819 0.621817
Si Si7 0.794317 0.342022 0.633839
O O1 0.217103 0.204084 0.438851
O O2 0.004985 0.068705 0.268855
O O3 0.004428 0.250285 0.582477
O O4 0.363700 0.931201 0.475618
O O5 0.349959 0.904854 0.831449
O O6 0.271877 0.843547 0.976367
O O7 0.018941 0.187452 0.988864
O O8 0.608448 0.312880 0.855421
O O9 0.480961 0.118326 0.747001
O O10 0.307523 0.449568 0.975726
O O11 0.855364 0.271456 0.753977
O O12 0.380467 0.199215 0.297416
O O13 0.640150 0.293269 0.480589
O O14 0.323767 0.439799 0.272788
#
# Coordination Sequence:
#
# PCOD8015763 Si02
#       7
#     2   2   2   2   2   2   2
#     4  10  23  41  69  96 132 168 227 266 336 381
#     4  11  21  45  70  98 126 185 222 262 322 412
#     4  11  25  42  67 101 134 172 224 268 330 393
#     4  11  22  41  69  94 132 176 222 266 315 407
#     4  10  22  39  69  95 137 166 226 275 324 385
#     4  11  23  43  61 105 135 168 212 287 334 381
#     4  10  21  43  65 101 123 182 226 263 318 411
#
# _framework density 23.162486000000001
#
# number of rings (size 3 to 8) (size 9 to 14) (size 15 to 20)
#    0.000    1.429    2.857    2.143    2.000    3.429 
#    2.571    1.429    0.000    0.000    0.000    0.000 
#    0.000    0.000    0.000    0.000    0.000    0.000 
#
# Total GULP energy -173524.614530 kJ/mol
# GULP energy per Si atom -12394.615324 kJ/mol
# Density = 2.310977 g / cm^3
# Si number density = 23.162486 Si / 1000 Ang^3
#
#
#
# Elastic Constant Matrix: (Units=GPa)
#
#
# Indices 1 2 3 4 5 6 
#
# 1 143.2613 44.2012 30.9850 -1.6667 -33.8981 0.4647
# 2 44.2012 136.4391 30.0500 10.6500 -13.8674 -5.1546
# 3 30.9850 30.0500 68.2189 -0.4504 -17.6089 -4.3270
# 4 -1.6667 10.6500 -0.4504 32.8761 -2.3998 -4.6450
# 5 -33.8981 -13.8674 -17.6089 -2.3998 31.2579 4.2460
# 6 0.4647 -5.1546 -4.3270 -4.6450 4.2460 38.9402
#
#
#
# Elastic Compliance Matrix: (Units=1/GPa)
#
#
# Indices 1 2 3 4 5 6 
#
# 1 0.010282 -0.002256 -0.001229 0.001749 0.009784 -0.001416
# 2 -0.002256 0.008931 -0.003021 -0.003005 -0.000494 0.000569
# 3 -0.001229 -0.003021 0.018650 0.001893 0.007834 0.001059
# 4 0.001749 -0.003005 0.001893 0.032230 0.003665 0.003237
# 5 0.009784 -0.000494 0.007834 0.003665 0.047631 -0.004068
# 6 -0.001416 0.000569 0.001059 0.003237 -0.004068 0.026720
#
#
# Mechanical properties :
#
#
# Convention : Reuss Voigt Hill
#
# Bulk Modulus (GPa) = 40.23953 62.04351 51.14152
# Shear Modulus (GPa) = 30.16787 36.79370 33.48078
#
# Velocity S-wave (km/s) = 3.61286 3.98993 3.80606
# Velocity P-wave (km/s) = 5.90034 6.93328 6.43756
#
# Compressibility (1/GPa) = 0.02485118
#
# Stress axis : x y z
#
# Youngs Moduli (GPa) = 97.25588 111.96637 53.62060
#
# Poissons Ratio (x) = 0.25259 0.06591
# Poissons Ratio (y) = 0.21940 0.16197
# Poissons Ratio (z) = 0.11955 0.33822
#
# Static dielectric constant tensor:
#      x y z
#    x 4.293980 -0.052320 -0.338350 
#    y -0.052320 4.389820 0.041180 
#    z -0.338350 0.041180 4.020320 
# 
# 
# High freq. dielectric constant tensor:
#      x y z
#    x 1.922340 -0.001130 -0.026500 
#    y -0.001130 1.911150 -0.003550 
#    z -0.026500 -0.003550 1.902070 
# 
# From -- ./inp_files/329201.got.cif
#   From: 2010.06.25/outbox.cif.g09.slc.cpg/sg2_165_cif.got.tgz:329201.got - 2010.06.27 13:26:56.
