data_PCOD8015476
_publ_section_title
;
Structure prediction by ZEFSAII (Michael W. Deem and Ramdas Pophale) SiO2 
 PCOD8015476
Probable space group: P -1
;
_chemical_formula_sum "Si O2"
_cell_formula_units_Z 16
_cell_length_a 22.129485
_cell_length_b 8.448562
_cell_length_c 12.167967
_cell_angle_alpha 142.126927
_cell_angle_beta 147.757230
_cell_angle_gamma 45.399047
_cell_volume 740.961084
_symmetry_space_group_name_H-M "P -1"
_symmetry_group_IT_number 2
_symmetry_cell_setting 'triclinic'
loop_
_space_group_symop_operation_xyz
x,y,z
-x,-y,-z
loop_
_atom_site_type_symbol
_atom_site_label
_atom_site_fract_x
_atom_site_fract_y
_atom_site_fract_z
Si Si1 0.483254 0.756008 0.545064
Si Si2 0.699972 0.384646 0.979643
Si Si3 0.588777 0.735835 0.169016
Si Si4 0.123945 0.784115 0.364609
Si Si5 0.907876 0.606554 0.329304
Si Si6 0.338239 0.629663 0.731005
Si Si7 0.935980 0.577351 0.105509
Si Si8 0.712619 0.957207 0.948551
O O1 0.500000 0.500000 0.500000
O O2 0.394931 0.727802 0.299004
O O3 0.594487 0.827537 0.689791
O O4 0.433976 0.963060 0.674481
O O5 0.731343 0.161413 0.994363
O O6 0.661642 0.662323 0.131527
O O7 0.802525 0.437549 0.087468
O O8 0.660527 0.608012 0.312578
O O9 0.469844 0.621930 0.894844
O O10 0.249066 0.619418 0.487407
O O11 0.041450 0.716738 0.299413
O O12 0.129134 0.091084 0.539619
O O13 0.073722 0.694784 0.121963
O O14 0.957190 0.542154 0.248426
O O15 0.000000 0.500000 0.500000
O O16 0.291033 0.900297 0.862415
O O17 0.818249 0.745234 0.992243
#
# Coordination Sequence:
#
# PCOD8015476 Si02
#       8
#     2   2   2   2   2   2   2   2
#     4  11  24  40  64  99 137 173 218 276 333 397
#     4  11  25  41  66  99 127 186 219 263 347 388
#     4   9  22  40  62  98 134 169 219 270 320 397
#     4  11  25  43  73  99 126 180 227 280 337 390
#     4  12  27  46  67  96 141 176 219 282 333 400
#     4   9  19  40  69  95 128 172 222 273 328 380
#     4  11  25  44  70 101 128 173 229 278 338 397
#     4  10  21  42  69  95 134 172 225 276 327 400
#
# _framework density 21.593578000000001
#
# number of rings (size 3 to 8) (size 9 to 14) (size 15 to 20)
#    0.000    1.500    1.250    3.000    8.750    3.000 
#    0.000    0.000    0.000    0.000    0.000    0.000 
#    0.000    0.000    0.000    0.000    0.000    0.000 
#
# Total GULP energy -198346.276975 kJ/mol
# GULP energy per Si atom -12396.642311 kJ/mol
# Density = 2.154443 g / cm^3
# Si number density = 21.593578 Si / 1000 Ang^3
#
#
#
# Elastic Constant Matrix: (Units=GPa)
#
#
# Indices 1 2 3 4 5 6 
#
# 1 -19.4966 714.2855 -117.3494 133.8292 -445.9852 225.8039
# 2 714.2855-3549.0700 845.6191 -710.6782 2385.0895-1163.5388
# 3 -117.3494 845.6191 -76.5524 148.0786 -523.4446 270.8632
# 4 133.8292 -710.6782 148.0786 -99.7292 466.2200 -224.0281
# 5 -445.9852 2385.0895 -523.4446 466.2200-1523.5617 764.5543
# 6 225.8039-1163.5388 270.8632 -224.0281 764.5543 -350.4130
#
#
#
# Elastic Compliance Matrix: (Units=1/GPa)
#
#
# Indices 1 2 3 4 5 6 
#
# 1 0.010192 -0.000512 -0.003518 -0.000335 -0.002243 0.000867
# 2 -0.000512 0.006950 -0.001362 -0.002140 0.007850 -0.005965
# 3 -0.003518 -0.001362 0.011976 0.004386 -0.005220 -0.002681
# 4 -0.000335 -0.002140 0.004386 0.027080 0.000015 -0.007000
# 5 -0.002243 0.007850 -0.005220 0.000015 0.018420 0.008633
# 6 0.000867 -0.005965 -0.002681 -0.007000 0.008633 0.038749
#
#
# Mechanical properties :
#
#
# Convention : Reuss Voigt Hill
#
# Bulk Modulus (GPa) = 54.54499 -84.44539 -14.95020
# Shear Modulus (GPa) = 38.38410 -733.91907 -347.76749
#
# Velocity S-wave (km/s) = 4.22070 -18.45579 -12.70437
# Velocity P-wave (km/s) = 7.00479 22.21141 14.90435
#
# Compressibility (1/GPa) = 0.01833349
#
# Stress axis : x y z
#
# Youngs Moduli (GPa) = 98.11762 143.87774 83.50337
#
# Poissons Ratio (x) = 0.07364 0.29380
# Poissons Ratio (y) = 0.05022 0.11372
# Poissons Ratio (z) = 0.34522 0.19595
#
# Static dielectric constant tensor:
#      x y z
#    x 3.985960 -0.168580 0.065880 
#    y -0.168580 3.855780 -0.014390 
#    z 0.065880 -0.014390 3.997400 
# 
# 
# High freq. dielectric constant tensor:
#      x y z
#    x 1.845530 -0.006810 -0.002210 
#    y -0.006810 1.848910 -0.004210 
#    z -0.002210 -0.004210 1.857350 
# 
# From -- ./inp_files/470227.got.cif
#   From: 2010.06.25/outbox.cif.g09.slc.cpg/sg2_236_cif.got.tgz:470227.got - 2010.06.27 13:26:56.
