data_PCOD8015249
_publ_section_title
;
Structure prediction by ZEFSAII (Michael W. Deem and Ramdas Pophale) SiO2 
 PCOD8015249
Probable space group: P -1
;
_chemical_formula_sum "Si O2"
_cell_formula_units_Z 10
_cell_length_a 4.906480
_cell_length_b 6.360120
_cell_length_c 16.080506
_cell_angle_alpha 86.870137
_cell_angle_beta 113.161239
_cell_angle_gamma 101.066579
_cell_volume 452.659859
_symmetry_space_group_name_H-M "P -1"
_symmetry_group_IT_number 2
_symmetry_cell_setting 'triclinic'
loop_
_space_group_symop_operation_xyz
x,y,z
-x,-y,-z
loop_
_atom_site_type_symbol
_atom_site_label
_atom_site_fract_x
_atom_site_fract_y
_atom_site_fract_z
Si Si1 0.744529 0.353261 0.555484
Si Si2 0.816816 0.243298 0.386651
Si Si3 0.218440 0.727993 0.021542
Si Si4 0.195230 0.007240 0.318530
Si Si5 0.874448 0.911362 0.112864
O O1 0.500000 0.500000 0.500000
O O2 0.815967 0.216428 0.487285
O O3 0.650187 0.186285 0.622744
O O4 0.048958 0.507825 0.621076
O O5 0.980641 0.906224 0.629248
O O6 0.471203 0.186642 0.313857
O O7 0.181193 0.856800 0.929542
O O8 0.575495 0.724110 0.071747
O O9 0.000000 0.500000 0.000000
O O10 0.142777 0.854151 0.091104
O O11 0.965750 0.927869 0.219190
#
# Coordination Sequence:
#
# PCOD8015249 Si02
#       5
#     2   2   2   2   2
#     4  11  25  42  63  89 126 168 217 249 304 369
#     4  11  25  41  62  89 123 171 205 257 311 356
#     4  10  21  42  67  87 127 158 195 249 314 363
#     4  12  25  40  65  91 129 160 208 261 305 358
#     4  10  23  40  62  97 119 158 205 247 302 377
#
# _framework density 22.091646000000001
#
# number of rings (size 3 to 8) (size 9 to 14) (size 15 to 20)
#    0.000    1.200    2.000    3.000    5.600    3.200 
#    0.000    0.000    0.000    0.000    0.000    0.000 
#    0.000    0.000    0.000    0.000    0.000    0.000 
#
# Total GULP energy -123968.986735 kJ/mol
# GULP energy per Si atom -12396.898673 kJ/mol
# Density = 2.204136 g / cm^3
# Si number density = 22.091646 Si / 1000 Ang^3
#
#
#
# Elastic Constant Matrix: (Units=GPa)
#
#
# Indices 1 2 3 4 5 6 
#
# 1 108.1264 22.3814 38.2712 -1.2359 8.5095 6.0026
# 2 22.3814 103.7290 61.0891 17.2751 1.6791 21.7164
# 3 38.2712 61.0891 113.8131 5.8921 -0.1490 -5.8705
# 4 -1.2359 17.2751 5.8921 25.1873 7.7816 8.2497
# 5 8.5095 1.6791 -0.1490 7.7816 25.5342 10.3363
# 6 6.0026 21.7164 -5.8705 8.2497 10.3363 36.8861
#
#
#
# Elastic Compliance Matrix: (Units=1/GPa)
#
#
# Indices 1 2 3 4 5 6 
#
# 1 0.011143 -0.000182 -0.003937 0.003475 -0.003975 -0.001996
# 2 -0.000182 0.020583 -0.011215 -0.009152 0.007014 -0.013792
# 3 -0.003937 -0.011215 0.016610 0.000949 -0.002322 0.010326
# 4 0.003475 -0.009152 0.000949 0.051388 -0.015309 -0.002230
# 5 -0.003975 0.007014 -0.002322 -0.015309 0.050591 -0.014605
# 6 -0.001996 -0.013792 0.010326 -0.002230 -0.014605 0.041790
#
#
# Mechanical properties :
#
#
# Convention : Reuss Voigt Hill
#
# Bulk Modulus (GPa) = 56.60073 63.23910 59.91992
# Shear Modulus (GPa) = 21.86632 31.11665 26.49148
#
# Velocity S-wave (km/s) = 3.14952 3.75710 3.46665
# Velocity P-wave (km/s) = 6.23719 6.89268 6.57311
#
# Compressibility (1/GPa) = 0.01766762
#
# Stress axis : x y z
#
# Youngs Moduli (GPa) = 89.74151 48.58477 60.20317
#
# Poissons Ratio (x) = 0.00884 0.23705
# Poissons Ratio (y) = 0.01632 0.67517
# Poissons Ratio (z) = 0.35335 0.54487
#
# Static dielectric constant tensor:
#      x y z
#    x 4.095970 0.210580 0.039000 
#    y 0.210580 4.074000 0.243170 
#    z 0.039000 0.243170 3.698770 
# 
# 
# High freq. dielectric constant tensor:
#      x y z
#    x 1.880270 0.014160 0.000430 
#    y 0.014160 1.875050 0.018680 
#    z 0.000430 0.018680 1.844590 
# 
# From -- ./inp_files/85522.got.cif
#   From: 2010.06.25/outbox.cif.g09.slc.cpg/sg2_43_cif.got.tgz:85522.got - 2010.06.27 13:26:56.
