data_PCOD8015789
_publ_section_title
;
Structure prediction by ZEFSAII (Michael W. Deem and Ramdas Pophale) SiO2 
 PCOD8015789
Probable space group: P -1
;
_chemical_formula_sum "Si O2"
_cell_formula_units_Z 14
_cell_length_a 8.870329
_cell_length_b 8.956318
_cell_length_c 9.730784
_cell_angle_alpha 76.460355
_cell_angle_beta 108.308366
_cell_angle_gamma 118.303771
_cell_volume 642.825812
_symmetry_space_group_name_H-M "P -1"
_symmetry_group_IT_number 2
_symmetry_cell_setting 'triclinic'
loop_
_space_group_symop_operation_xyz
x,y,z
-x,-y,-z
loop_
_atom_site_type_symbol
_atom_site_label
_atom_site_fract_x
_atom_site_fract_y
_atom_site_fract_z
Si Si1 0.035062 0.765687 0.100199
Si Si2 0.939744 0.450336 0.340184
Si Si3 0.809016 0.868270 0.817945
Si Si4 0.579961 0.342888 0.175754
Si Si5 0.223861 0.329515 0.402331
Si Si6 0.557216 0.616534 0.291891
Si Si7 0.605471 0.192142 0.941417
O O1 0.204550 0.772157 0.068987
O O2 0.957819 0.607502 0.214965
O O3 0.081178 0.932531 0.169425
O O4 0.888524 0.756404 0.949055
O O5 0.731761 0.321483 0.313885
O O6 0.000000 0.500000 0.500000
O O7 0.050273 0.358358 0.328674
O O8 0.607856 0.813759 0.816791
O O9 0.813529 0.838049 0.662217
O O10 0.584261 0.525240 0.181122
O O11 0.633595 0.333417 0.035975
O O12 0.389959 0.485879 0.353844
O O13 0.267655 0.311299 0.578130
O O14 0.518963 0.777862 0.212580
O O15 0.500000 0.000000 0.000000
#
# Coordination Sequence:
#
# PCOD8015789 Si02
#       7
#     2   2   2   2   2   2   2
#     4  11  25  45  66  97 140 172 218 281 326 393
#     4  12  25  43  68 101 132 171 227 274 324 394
#     4  10  24  44  68  98 134 178 218 269 344 387
#     4  11  24  40  70  98 131 174 221 271 324 401
#     4  10  21  43  65  94 132 177 218 273 329 391
#     4  10  22  40  66  97 133 171 223 272 326 389
#     4  12  24  42  67 103 133 171 223 275 329 391
#
# _framework density 21.778838
#
# number of rings (size 3 to 8) (size 9 to 14) (size 15 to 20)
#    0.000    1.143    4.286    1.286    6.000    1.143 
#    2.571    2.143    0.000    0.000    0.000    0.000 
#    0.000    0.000    0.000    0.000    0.000    0.000 
#
# Total GULP energy -173574.409207 kJ/mol
# GULP energy per Si atom -12398.172086 kJ/mol
# Density = 2.172927 g / cm^3
# Si number density = 21.778838 Si / 1000 Ang^3
#
#
#
# Elastic Constant Matrix: (Units=GPa)
#
#
# Indices 1 2 3 4 5 6 
#
# 1 143.9130 32.0155 38.5817 0.7565 19.6449 -4.5727
# 2 32.0155 65.0024 48.4229 9.0799 6.9944 -7.1630
# 3 38.5817 48.4229 105.7671 11.0414 10.4651 -10.1948
# 4 0.7565 9.0799 11.0414 27.7302 -2.5122 0.3208
# 5 19.6449 6.9944 10.4651 -2.5122 43.2272 8.2578
# 6 -4.5727 -7.1630 -10.1948 0.3208 8.2578 30.8815
#
#
#
# Elastic Compliance Matrix: (Units=1/GPa)
#
#
# Indices 1 2 3 4 5 6 
#
# 1 0.008413 -0.002693 -0.001535 0.000968 -0.003140 0.000944
# 2 -0.002693 0.024876 -0.009576 -0.004401 -0.001232 0.002585
# 3 -0.001535 -0.009576 0.015259 -0.003139 -0.002245 0.003222
# 4 0.000968 -0.004401 -0.003139 0.039123 0.003951 -0.003376
# 5 -0.003140 -0.001232 -0.002245 0.003951 0.027216 -0.008811
# 6 0.000944 0.002585 0.003222 -0.003376 -0.008811 0.036576
#
#
# Mechanical properties :
#
#
# Convention : Reuss Voigt Hill
#
# Bulk Modulus (GPa) = 47.75694 61.41364 54.58529
# Shear Modulus (GPa) = 26.87409 33.41193 30.14301
#
# Velocity S-wave (km/s) = 3.51658 3.92107 3.72432
# Velocity P-wave (km/s) = 6.20195 6.98281 6.60393
#
# Compressibility (1/GPa) = 0.02093937
#
# Stress axis : x y z
#
# Youngs Moduli (GPa) = 118.86519 40.19876 65.53386
#
# Poissons Ratio (x) = 0.10827 0.10061
# Poissons Ratio (y) = 0.32015 0.62755
# Poissons Ratio (z) = 0.18248 0.38494
#
# Static dielectric constant tensor:
#      x y z
#    x 4.506760 -0.051220 0.150160 
#    y -0.051220 3.684210 0.272460 
#    z 0.150160 0.272460 4.091770 
# 
# 
# High freq. dielectric constant tensor:
#      x y z
#    x 1.885090 -0.004970 0.005200 
#    y -0.004970 1.832400 0.023490 
#    z 0.005200 0.023490 1.856240 
# 
# From -- ./inp_files/157971.got.cif
#   From: 2010.06.25/outbox.cif.g09.slc.cpg/sg2_79_cif.got.tgz:157971.got - 2010.06.27 13:26:56.
