data_PCOD8015192
_publ_section_title
;
Structure prediction by ZEFSAII (Michael W. Deem and Ramdas Pophale) SiO2 
 PCOD8015192
Probable space group: P -1
;
_chemical_formula_sum "Si O2"
_cell_formula_units_Z 16
_cell_length_a 6.497970
_cell_length_b 20.119511
_cell_length_c 20.337068
_cell_angle_alpha 159.286754
_cell_angle_beta 63.643379
_cell_angle_gamma 106.801292
_cell_volume 772.937779
_symmetry_space_group_name_H-M "P -1"
_symmetry_group_IT_number 2
_symmetry_cell_setting 'triclinic'
loop_
_space_group_symop_operation_xyz
x,y,z
-x,-y,-z
loop_
_atom_site_type_symbol
_atom_site_label
_atom_site_fract_x
_atom_site_fract_y
_atom_site_fract_z
Si Si1 0.310569 0.391005 0.426054
Si Si2 0.587818 0.913592 0.754465
Si Si3 0.752096 0.648675 0.750889
Si Si4 0.233734 0.633186 0.225023
Si Si5 0.905124 0.115293 0.399628
Si Si6 0.014098 0.681330 0.021400
Si Si7 0.199044 0.597403 0.055132
Si Si8 0.502694 0.381919 0.605994
O O1 0.500000 0.500000 0.500000
O O2 0.411862 0.196221 0.278707
O O3 0.284651 0.307758 0.281079
O O4 0.044488 0.554744 0.641221
O O5 0.523317 0.801067 0.599317
O O6 0.853843 0.925675 0.717114
O O7 0.374629 0.141521 0.997121
O O8 0.635762 0.488084 0.638661
O O9 0.060087 0.801333 0.456343
O O10 0.181193 0.727606 0.245353
O O11 0.179327 0.426953 0.043314
O O12 0.521477 0.577250 0.151028
O O13 0.663673 0.287535 0.560443
O O14 0.867044 0.903841 0.216180
O O15 0.233754 0.545738 0.816397
O O16 0.130178 0.721697 0.111378
O O17 0.000000 0.500000 0.000000
#
# Coordination Sequence:
#
# PCOD8015192 Si02
#       8
#     2   2   2   2   2   2   2   2
#     4  11  24  45  69  94 129 169 214 267 314 381
#     4  12  25  42  67  95 129 171 210 264 327 379
#     4  11  25  44  67  95 129 167 213 263 320 382
#     4  10  21  42  66  95 131 167 215 268 315 378
#     4  12  25  39  67  97 126 172 216 260 326 384
#     4  11  23  41  66  95 129 169 213 265 320 379
#     4   9  20  41  68  91 132 173 209 269 316 370
#     4  12  24  41  63  96 130 165 218 262 315 385
#
# _framework density 20.700243
#
# number of rings (size 3 to 8) (size 9 to 14) (size 15 to 20)
#    0.000    1.000    6.250    0.375    0.000    5.000 
#    0.000    5.625    0.000    0.000    0.000    0.000 
#    0.000    0.000    0.000    0.000    0.000    0.000 
#
# Total GULP energy -198421.337768 kJ/mol
# GULP energy per Si atom -12401.333611 kJ/mol
# Density = 2.065313 g / cm^3
# Si number density = 20.700243 Si / 1000 Ang^3
#
#
#
# Elastic Constant Matrix: (Units=GPa)
#
#
# Indices 1 2 3 4 5 6 
#
# 1 84.7547 19.5036 20.3064 0.3940 -4.0171 13.2644
# 2 19.5036 76.0160 31.0571 -8.8462 3.9289 3.7600
# 3 20.3064 31.0571 98.2371 2.6976 6.4451 -1.5645
# 4 0.3940 -8.8462 2.6976 27.2268 2.3915 3.4620
# 5 -4.0171 3.9289 6.4451 2.3915 29.8715 -5.1081
# 6 13.2644 3.7600 -1.5645 3.4620 -5.1081 38.0269
#
#
#
# Elastic Compliance Matrix: (Units=1/GPa)
#
#
# Indices 1 2 3 4 5 6 
#
# 1 0.013683 -0.002546 -0.002208 -0.000429 0.001949 -0.004311
# 2 -0.002546 0.016732 -0.004816 0.006392 -0.002334 -0.001860
# 3 -0.002208 -0.004816 0.012383 -0.002826 -0.001806 0.001771
# 4 -0.000429 0.006392 -0.002826 0.040085 -0.004324 -0.004829
# 5 0.001949 -0.002334 -0.001806 -0.004324 0.035577 0.004649
# 6 -0.004311 -0.001860 0.001771 -0.004829 0.004649 0.029122
#
#
# Mechanical properties :
#
#
# Convention : Reuss Voigt Hill
#
# Bulk Modulus (GPa) = 42.26837 44.52687 43.39762
# Shear Modulus (GPa) = 28.63576 31.56774 30.10175
#
# Velocity S-wave (km/s) = 3.72338 3.90935 3.81750
# Velocity P-wave (km/s) = 6.24086 6.47568 6.35935
#
# Compressibility (1/GPa) = 0.02365835
#
# Stress axis : x y z
#
# Youngs Moduli (GPa) = 73.08493 59.76482 80.75832
#
# Poissons Ratio (x) = 0.15215 0.17833
# Poissons Ratio (y) = 0.18606 0.38890
# Poissons Ratio (z) = 0.16138 0.28780
#
# Static dielectric constant tensor:
#      x y z
#    x 3.808010 -0.108800 -0.040290 
#    y -0.108800 4.126520 -0.147540 
#    z -0.040290 -0.147540 3.565810 
# 
# 
# High freq. dielectric constant tensor:
#      x y z
#    x 1.813500 0.000360 -0.002680 
#    y 0.000360 1.829900 -0.014260 
#    z -0.002680 -0.014260 1.796200 
# 
# From -- ./inp_files/14574.got.cif
#   From: 2010.06.25/outbox.cif.g09.slc.cpg/sg2_8_cif.got.tgz:14574.got - 2010.06.27 13:26:56.
