data_PCOD8015109
_publ_section_title
;
Structure prediction by ZEFSAII (Michael W. Deem and Ramdas Pophale) SiO2 
 PCOD8015109
Probable space group: P -1
;
_chemical_formula_sum "Si O2"
_cell_formula_units_Z 16
_cell_length_a 19.820617
_cell_length_b 5.987707
_cell_length_c 12.131191
_cell_angle_alpha 122.913406
_cell_angle_beta 37.271070
_cell_angle_gamma 130.489666
_cell_volume 661.973928
_symmetry_space_group_name_H-M "P -1"
_symmetry_group_IT_number 2
_symmetry_cell_setting 'triclinic'
loop_
_space_group_symop_operation_xyz
x,y,z
-x,-y,-z
loop_
_atom_site_type_symbol
_atom_site_label
_atom_site_fract_x
_atom_site_fract_y
_atom_site_fract_z
Si Si1 0.033193 0.971818 0.765574
Si Si2 0.397892 0.123317 0.676266
Si Si3 0.593390 0.359570 0.859286
Si Si4 0.159127 0.234661 0.461554
Si Si5 0.419041 0.700215 0.889214
Si Si6 0.051487 0.665524 0.334009
Si Si7 0.240628 0.713425 0.947701
Si Si8 0.175928 0.074421 0.818324
O O1 0.971942 0.668024 0.692676
O O2 0.118005 0.234335 0.643133
O O3 0.117490 0.916407 0.736673
O O4 0.926155 0.040659 0.981019
O O5 0.460693 0.474789 0.708271
O O6 0.297944 0.028568 0.680432
O O7 0.500000 0.000000 0.500000
O O8 0.324510 0.999586 0.849815
O O9 0.703030 0.525061 0.674740
O O10 0.536477 0.013148 0.813766
O O11 0.500000 0.500000 0.000000
O O12 0.629919 0.403639 0.951884
O O13 0.076768 0.312298 0.502944
O O14 0.142206 0.903038 0.366937
O O15 0.302876 0.707272 0.981570
O O16 0.114542 0.734494 0.148824
O O17 0.213922 0.417768 0.835663
#
# Coordination Sequence:
#
# PCOD8015109 Si02
#       8
#     2   2   2   2   2   2   2   2
#     4  10  21  42  66 100 136 172 222 283 333 406
#     4  11  23  43  68 100 134 179 234 284 333 406
#     4  11  24  45  66  99 137 180 221 281 342 406
#     4  11  23  39  65 102 130 174 221 272 341 403
#     4  10  23  43  69  94 132 180 228 272 343 407
#     4  10  22  39  65  96 134 166 221 275 339 402
#     4  10  21  44  69  90 128 183 220 272 335 407
#     4   9  22  42  68  97 134 179 223 275 346 395
#
# _framework density 24.170134000000001
#
# number of rings (size 3 to 8) (size 9 to 14) (size 15 to 20)
#    0.000    1.750    0.000    3.375    0.000   11.000 
#   13.500    3.750    0.000    0.000    0.000    0.000 
#    0.000    0.000    0.000    0.000    0.000    0.000 
#
# Total GULP energy -198341.592707 kJ/mol
# GULP energy per Si atom -12396.349544 kJ/mol
# Density = 2.411512 g / cm^3
# Si number density = 24.170134 Si / 1000 Ang^3
#
#
#
# Elastic Constant Matrix: (Units=GPa)
#
#
# Indices 1 2 3 4 5 6 
#
# 1 79.5772 33.8053 22.2296 -3.8917 -7.1778 4.0459
# 2 33.8053 91.9478 50.8765 -17.3153 3.3703 11.3064
# 3 22.2296 50.8765 94.2112 -23.7674 -15.7726 -1.1805
# 4 -3.8917 -17.3153 -23.7674 44.7964 -6.4940 2.7590
# 5 -7.1778 3.3703 -15.7726 -6.4940 38.9906 -2.1152
# 6 4.0459 11.3064 -1.1805 2.7590 -2.1152 28.0144
#
#
#
# Elastic Compliance Matrix: (Units=1/GPa)
#
#
# Indices 1 2 3 4 5 6 
#
# 1 0.015322 -0.005906 0.000000 -0.000506 0.003272 0.000468
# 2 -0.005906 0.020560 -0.010780 0.001156 -0.007498 -0.008579
# 3 0.000000 -0.010780 0.020268 0.007817 0.010717 0.005244
# 4 -0.000506 0.001156 0.007817 0.028104 0.007527 -0.002263
# 5 0.003272 -0.007498 0.010717 0.007527 0.032744 0.004736
# 6 0.000468 -0.008579 0.005244 -0.002263 0.004736 0.039892
#
#
# Mechanical properties :
#
#
# Convention : Reuss Voigt Hill
#
# Bulk Modulus (GPa) = 43.90395 53.28433 48.59414
# Shear Modulus (GPa) = 25.27104 32.94860 29.10982
#
# Velocity S-wave (km/s) = 3.23700 3.69615 3.47417
# Velocity P-wave (km/s) = 5.67229 6.34892 6.02012
#
# Compressibility (1/GPa) = 0.02277699
#
# Stress axis : x y z
#
# Youngs Moduli (GPa) = 65.26571 48.63917 49.33824
#
# Poissons Ratio (x) = 0.28727 -0.00001
# Poissons Ratio (y) = 0.38547 0.53189
# Poissons Ratio (z) = -0.00001 0.52435
#
# Static dielectric constant tensor:
#      x y z
#    x 4.284430 0.115690 -0.007320 
#    y 0.115690 4.530050 0.009050 
#    z -0.007320 0.009050 4.214340 
# 
# 
# High freq. dielectric constant tensor:
#      x y z
#    x 1.951850 0.002850 0.000740 
#    y 0.002850 1.965410 -0.002690 
#    z 0.000740 -0.002690 1.951670 
# 
# From -- ./inp_files/468469.got.cif
#   From: 2010.06.25/outbox.cif.g09.slc.cpg/sg2_235_cif.got.tgz:468469.got - 2010.06.27 13:26:56.
