data_PCOD8015559
_publ_section_title
;
Structure prediction by ZEFSAII (Michael W. Deem and Ramdas Pophale) SiO2 
 PCOD8015559
Probable space group: P -1
;
_chemical_formula_sum "Si O2"
_cell_formula_units_Z 14
_cell_length_a 8.386568
_cell_length_b 27.602843
_cell_length_c 27.656541
_cell_angle_alpha 169.590580
_cell_angle_beta 147.240891
_cell_angle_gamma 32.003325
_cell_volume 611.462896
_symmetry_space_group_name_H-M "P -1"
_symmetry_group_IT_number 2
_symmetry_cell_setting 'triclinic'
loop_
_space_group_symop_operation_xyz
x,y,z
-x,-y,-z
loop_
_atom_site_type_symbol
_atom_site_label
_atom_site_fract_x
_atom_site_fract_y
_atom_site_fract_z
Si Si1 0.209267 0.206834 0.762046
Si Si2 0.717858 0.677038 0.706421
Si Si3 0.371750 0.579203 0.772028
Si Si4 0.188914 0.056758 0.909225
Si Si5 0.624728 0.947046 0.693199
Si Si6 0.050869 0.413360 0.130243
Si Si7 0.326280 0.984737 0.390538
O O1 0.440167 0.177802 0.748116
O O2 0.372468 0.152008 0.800691
O O3 0.000000 0.000000 0.500000
O O4 0.000000 0.500000 0.000000
O O5 0.500000 0.500000 0.500000
O O6 0.040622 0.533076 0.623257
O O7 0.524467 0.867451 0.802148
O O8 0.821646 0.830512 0.928765
O O9 0.475462 0.338033 0.601361
O O10 0.624118 0.535790 0.752457
O O11 0.342163 0.885846 0.085523
O O12 0.101639 0.289735 0.075545
O O13 0.929641 0.878356 0.670526
O O14 0.818354 0.706709 0.360764
O O15 0.929479 0.201150 0.854778
O O16 0.500000 0.000000 0.500000
#
# Coordination Sequence:
#
# PCOD8015559 Si02
#       7
#     2   2   2   2   2   2   2
#     4  12  27  44  74 105 134 183 246 300 347 426
#     4  10  21  42  71 101 141 184 237 301 351 415
#     4  11  25  42  70 103 141 187 231 290 350 421
#     4  10  23  42  71 101 138 188 237 289 358 426
#     4  11  23  44  68  97 140 183 238 287 350 419
#     4  12  27  47  72 106 146 194 235 289 365 439
#     4  12  29  50  73 104 151 192 234 299 371 421
#
# _framework density 22.895911000000002
#
# number of rings (size 3 to 8) (size 9 to 14) (size 15 to 20)
#    0.000    0.857    2.857    3.000   12.000    0.571 
#    0.000    0.714    0.000    0.000    0.000    0.000 
#    0.000    0.000    0.000    0.000    0.000    0.000 
#
# Total GULP energy -173471.640319 kJ/mol
# GULP energy per Si atom -12390.831451 kJ/mol
# Density = 2.284380 g / cm^3
# Si number density = 22.895911 Si / 1000 Ang^3
#
#
#
# Elastic Constant Matrix: (Units=GPa)
#
#
# Indices 1 2 3 4 5 6 
#
# 1 99.4654 46.4492 29.9301 11.0698 20.6602 -16.3374
# 2 46.4492 150.2451 45.2091 20.1656 2.1274 -4.2897
# 3 29.9301 45.2091 119.1768 12.8187 12.1758 -5.9626
# 4 11.0698 20.1656 12.8187 41.4517 -8.4523 8.4801
# 5 20.6602 2.1274 12.1758 -8.4523 34.6744 -1.8153
# 6 -16.3374 -4.2897 -5.9626 8.4801 -1.8153 37.0681
#
#
#
# Elastic Compliance Matrix: (Units=1/GPa)
#
#
# Indices 1 2 3 4 5 6 
#
# 1 0.015850 -0.003583 -0.000598 -0.005853 -0.010058 0.007322
# 2 -0.003583 0.008727 -0.002403 -0.002076 0.001917 -0.000387
# 3 -0.000598 -0.002403 0.010225 -0.002916 -0.003714 0.001588
# 4 -0.005853 -0.002076 -0.002916 0.032088 0.011935 -0.010045
# 5 -0.010058 0.001917 -0.003714 0.011935 0.038633 -0.005647
# 6 0.007322 -0.000387 0.001588 -0.010045 -0.005647 0.032437
#
#
# Mechanical properties :
#
#
# Convention : Reuss Voigt Hill
#
# Bulk Modulus (GPa) = 46.22188 68.00712 57.11450
# Shear Modulus (GPa) = 31.57800 39.12542 35.35171
#
# Velocity S-wave (km/s) = 3.71779 4.13829 3.93366
# Velocity P-wave (km/s) = 6.21779 7.25267 6.75508
#
# Compressibility (1/GPa) = 0.02163478
#
# Stress axis : x y z
#
# Youngs Moduli (GPa) = 63.09100 114.58863 97.79900
#
# Poissons Ratio (x) = 0.41059 0.05847
# Poissons Ratio (y) = 0.22607 0.23497
# Poissons Ratio (z) = 0.03772 0.27531
#
# Static dielectric constant tensor:
#      x y z
#    x 3.961560 -0.375610 0.188440 
#    y -0.375610 5.178050 -0.411300 
#    z 0.188440 -0.411300 4.429300 
# 
# 
# High freq. dielectric constant tensor:
#      x y z
#    x 1.881810 -0.019330 0.016280 
#    y -0.019330 1.927160 0.002120 
#    z 0.016280 0.002120 1.909780 
# 
# From -- ./inp_files/126023.got.cif
#   From: 2010.06.25/outbox.cif.g09.slc.cpg/sg2_64_cif.got.tgz:126023.got - 2010.06.27 13:26:56.
