data_PCOD8015176
_publ_section_title
;
Structure prediction by ZEFSAII (Michael W. Deem and Ramdas Pophale) SiO2 
 PCOD8015176
Probable space group: P -1
;
_chemical_formula_sum "Si O2"
_cell_formula_units_Z 14
_cell_length_a 14.155660
_cell_length_b 8.564389
_cell_length_c 5.105870
_cell_angle_alpha 84.696927
_cell_angle_beta 117.395493
_cell_angle_gamma 93.920162
_cell_volume 547.001057
_symmetry_space_group_name_H-M "P -1"
_symmetry_group_IT_number 2
_symmetry_cell_setting 'triclinic'
loop_
_space_group_symop_operation_xyz
x,y,z
-x,-y,-z
loop_
_atom_site_type_symbol
_atom_site_label
_atom_site_fract_x
_atom_site_fract_y
_atom_site_fract_z
Si Si1 0.543974 0.853617 0.240825
Si Si2 0.119675 0.941956 0.617783
Si Si3 0.332770 0.441330 0.762325
Si Si4 0.856132 0.632511 0.778277
Si Si5 0.402172 0.606184 0.332660
Si Si6 0.940939 0.381040 0.251147
Si Si7 0.235830 0.070975 0.237156
O O1 0.585469 0.705384 0.139988
O O2 0.443815 0.784735 0.296300
O O3 0.637900 0.921160 0.540776
O O4 0.500000 0.000000 0.000000
O O5 0.115963 0.753832 0.631069
O O6 0.166982 0.000110 0.397839
O O7 0.000000 0.000000 0.500000
O O8 0.206459 0.980091 0.949176
O O9 0.214046 0.372279 0.575795
O O10 0.345620 0.583926 0.544003
O O11 0.332593 0.525820 0.026208
O O12 0.804073 0.754139 0.892122
O O13 0.973875 0.690568 0.831921
O O14 0.854605 0.466819 0.951559
O O15 0.500000 0.500000 0.500000
O O16 0.000000 0.500000 0.500000
#
# Coordination Sequence:
#
# PCOD8015176 Si02
#       7
#     2   2   2   2   2   2   2
#     4  10  23  43  68  98 138 168 223 278 325 388
#     4  12  25  45  71  97 139 173 224 272 333 404
#     4  10  23  42  69  94 128 179 220 263 332 391
#     4  10  24  41  64  99 134 171 227 271 326 401
#     4  10  21  42  66  94 126 174 215 269 325 384
#     4  11  25  41  67  97 135 174 217 284 328 382
#     4  11  26  45  69 101 130 188 216 267 342 398
#
# _framework density 25.594100999999998
#
# number of rings (size 3 to 8) (size 9 to 14) (size 15 to 20)
#    0.000    1.429    1.429    3.000    6.000    9.143 
#    0.000   10.000    0.000    0.000    0.000    0.000 
#    0.000    0.000    0.000    0.000    0.000    0.000 
#
# Total GULP energy -173495.661034 kJ/mol
# GULP energy per Si atom -12392.547217 kJ/mol
# Density = 2.553585 g / cm^3
# Si number density = 25.594101 Si / 1000 Ang^3
#
#
#
# Elastic Constant Matrix: (Units=GPa)
#
#
# Indices 1 2 3 4 5 6 
#
# 1 40.4200 19.6393 16.2728 -13.7039 11.3244 1.4979
# 2 19.6393 138.1359 44.5256 -21.4257 17.6916 14.4459
# 3 16.2728 44.5256 110.7205 -4.9261 10.1317 -7.4795
# 4 -13.7039 -21.4257 -4.9261 52.6943 5.7240 -3.3781
# 5 11.3244 17.6916 10.1317 5.7240 30.7732 -2.8825
# 6 1.4979 14.4459 -7.4795 -3.3781 -2.8825 25.0721
#
#
#
# Elastic Compliance Matrix: (Units=1/GPa)
#
#
# Indices 1 2 3 4 5 6 
#
# 1 0.033167 -0.000148 -0.003412 0.009463 -0.013051 -0.003139
# 2 -0.000148 0.010831 -0.004084 0.004182 -0.006318 -0.007613
# 3 -0.003412 -0.004084 0.011467 -0.001163 0.000596 0.005889
# 4 0.009463 0.004182 -0.001163 0.024047 -0.010093 -0.001242
# 5 -0.013051 -0.006318 0.000596 -0.010093 0.043382 0.008226
# 6 -0.003139 -0.007613 0.005889 -0.001242 0.008226 0.046994
#
#
# Mechanical properties :
#
#
# Convention : Reuss Voigt Hill
#
# Bulk Modulus (GPa) = 24.88989 50.01686 37.45337
# Shear Modulus (GPa) = 25.18039 35.63050 30.40544
#
# Velocity S-wave (km/s) = 3.14002 3.73518 3.45046
# Velocity P-wave (km/s) = 4.78458 6.17955 5.52626
#
# Compressibility (1/GPa) = 0.04017696
#
# Stress axis : x y z
#
# Youngs Moduli (GPa) = 30.15062 92.33123 87.20672
#
# Poissons Ratio (x) = 0.01368 0.29753
# Poissons Ratio (y) = 0.00447 0.35613
# Poissons Ratio (z) = 0.10287 0.37705
#
# Static dielectric constant tensor:
#      x y z
#    x 4.033850 -0.777730 0.259600 
#    y -0.777730 1.464310 -0.588300 
#    z 0.259600 -0.588300 4.516430 
# 
# 
# High freq. dielectric constant tensor:
#      x y z
#    x 2.015370 0.018460 0.010190 
#    y 0.018460 2.023250 -0.009270 
#    z 0.010190 -0.009270 2.034820 
# 
# From -- ./inp_files/104842.got.cif
#   From: 2010.06.25/outbox.cif.g09.slc.cpg/sg2_53_cif.got.tgz:104842.got - 2010.06.27 13:26:56.
