data_PCOD8015414
_publ_section_title
;
Structure prediction by ZEFSAII (Michael W. Deem and Ramdas Pophale) SiO2 
 PCOD8015414
Probable space group: P -1
;
_chemical_formula_sum "Si O2"
_cell_formula_units_Z 16
_cell_length_a 11.007762
_cell_length_b 6.749356
_cell_length_c 11.176130
_cell_angle_alpha 70.427192
_cell_angle_beta 107.359930
_cell_angle_gamma 89.468020
_cell_volume 741.187864
_symmetry_space_group_name_H-M "P -1"
_symmetry_group_IT_number 2
_symmetry_cell_setting 'triclinic'
loop_
_space_group_symop_operation_xyz
x,y,z
-x,-y,-z
loop_
_atom_site_type_symbol
_atom_site_label
_atom_site_fract_x
_atom_site_fract_y
_atom_site_fract_z
Si Si1 0.379708 0.101620 0.786429
Si Si2 0.791111 0.542392 0.919268
Si Si3 0.307735 0.553676 0.345832
Si Si4 0.570544 0.699512 0.998534
Si Si5 0.993615 0.237692 0.164122
Si Si6 0.087438 0.154507 0.660246
Si Si7 0.948403 0.582806 0.614486
Si Si8 0.499323 0.810989 0.443707
O O1 0.232509 0.056823 0.748781
O O2 0.414603 0.170297 0.651289
O O3 0.472747 0.895616 0.888956
O O4 0.391716 0.279809 0.855222
O O5 0.727681 0.447634 0.803938
O O6 0.694148 0.669486 0.956744
O O7 0.881553 0.726923 0.883456
O O8 0.865261 0.325472 0.038160
O O9 0.191538 0.498064 0.406125
O O10 0.355000 0.774110 0.364269
O O11 0.434386 0.387475 0.423522
O O12 0.500000 0.500000 0.000000
O O13 0.996088 0.389528 0.245788
O O14 0.998463 0.993490 0.259333
O O15 0.059873 0.187211 0.502624
O O16 0.055765 0.401860 0.634222
O O17 0.500000 0.000000 0.500000
#
# Coordination Sequence:
#
# PCOD8015414 Si02
#       8
#     2   2   2   2   2   2   2   2
#     4  11  24  40  62  96 128 164 223 261 311 400
#     4  10  21  42  68  98 132 172 216 262 328 388
#     4  10  22  42  64  92 133 163 211 274 313 376
#     4  11  23  41  64  92 131 172 209 266 325 376
#     4  10  22  41  66  95 130 170 214 267 317 391
#     4  11  22  40  62  93 129 172 213 265 324 378
#     4  10  22  41  63  94 128 168 217 266 322 384
#     4  11  23  41  64  94 126 172 215 261 324 382
#
# _framework density 21.586967999999999
#
# number of rings (size 3 to 8) (size 9 to 14) (size 15 to 20)
#    0.000    1.500    1.250    3.375    0.000    5.000 
#    4.500   11.250    0.000    0.000    0.000    0.000 
#    0.000    0.000    0.000    0.000    0.000    0.000 
#
# Total GULP energy -198263.896563 kJ/mol
# GULP energy per Si atom -12391.493535 kJ/mol
# Density = 2.153784 g / cm^3
# Si number density = 21.586968 Si / 1000 Ang^3
#
#
#
# Elastic Constant Matrix: (Units=GPa)
#
#
# Indices 1 2 3 4 5 6 
#
# 1 112.2665 52.3433 69.1673 7.2881 -9.0426 1.3101
# 2 52.3433 101.2762 49.5909 4.4101 -6.7111 5.8436
# 3 69.1673 49.5909 118.4035 4.4872 -1.8197 0.4163
# 4 7.2881 4.4101 4.4872 30.0445 2.3271 -7.7520
# 5 -9.0426 -6.7111 -1.8197 2.3271 37.5940 -0.5868
# 6 1.3101 5.8436 0.4163 -7.7520 -0.5868 33.7982
#
#
#
# Elastic Compliance Matrix: (Units=1/GPa)
#
#
# Indices 1 2 3 4 5 6 
#
# 1 0.015781 -0.004278 -0.007292 -0.002403 0.002824 -0.000285
# 2 -0.004278 0.013977 -0.003278 -0.001268 0.001347 -0.002478
# 3 -0.007292 -0.003278 0.014031 0.000480 -0.001678 0.000757
# 4 -0.002403 -0.001268 0.000480 0.036428 -0.002902 0.008611
# 5 0.002824 0.001347 -0.001678 -0.002902 0.027610 -0.000508
# 6 -0.000285 -0.002478 0.000757 0.008611 -0.000508 0.031984
#
#
# Mechanical properties :
#
#
# Convention : Reuss Voigt Hill
#
# Bulk Modulus (GPa) = 70.94400 74.90547 72.92473
# Shear Modulus (GPa) = 28.70195 31.01031 29.85613
#
# Velocity S-wave (km/s) = 3.65032 3.79427 3.72299
# Velocity P-wave (km/s) = 7.12054 7.34643 7.23437
#
# Compressibility (1/GPa) = 0.01409563
#
# Stress axis : x y z
#
# Youngs Moduli (GPa) = 63.36787 71.54465 71.26853
#
# Poissons Ratio (x) = 0.30604 0.51966
# Poissons Ratio (y) = 0.27106 0.23361
# Poissons Ratio (z) = 0.46205 0.23451
#
# Static dielectric constant tensor:
#      x y z
#    x 4.154010 0.226010 -0.301410 
#    y 0.226010 3.811660 0.052000 
#    z -0.301410 0.052000 4.527340 
# 
# 
# High freq. dielectric constant tensor:
#      x y z
#    x 1.854370 0.000680 -0.000160 
#    y 0.000680 1.834910 0.006170 
#    z -0.000160 0.006170 1.869590 
# 
# From -- ./inp_files/410107.got.cif
#   From: 2010.06.25/outbox.cif.g09.slc.cpg/sg2_206_cif.got.tgz:410107.got - 2010.06.27 13:26:56.
