data_PCOD8015878
_publ_section_title
;
Structure prediction by ZEFSAII (Michael W. Deem and Ramdas Pophale) SiO2 
 PCOD8015878
Probable space group: P -1
;
_chemical_formula_sum "Si O2"
_cell_formula_units_Z 16
_cell_length_a 24.601603
_cell_length_b 8.647670
_cell_length_c 9.044085
_cell_angle_alpha 47.633384
_cell_angle_beta 30.694580
_cell_angle_gamma 49.773499
_cell_volume 714.363290
_symmetry_space_group_name_H-M "P -1"
_symmetry_group_IT_number 2
_symmetry_cell_setting 'triclinic'
loop_
_space_group_symop_operation_xyz
x,y,z
-x,-y,-z
loop_
_atom_site_type_symbol
_atom_site_label
_atom_site_fract_x
_atom_site_fract_y
_atom_site_fract_z
Si Si1 0.748842 0.095600 0.381828
Si Si2 0.464669 0.581858 0.365278
Si Si3 0.096036 0.875223 0.759948
Si Si4 0.405469 0.161240 0.697748
Si Si5 0.185187 0.050412 0.156437
Si Si6 0.818411 0.308528 0.823594
Si Si7 0.342905 0.276500 0.091910
Si Si8 0.032021 0.437362 0.130942
O O1 0.632243 0.223469 0.534567
O O2 0.787536 0.136674 0.428738
O O3 0.740374 0.846889 0.549601
O O4 0.836334 0.152222 0.023942
O O5 0.500000 0.500000 0.500000
O O6 0.436448 0.395096 0.446045
O O7 0.571238 0.680421 0.009621
O O8 0.103977 0.998933 0.508046
O O9 0.080354 0.633574 0.951707
O O10 0.000000 0.000000 0.000000
O O11 0.500000 0.000000 0.500000
O O12 0.397210 0.138162 0.911196
O O13 0.290628 0.136434 0.911701
O O14 0.217689 0.825335 0.142088
O O15 0.120378 0.223702 0.083713
O O16 0.721383 0.501144 0.964416
O O17 0.925720 0.404268 0.488138
O O18 0.000000 0.500000 0.000000
#
# Coordination Sequence:
#
# PCOD8015878 Si02
#       8
#     2   2   2   2   2   2   2   2
#     4  12  24  43  76 104 140 189 240 290 359 426
#     4  10  21  43  67 100 142 183 234 290 345 423
#     4  12  27  46  74 107 145 190 241 296 364 428
#     4  11  23  45  73 103 146 188 235 299 356 421
#     4  12  27  48  72 107 149 190 236 302 359 425
#     4  12  26  45  76 102 145 189 240 299 353 434
#     4  11  24  45  72 105 143 188 245 289 360 430
#     4  12  28  47  72 107 146 187 241 293 363 428
#
# _framework density 22.397568
#
# number of rings (size 3 to 8) (size 9 to 14) (size 15 to 20)
#    0.000    0.500    5.000    3.750    5.250    1.000 
#    0.000    0.625    0.000    0.000    0.000    0.000 
#    0.000    0.000    0.000    0.000    0.000    0.000 
#
# Total GULP energy -198287.057749 kJ/mol
# GULP energy per Si atom -12392.941109 kJ/mol
# Density = 2.234659 g / cm^3
# Si number density = 22.397568 Si / 1000 Ang^3
#
#
#
# Elastic Constant Matrix: (Units=GPa)
#
#
# Indices 1 2 3 4 5 6 
#
# 1 93.1108 50.5329 45.4519 -14.4939 -15.2571 -3.9096
# 2 50.5329 117.3999 54.7584 -11.5218 0.3578 8.2006
# 3 45.4519 54.7584 132.7598 -29.0520 -7.2632 3.2800
# 4 -14.4939 -11.5218 -29.0520 48.9696 7.2754 -5.4827
# 5 -15.2571 0.3578 -7.2632 7.2754 48.9537 -7.9073
# 6 -3.9096 8.2006 3.2800 -5.4827 -7.9073 38.8224
#
#
#
# Elastic Compliance Matrix: (Units=1/GPa)
#
#
# Indices 1 2 3 4 5 6 
#
# 1 0.016665 -0.006109 -0.002647 0.001638 0.005331 0.004509
# 2 -0.006109 0.012979 -0.003511 -0.000814 -0.003011 -0.003788
# 3 -0.002647 -0.003511 0.010961 0.004902 0.000142 0.000270
# 4 0.001638 -0.000814 0.004902 0.024233 -0.001879 0.002962
# 5 0.005331 -0.003011 0.000142 -0.001879 0.023323 0.005646
# 6 0.004509 -0.003788 0.000270 0.002962 0.005646 0.028558
#
#
# Mechanical properties :
#
#
# Convention : Reuss Voigt Hill
#
# Bulk Modulus (GPa) = 62.22689 71.63967 66.93328
# Shear Modulus (GPa) = 34.10372 40.18429 37.14400
#
# Velocity S-wave (km/s) = 3.90635 4.24032 4.07676
# Velocity P-wave (km/s) = 6.94185 7.48523 7.21866
#
# Compressibility (1/GPa) = 0.01607022
#
# Stress axis : x y z
#
# Youngs Moduli (GPa) = 60.00434 77.04715 91.23451
#
# Poissons Ratio (x) = 0.47069 0.24152
# Poissons Ratio (y) = 0.36658 0.32034
# Poissons Ratio (z) = 0.15884 0.27052
#
# Static dielectric constant tensor:
#      x y z
#    x 4.300330 -0.042960 -0.241420 
#    y -0.042960 3.878070 -0.357940 
#    z -0.241420 -0.357940 4.589090 
# 
# 
# High freq. dielectric constant tensor:
#      x y z
#    x 1.879310 0.000450 -0.021700 
#    y 0.000450 1.886260 -0.020260 
#    z -0.021700 -0.020260 1.899840 
# 
# From -- ./inp_files/352011.got.cif
#   From: 2010.06.25/outbox.cif.g09.slc.cpg/sg2_177_cif.got.tgz:352011.got - 2010.06.27 13:26:56.
