data_PCOD8015434
_publ_section_title
;
Structure prediction by ZEFSAII (Michael W. Deem and Ramdas Pophale) SiO2 
 PCOD8015434
Probable space group: P -1
;
_chemical_formula_sum "Si O2"
_cell_formula_units_Z 16
_cell_length_a 8.978592
_cell_length_b 12.052923
_cell_length_c 18.311345
_cell_angle_alpha 49.893977
_cell_angle_beta 98.399894
_cell_angle_gamma 139.982465
_cell_volume 690.107271
_symmetry_space_group_name_H-M "P -1"
_symmetry_group_IT_number 2
_symmetry_cell_setting 'triclinic'
loop_
_space_group_symop_operation_xyz
x,y,z
-x,-y,-z
loop_
_atom_site_type_symbol
_atom_site_label
_atom_site_fract_x
_atom_site_fract_y
_atom_site_fract_z
Si Si1 0.647251 0.841208 0.922428
Si Si2 0.152976 0.466651 0.332232
Si Si3 0.272311 0.237821 0.740648
Si Si4 0.309325 0.125350 0.523870
Si Si5 0.816439 0.232603 0.880820
Si Si6 0.455468 0.721048 0.791956
Si Si7 0.677537 0.167412 0.520639
Si Si8 0.860325 0.801061 0.763911
O O1 0.524223 0.774561 0.860664
O O2 0.740220 0.065804 0.876642
O O3 0.354612 0.509562 0.083173
O O4 0.970400 0.013875 0.868530
O O5 0.530507 0.740274 0.233161
O O6 0.050895 0.498855 0.251066
O O7 0.064171 0.463380 0.406360
O O8 0.908335 0.119705 0.454854
O O9 0.539362 0.592979 0.606908
O O10 0.139351 0.101328 0.708637
O O11 0.612755 0.275565 0.498864
O O12 0.046688 0.901691 0.664889
O O13 0.070164 0.375192 0.894064
O O14 0.500000 0.000000 0.000000
O O15 0.624474 0.732858 0.756193
O O16 0.570541 0.970255 0.661190
O O17 0.500000 0.000000 0.500000
#
# Coordination Sequence:
#
# PCOD8015434 Si02
#       8
#     2   2   2   2   2   2   2   2
#     4  11  28  48  73 105 145 191 239 291 357 422
#     4  11  24  43  69 106 141 179 237 300 346 427
#     4  11  24  43  71 102 141 184 237 291 355 420
#     4  11  22  42  72 103 136 185 234 289 357 416
#     4  12  27  45  72 105 142 191 240 283 362 427
#     4  11  24  47  73  98 147 184 233 300 346 418
#     4  10  21  42  69 100 144 178 229 297 353 417
#     4  11  26  47  67 104 145 185 238 298 347 425
#
# _framework density 23.184801
#
# number of rings (size 3 to 8) (size 9 to 14) (size 15 to 20)
#    0.000    1.000    2.500    4.500    7.000    3.000 
#    0.000    3.750    0.000    0.000    0.000    0.000 
#    0.000    0.000    0.000    0.000    0.000    0.000 
#
# Total GULP energy -198295.836948 kJ/mol
# GULP energy per Si atom -12393.489809 kJ/mol
# Density = 2.313203 g / cm^3
# Si number density = 23.184801 Si / 1000 Ang^3
#
#
#
# Elastic Constant Matrix: (Units=GPa)
#
#
# Indices 1 2 3 4 5 6 
#
# 1 167.9541 58.0529 31.1569 0.3568 -33.5709 11.1782
# 2 58.0529 83.4617 12.8102 -5.6800 -14.7643 10.2736
# 3 31.1569 12.8102 67.7692 1.5412 -23.5761 1.6933
# 4 0.3568 -5.6800 1.5412 28.7447 -3.6479 -3.5110
# 5 -33.5709 -14.7643 -23.5761 -3.6479 50.4724 2.4163
# 6 11.1782 10.2736 1.6933 -3.5110 2.4163 27.6376
#
#
#
# Elastic Compliance Matrix: (Units=1/GPa)
#
#
# Indices 1 2 3 4 5 6 
#
# 1 0.008908 -0.005082 -0.001801 -0.000804 0.003636 -0.002023
# 2 -0.005082 0.016541 -0.000138 0.003098 0.001802 -0.003849
# 3 -0.001801 -0.000138 0.018173 -0.000176 0.007286 -0.000993
# 4 -0.000804 0.003098 -0.000176 0.036201 0.002736 0.003544
# 5 0.003636 0.001802 0.007286 0.002736 0.026578 -0.004563
# 6 -0.002023 -0.003849 -0.000993 0.003544 -0.004563 0.039342
#
#
# Mechanical properties :
#
#
# Convention : Reuss Voigt Hill
#
# Bulk Modulus (GPa) = 33.80551 58.13612 45.97081
# Shear Modulus (GPa) = 29.47357 35.84860 32.66109
#
# Velocity S-wave (km/s) = 3.56932 3.93646 3.75737
# Velocity P-wave (km/s) = 5.62132 6.76686 6.22052
#
# Compressibility (1/GPa) = 0.02958098
#
# Stress axis : x y z
#
# Youngs Moduli (GPa) = 112.26137 60.45617 55.02549
#
# Poissons Ratio (x) = 0.30724 0.09910
# Poissons Ratio (y) = 0.57051 0.00757
# Poissons Ratio (z) = 0.20219 0.00831
#
# Static dielectric constant tensor:
#      x y z
#    x 4.730120 0.159020 -0.928480 
#    y 0.159020 4.009290 0.351360 
#    z -0.928480 0.351360 2.005130 
# 
# 
# High freq. dielectric constant tensor:
#      x y z
#    x 1.945380 0.003880 -0.012970 
#    y 0.003880 1.896430 -0.003670 
#    z -0.012970 -0.003670 1.922670 
# 
# From -- ./inp_files/559785.got.cif
#   From: 2010.06.25/outbox.cif.g09.slc.cpg/sg2_280_cif.got.tgz:559785.got - 2010.06.27 13:26:56.
