data_PCOD8015506
_publ_section_title
;
Structure prediction by ZEFSAII (Michael W. Deem and Ramdas Pophale) SiO2 
 PCOD8015506
Probable space group: P -1
;
_chemical_formula_sum "Si O2"
_cell_formula_units_Z 16
_cell_length_a 11.764872
_cell_length_b 9.239932
_cell_length_c 11.256189
_cell_angle_alpha 65.840120
_cell_angle_beta 52.010068
_cell_angle_gamma 99.330334
_cell_volume 719.387865
_symmetry_space_group_name_H-M "P -1"
_symmetry_group_IT_number 2
_symmetry_cell_setting 'triclinic'
loop_
_space_group_symop_operation_xyz
x,y,z
-x,-y,-z
loop_
_atom_site_type_symbol
_atom_site_label
_atom_site_fract_x
_atom_site_fract_y
_atom_site_fract_z
Si Si1 0.497437 0.427061 0.203258
Si Si2 0.184841 0.697309 0.279033
Si Si3 0.644137 0.633648 0.266072
Si Si4 0.242166 0.938930 0.942105
Si Si5 0.852308 0.252741 0.462208
Si Si6 0.766100 0.586134 0.772316
Si Si7 0.537732 0.953766 0.619236
Si Si8 0.049212 0.418076 0.886178
O O1 0.534712 0.573164 0.235552
O O2 0.298759 0.333219 0.315055
O O3 0.516028 0.260455 0.290532
O O4 0.651764 0.559776 0.967301
O O5 0.262619 0.797406 0.324757
O O6 0.289609 0.626293 0.164972
O O7 0.000000 0.500000 0.500000
O O8 0.175317 0.844300 0.148645
O O9 0.500000 0.500000 0.500000
O O10 0.742407 0.862104 0.146583
O O11 0.783986 0.580371 0.186115
O O12 0.429837 0.977773 0.781669
O O13 0.111257 0.800013 0.968614
O O14 0.740492 0.093632 0.485692
O O15 0.914251 0.459541 0.298509
O O16 0.027388 0.262101 0.380852
O O17 0.500000 0.000000 0.500000
O O18 0.000000 0.500000 0.000000
#
# Coordination Sequence:
#
# PCOD8015506 Si02
#       8
#     2   2   2   2   2   2   2   2
#     4  11  24  44  67  97 143 185 237 290 360 419
#     4  10  21  42  70 100 135 175 234 298 350 416
#     4  12  28  44  70 108 145 189 239 299 356 428
#     4  12  24  45  71 104 143 186 243 292 363 423
#     4  11  23  41  73 103 138 183 236 296 363 418
#     4  10  22  43  70  95 137 186 235 298 348 424
#     4  12  25  44  67 104 143 191 236 289 357 436
#     4  12  24  46  75 101 144 193 239 293 361 431
#
# _framework density 22.241129999999998
#
# number of rings (size 3 to 8) (size 9 to 14) (size 15 to 20)
#    0.000    0.750    3.750    4.875    3.500    3.000 
#    0.000    6.250    0.000    0.000    0.000    0.000 
#    0.000    0.000    0.000    0.000    0.000    0.000 
#
# Total GULP energy -198356.881175 kJ/mol
# GULP energy per Si atom -12397.305073 kJ/mol
# Density = 2.219051 g / cm^3
# Si number density = 22.241130 Si / 1000 Ang^3
#
#
#
# Elastic Constant Matrix: (Units=GPa)
#
#
# Indices 1 2 3 4 5 6 
#
# 1 152.5765 55.1894 55.1039 11.5066 0.0589 15.0789
# 2 55.1894 122.8605 49.7132 5.0087 4.6939 12.1472
# 3 55.1039 49.7132 100.9816 5.2466 12.6566 5.5179
# 4 11.5066 5.0087 5.2466 25.5690 2.4249 3.9468
# 5 0.0589 4.6939 12.6566 2.4249 40.6475 0.3410
# 6 15.0789 12.1472 5.5179 3.9468 0.3410 47.1825
#
#
#
# Elastic Compliance Matrix: (Units=1/GPa)
#
#
# Indices 1 2 3 4 5 6 
#
# 1 0.009152 -0.002358 -0.003802 -0.002775 0.001622 -0.001653
# 2 -0.002358 0.010991 -0.004036 -0.000017 0.000005 -0.001603
# 3 -0.003802 -0.004036 0.014444 -0.000175 -0.004021 0.000609
# 4 -0.002775 -0.000017 -0.000175 0.041008 -0.002365 -0.002502
# 5 0.001622 0.000005 -0.004021 -0.002365 0.025992 -0.000040
# 6 -0.001653 -0.001603 0.000609 -0.002502 -0.000040 0.022273
#
#
# Mechanical properties :
#
#
# Convention : Reuss Voigt Hill
#
# Bulk Modulus (GPa) = 70.45069 77.38129 73.91599
# Shear Modulus (GPa) = 33.56028 37.10727 35.33378
#
# Velocity S-wave (km/s) = 3.88871 4.08905 3.99013
# Velocity P-wave (km/s) = 7.20468 7.56050 7.38473
#
# Compressibility (1/GPa) = 0.01419432
#
# Stress axis : x y z
#
# Youngs Moduli (GPa) = 109.26260 90.98608 69.23157
#
# Poissons Ratio (x) = 0.21456 0.26323
# Poissons Ratio (y) = 0.25766 0.27943
# Poissons Ratio (z) = 0.41543 0.36723
#
# Static dielectric constant tensor:
#      x y z
#    x 4.230930 0.025490 0.129870 
#    y 0.025490 4.208860 0.226430 
#    z 0.129870 0.226430 4.076680 
# 
# 
# High freq. dielectric constant tensor:
#      x y z
#    x 1.888810 0.010430 0.008260 
#    y 0.010430 1.873530 0.008770 
#    z 0.008260 0.008770 1.872800 
# 
# From -- ./inp_files/419125.got.cif
#   From: 2010.06.25/outbox.cif.g09.slc.cpg/sg2_210_cif.got.tgz:419125.got - 2010.06.27 13:26:56.
