data_PCOD8015008
_publ_section_title
;
Structure prediction by ZEFSAII (Michael W. Deem and Ramdas Pophale) SiO2 
 PCOD8015008
Probable space group: P -1
;
_chemical_formula_sum "Si O2"
_cell_formula_units_Z 14
_cell_length_a 9.432960
_cell_length_b 9.083824
_cell_length_c 15.373057
_cell_angle_alpha 115.580764
_cell_angle_beta 70.625926
_cell_angle_gamma 148.820562
_cell_volume 613.125454
_symmetry_space_group_name_H-M "P -1"
_symmetry_group_IT_number 2
_symmetry_cell_setting 'triclinic'
loop_
_space_group_symop_operation_xyz
x,y,z
-x,-y,-z
loop_
_atom_site_type_symbol
_atom_site_label
_atom_site_fract_x
_atom_site_fract_y
_atom_site_fract_z
Si Si1 0.217903 0.881887 0.501413
Si Si2 0.312413 0.809802 0.829220
Si Si3 0.835583 0.796937 0.754698
Si Si4 0.660722 0.537397 0.543328
Si Si5 0.680215 0.518164 0.150662
Si Si6 0.063492 0.657478 0.664598
Si Si7 0.149626 0.529001 0.048100
O O1 0.235871 0.851483 0.591802
O O2 0.967639 0.779845 0.509658
O O3 0.178716 0.688775 0.399033
O O4 0.506853 0.224751 0.505305
O O5 0.294639 0.612968 0.823206
O O6 0.262061 0.759763 0.723192
O O7 0.080501 0.718217 0.895446
O O8 0.610869 0.152325 0.873354
O O9 0.670802 0.644019 0.658608
O O10 0.625955 0.684750 0.838048
O O11 0.924084 0.695886 0.739487
O O12 0.103513 0.150885 0.778340
O O13 0.500000 0.500000 0.500000
O O14 0.733686 0.522429 0.039307
O O15 0.000000 0.500000 0.000000
#
# Coordination Sequence:
#
# PCOD8015008 Si02
#       7
#     2   2   2   2   2   2   2
#     4  10  24  44  65  89 135 182 205 268 319 381
#     4  11  23  39  71  95 123 169 227 261 309 403
#     4  11  24  40  61  95 130 171 205 272 325 379
#     4  11  24  40  66  95 131 164 225 267 319 375
#     4  11  22  41  66  91 129 167 213 270 333 368
#     4  10  25  44  66  96 134 176 221 255 327 388
#     4  10  21  42  64  97 128 164 211 277 325 373
#
# _framework density 22.833825000000001
#
# number of rings (size 3 to 8) (size 9 to 14) (size 15 to 20)
#    0.000    1.429    0.000    6.429    4.000   10.857 
#    0.000    4.286    0.000    0.000    0.000    0.000 
#    0.000    0.000    0.000    0.000    0.000    0.000 
#
# Total GULP energy -173610.304954 kJ/mol
# GULP energy per Si atom -12400.736068 kJ/mol
# Density = 2.278185 g / cm^3
# Si number density = 22.833825 Si / 1000 Ang^3
#
#
#
# Elastic Constant Matrix: (Units=GPa)
#
#
# Indices 1 2 3 4 5 6 
#
# 1 84.7179 15.6720 41.7306 0.2031 -0.2695 8.9467
# 2 15.6720 67.3521 12.4751 16.3340 8.4156 14.5528
# 3 41.7306 12.4751 89.0694 12.3571 6.4004 -3.1595
# 4 0.2031 16.3340 12.3571 23.7234 0.0499 -3.4034
# 5 -0.2695 8.4156 6.4004 0.0499 41.5034 -1.0796
# 6 8.9467 14.5528 -3.1595 -3.4034 -1.0796 32.8037
#
#
#
# Elastic Compliance Matrix: (Units=1/GPa)
#
#
# Indices 1 2 3 4 5 6 
#
# 1 0.017018 -0.003433 -0.008620 0.006240 0.002044 -0.003234
# 2 -0.003433 0.022813 0.000837 -0.017696 -0.005045 -0.011106
# 3 -0.008620 0.000837 0.016656 -0.008803 -0.002717 0.002581
# 4 0.006240 -0.017696 -0.008803 0.060544 0.005219 0.011754
# 5 0.002044 -0.005045 -0.002717 0.005219 0.025616 0.002803
# 6 -0.003234 -0.011106 0.002581 0.011754 0.002803 0.037853
#
#
# Mechanical properties :
#
#
# Convention : Reuss Voigt Hill
#
# Bulk Modulus (GPa) = 29.36395 42.32165 35.84280
# Shear Modulus (GPa) = 23.33354 31.02355 27.17855
#
# Velocity S-wave (km/s) = 3.20016 3.69001 3.45378
# Velocity P-wave (km/s) = 5.15194 6.06051 5.62460
#
# Compressibility (1/GPa) = 0.03405536
#
# Stress axis : x y z
#
# Youngs Moduli (GPa) = 58.76151 43.83522 60.03690
#
# Poissons Ratio (x) = 0.15050 0.51750
# Poissons Ratio (y) = 0.20174 -0.05025
# Poissons Ratio (z) = 0.50650 -0.03669
#
# Static dielectric constant tensor:
#      x y z
#    x 4.012530 0.080400 -0.190590 
#    y 0.080400 4.177730 -0.118490 
#    z -0.190590 -0.118490 4.504750 
# 
# 
# High freq. dielectric constant tensor:
#      x y z
#    x 1.895320 0.017550 -0.007570 
#    y 0.017550 1.904550 0.007420 
#    z -0.007570 0.007420 1.908460 
# 
# From -- ./inp_files/45477.got.cif
#   From: 2010.06.25/outbox.cif.g09.slc.cpg/sg2_23_cif.got.tgz:45477.got - 2010.06.27 13:26:56.
