data_PCOD8015391
_publ_section_title
;
Structure prediction by ZEFSAII (Michael W. Deem and Ramdas Pophale) SiO2 
 PCOD8015391
Probable space group: P -1
;
_chemical_formula_sum "Si O2"
_cell_formula_units_Z 16
_cell_length_a 8.751753
_cell_length_b 14.822933
_cell_length_c 12.138443
_cell_angle_alpha 100.590590
_cell_angle_beta 108.422864
_cell_angle_gamma 30.849371
_cell_volume 753.585977
_symmetry_space_group_name_H-M "P -1"
_symmetry_group_IT_number 2
_symmetry_cell_setting 'triclinic'
loop_
_space_group_symop_operation_xyz
x,y,z
-x,-y,-z
loop_
_atom_site_type_symbol
_atom_site_label
_atom_site_fract_x
_atom_site_fract_y
_atom_site_fract_z
Si Si1 0.849103 0.298491 0.539264
Si Si2 0.290801 0.193395 0.488225
Si Si3 0.858527 0.842919 0.023278
Si Si4 0.197449 0.540271 0.751265
Si Si5 0.824022 0.501310 0.017955
Si Si6 0.850022 0.193315 0.726983
Si Si7 0.094500 0.031606 0.366683
Si Si8 0.830411 0.246877 0.139767
O O1 0.500000 0.500000 0.500000
O O2 0.928772 0.234684 0.667821
O O3 0.031264 0.301853 0.546480
O O4 0.904835 0.182423 0.448061
O O5 0.124550 0.295717 0.356162
O O6 0.500000 0.000000 0.500000
O O7 0.530995 0.156744 0.563888
O O8 0.979217 0.862686 0.135754
O O9 0.037352 0.659589 0.036660
O O10 0.914457 0.859243 0.920260
O O11 0.500000 0.000000 0.000000
O O12 0.129976 0.515895 0.842478
O O13 0.478436 0.358888 0.702846
O O14 0.318457 0.582778 0.820212
O O15 0.451348 0.683019 0.946093
O O16 0.000000 0.500000 0.000000
O O17 0.007743 0.024255 0.674471
O O18 0.034249 0.105074 0.251375
#
# Coordination Sequence:
#
# PCOD8015391 Si02
#       8
#     2   2   2   2   2   2   2   2
#     4  11  22  43  68  93 130 176 229 271 335 399
#     4  10  21  42  68  96 126 176 230 270 335 395
#     4  11  26  42  69 100 131 181 222 279 347 402
#     4  11  20  46  71  94 136 185 217 284 345 401
#     4  11  25  45  71 102 130 179 236 278 336 407
#     4  12  24  43  64  99 141 173 225 281 340 400
#     4  11  26  41  66 101 135 180 220 282 336 396
#     4  11  21  47  70  93 138 180 226 274 345 406
#
# _framework density 21.231818000000001
#
# number of rings (size 3 to 8) (size 9 to 14) (size 15 to 20)
#    0.000    1.000    6.250    1.125    3.500    3.000 
#    2.250    0.000    0.000    0.000    0.000    0.000 
#    0.000    0.000    0.000    0.000    0.000    0.000 
#
# Total GULP energy -198335.428712 kJ/mol
# GULP energy per Si atom -12395.964294 kJ/mol
# Density = 2.118349 g / cm^3
# Si number density = 21.231818 Si / 1000 Ang^3
#
#
#
# Elastic Constant Matrix: (Units=GPa)
#
#
# Indices 1 2 3 4 5 6 
#
# 1 104.7875 29.7902 42.7349 -2.7570 -13.5068 -17.5862
# 2 29.7902 92.0165 39.1067 0.6848 7.5863 -23.2260
# 3 42.7349 39.1067 125.7773 -11.8353 -15.5753 -7.4828
# 4 -2.7570 0.6848 -11.8353 31.4103 1.4624 5.6342
# 5 -13.5068 7.5863 -15.5753 1.4624 38.1060 1.5167
# 6 -17.5862 -23.2260 -7.4828 5.6342 1.5167 34.7723
#
#
#
# Elastic Compliance Matrix: (Units=1/GPa)
#
#
# Indices 1 2 3 4 5 6 
#
# 1 0.012483 -0.001912 -0.003053 -0.000959 0.003420 0.004386
# 2 -0.001912 0.016750 -0.005121 -0.003968 -0.006353 0.010039
# 3 -0.003053 -0.005121 0.011364 0.004533 0.004546 -0.003452
# 4 -0.000959 -0.003968 0.004533 0.034899 0.001277 -0.007870
# 5 0.003420 -0.006353 0.004546 0.001277 0.030651 -0.003079
# 6 0.004386 0.010039 -0.003452 -0.007870 -0.003079 0.038349
#
#
# Mechanical properties :
#
#
# Convention : Reuss Voigt Hill
#
# Bulk Modulus (GPa) = 48.95681 60.64943 54.80312
# Shear Modulus (GPa) = 29.15826 34.92102 32.03964
#
# Velocity S-wave (km/s) = 3.70986 4.05995 3.88885
# Velocity P-wave (km/s) = 6.43887 7.11372 6.78469
#
# Compressibility (1/GPa) = 0.02042617
#
# Stress axis : x y z
#
# Youngs Moduli (GPa) = 80.10734 59.69990 87.99549
#
# Poissons Ratio (x) = 0.11414 0.26863
# Poissons Ratio (y) = 0.15315 0.45065
# Poissons Ratio (z) = 0.24455 0.30574
#
# Static dielectric constant tensor:
#      x y z
#    x 3.851020 0.014960 0.107470 
#    y 0.014960 3.638400 -0.002590 
#    z 0.107470 -0.002590 4.065060 
# 
# 
# High freq. dielectric constant tensor:
#      x y z
#    x 1.827700 -0.007830 -0.009820 
#    y -0.007830 1.830390 -0.005160 
#    z -0.009820 -0.005160 1.841060 
# 
# From -- ./inp_files/215159.got.cif
#   From: 2010.06.25/outbox.cif.g09.slc.cpg/sg2_108_cif.got.tgz:215159.got - 2010.06.27 13:26:56.
