data_PCOD8015056
_publ_section_title
;
Structure prediction by ZEFSAII (Michael W. Deem and Ramdas Pophale) SiO2 
 PCOD8015056
Probable space group: P -1
;
_chemical_formula_sum "Si O2"
_cell_formula_units_Z 16
_cell_length_a 14.091023
_cell_length_b 11.261226
_cell_length_c 13.653469
_cell_angle_alpha 98.667433
_cell_angle_beta 147.014764
_cell_angle_gamma 107.060890
_cell_volume 729.705908
_symmetry_space_group_name_H-M "P -1"
_symmetry_group_IT_number 2
_symmetry_cell_setting 'triclinic'
loop_
_space_group_symop_operation_xyz
x,y,z
-x,-y,-z
loop_
_atom_site_type_symbol
_atom_site_label
_atom_site_fract_x
_atom_site_fract_y
_atom_site_fract_z
Si Si1 0.560188 0.207091 0.118952
Si Si2 0.655314 0.976784 0.425402
Si Si3 0.879635 0.607403 0.435398
Si Si4 0.909491 0.827731 0.852579
Si Si5 0.200686 0.887885 0.924842
Si Si6 0.921706 0.088781 0.473038
Si Si7 0.414331 0.687166 0.328407
Si Si8 0.118883 0.741100 0.173084
O O1 0.601231 0.375206 0.171401
O O2 0.870691 0.325021 0.397295
O O3 0.409859 0.091019 0.075392
O O4 0.383654 0.053261 0.858093
O O5 0.896310 0.088238 0.567254
O O6 0.773711 0.132644 0.624950
O O7 0.371397 0.872596 0.120277
O O8 0.587437 0.811489 0.395320
O O9 0.835396 0.696680 0.335435
O O10 0.968497 0.701419 0.631439
O O11 0.578186 0.673112 0.530481
O O12 0.050478 0.886140 0.876720
O O13 0.982764 0.754707 0.975536
O O14 0.000000 0.000000 0.000000
O O15 0.000000 0.000000 0.500000
O O16 0.374735 0.796880 0.361092
O O17 0.113932 0.474944 0.015276
#
# Coordination Sequence:
#
# PCOD8015056 Si02
#       8
#     2   2   2   2   2   2   2   2
#     4  10  21  42  66  91 123 165 214 261 313 376
#     4  12  22  42  65  94 128 170 214 257 324 383
#     4  10  21  42  65  92 122 166 215 258 312 379
#     4  12  24  45  68  92 133 173 212 267 324 379
#     4  11  22  41  66  95 126 167 216 263 318 385
#     4  11  24  40  62  92 134 167 209 264 315 375
#     4  11  25  44  66  96 131 167 216 270 317 386
#     4  11  25  45  67  95 131 171 214 264 326 380
#
# _framework density 21.926639000000002
#
# number of rings (size 3 to 8) (size 9 to 14) (size 15 to 20)
#    0.000    1.000    5.000    2.250    3.500    2.500 
#    6.750    0.000    0.000    0.000    0.000    0.000 
#    0.000    0.000    0.000    0.000    0.000    0.000 
#
# Total GULP energy -198354.049607 kJ/mol
# GULP energy per Si atom -12397.128100 kJ/mol
# Density = 2.187673 g / cm^3
# Si number density = 21.926639 Si / 1000 Ang^3
#
#
#
# Elastic Constant Matrix: (Units=GPa)
#
#
# Indices 1 2 3 4 5 6 
#
# 1 127.3370 39.9384 16.0959 1.7907 -11.8278 11.4355
# 2 39.9384 111.1867 9.0040 1.2025 -12.3497 -0.3661
# 3 16.0959 9.0040 25.7570 0.4075 -3.9503 10.1036
# 4 1.7907 1.2025 0.4075 43.3044 -13.4065 -0.6301
# 5 -11.8278 -12.3497 -3.9503 -13.4065 25.3059 -13.1172
# 6 11.4355 -0.3661 10.1036 -0.6301 -13.1172 24.1469
#
#
#
# Elastic Compliance Matrix: (Units=1/GPa)
#
#
# Indices 1 2 3 4 5 6 
#
# 1 0.009606 -0.003003 -0.003864 0.000088 0.001288 -0.002276
# 2 -0.003003 0.011457 -0.004068 0.002920 0.009533 0.008553
# 3 -0.003864 -0.004068 0.051156 -0.004133 -0.011455 -0.025967
# 4 0.000088 0.002920 -0.004133 0.031377 0.026121 0.016740
# 5 0.001288 0.009533 -0.011455 0.026121 0.082706 0.049937
# 6 -0.002276 0.008553 -0.025967 0.016740 0.049937 0.081050
#
#
# Mechanical properties :
#
#
# Convention : Reuss Voigt Hill
#
# Bulk Modulus (GPa) = 19.86128 43.81749 31.83938
# Shear Modulus (GPa) = 16.33962 31.83430 24.08696
#
# Velocity S-wave (km/s) = 2.73279 3.81445 3.31800
# Velocity P-wave (km/s) = 4.36294 6.27910 5.40659
#
# Compressibility (1/GPa) = 0.05034922
#
# Stress axis : x y z
#
# Youngs Moduli (GPa) = 104.09801 87.27980 19.54816
#
# Poissons Ratio (x) = 0.26210 0.07554
# Poissons Ratio (y) = 0.31261 0.07952
# Poissons Ratio (z) = 0.40228 0.35503
#
# Static dielectric constant tensor:
#      x y z
#    x 3.975550 -0.070100 0.048500 
#    y -0.070100 4.370750 0.150160 
#    z 0.048500 0.150160 4.309260 
# 
# 
# High freq. dielectric constant tensor:
#      x y z
#    x 1.861330 -0.002650 0.002590 
#    y -0.002650 1.877990 -0.000760 
#    z 0.002590 -0.000760 1.853220 
# 
# From -- ./inp_files/315436.got.cif
#   From: 2010.06.25/outbox.cif.g09.slc.cpg/sg2_158_cif.got.tgz:315436.got - 2010.06.27 13:26:56.
