data_PCOD8015913
_publ_section_title
;
Structure prediction by ZEFSAII (Michael W. Deem and Ramdas Pophale) SiO2 
 PCOD8015913
Probable space group: P -1
;
_chemical_formula_sum "Si O2"
_cell_formula_units_Z 16
_cell_length_a 18.326168
_cell_length_b 8.355602
_cell_length_c 11.610006
_cell_angle_alpha 34.480985
_cell_angle_beta 48.615328
_cell_angle_gamma 48.990723
_cell_volume 728.796048
_symmetry_space_group_name_H-M "P -1"
_symmetry_group_IT_number 2
_symmetry_cell_setting 'triclinic'
loop_
_space_group_symop_operation_xyz
x,y,z
-x,-y,-z
loop_
_atom_site_type_symbol
_atom_site_label
_atom_site_fract_x
_atom_site_fract_y
_atom_site_fract_z
Si Si1 0.555005 0.828652 0.833155
Si Si2 0.419926 0.451638 0.268463
Si Si3 0.241865 0.890844 0.108288
Si Si4 0.371731 0.276103 0.666645
Si Si5 0.093696 0.134965 0.303562
Si Si6 0.730138 0.063857 0.579906
Si Si7 0.847273 0.599255 0.579882
Si Si8 0.003871 0.668220 0.215105
O O1 0.592288 0.741740 0.714948
O O2 0.461067 0.117375 0.753361
O O3 0.640128 0.901373 0.783303
O O4 0.522499 0.556380 0.087235
O O5 0.326075 0.742487 0.203564
O O6 0.419261 0.271561 0.492606
O O7 0.223907 0.620258 0.215382
O O8 0.136912 0.078132 0.162992
O O9 0.285953 0.098297 0.855525
O O10 0.319817 0.592699 0.585693
O O11 0.049695 0.482409 0.164489
O O12 0.189354 0.997438 0.365481
O O13 0.000000 0.000000 0.500000
O O14 0.788247 0.928640 0.482921
O O15 0.893281 0.629037 0.387228
O O16 0.930624 0.459148 0.668562
O O17 0.000000 0.000000 0.000000
#
# Coordination Sequence:
#
# PCOD8015913 Si02
#       8
#     2   2   2   2   2   2   2   2
#     4  10  22  42  68  94 132 169 212 264 323 380
#     4  10  21  43  67  94 131 170 209 265 321 386
#     4  11  22  42  64  92 131 172 216 259 320 384
#     4  11  24  40  65 101 128 167 221 260 316 386
#     4  11  23  43  68  92 128 177 214 264 328 377
#     4  11  23  42  64  95 133 169 208 272 321 376
#     4  10  22  42  62  88 130 170 207 268 326 374
#     4  10  23  41  64  92 122 163 223 270 319 376
#
# _framework density 21.954017
#
# number of rings (size 3 to 8) (size 9 to 14) (size 15 to 20)
#    0.000    1.500    3.750    0.750    1.750    2.500 
#    2.250    1.250    0.000    0.000    0.000    0.000 
#    0.000    0.000    0.000    0.000    0.000    0.000 
#
# Total GULP energy -198309.478853 kJ/mol
# GULP energy per Si atom -12394.342428 kJ/mol
# Density = 2.190405 g / cm^3
# Si number density = 21.954017 Si / 1000 Ang^3
#
#
#
# Elastic Constant Matrix: (Units=GPa)
#
#
# Indices 1 2 3 4 5 6 
#
# 1 91.8449 27.8228 38.4806 2.7944 -32.7724 -2.1027
# 2 27.8228 137.9766 46.5838 -11.1183 -2.2995 -4.9779
# 3 38.4806 46.5838 122.8903 2.7674 -23.5988 1.1111
# 4 2.7944 -11.1183 2.7674 38.2302 3.4001 -6.1367
# 5 -32.7724 -2.2995 -23.5988 3.4001 27.1615 3.6397
# 6 -2.1027 -4.9779 1.1111 -6.1367 3.6397 22.3036
#
#
#
# Elastic Compliance Matrix: (Units=1/GPa)
#
#
# Indices 1 2 3 4 5 6 
#
# 1 0.022506 -0.004980 0.000567 -0.006582 0.028791 -0.005527
# 2 -0.004980 0.010218 -0.004484 0.005426 -0.010419 0.005228
# 3 0.000567 -0.004484 0.012081 -0.004019 0.011921 -0.004600
# 4 -0.006582 0.005426 -0.004019 0.031960 -0.016623 0.012297
# 5 0.028791 -0.010419 0.011921 -0.016623 0.085623 -0.018751
# 6 -0.005527 0.005228 -0.004600 0.012297 -0.018751 0.052154
#
#
# Mechanical properties :
#
#
# Convention : Reuss Voigt Hill
#
# Bulk Modulus (GPa) = 37.02182 64.27623 50.64903
# Shear Modulus (GPa) = 20.71780 33.52737 27.12258
#
# Velocity S-wave (km/s) = 3.07529 3.91213 3.51868
# Velocity P-wave (km/s) = 5.43229 7.05320 6.29513
#
# Compressibility (1/GPa) = 0.02701110
#
# Stress axis : x y z
#
# Youngs Moduli (GPa) = 44.43320 97.86702 82.77648
#
# Poissons Ratio (x) = 0.48736 -0.04697
# Poissons Ratio (y) = 0.22127 0.37119
# Poissons Ratio (z) = -0.02521 0.43886
#
# Static dielectric constant tensor:
#      x y z
#    x 3.820350 -0.203710 -0.316080 
#    y -0.203710 4.501030 0.172980 
#    z -0.316080 0.172980 3.915420 
# 
# 
# High freq. dielectric constant tensor:
#      x y z
#    x 1.848050 -0.010800 -0.026070 
#    y -0.010800 1.890110 -0.001900 
#    z -0.026070 -0.001900 1.844850 
# 
# From -- ./inp_files/49355.got.cif
#   From: 2010.06.25/outbox.cif.g09.slc.cpg/sg2_25_cif.got.tgz:49355.got - 2010.06.27 13:26:56.
