data_PCOD8015902
_publ_section_title
;
Structure prediction by ZEFSAII (Michael W. Deem and Ramdas Pophale) SiO2 
 PCOD8015902
Probable space group: P -1
;
_chemical_formula_sum "Si O2"
_cell_formula_units_Z 16
_cell_length_a 6.558309
_cell_length_b 18.569003
_cell_length_c 8.310982
_cell_angle_alpha 86.777767
_cell_angle_beta 81.588957
_cell_angle_gamma 45.235182
_cell_volume 709.300959
_symmetry_space_group_name_H-M "P -1"
_symmetry_group_IT_number 2
_symmetry_cell_setting 'triclinic'
loop_
_space_group_symop_operation_xyz
x,y,z
-x,-y,-z
loop_
_atom_site_type_symbol
_atom_site_label
_atom_site_fract_x
_atom_site_fract_y
_atom_site_fract_z
Si Si1 0.892818 0.438892 0.666804
Si Si2 0.897541 0.599510 0.697015
Si Si3 0.681328 0.421187 0.131146
Si Si4 0.933107 0.847235 0.408737
Si Si5 0.003719 0.269823 0.863489
Si Si6 0.382452 0.931267 0.633681
Si Si7 0.756113 0.196917 0.306732
Si Si8 0.309064 0.109103 0.076811
O O1 0.005142 0.489821 0.702413
O O2 0.541024 0.532727 0.700788
O O3 0.988926 0.393310 0.482875
O O4 0.025198 0.345406 0.781428
O O5 0.551469 0.695956 0.731702
O O6 0.042904 0.601735 0.833746
O O7 0.500000 0.500000 0.000000
O O8 0.795615 0.320529 0.042403
O O9 0.092339 0.764254 0.256549
O O10 0.619605 0.887511 0.472383
O O11 0.148369 0.786003 0.542540
O O12 0.871663 0.945791 0.356804
O O13 0.300969 0.169096 0.923353
O O14 0.244694 0.886966 0.634080
O O15 0.546917 0.888689 0.788919
O O16 0.996242 0.151346 0.148992
O O17 0.500000 0.000000 0.000000
#
# Coordination Sequence:
#
# PCOD8015902 Si02
#       8
#     2   2   2   2   2   2   2   2
#     4  10  24  43  70  95 134 176 222 275 336 398
#     4  11  23  44  69 103 130 172 229 274 328 407
#     4  10  23  42  68  96 136 175 214 270 339 397
#     4  10  22  41  65  95 135 171 230 278 327 397
#     4  11  22  41  65  98 131 177 217 273 336 390
#     4  10  21  43  67  92 131 181 225 278 330 391
#     4  11  24  41  68  99 132 179 227 279 333 393
#     4  11  23  43  67  94 137 179 222 274 336 401
#
# _framework density 22.55742
#
# number of rings (size 3 to 8) (size 9 to 14) (size 15 to 20)
#    0.000    1.500    1.250    3.000    0.000    9.500 
#    2.250    7.500    0.000    0.000    0.000    0.000 
#    0.000    0.000    0.000    0.000    0.000    0.000 
#
# Total GULP energy -198265.944380 kJ/mol
# GULP energy per Si atom -12391.621524 kJ/mol
# Density = 2.250608 g / cm^3
# Si number density = 22.557420 Si / 1000 Ang^3
#
#
#
# Elastic Constant Matrix: (Units=GPa)
#
#
# Indices 1 2 3 4 5 6 
#
# 1 86.8175 43.1219 49.1218 5.1370 9.1739 -8.5808
# 2 43.1219 143.1368 62.5137 -3.1633 4.1476 6.0382
# 3 49.1218 62.5137 112.2685 13.6187 13.5314 -8.8960
# 4 5.1370 -3.1633 13.6187 47.1283 5.3466 -0.3630
# 5 9.1739 4.1476 13.5314 5.3466 32.2451 -4.3718
# 6 -8.5808 6.0382 -8.8960 -0.3630 -4.3718 39.8734
#
#
#
# Elastic Compliance Matrix: (Units=1/GPa)
#
#
# Indices 1 2 3 4 5 6 
#
# 1 0.016226 -0.002700 -0.005157 -0.000245 -0.001717 0.002560
# 2 -0.002700 0.010203 -0.005131 0.002348 0.000791 -0.003163
# 3 -0.005157 -0.005131 0.015073 -0.003752 -0.003218 0.002643
# 4 -0.000245 0.002348 -0.003752 0.022774 -0.002613 -0.001325
# 5 -0.001717 0.000791 -0.003218 -0.002613 0.033514 0.002444
# 6 0.002560 -0.003163 0.002643 -0.001325 0.002444 0.026955
#
#
# Mechanical properties :
#
#
# Convention : Reuss Voigt Hill
#
# Bulk Modulus (GPa) = 64.40184 72.41529 68.40856
# Shear Modulus (GPa) = 32.07310 36.34708 34.21009
#
# Velocity S-wave (km/s) = 3.77482 4.01847 3.89855
# Velocity P-wave (km/s) = 6.90009 7.32824 7.11739
#
# Compressibility (1/GPa) = 0.01552751
#
# Stress axis : x y z
#
# Youngs Moduli (GPa) = 61.62927 98.01235 66.34516
#
# Poissons Ratio (x) = 0.26462 0.34212
# Poissons Ratio (y) = 0.16639 0.34039
# Poissons Ratio (z) = 0.31780 0.50286
#
# Static dielectric constant tensor:
#      x y z
#    x 3.905870 0.065820 -0.175080 
#    y 0.065820 4.516520 0.424620 
#    z -0.175080 0.424620 4.352190 
# 
# 
# High freq. dielectric constant tensor:
#      x y z
#    x 1.861130 0.007950 0.005940 
#    y 0.007950 1.911500 -0.000430 
#    z 0.005940 -0.000430 1.899380 
# 
# From -- ./inp_files/139037.got.cif
#   From: 2010.06.25/outbox.cif.g09.slc.cpg/sg2_70_cif.got.tgz:139037.got - 2010.06.27 13:26:56.
