data_PCOD8015377
_publ_section_title
;
Structure prediction by ZEFSAII (Michael W. Deem and Ramdas Pophale) SiO2 
 PCOD8015377
Probable space group: P -1
;
_chemical_formula_sum "Si O2"
_cell_formula_units_Z 14
_cell_length_a 14.632668
_cell_length_b 14.334621
_cell_length_c 9.232600
_cell_angle_alpha 41.282384
_cell_angle_beta 152.519895
_cell_angle_gamma 138.916331
_cell_volume 564.952961
_symmetry_space_group_name_H-M "P -1"
_symmetry_group_IT_number 2
_symmetry_cell_setting 'triclinic'
loop_
_space_group_symop_operation_xyz
x,y,z
-x,-y,-z
loop_
_atom_site_type_symbol
_atom_site_label
_atom_site_fract_x
_atom_site_fract_y
_atom_site_fract_z
Si Si1 0.370378 0.666473 0.556795
Si Si2 0.141507 0.338744 0.314607
Si Si3 0.649733 0.878957 0.265163
Si Si4 0.233196 0.342232 0.745328
Si Si5 0.267939 0.665593 0.108597
Si Si6 0.955762 0.049714 0.720306
Si Si7 0.311053 0.960686 0.168036
O O1 0.249532 0.505289 0.641298
O O2 0.411069 0.651287 0.461669
O O3 0.237703 0.781026 0.268744
O O4 0.599704 0.729448 0.868320
O O5 0.193541 0.221709 0.416100
O O6 0.294779 0.355781 0.646797
O O7 0.171858 0.501047 0.094529
O O8 0.915104 0.278805 0.140376
O O9 0.413456 0.779641 0.069589
O O10 0.733153 0.975868 0.416411
O O11 0.631804 0.978507 0.985709
O O12 0.003455 0.229630 0.584597
O O13 0.124993 0.020714 0.884007
O O14 0.000000 0.000000 0.000000
O O15 0.500000 0.000000 0.500000
#
# Coordination Sequence:
#
# PCOD8015377 Si02
#       7
#     2   2   2   2   2   2   2
#     4  10  21  42  68  99 133 190 233 285 357 420
#     4  10  21  44  68 103 142 181 234 294 352 420
#     4  12  25  43  73 104 145 188 236 293 367 415
#     4  10  21  42  68  93 141 186 227 289 360 412
#     4  10  23  40  71 105 137 183 239 289 350 430
#     4  12  26  45  67 105 146 185 235 296 358 421
#     4  12  25  45  70 105 142 184 242 297 351 423
#
# _framework density 24.780822000000001
#
# number of rings (size 3 to 8) (size 9 to 14) (size 15 to 20)
#    0.000    1.143    2.857    2.571    2.000    1.714 
#    0.000    2.143    0.000    0.000    0.000    0.000 
#    0.000    0.000    0.000    0.000    0.000    0.000 
#
# Total GULP energy -173432.801141 kJ/mol
# GULP energy per Si atom -12388.057224 kJ/mol
# Density = 2.472442 g / cm^3
# Si number density = 24.780822 Si / 1000 Ang^3
#
#
#
# Elastic Constant Matrix: (Units=GPa)
#
#
# Indices 1 2 3 4 5 6 
#
# 1 92.6282 48.9308 31.6759 -6.2802 -1.1433 13.8831
# 2 48.9308 161.8893 32.8673 -17.1613 8.3970 12.0415
# 3 31.6759 32.8673 92.2312 5.6448 -12.7164 3.6978
# 4 -6.2802 -17.1613 5.6448 40.9179 -11.1729 0.2327
# 5 -1.1433 8.3970 -12.7164 -11.1729 49.5158 -0.5229
# 6 13.8831 12.0415 3.6978 0.2327 -0.5229 38.2482
#
#
#
# Elastic Compliance Matrix: (Units=1/GPa)
#
#
# Indices 1 2 3 4 5 6 
#
# 1 0.014432 -0.003169 -0.003734 0.001479 0.000204 -0.003886
# 2 -0.003169 0.008013 -0.002076 0.002800 -0.001346 -0.001207
# 3 -0.003734 -0.002076 0.013420 -0.002433 0.003171 0.000770
# 4 0.001479 0.002800 -0.002433 0.027589 0.005146 -0.001281
# 5 0.000204 -0.001346 0.003171 0.005146 0.022407 0.000318
# 6 -0.003886 -0.001207 0.000770 -0.001281 0.000318 0.027873
#
#
# Mechanical properties :
#
#
# Convention : Reuss Voigt Hill
#
# Bulk Modulus (GPa) = 55.84178 63.74408 59.79293
# Shear Modulus (GPa) = 36.32163 41.28803 38.80483
#
# Velocity S-wave (km/s) = 3.83262 4.08625 3.96147
# Velocity P-wave (km/s) = 6.49373 6.93125 6.71605
#
# Compressibility (1/GPa) = 0.01790774
#
# Stress axis : x y z
#
# Youngs Moduli (GPa) = 69.29144 124.80319 74.51775
#
# Poissons Ratio (x) = 0.39547 0.27823
# Poissons Ratio (y) = 0.21956 0.15467
# Poissons Ratio (z) = 0.25872 0.25905
#
# Static dielectric constant tensor:
#      x y z
#    x 4.161330 -0.234860 -0.214850 
#    y -0.234860 5.024310 0.045380 
#    z -0.214850 0.045380 4.959360 
# 
# 
# High freq. dielectric constant tensor:
#      x y z
#    x 1.932730 -0.011320 -0.012020 
#    y -0.011320 2.013700 -0.002680 
#    z -0.012020 -0.002680 2.011620 
# 
# From -- ./inp_files/314542.got.cif
#   From: 2010.06.25/outbox.cif.g09.slc.cpg/sg2_158_cif.got.tgz:314542.got - 2010.06.27 13:26:56.
