data_PCOD8015044
_publ_section_title
;
Structure prediction by ZEFSAII (Michael W. Deem and Ramdas Pophale) SiO2 
 PCOD8015044
Probable space group: P -1
;
_chemical_formula_sum "Si O2"
_cell_formula_units_Z 16
_cell_length_a 11.698583
_cell_length_b 13.770142
_cell_length_c 11.775998
_cell_angle_alpha 61.337798
_cell_angle_beta 94.488449
_cell_angle_gamma 147.239832
_cell_volume 656.493678
_symmetry_space_group_name_H-M "P -1"
_symmetry_group_IT_number 2
_symmetry_cell_setting 'triclinic'
loop_
_space_group_symop_operation_xyz
x,y,z
-x,-y,-z
loop_
_atom_site_type_symbol
_atom_site_label
_atom_site_fract_x
_atom_site_fract_y
_atom_site_fract_z
Si Si1 0.387284 0.006270 0.145830
Si Si2 0.553136 0.473803 0.845718
Si Si3 0.067545 0.342992 0.513662
Si Si4 0.085805 0.382992 0.115298
Si Si5 0.835848 0.897978 0.771894
Si Si6 0.777201 0.163034 0.005783
Si Si7 0.165727 0.707917 0.666863
Si Si8 0.392053 0.300249 0.672183
O O1 0.084366 0.738057 0.341974
O O2 0.338606 0.013495 0.010142
O O3 0.622454 0.287533 0.072603
O O4 0.511706 0.992316 0.142468
O O5 0.848901 0.664337 0.773220
O O6 0.630427 0.666627 0.785988
O O7 0.418654 0.352526 0.778753
O O8 0.340022 0.226514 0.058563
O O9 0.004386 0.365352 0.391886
O O10 0.421238 0.644274 0.380222
O O11 0.968741 0.128516 0.603045
O O12 0.856546 0.258849 0.229146
O O13 0.941015 0.226060 0.070250
O O14 0.058600 0.998424 0.774795
O O15 0.011967 0.453024 0.802361
O O16 0.500000 0.000000 0.500000
O O17 0.500000 0.500000 0.500000
#
# Coordination Sequence:
#
# PCOD8015044 Si02
#       8
#     2   2   2   2   2   2   2   2
#     4  10  21  42  65  89 128 167 212 268 300 375
#     4  11  22  44  69  95 123 169 219 258 314 384
#     4  11  21  41  65  93 135 169 201 264 327 371
#     4  11  21  42  67  91 128 167 213 263 314 373
#     4  10  24  43  68  95 125 167 216 265 308 383
#     4  10  23  41  65  96 123 170 220 259 308 377
#     4  11  22  39  65  95 133 167 205 261 327 376
#     4  10  23  43  62  93 131 164 202 268 322 369
#
# _framework density 24.371901999999999
#
# number of rings (size 3 to 8) (size 9 to 14) (size 15 to 20)
#    0.000    1.500    2.500    3.375    0.000    3.500 
#   13.500    0.000    0.000    0.000    0.000    0.000 
#    0.000    0.000    0.000    0.000    0.000    0.000 
#
# Total GULP energy -198283.853083 kJ/mol
# GULP energy per Si atom -12392.740818 kJ/mol
# Density = 2.431643 g / cm^3
# Si number density = 24.371902 Si / 1000 Ang^3
#
#
#
# Elastic Constant Matrix: (Units=GPa)
#
#
# Indices 1 2 3 4 5 6 
#
# 1 60.5176 -5.2467 21.0043 -2.3185 -13.5257 21.8326
# 2 -5.2467 81.8390 6.7799 16.4417 -9.5186 15.3308
# 3 21.0043 6.7799 70.0233 2.9936 -22.3007 4.9329
# 4 -2.3185 16.4417 2.9936 35.9604 9.9770 -4.3992
# 5 -13.5257 -9.5186 -22.3007 9.9770 47.7112 3.5821
# 6 21.8326 15.3308 4.9329 -4.3992 3.5821 31.0196
#
#
#
# Elastic Compliance Matrix: (Units=1/GPa)
#
#
# Indices 1 2 3 4 5 6 
#
# 1 0.033721 0.012725 -0.003674 -0.011593 0.015271 -0.032846
# 2 0.012725 0.022269 0.000716 -0.016107 0.013549 -0.023925
# 3 -0.003674 0.000716 0.018557 -0.004902 0.008984 -0.002452
# 4 -0.011593 -0.016107 -0.004902 0.043419 -0.019773 0.025341
# 5 0.015271 0.013549 0.008984 -0.019773 0.038286 -0.026099
# 6 -0.032846 -0.023925 -0.002452 0.025341 -0.026099 0.074178
#
#
# Mechanical properties :
#
#
# Convention : Reuss Voigt Hill
#
# Bulk Modulus (GPa) = 10.62914 28.60611 19.61763
# Shear Modulus (GPa) = 20.63917 35.59440 28.11678
#
# Velocity S-wave (km/s) = 2.91321 3.82575 3.40024
# Velocity P-wave (km/s) = 3.96061 5.59267 4.84585
#
# Compressibility (1/GPa) = 0.09408099
#
# Stress axis : x y z
#
# Youngs Moduli (GPa) = 29.65486 44.90491 53.88750
#
# Poissons Ratio (x) = -0.57140 0.19798
# Poissons Ratio (y) = -0.37735 -0.03859
# Poissons Ratio (z) = 0.10895 -0.03215
#
# Static dielectric constant tensor:
#      x y z
#    x 4.868220 0.720290 -0.414460 
#    y 0.720290 4.944360 -0.184750 
#    z -0.414460 -0.184750 4.460680 
# 
# 
# High freq. dielectric constant tensor:
#      x y z
#    x 1.966930 0.013450 -0.006990 
#    y 0.013450 1.966790 0.001950 
#    z -0.006990 0.001950 1.967790 
# 
# From -- ./inp_files/433845.got.cif
#   From: 2010.06.25/outbox.cif.g09.slc.cpg/sg2_217_cif.got.tgz:433845.got - 2010.06.27 13:26:56.
