data_PCOD8015931
_publ_section_title
;
Structure prediction by ZEFSAII (Michael W. Deem and Ramdas Pophale) SiO2 
 PCOD8015931
Probable space group: P -1
;
_chemical_formula_sum "Si O2"
_cell_formula_units_Z 16
_cell_length_a 9.259716
_cell_length_b 20.281359
_cell_length_c 9.088104
_cell_angle_alpha 114.725444
_cell_angle_beta 46.365752
_cell_angle_gamma 141.411004
_cell_volume 742.233746
_symmetry_space_group_name_H-M "P -1"
_symmetry_group_IT_number 2
_symmetry_cell_setting 'triclinic'
loop_
_space_group_symop_operation_xyz
x,y,z
-x,-y,-z
loop_
_atom_site_type_symbol
_atom_site_label
_atom_site_fract_x
_atom_site_fract_y
_atom_site_fract_z
Si Si1 0.792179 0.677703 0.802431
Si Si2 0.688421 0.898069 0.465026
Si Si3 0.620073 0.109735 0.564454
Si Si4 0.207109 0.948547 0.243252
Si Si5 0.835709 0.211912 0.795336
Si Si6 0.107564 0.518649 0.108238
Si Si7 0.141324 0.705053 0.840112
Si Si8 0.798254 0.576267 0.454282
O O1 0.744884 0.587601 0.668926
O O2 0.032996 0.791174 0.647256
O O3 0.907311 0.692401 0.901470
O O4 0.466261 0.628389 0.982662
O O5 0.576427 0.880270 0.362423
O O6 0.449489 0.779905 0.603223
O O7 0.010088 0.946634 0.275369
O O8 0.703505 0.980826 0.610391
O O9 0.573855 0.110692 0.773527
O O10 0.500000 0.000000 0.500000
O O11 0.004784 0.822021 0.309532
O O12 0.500000 0.000000 0.000000
O O13 0.997301 0.312435 0.672799
O O14 0.749164 0.227274 0.021990
O O15 0.011301 0.413649 0.134838
O O16 0.936797 0.534168 0.334303
O O17 0.000000 0.500000 0.000000
O O18 0.500000 0.500000 0.500000
#
# Coordination Sequence:
#
# PCOD8015931 Si02
#       8
#     2   2   2   2   2   2   2   2
#     4  10  24  44  65  96 138 167 221 276 322 393
#     4  10  23  42  65  95 125 173 219 264 327 384
#     4  10  21  43  67  96 133 174 219 277 323 387
#     4  11  22  41  66  92 131 169 218 269 319 387
#     4  11  22  40  68  91 132 173 215 269 333 375
#     4  12  23  42  70  98 132 174 217 270 334 386
#     4  11  23  43  66  97 135 170 221 272 326 393
#     4  11  23  42  66  96 129 171 220 266 325 391
#
# _framework density 21.556553000000001
#
# number of rings (size 3 to 8) (size 9 to 14) (size 15 to 20)
#    0.000    1.250    5.000    0.375    1.750    0.500 
#    9.000    0.625    0.000    0.000    0.000    0.000 
#    0.000    0.000    0.000    0.000    0.000    0.000 
#
# Total GULP energy -198213.357684 kJ/mol
# GULP energy per Si atom -12388.334855 kJ/mol
# Density = 2.150749 g / cm^3
# Si number density = 21.556553 Si / 1000 Ang^3
#
#
#
# Elastic Constant Matrix: (Units=GPa)
#
#
# Indices 1 2 3 4 5 6 
#
# 1 125.1551 39.9307 64.9406 4.6982 -1.7368 16.1353
# 2 39.9307 97.7228 28.0675 11.0080 -5.0783 2.7638
# 3 64.9406 28.0675 95.9630 15.5144 -9.0182 14.5279
# 4 4.6982 11.0080 15.5144 27.4848 6.5737 -0.2172
# 5 -1.7368 -5.0783 -9.0182 6.5737 42.9785 -0.8433
# 6 16.1353 2.7638 14.5279 -0.2172 -0.8433 42.6958
#
#
#
# Elastic Compliance Matrix: (Units=1/GPa)
#
#
# Indices 1 2 3 4 5 6 
#
# 1 0.013900 -0.003701 -0.009043 0.004804 -0.002546 -0.001962
# 2 -0.003701 0.012439 -0.000305 -0.004646 0.001981 0.000712
# 3 -0.009043 -0.000305 0.019276 -0.010478 0.005186 -0.003073
# 4 0.004804 -0.004646 -0.010478 0.045624 -0.009491 0.002095
# 5 -0.002546 0.001981 0.005186 -0.009491 0.025929 -0.000466
# 6 -0.001962 0.000712 -0.003073 0.002095 -0.000466 0.025164
#
#
# Mechanical properties :
#
#
# Convention : Reuss Voigt Hill
#
# Bulk Modulus (GPa) = 51.23396 64.96871 58.10134
# Shear Modulus (GPa) = 28.58203 35.02531 31.80367
#
# Velocity S-wave (km/s) = 3.64525 4.03527 3.84521
# Velocity P-wave (km/s) = 6.44484 7.20523 6.83562
#
# Compressibility (1/GPa) = 0.01951830
#
# Stress axis : x y z
#
# Youngs Moduli (GPa) = 71.93989 80.39463 51.87781
#
# Poissons Ratio (x) = 0.29750 0.46915
# Poissons Ratio (y) = 0.26621 0.01580
# Poissons Ratio (z) = 0.65058 0.02448
#
# Static dielectric constant tensor:
#      x y z
#    x 4.210070 0.019500 0.222390 
#    y 0.019500 4.200950 0.267070 
#    z 0.222390 0.267070 3.917590 
# 
# 
# High freq. dielectric constant tensor:
#      x y z
#    x 1.857590 -0.001330 0.013630 
#    y -0.001330 1.861500 0.010950 
#    z 0.013630 0.010950 1.823290 
# 
# From -- ./inp_files/222292.got.cif
#   From: 2010.06.25/outbox.cif.g09.slc.cpg/sg2_112_cif.got.tgz:222292.got - 2010.06.27 13:26:56.
