data_PCOD8015086
_publ_section_title
;
Structure prediction by ZEFSAII (Michael W. Deem and Ramdas Pophale) SiO2 
 PCOD8015086
Probable space group: P -1
;
_chemical_formula_sum "Si O2"
_cell_formula_units_Z 14
_cell_length_a 13.876633
_cell_length_b 6.657015
_cell_length_c 13.003880
_cell_angle_alpha 70.015171
_cell_angle_beta 32.786667
_cell_angle_gamma 78.227640
_cell_volume 603.080590
_symmetry_space_group_name_H-M "P -1"
_symmetry_group_IT_number 2
_symmetry_cell_setting 'triclinic'
loop_
_space_group_symop_operation_xyz
x,y,z
-x,-y,-z
loop_
_atom_site_type_symbol
_atom_site_label
_atom_site_fract_x
_atom_site_fract_y
_atom_site_fract_z
Si Si1 0.452881 0.631451 0.307592
Si Si2 0.956946 0.211701 0.125809
Si Si3 0.695811 0.520540 0.265309
Si Si4 0.850842 0.746212 0.373708
Si Si5 0.414005 0.315637 0.034098
Si Si6 0.952873 0.633557 0.750447
Si Si7 0.261665 0.987617 0.389444
O O1 0.648964 0.599285 0.178653
O O2 0.316584 0.413214 0.499926
O O3 0.381717 0.846603 0.377975
O O4 0.442630 0.684444 0.186121
O O5 0.775507 0.295571 0.232763
O O6 0.014138 0.311547 0.168634
O O7 0.917258 0.952548 0.205384
O O8 0.134303 0.298346 0.879596
O O9 0.500000 0.500000 0.500000
O O10 0.793726 0.823035 0.523357
O O11 0.011290 0.608013 0.265782
O O12 0.242373 0.368629 0.118565
O O13 0.370848 0.091262 0.173830
O O14 0.500000 0.500000 0.000000
O O15 0.088215 0.819424 0.535202
#
# Coordination Sequence:
#
# PCOD8015086 Si02
#       7
#     2   2   2   2   2   2   2
#     4  11  23  43  65  94 136 165 215 275 318 387
#     4  10  23  44  67  97 132 169 220 269 328 394
#     4  11  22  43  72  96 128 175 217 268 334 388
#     4  10  21  42  65  96 130 168 216 265 323 390
#     4  12  23  41  63  98 129 171 217 263 322 385
#     4  10  22  43  65  89 134 170 212 269 317 387
#     4  10  22  41  64  92 130 175 215 258 325 384
#
# _framework density 23.214146
#
# number of rings (size 3 to 8) (size 9 to 14) (size 15 to 20)
#    0.000    1.429    2.857    3.429    0.000    2.286 
#    7.714    7.857    0.000    0.000    0.000    0.000 
#    0.000    0.000    0.000    0.000    0.000    0.000 
#
# Total GULP energy -173433.453750 kJ/mol
# GULP energy per Si atom -12388.103839 kJ/mol
# Density = 2.316131 g / cm^3
# Si number density = 23.214146 Si / 1000 Ang^3
#
#
#
# Elastic Constant Matrix: (Units=GPa)
#
#
# Indices 1 2 3 4 5 6 
#
# 1 81.5004 32.9124 10.2314 13.5692 -24.4389 -14.7194
# 2 32.9124 163.6223 38.5463 -7.4523 -10.3877 -15.6472
# 3 10.2314 38.5463 115.7452 -16.8842 -11.1809 -13.3459
# 4 13.5692 -7.4523 -16.8842 23.7141 -12.0982 2.7009
# 5 -24.4389 -10.3877 -11.1809 -12.0982 32.2870 2.3036
# 6 -14.7194 -15.6472 -13.3459 2.7009 2.3036 25.2023
#
#
#
# Elastic Compliance Matrix: (Units=1/GPa)
#
#
# Indices 1 2 3 4 5 6 
#
# 1 0.019480 -0.002730 0.000179 -0.007693 0.010357 0.009655
# 2 -0.002730 0.007371 -0.001490 0.003017 0.000791 0.001798
# 3 0.000179 -0.001490 0.011982 0.011581 0.007891 0.003562
# 4 -0.007693 0.003017 0.011581 0.069582 0.025680 -0.006292
# 5 0.010357 0.000791 0.007891 0.025680 0.051187 0.003288
# 6 0.009655 0.001798 0.003562 -0.006292 0.003288 0.048694
#
#
# Mechanical properties :
#
#
# Convention : Reuss Voigt Hill
#
# Bulk Modulus (GPa) = 32.51849 58.24980 45.38414
# Shear Modulus (GPa) = 22.06248 34.85254 28.45751
#
# Velocity S-wave (km/s) = 3.08618 3.87893 3.50504
# Velocity P-wave (km/s) = 5.17086 6.72371 5.99775
#
# Compressibility (1/GPa) = 0.03075174
#
# Stress axis : x y z
#
# Youngs Moduli (GPa) = 51.33421 135.66153 83.45659
#
# Poissons Ratio (x) = 0.37037 -0.01492
# Poissons Ratio (y) = 0.14015 0.12432
# Poissons Ratio (z) = -0.00918 0.20209
#
# Static dielectric constant tensor:
#      x y z
#    x 4.357970 -0.345090 0.035820 
#    y -0.345090 4.176630 -0.135190 
#    z 0.035820 -0.135190 4.779600 
# 
# 
# High freq. dielectric constant tensor:
#      x y z
#    x 1.901370 -0.019540 0.006760 
#    y -0.019540 1.916370 -0.007570 
#    z 0.006760 -0.007570 1.944840 
# 
# From -- ./inp_files/91123.got.cif
#   From: 2010.06.25/outbox.cif.g09.slc.cpg/sg2_46_cif.got.tgz:91123.got - 2010.06.27 13:26:56.
