data_PCOD8015278
_publ_section_title
;
Structure prediction by ZEFSAII (Michael W. Deem and Ramdas Pophale) SiO2 
 PCOD8015278
Probable space group: P -1
;
_chemical_formula_sum "Si O2"
_cell_formula_units_Z 12
_cell_length_a 17.097543
_cell_length_b 7.628632
_cell_length_c 9.126857
_cell_angle_alpha 130.662437
_cell_angle_beta 137.416984
_cell_angle_gamma 66.380016
_cell_volume 603.728884
_symmetry_space_group_name_H-M "P -1"
_symmetry_group_IT_number 2
_symmetry_cell_setting 'triclinic'
loop_
_space_group_symop_operation_xyz
x,y,z
-x,-y,-z
loop_
_atom_site_type_symbol
_atom_site_label
_atom_site_fract_x
_atom_site_fract_y
_atom_site_fract_z
Si Si1 0.473420 0.384359 0.055871
Si Si2 0.877162 0.803744 0.813280
Si Si3 0.255193 0.052656 0.575984
Si Si4 0.939555 0.313205 0.200260
Si Si5 0.289493 0.555414 0.416482
Si Si6 0.279226 0.456265 0.025620
O O1 0.592614 0.358595 0.286580
O O2 0.500000 0.500000 0.000000
O O3 0.395983 0.127735 0.785890
O O4 0.395286 0.538516 0.130957
O O5 0.810167 0.878304 0.619677
O O6 0.794375 0.635866 0.712713
O O7 0.982420 0.669891 0.831409
O O8 0.928814 0.045530 0.100544
O O9 0.216898 0.201569 0.742785
O O10 0.225241 0.779614 0.422424
O O11 0.809143 0.357645 0.008728
O O12 0.000000 0.500000 0.500000
O O13 0.317181 0.439452 0.237589
#
# Coordination Sequence:
#
# PCOD8015278 Si02
#       6
#     2   2   2   2   2   2
#     4  10  21  42  67  93 132 172 205 257 322 374
#     4  11  24  41  70  92 126 174 206 266 324 366
#     4  10  22  42  63  96 131 164 208 263 313 376
#     4  11  22  45  67  90 130 167 217 264 314 381
#     4  12  22  43  64  98 131 163 215 261 315 378
#     4  10  23  39  65  95 127 168 214 260 312 376
#
# _framework density 19.876470999999999
#
# number of rings (size 3 to 8) (size 9 to 14) (size 15 to 20)
#    1.000    0.333    5.000    1.000    0.000    2.000 
#    0.000    3.333    0.000    0.000    0.000    0.000 
#    0.000    0.000    0.000    0.000    0.000    0.000 
#
# Total GULP energy -148708.527924 kJ/mol
# GULP energy per Si atom -12392.377327 kJ/mol
# Density = 1.983123 g / cm^3
# Si number density = 19.876471 Si / 1000 Ang^3
#
#
#
# Elastic Constant Matrix: (Units=GPa)
#
#
# Indices 1 2 3 4 5 6 
#
# 1 122.1120 56.4717 24.7214 0.0386 0.4779 -0.9541
# 2 56.4717 100.2600 35.0038 3.0414 -10.7167 12.7769
# 3 24.7214 35.0038 73.6204 19.4262 -14.7433 11.9223
# 4 0.0386 3.0414 19.4262 27.2927 0.4527 -8.0283
# 5 0.4779 -10.7167 -14.7433 0.4527 39.0856 4.3475
# 6 -0.9541 12.7769 11.9223 -8.0283 4.3475 20.9386
#
#
#
# Elastic Compliance Matrix: (Units=1/GPa)
#
#
# Indices 1 2 3 4 5 6 
#
# 1 0.013603 -0.008097 -0.007525 0.010916 -0.007076 0.015500
# 2 -0.008097 0.017352 -0.000314 -0.006050 0.006413 -0.014430
# 3 -0.007525 -0.000314 0.036093 -0.037376 0.018374 -0.038848
# 4 0.010916 -0.006050 -0.037376 0.082549 -0.023749 0.062053
# 5 -0.007076 0.006413 0.018374 -0.023749 0.038165 -0.031728
# 6 0.015500 -0.014430 -0.038848 0.062053 -0.031728 0.109770
#
#
# Mechanical properties :
#
#
# Convention : Reuss Voigt Hill
#
# Bulk Modulus (GPa) = 28.42935 58.70959 43.56947
# Shear Modulus (GPa) = 14.65722 29.44975 22.05349
#
# Velocity S-wave (km/s) = 2.71849 3.85338 3.33457
# Velocity P-wave (km/s) = 4.91809 7.02847 6.06577
#
# Compressibility (1/GPa) = 0.03517492
#
# Stress axis : x y z
#
# Youngs Moduli (GPa) = 73.51520 57.62907 27.70648
#
# Poissons Ratio (x) = 0.46663 0.20850
# Poissons Ratio (y) = 0.59526 0.00870
# Poissons Ratio (z) = 0.55323 0.01809
#
# Static dielectric constant tensor:
#      x y z
#    x 3.663760 -0.087270 -0.030640 
#    y -0.087270 3.420370 -0.046720 
#    z -0.030640 -0.046720 3.885140 
# 
# 
# High freq. dielectric constant tensor:
#      x y z
#    x 1.772550 -0.009740 -0.000420 
#    y -0.009740 1.755640 -0.007080 
#    z -0.000420 -0.007080 1.793100 
# 
# From -- ./inp_files/86561.got.cif
#   From: 2010.06.25/outbox.cif.g09.slc.cpg/sg2_44_cif.got.tgz:86561.got - 2010.06.27 13:26:56.
