data_PCOD8015381
_publ_section_title
;
Structure prediction by ZEFSAII (Michael W. Deem and Ramdas Pophale) SiO2 
 PCOD8015381
Probable space group: P -1
;
_chemical_formula_sum "Si O2"
_cell_formula_units_Z 16
_cell_length_a 9.449524
_cell_length_b 24.991555
_cell_length_c 9.213091
_cell_angle_alpha 42.636221
_cell_angle_beta 58.734922
_cell_angle_gamma 31.041376
_cell_volume 720.305595
_symmetry_space_group_name_H-M "P -1"
_symmetry_group_IT_number 2
_symmetry_cell_setting 'triclinic'
loop_
_space_group_symop_operation_xyz
x,y,z
-x,-y,-z
loop_
_atom_site_type_symbol
_atom_site_label
_atom_site_fract_x
_atom_site_fract_y
_atom_site_fract_z
Si Si1 0.657007 0.544748 0.054169
Si Si2 0.204146 0.675239 0.502505
Si Si3 0.319997 0.921342 0.110461
Si Si4 0.763693 0.334507 0.172668
Si Si5 0.620716 0.922460 0.743823
Si Si6 0.278482 0.321409 0.091736
Si Si7 0.420073 0.136448 0.607625
Si Si8 0.331694 0.793274 0.137864
O O1 0.606341 0.479783 0.292155
O O2 0.949295 0.419809 0.050459
O O3 0.386514 0.672258 0.839229
O O4 0.711070 0.590348 0.051800
O O5 0.146904 0.729722 0.588006
O O6 0.376513 0.680627 0.326645
O O7 0.895339 0.780942 0.380797
O O8 0.503385 0.869355 0.258404
O O9 0.372516 0.811077 0.244549
O O10 0.403146 0.944866 0.884639
O O11 0.984414 0.063510 0.042221
O O12 0.063039 0.241740 0.118459
O O13 0.500000 0.500000 0.000000
O O14 0.500000 0.000000 0.500000
O O15 0.644965 0.986895 0.714572
O O16 0.427127 0.212742 0.355867
O O17 0.439365 0.249272 0.998157
#
# Coordination Sequence:
#
# PCOD8015381 Si02
#       8
#     2   2   2   2   2   2   2   2
#     4   9  22  43  67  96 132 177 228 274 332 405
#     4  10  21  42  68  94 135 172 223 280 328 399
#     4  11  26  40  63 101 142 169 218 284 341 394
#     4  10  22  39  68 100 130 172 227 272 326 405
#     4  12  22  42  73 100 131 181 223 275 339 400
#     4  10  23  43  68  95 135 177 221 282 336 395
#     4  11  23  42  68  98 135 172 225 275 337 395
#     4  11  24  42  64  97 137 174 223 278 339 394
#
# _framework density 22.212793999999999
#
# number of rings (size 3 to 8) (size 9 to 14) (size 15 to 20)
#    0.000    1.500    2.500    1.125    7.000    2.000 
#    0.000    6.875    0.000    0.000    0.000    0.000 
#    0.000    0.000    0.000    0.000    0.000    0.000 
#
# Total GULP energy -198285.507989 kJ/mol
# GULP energy per Si atom -12392.844249 kJ/mol
# Density = 2.216224 g / cm^3
# Si number density = 22.212794 Si / 1000 Ang^3
#
#
#
# Elastic Constant Matrix: (Units=GPa)
#
#
# Indices 1 2 3 4 5 6 
#
# 1 111.7079 17.2424 46.6926 -5.1361 12.7183 2.4114
# 2 17.2424 94.0721 20.8365 -2.8435 1.0351 -8.7551
# 3 46.6926 20.8365 77.0814 8.8433 -6.5916 1.3753
# 4 -5.1361 -2.8435 8.8433 28.9267 -0.1209 -3.3235
# 5 12.7183 1.0351 -6.5916 -0.1209 48.9356 -6.6615
# 6 2.4114 -8.7551 1.3753 -3.3235 -6.6615 31.7822
#
#
#
# Elastic Compliance Matrix: (Units=1/GPa)
#
#
# Indices 1 2 3 4 5 6 
#
# 1 0.013650 -0.000389 -0.009138 0.005014 -0.004929 -0.001256
# 2 -0.000389 0.011861 -0.003336 0.002540 -0.000091 0.003688
# 3 -0.009138 -0.003336 0.020828 -0.008404 0.005103 -0.000936
# 4 0.005014 0.002540 -0.008404 0.038773 -0.001800 0.004360
# 5 -0.004929 -0.000091 0.005103 -0.001800 0.023050 0.004771
# 6 -0.001256 0.003688 -0.000936 0.004360 0.004771 0.034072
#
#
# Mechanical properties :
#
#
# Convention : Reuss Voigt Hill
#
# Bulk Modulus (GPa) = 48.51089 50.26717 49.38903
# Shear Modulus (GPa) = 28.59905 35.13487 31.86696
#
# Velocity S-wave (km/s) = 3.59207 3.98142 3.79175
# Velocity P-wave (km/s) = 6.25224 6.61926 6.43837
#
# Compressibility (1/GPa) = 0.02061393
#
# Stress axis : x y z
#
# Youngs Moduli (GPa) = 73.25801 84.30798 48.01325
#
# Poissons Ratio (x) = 0.03280 0.43874
# Poissons Ratio (y) = 0.02850 0.16015
# Poissons Ratio (z) = 0.66943 0.28122
#
# Static dielectric constant tensor:
#      x y z
#    x 4.376310 -0.006570 -0.012230 
#    y -0.006570 4.014170 -0.073420 
#    z -0.012230 -0.073420 3.797290 
# 
# 
# High freq. dielectric constant tensor:
#      x y z
#    x 1.893320 0.005150 -0.004660 
#    y 0.005150 1.867300 -0.001100 
#    z -0.004660 -0.001100 1.853250 
# 
# From -- ./inp_files/226099.got.cif
#   From: 2010.06.25/outbox.cif.g09.slc.cpg/sg2_114_cif.got.tgz:226099.got - 2010.06.27 13:26:56.
