data_PCOD8015762
_publ_section_title
;
Structure prediction by ZEFSAII (Michael W. Deem and Ramdas Pophale) SiO2 
 PCOD8015762
Probable space group: P -1
;
_chemical_formula_sum "Si O2"
_cell_formula_units_Z 14
_cell_length_a 13.668839
_cell_length_b 10.703901
_cell_length_c 18.372086
_cell_angle_alpha 145.181724
_cell_angle_beta 21.557850
_cell_angle_gamma 134.531209
_cell_volume 538.556739
_symmetry_space_group_name_H-M "P -1"
_symmetry_group_IT_number 2
_symmetry_cell_setting 'triclinic'
loop_
_space_group_symop_operation_xyz
x,y,z
-x,-y,-z
loop_
_atom_site_type_symbol
_atom_site_label
_atom_site_fract_x
_atom_site_fract_y
_atom_site_fract_z
Si Si1 0.184689 0.418541 0.250919
Si Si2 0.840978 0.821744 0.499847
Si Si3 0.622039 0.742993 0.767749
Si Si4 0.302903 0.519162 0.796390
Si Si5 0.663389 0.025294 0.325027
Si Si6 0.255748 0.945558 0.937779
Si Si7 0.313407 0.414132 0.988356
O O1 0.420303 0.495470 0.166900
O O2 0.884045 0.598414 0.566609
O O3 0.238953 0.414578 0.124885
O O4 0.191333 0.157878 0.142139
O O5 0.717889 0.741231 0.618092
O O6 0.575904 0.926793 0.678544
O O7 0.000000 0.000000 0.500000
O O8 0.061323 0.595464 0.205934
O O9 0.387215 0.609301 0.859513
O O10 0.500000 0.000000 0.000000
O O11 0.523944 0.275321 0.506987
O O12 0.283435 0.699576 0.832819
O O13 0.000000 0.500000 0.000000
O O14 0.500000 0.000000 0.500000
O O15 0.626368 0.839568 0.204987
O O16 0.994255 0.000770 0.090126
#
# Coordination Sequence:
#
# PCOD8015762 Si02
#       7
#     2   2   2   2   2   2   2
#     4  10  21  46  70 100 138 179 240 291 350 413
#     4  10  21  43  65 100 139 174 236 289 343 416
#     4  10  23  40  69 100 133 180 238 291 345 412
#     4  11  24  45  63  99 145 179 231 285 347 427
#     4  12  26  47  69 101 144 185 235 289 359 424
#     4  11  23  45  70  99 140 185 232 290 349 421
#     4  10  24  43  71 100 137 188 231 291 351 419
#
# _framework density 25.995404000000001
#
# number of rings (size 3 to 8) (size 9 to 14) (size 15 to 20)
#    0.000    1.429    4.286    0.000    2.000    2.286 
#    2.571    3.571    0.000    0.000    0.000    0.000 
#    0.000    0.000    0.000    0.000    0.000    0.000 
#
# Total GULP energy -173459.356333 kJ/mol
# GULP energy per Si atom -12389.954024 kJ/mol
# Density = 2.593624 g / cm^3
# Si number density = 25.995404 Si / 1000 Ang^3
#
#
#
# Elastic Constant Matrix: (Units=GPa)
#
#
# Indices 1 2 3 4 5 6 
#
# 1 59.9698 36.9857 70.3692 -0.3558 -27.0006 35.9975
# 2 36.9857 162.5834 88.7390 22.5336 -21.2380 47.6996
# 3 70.3692 88.7390 221.6149 30.6011 -46.2928 37.2148
# 4 -0.3558 22.5336 30.6011 68.8271 9.2867 -4.5830
# 5 -27.0006 -21.2380 -46.2928 9.2867 52.1675 -4.8456
# 6 35.9975 47.6996 37.2148 -4.5830 -4.8456 54.2645
#
#
#
# Elastic Compliance Matrix: (Units=1/GPa)
#
#
# Indices 1 2 3 4 5 6 
#
# 1 0.049791 0.004719 -0.008852 -0.001674 0.017376 -0.029697
# 2 0.004719 0.010662 -0.002639 -0.003552 0.004086 -0.010628
# 3 -0.008852 -0.002639 0.009291 -0.003651 0.003407 0.001816
# 4 -0.001674 -0.003552 -0.003651 0.018921 -0.008215 0.007601
# 5 0.017376 0.004086 0.003407 -0.008215 0.032899 -0.015212
# 6 -0.029697 -0.010628 0.001816 0.007601 -0.015212 0.045509
#
#
# Mechanical properties :
#
#
# Convention : Reuss Voigt Hill
#
# Bulk Modulus (GPa) = 17.79354 92.92843 55.36098
# Shear Modulus (GPa) = 25.08156 51.59010 38.33583
#
# Velocity S-wave (km/s) = 3.10957 4.45970 3.84437
# Velocity P-wave (km/s) = 4.44435 7.89583 6.40689
#
# Compressibility (1/GPa) = 0.05620018
#
# Stress axis : x y z
#
# Youngs Moduli (GPa) = 20.08382 93.79540 107.63407
#
# Poissons Ratio (x) = -0.44264 0.95279
# Poissons Ratio (y) = -0.09478 0.28403
# Poissons Ratio (z) = 0.17778 0.24751
#
# Static dielectric constant tensor:
#      x y z
#    x 4.709580 0.456780 -0.819090 
#    y 0.456780 5.909860 -0.704570 
#    z -0.819090 -0.704570 6.162190 
# 
# 
# High freq. dielectric constant tensor:
#      x y z
#    x 2.020980 0.015060 -0.028520 
#    y 0.015060 2.062890 0.006470 
#    z -0.028520 0.006470 2.060780 
# 
# From -- ./inp_files/598011.got.cif
#   From: 2010.06.25/outbox.cif.g09.slc.cpg/sg2_300_cif.got.tgz:598011.got - 2010.06.27 13:26:56.
