data_PCOD8015101
_publ_section_title
;
Structure prediction by ZEFSAII (Michael W. Deem and Ramdas Pophale) SiO2 
 PCOD8015101
Probable space group: P -1
;
_chemical_formula_sum "Si O2"
_cell_formula_units_Z 16
_cell_length_a 8.309747
_cell_length_b 27.532281
_cell_length_c 22.305305
_cell_angle_alpha 161.643607
_cell_angle_beta 141.912413
_cell_angle_gamma 28.656340
_cell_volume 734.420252
_symmetry_space_group_name_H-M "P -1"
_symmetry_group_IT_number 2
_symmetry_cell_setting 'triclinic'
loop_
_space_group_symop_operation_xyz
x,y,z
-x,-y,-z
loop_
_atom_site_type_symbol
_atom_site_label
_atom_site_fract_x
_atom_site_fract_y
_atom_site_fract_z
Si Si1 0.476391 0.497428 0.708255
Si Si2 0.455201 0.859516 0.120006
Si Si3 0.193841 0.374590 0.652582
Si Si4 0.674176 0.812053 0.877299
Si Si5 0.727474 0.284218 0.410566
Si Si6 0.858193 0.133623 0.480673
Si Si7 0.766617 0.842483 0.072693
Si Si8 0.302033 0.984702 0.544149
O O1 0.487582 0.403886 0.539070
O O2 0.774288 0.306971 0.614981
O O3 0.092788 0.633238 0.783768
O O4 0.576234 0.635651 0.890137
O O5 0.484485 0.923549 0.137430
O O6 0.701657 0.849105 0.228284
O O7 0.050263 0.038671 0.231616
O O8 0.518597 0.231866 0.536118
O O9 0.873790 0.391742 0.555917
O O10 0.323164 0.250849 0.609808
O O11 0.081794 0.595132 0.884233
O O12 0.519327 0.701554 0.693744
O O13 0.582562 0.899528 0.020667
O O14 0.500000 0.000000 0.000000
O O15 0.207003 0.043897 0.515535
O O16 0.938340 0.944007 0.246092
O O17 0.000000 0.000000 0.500000
#
# Coordination Sequence:
#
# PCOD8015101 Si02
#       8
#     2   2   2   2   2   2   2   2
#     4  12  25  44  67  94 141 174 213 274 336 379
#     4  11  23  44  68 100 133 170 221 274 319 394
#     4  10  21  42  65  99 127 173 221 271 318 385
#     4  12  26  44  66  99 131 176 219 270 335 390
#     4  11  23  44  66  92 137 172 220 276 321 386
#     4  11  23  43  67  98 136 174 217 271 328 390
#     4  12  23  43  70  95 132 175 223 267 323 391
#     4   9  19  42  68  97 135 168 222 268 317 395
#
# _framework density 21.785893000000002
#
# number of rings (size 3 to 8) (size 9 to 14) (size 15 to 20)
#    0.000    1.000    7.500    1.125    0.000    2.000 
#    0.000    2.500    0.000    0.000    0.000    0.000 
#    0.000    0.000    0.000    0.000    0.000    0.000 
#
# Total GULP energy -198362.656022 kJ/mol
# GULP energy per Si atom -12397.666001 kJ/mol
# Density = 2.173631 g / cm^3
# Si number density = 21.785893 Si / 1000 Ang^3
#
#
#
# Elastic Constant Matrix: (Units=GPa)
#
#
# Indices 1 2 3 4 5 6 
#
# 1 59.3397 30.7315 31.9354 -14.8306 4.1291 11.7741
# 2 30.7315 114.6504 65.7462 -24.5139 10.4177 24.5091
# 3 31.9354 65.7462 148.1741 -8.4271 6.0630 18.7031
# 4 -14.8306 -24.5139 -8.4271 47.6147 7.2636 3.0890
# 5 4.1291 10.4177 6.0630 7.2636 28.0263 2.8351
# 6 11.7741 24.5091 18.7031 3.0890 2.8351 29.7537
#
#
#
# Elastic Compliance Matrix: (Units=1/GPa)
#
#
# Indices 1 2 3 4 5 6 
#
# 1 0.022212 -0.001170 -0.002950 0.006709 -0.003295 -0.006354
# 2 -0.001170 0.016620 -0.005051 0.008914 -0.006172 -0.010390
# 3 -0.002950 -0.005051 0.009554 -0.001914 0.000798 -0.000555
# 4 0.006709 0.008914 -0.001914 0.029645 -0.010471 -0.010874
# 5 -0.003295 -0.006172 0.000798 -0.010471 0.040688 0.003097
# 6 -0.006354 -0.010390 -0.000555 -0.010874 0.003097 0.045865
#
#
# Mechanical properties :
#
#
# Convention : Reuss Voigt Hill
#
# Bulk Modulus (GPa) = 33.28376 64.33228 48.80802
# Shear Modulus (GPa) = 25.91443 33.99569 29.95506
#
# Velocity S-wave (km/s) = 3.45266 3.95453 3.71209
# Velocity P-wave (km/s) = 5.58617 7.10243 6.38944
#
# Compressibility (1/GPa) = 0.03004468
#
# Stress axis : x y z
#
# Youngs Moduli (GPa) = 45.01972 60.16737 104.66296
#
# Poissons Ratio (x) = 0.07040 0.30872
# Poissons Ratio (y) = 0.05268 0.52870
# Poissons Ratio (z) = 0.13279 0.30393
#
# Static dielectric constant tensor:
#      x y z
#    x 3.853320 0.218260 0.028550 
#    y 0.218260 4.651580 -0.110150 
#    z 0.028550 -0.110150 4.153270 
# 
# 
# High freq. dielectric constant tensor:
#      x y z
#    x 1.847890 0.001850 0.004910 
#    y 0.001850 1.845320 -0.004220 
#    z 0.004910 -0.004220 1.870670 
# 
# From -- ./inp_files/592128.got.cif
#   From: 2010.06.25/outbox.cif.g09.slc.cpg/sg2_297_cif.got.tgz:592128.got - 2010.06.27 13:26:56.
