data_PCOD8015544
_publ_section_title
;
Structure prediction by ZEFSAII (Michael W. Deem and Ramdas Pophale) SiO2 
 PCOD8015544
Probable space group: P -1
;
_chemical_formula_sum "Si O2"
_cell_formula_units_Z 16
_cell_length_a 25.970230
_cell_length_b 5.091535
_cell_length_c 6.744511
_cell_angle_alpha 105.072353
_cell_angle_beta 127.162875
_cell_angle_gamma 86.689022
_cell_volume 680.516030
_symmetry_space_group_name_H-M "P -1"
_symmetry_group_IT_number 2
_symmetry_cell_setting 'triclinic'
loop_
_space_group_symop_operation_xyz
x,y,z
-x,-y,-z
loop_
_atom_site_type_symbol
_atom_site_label
_atom_site_fract_x
_atom_site_fract_y
_atom_site_fract_z
Si Si1 0.736688 0.025051 0.095506
Si Si2 0.630104 0.292040 0.738924
Si Si3 0.079600 0.262184 0.100414
Si Si4 0.982874 0.329706 0.227656
Si Si5 0.538870 0.562459 0.798988
Si Si6 0.447967 0.148187 0.747657
Si Si7 0.774948 0.607157 0.426172
Si Si8 0.309314 0.363475 0.393158
O O1 0.747823 0.825569 0.262505
O O2 0.782145 0.318302 0.276045
O O3 0.744109 0.877243 0.870932
O O4 0.661014 0.083319 0.916794
O O5 0.612279 0.529850 0.892169
O O6 0.681461 0.403825 0.710643
O O7 0.564352 0.148882 0.444395
O O8 0.155932 0.261405 0.305575
O O9 0.048260 0.299591 0.250640
O O10 0.066785 0.514694 0.983000
O O11 0.051564 0.978012 0.870592
O O12 0.000000 0.500000 0.500000
O O13 0.500000 0.500000 0.500000
O O14 0.511269 0.322204 0.837698
O O15 0.539654 0.851594 0.980772
O O16 0.380411 0.278598 0.587929
O O17 0.723496 0.528879 0.467868
#
# Coordination Sequence:
#
# PCOD8015544 Si02
#       8
#     2   2   2   2   2   2   2   2
#     4  11  26  45  66  96 132 182 220 273 334 397
#     4  11  23  45  67  93 131 169 222 276 330 406
#     4  10  23  41  65 104 134 175 228 271 322 392
#     4  10  21  42  70  97 138 179 223 275 327 372
#     4  11  22  43  63  92 125 165 217 277 338 403
#     4  10  24  40  63  92 123 168 215 270 338 400
#     4  12  26  43  70  99 142 177 221 277 331 392
#     4  11  25  44  65  98 131 175 221 270 333 407
#
# _framework density 23.511572000000001
#
# number of rings (size 3 to 8) (size 9 to 14) (size 15 to 20)
#    0.000    1.250    2.500    2.250    3.500    2.500 
#    2.250    0.000    0.000    0.000    0.000    0.000 
#    0.000    0.000    0.000    0.000    0.000    0.000 
#
# Total GULP energy -198232.394048 kJ/mol
# GULP energy per Si atom -12389.524628 kJ/mol
# Density = 2.345806 g / cm^3
# Si number density = 23.511572 Si / 1000 Ang^3
#
#
#
# Elastic Constant Matrix: (Units=GPa)
#
#
# Indices 1 2 3 4 5 6 
#
# 1 64.7133 9.1942 40.4423 -4.5311 -2.3938 0.9897
# 2 9.1942 96.9347 27.2872 8.9887 -15.0924 2.7199
# 3 40.4423 27.2872 125.6701 11.4748 -10.2889 -4.2240
# 4 -4.5311 8.9887 11.4748 47.6089 -4.6475 -3.4829
# 5 -2.3938 -15.0924 -10.2889 -4.6475 26.3763 7.4657
# 6 0.9897 2.7199 -4.2240 -3.4829 7.4657 23.8639
#
#
#
# Elastic Compliance Matrix: (Units=1/GPa)
#
#
# Indices 1 2 3 4 5 6 
#
# 1 0.019964 -0.000268 -0.006728 0.003469 0.000071 -0.001504
# 2 -0.000268 0.012271 -0.002000 -0.001469 0.007144 -0.004191
# 3 -0.006728 -0.002000 0.010983 -0.002637 0.001624 0.001558
# 4 0.003469 -0.001469 -0.002637 0.022589 0.001775 0.002298
# 5 0.000071 0.007144 0.001624 0.001775 0.047210 -0.015040
# 6 -0.001504 -0.004191 0.001558 0.002298 -0.015040 0.047761
#
#
# Mechanical properties :
#
#
# Convention : Reuss Voigt Hill
#
# Bulk Modulus (GPa) = 39.64208 49.01839 44.33023
# Shear Modulus (GPa) = 26.71249 33.59612 30.15430
#
# Velocity S-wave (km/s) = 3.37433 3.78420 3.58513
# Velocity P-wave (km/s) = 5.66381 6.32357 6.00276
#
# Compressibility (1/GPa) = 0.02522572
#
# Stress axis : x y z
#
# Youngs Moduli (GPa) = 50.09011 81.49433 91.05091
#
# Poissons Ratio (x) = 0.02185 0.61259
# Poissons Ratio (y) = 0.01343 0.18210
# Poissons Ratio (z) = 0.33701 0.16298
#
# Static dielectric constant tensor:
#      x y z
#    x 3.816380 -0.176280 -0.032010 
#    y -0.176280 4.378900 0.212260 
#    z -0.032010 0.212260 4.590440 
# 
# 
# High freq. dielectric constant tensor:
#      x y z
#    x 1.900300 -0.014700 -0.006250 
#    y -0.014700 1.939090 0.007900 
#    z -0.006250 0.007900 1.956380 
# 
# From -- ./inp_files/125629.got.cif
#   From: 2010.06.25/outbox.cif.g09.slc.cpg/sg2_63_cif.got.tgz:125629.got - 2010.06.27 13:26:56.
