data_PCOD8015203
_publ_section_title
;
Structure prediction by ZEFSAII (Michael W. Deem and Ramdas Pophale) SiO2 
 PCOD8015203
Probable space group: P -1
;
_chemical_formula_sum "Si O2"
_cell_formula_units_Z 14
_cell_length_a 12.639257
_cell_length_b 12.110768
_cell_length_c 10.172567
_cell_angle_alpha 81.700368
_cell_angle_beta 107.101378
_cell_angle_gamma 34.557620
_cell_volume 591.971198
_symmetry_space_group_name_H-M "P -1"
_symmetry_group_IT_number 2
_symmetry_cell_setting 'triclinic'
loop_
_space_group_symop_operation_xyz
x,y,z
-x,-y,-z
loop_
_atom_site_type_symbol
_atom_site_label
_atom_site_fract_x
_atom_site_fract_y
_atom_site_fract_z
Si Si1 0.428009 0.870193 0.203247
Si Si2 0.561145 0.538649 0.844041
Si Si3 0.935068 0.371032 0.302107
Si Si4 0.303163 0.741517 0.285816
Si Si5 0.563750 0.955547 0.382495
Si Si6 0.873664 0.191957 0.257130
Si Si7 0.142628 0.519253 0.046319
O O1 0.615307 0.683438 0.173822
O O2 0.400082 0.777841 0.283296
O O3 0.603409 0.796239 0.365520
O O4 0.123452 0.204053 0.007003
O O5 0.736801 0.293712 0.855426
O O6 0.240918 0.790654 0.677318
O O7 0.618495 0.611478 0.806992
O O8 0.622595 0.479830 0.033102
O O9 0.021932 0.159790 0.387595
O O10 0.150802 0.239258 0.495067
O O11 0.966914 0.376356 0.160901
O O12 0.500000 0.500000 0.500000
O O13 0.028013 0.993466 0.226633
O O14 0.500000 0.000000 0.500000
O O15 0.287511 0.266980 0.165919
#
# Coordination Sequence:
#
# PCOD8015203 Si02
#       7
#     2   2   2   2   2   2   2
#     4  12  25  48  70 102 140 184 232 288 341 412
#     4  10  22  39  69  94 132 172 229 266 344 402
#     4  11  24  47  73 100 142 177 237 286 344 408
#     4  12  25  39  66 101 138 178 221 279 343 409
#     4  12  26  48  74  99 142 182 234 289 347 406
#     4  10  21  42  66  96 133 180 217 281 337 404
#     4  11  26  46  74 102 137 189 227 287 349 407
#
# _framework density 23.649799999999999
#
# number of rings (size 3 to 8) (size 9 to 14) (size 15 to 20)
#    0.000    0.857    5.714    1.286    4.000    2.286 
#    2.571    0.000    0.000    0.000    0.000    0.000 
#    0.000    0.000    0.000    0.000    0.000    0.000 
#
# Total GULP energy -173437.027230 kJ/mol
# GULP energy per Si atom -12388.359088 kJ/mol
# Density = 2.359597 g / cm^3
# Si number density = 23.649800 Si / 1000 Ang^3
#
#
#
# Elastic Constant Matrix: (Units=GPa)
#
#
# Indices 1 2 3 4 5 6 
#
# 1 82.3721 28.6278 10.9205 1.8351 6.3260 14.0015
# 2 28.6278 122.4350 3.5513 3.3713 7.4241 -8.7627
# 3 10.9205 3.5513 44.7774 -10.2434 7.6976 7.3334
# 4 1.8351 3.3713 -10.2434 30.2342 6.8766 15.5875
# 5 6.3260 7.4241 7.6976 6.8766 31.0432 -5.1220
# 6 14.0015 -8.7627 7.3334 15.5875 -5.1220 46.8486
#
#
#
# Elastic Compliance Matrix: (Units=1/GPa)
#
#
# Indices 1 2 3 4 5 6 
#
# 1 0.014909 -0.003805 -0.000778 0.003550 -0.003818 -0.006644
# 2 -0.003805 0.009493 -0.001465 -0.003696 0.000416 0.004417
# 3 -0.000778 -0.001465 0.032399 0.021698 -0.014630 -0.013932
# 4 0.003550 -0.003696 0.021698 0.060157 -0.023114 -0.027691
# 5 -0.003818 0.000416 -0.014630 -0.023114 0.044286 0.016042
# 6 -0.006644 0.004417 -0.013932 -0.027691 0.016042 0.037306
#
#
# Mechanical properties :
#
#
# Convention : Reuss Voigt Hill
#
# Bulk Modulus (GPa) = 22.36941 37.30929 29.83935
# Shear Modulus (GPa) = 22.16830 35.39087 28.77959
#
# Velocity S-wave (km/s) = 3.06495 3.87260 3.49220
# Velocity P-wave (km/s) = 4.69088 5.98381 5.37636
#
# Compressibility (1/GPa) = 0.04470390
#
# Stress axis : x y z
#
# Youngs Moduli (GPa) = 67.07286 105.34573 30.86525
#
# Poissons Ratio (x) = 0.40087 0.02400
# Poissons Ratio (y) = 0.25523 0.04523
# Poissons Ratio (z) = 0.05216 0.15437
#
# Static dielectric constant tensor:
#      x y z
#    x 4.625590 0.041270 0.540640 
#    y 0.041270 4.324330 0.087550 
#    z 0.540640 0.087550 4.162000 
# 
# 
# High freq. dielectric constant tensor:
#      x y z
#    x 1.953420 0.003260 0.025860 
#    y 0.003260 1.941160 -0.002200 
#    z 0.025860 -0.002200 1.921990 
# 
# From -- ./inp_files/428176.got.cif
#   From: 2010.06.25/outbox.cif.g09.slc.cpg/sg2_215_cif.got.tgz:428176.got - 2010.06.27 13:26:56.
