data_PCOD8015472
_publ_section_title
;
Structure prediction by ZEFSAII (Michael W. Deem and Ramdas Pophale) SiO2 
 PCOD8015472
Probable space group: P -1
;
_chemical_formula_sum "Si O2"
_cell_formula_units_Z 16
_cell_length_a 11.736744
_cell_length_b 8.299776
_cell_length_c 14.557426
_cell_angle_alpha 90.286064
_cell_angle_beta 30.149347
_cell_angle_gamma 94.762491
_cell_volume 703.426406
_symmetry_space_group_name_H-M "P -1"
_symmetry_group_IT_number 2
_symmetry_cell_setting 'triclinic'
loop_
_space_group_symop_operation_xyz
x,y,z
-x,-y,-z
loop_
_atom_site_type_symbol
_atom_site_label
_atom_site_fract_x
_atom_site_fract_y
_atom_site_fract_z
Si Si1 0.259087 0.810805 0.244626
Si Si2 0.847524 0.604650 0.439204
Si Si3 0.991855 0.432385 0.869604
Si Si4 0.011726 0.762262 0.946832
Si Si5 0.640182 0.980527 0.205399
Si Si6 0.277925 0.165358 0.164375
Si Si7 0.800639 0.238069 0.504089
Si Si8 0.499812 0.742680 0.801589
O O1 0.198077 0.826829 0.392971
O O2 0.095391 0.659985 0.312280
O O3 0.219821 0.971456 0.217237
O O4 0.523336 0.784270 0.049169
O O5 0.753699 0.421803 0.535997
O O6 0.662387 0.714402 0.602464
O O7 0.865842 0.616078 0.316585
O O8 0.062306 0.327131 0.905182
O O9 0.060701 0.626611 0.839250
O O10 0.718874 0.399051 0.041581
O O11 0.808760 0.856415 0.054820
O O12 0.242914 0.894492 0.797911
O O13 0.587433 0.083818 0.152426
O O14 0.403149 0.876954 0.408388
O O15 0.357097 0.254758 0.204999
O O16 0.048203 0.226091 0.287056
#
# Coordination Sequence:
#
# PCOD8015472 Si02
#       8
#     2   2   2   2   2   2   2   2
#     4  11  23  41  62  94 132 173 214 253 315 386
#     4  12  25  39  64  97 134 177 209 255 324 389
#     4  10  22  45  67  97 127 169 214 268 327 382
#     4   9  21  44  74  91 125 165 220 279 323 369
#     4  10  21  42  69  95 121 172 211 270 327 369
#     4  11  23  39  65  93 129 177 212 257 312 380
#     4  12  24  40  62  96 138 169 209 261 315 382
#     4  11  21  41  66  93 133 170 210 265 318 377
#
# _framework density 22.745805000000001
#
# number of rings (size 3 to 8) (size 9 to 14) (size 15 to 20)
#    0.000    1.250    3.750    2.250    0.000    2.500 
#    0.000   13.750    0.000    0.000    0.000    0.000 
#    0.000    0.000    0.000    0.000    0.000    0.000 
#
# Total GULP energy -198467.547875 kJ/mol
# GULP energy per Si atom -12404.221742 kJ/mol
# Density = 2.269403 g / cm^3
# Si number density = 22.745805 Si / 1000 Ang^3
#
#
#
# Elastic Constant Matrix: (Units=GPa)
#
#
# Indices 1 2 3 4 5 6 
#
# 1 50.6744 26.2800 24.6073 1.2155 -18.6396 5.3312
# 2 26.2800 114.3477 34.8625 -9.5083 -16.4182 10.3482
# 3 24.6073 34.8625 88.4242 4.8492 -7.5447 9.0398
# 4 1.2155 -9.5083 4.8492 43.3447 7.6296 -6.8494
# 5 -18.6396 -16.4182 -7.5447 7.6296 32.5113 2.2371
# 6 5.3312 10.3482 9.0398 -6.8494 2.2371 36.4593
#
#
#
# Elastic Compliance Matrix: (Units=1/GPa)
#
#
# Indices 1 2 3 4 5 6 
#
# 1 0.030221 -0.003083 -0.005186 -0.004378 0.015873 -0.004055
# 2 -0.003083 0.011170 -0.003261 0.002157 0.002726 -0.001673
# 3 -0.005186 -0.003261 0.014360 -0.002442 -0.000556 -0.002301
# 4 -0.004378 0.002157 -0.002442 0.026424 -0.008610 0.006126
# 5 0.015873 0.002726 -0.000556 -0.008610 0.043626 -0.007251
# 6 -0.004055 -0.001673 -0.002301 0.006126 -0.007251 0.030662
#
#
# Mechanical properties :
#
#
# Convention : Reuss Voigt Hill
#
# Bulk Modulus (GPa) = 30.58842 47.21622 38.90232
# Shear Modulus (GPa) = 26.25816 33.64284 29.95050
#
# Velocity S-wave (km/s) = 3.40136 3.85005 3.63264
# Velocity P-wave (km/s) = 5.37613 6.36923 5.89364
#
# Compressibility (1/GPa) = 0.03269211
#
# Stress axis : x y z
#
# Youngs Moduli (GPa) = 33.08996 89.52534 69.63971
#
# Poissons Ratio (x) = 0.27597 0.36113
# Poissons Ratio (y) = 0.10200 0.22708
# Poissons Ratio (z) = 0.17160 0.29193
#
# Static dielectric constant tensor:
#      x y z
#    x 3.910860 0.160170 -0.253940 
#    y 0.160170 4.140640 -0.182640 
#    z -0.253940 -0.182640 4.087230 
# 
# 
# High freq. dielectric constant tensor:
#      x y z
#    x 1.880990 0.009070 -0.017280 
#    y 0.009070 1.907140 -0.011200 
#    z -0.017280 -0.011200 1.893120 
# 
# From -- ./inp_files/399218.got.cif
#   From: 2010.06.25/outbox.cif.g09.slc.cpg/sg2_200_cif.got.tgz:399218.got - 2010.06.27 13:26:56.
