data_PCOD8015360
_publ_section_title
;
Structure prediction by ZEFSAII (Michael W. Deem and Ramdas Pophale) SiO2 
 PCOD8015360
Probable space group: P -1
;
_chemical_formula_sum "Si O2"
_cell_formula_units_Z 16
_cell_length_a 8.948757
_cell_length_b 25.597011
_cell_length_c 22.880626
_cell_angle_alpha 163.755611
_cell_angle_beta 34.903833
_cell_angle_gamma 149.580945
_cell_volume 741.194046
_symmetry_space_group_name_H-M "P -1"
_symmetry_group_IT_number 2
_symmetry_cell_setting 'triclinic'
loop_
_space_group_symop_operation_xyz
x,y,z
-x,-y,-z
loop_
_atom_site_type_symbol
_atom_site_label
_atom_site_fract_x
_atom_site_fract_y
_atom_site_fract_z
Si Si1 0.081838 0.321601 0.582146
Si Si2 0.395622 0.732231 0.065881
Si Si3 0.375296 0.434971 0.088778
Si Si4 0.776021 0.213831 0.319296
Si Si5 0.147247 0.416550 0.996757
Si Si6 0.745537 0.197728 0.444046
Si Si7 0.700599 0.610174 0.739255
Si Si8 0.891165 0.063959 0.787738
O O1 0.420182 0.499189 0.667121
O O2 0.867612 0.420092 0.775594
O O3 0.013736 0.252354 0.461997
O O4 0.027296 0.125226 0.430850
O O5 0.473353 0.975096 0.311249
O O6 0.420447 0.633995 0.013502
O O7 0.635191 0.728931 0.940233
O O8 0.064550 0.596929 0.003570
O O9 0.373664 0.631708 0.332543
O O10 0.520643 0.493453 0.039330
O O11 0.042517 0.241319 0.980508
O O12 0.846372 0.181689 0.328877
O O13 0.784283 0.439901 0.556718
O O14 0.029237 0.214996 0.197371
O O15 0.462024 0.025121 0.195770
O O16 0.025459 0.179287 0.806876
#
# Coordination Sequence:
#
# PCOD8015360 Si02
#       8
#     2   2   2   2   2   2   2   2
#     4  10  23  40  64  92 126 162 206 254 300 372
#     4  11  23  43  63  94 123 160 209 257 303 368
#     4  12  25  41  62  91 130 163 204 261 299 360
#     4  10  21  42  68  90 122 165 201 255 312 367
#     4  11  24  42  63  90 125 169 206 246 315 361
#     4  12  23  39  63  92 126 161 209 251 303 361
#     4   9  21  43  67  90 123 162 203 252 316 365
#     4  11  22  42  63  89 129 163 204 252 305 366
#
# _framework density 21.586791000000002
#
# number of rings (size 3 to 8) (size 9 to 14) (size 15 to 20)
#    0.000    1.250    5.000    0.750    0.000    3.000 
#    0.000    1.875    0.000    0.000    0.000    0.000 
#    0.000    0.000    0.000    0.000    0.000    0.000 
#
# Total GULP energy -198439.820940 kJ/mol
# GULP energy per Si atom -12402.488809 kJ/mol
# Density = 2.153766 g / cm^3
# Si number density = 21.586791 Si / 1000 Ang^3
#
#
#
# Elastic Constant Matrix: (Units=GPa)
#
#
# Indices 1 2 3 4 5 6 
#
# 1 106.7817 32.7921 18.2605 8.8038 4.7554 -7.6736
# 2 32.7921 124.4971 37.3074 11.3005 -5.5610 3.9122
# 3 18.2605 37.3074 90.3067 18.0272 -5.5509 3.4741
# 4 8.8038 11.3005 18.0272 26.5395 -1.8853 0.2613
# 5 4.7554 -5.5610 -5.5509 -1.8853 33.1729 5.6397
# 6 -7.6736 3.9122 3.4741 0.2613 5.6397 31.2749
#
#
#
# Elastic Compliance Matrix: (Units=1/GPa)
#
#
# Indices 1 2 3 4 5 6 
#
# 1 0.010909 -0.002623 -0.001035 -0.002042 -0.002915 0.003662
# 2 -0.002623 0.009906 -0.003174 -0.001049 0.001759 -0.001839
# 3 -0.001035 -0.003174 0.014352 -0.007905 0.001861 -0.001721
# 4 -0.002042 -0.001049 -0.007905 0.044269 0.001327 -0.000101
# 5 -0.002915 0.001759 0.001861 0.001327 0.032435 -0.007002
# 6 0.003662 -0.001839 -0.001721 -0.000101 -0.007002 0.034558
#
#
# Mechanical properties :
#
#
# Convention : Reuss Voigt Hill
#
# Bulk Modulus (GPa) = 46.50279 55.36727 50.93503
# Shear Modulus (GPa) = 29.89369 33.74583 31.81976
#
# Velocity S-wave (km/s) = 3.72535 3.95810 3.84349
# Velocity P-wave (km/s) = 6.33193 6.82592 6.58356
#
# Compressibility (1/GPa) = 0.02150409
#
# Stress axis : x y z
#
# Youngs Moduli (GPa) = 91.66912 100.95061 69.67527
#
# Poissons Ratio (x) = 0.26482 0.07208
# Poissons Ratio (y) = 0.24047 0.22112
# Poissons Ratio (z) = 0.09483 0.32038
#
# Static dielectric constant tensor:
#      x y z
#    x 4.138980 -0.052690 -0.059010 
#    y -0.052690 3.711960 0.180760 
#    z -0.059010 0.180760 3.867170 
# 
# 
# High freq. dielectric constant tensor:
#      x y z
#    x 1.876400 -0.003130 -0.004360 
#    y -0.003130 1.822030 0.018950 
#    z -0.004360 0.018950 1.848270 
# 
# From -- ./inp_files/187343.got.cif
#   From: 2010.06.25/outbox.cif.g09.slc.cpg/sg2_94_cif.got.tgz:187343.got - 2010.06.27 13:26:56.
