data_PCOD8015132
_publ_section_title
;
Structure prediction by ZEFSAII (Michael W. Deem and Ramdas Pophale) SiO2 
 PCOD8015132
Probable space group: P -1
;
_chemical_formula_sum "Si O2"
_cell_formula_units_Z 16
_cell_length_a 8.970948
_cell_length_b 8.938348
_cell_length_c 21.773563
_cell_angle_alpha 59.714406
_cell_angle_beta 37.511174
_cell_angle_gamma 47.096300
_cell_volume 776.236623
_symmetry_space_group_name_H-M "P -1"
_symmetry_group_IT_number 2
_symmetry_cell_setting 'triclinic'
loop_
_space_group_symop_operation_xyz
x,y,z
-x,-y,-z
loop_
_atom_site_type_symbol
_atom_site_label
_atom_site_fract_x
_atom_site_fract_y
_atom_site_fract_z
Si Si1 0.218699 0.346807 0.277862
Si Si2 0.191651 0.822972 0.293668
Si Si3 0.176715 0.328034 0.753923
Si Si4 0.174519 0.695118 0.887144
Si Si5 0.193498 0.983462 0.737200
Si Si6 0.194197 0.958822 0.386317
Si Si7 0.804111 0.677998 0.110721
Si Si8 0.213983 0.430948 0.387901
O O1 0.509793 0.355135 0.183304
O O2 0.293420 0.116405 0.305906
O O3 0.038444 0.457183 0.376578
O O4 0.028386 0.455909 0.257652
O O5 0.460811 0.851376 0.187575
O O6 0.331924 0.581619 0.311721
O O7 0.025189 0.949196 0.383698
O O8 0.971177 0.903089 0.293724
O O9 0.070250 0.361388 0.852629
O O10 0.166674 0.150953 0.758275
O O11 0.510805 0.264565 0.655691
O O12 0.041654 0.881686 0.843331
O O13 0.167135 0.516487 0.891766
O O14 0.974160 0.759547 0.999714
O O15 0.520110 0.806435 0.646856
O O16 0.000000 0.000000 0.500000
O O17 0.000000 0.500000 0.500000
#
# Coordination Sequence:
#
# PCOD8015132 Si02
#       8
#     2   2   2   2   2   2   2   2
#     4  11  22  43  62  91 127 163 204 259 303 366
#     4  11  23  40  63  93 125 162 208 256 306 364
#     4  11  23  40  66  91 127 162 205 255 309 365
#     4  10  21  42  66  89 127 162 205 252 308 370
#     4  11  22  41  64  92 125 164 207 252 306 371
#     4  11  25  42  61  91 127 160 207 260 308 365
#     4  10  22  41  64  94 124 162 203 257 308 363
#     4  11  22  39  64  88 121 163 206 252 303 360
#
# _framework density 20.612271
#
# number of rings (size 3 to 8) (size 9 to 14) (size 15 to 20)
#    0.000    1.250    6.250    0.750    1.750    3.500 
#    0.000    0.000    0.000    0.000    0.000    0.000 
#    0.000    0.000    0.000    0.000    0.000    0.000 
#
# Total GULP energy -198214.757494 kJ/mol
# GULP energy per Si atom -12388.422343 kJ/mol
# Density = 2.056536 g / cm^3
# Si number density = 20.612271 Si / 1000 Ang^3
#
#
#
# Elastic Constant Matrix: (Units=GPa)
#
#
# Indices 1 2 3 4 5 6 
#
# 1 134.8570 41.3856 52.3619 1.7747 25.1377 -1.7112
# 2 41.3856 74.2061 36.6120 -3.7775 3.5218 -8.4498
# 3 52.3619 36.6120 119.9834 6.1381 20.6344 -10.9567
# 4 1.7747 -3.7775 6.1381 22.9951 8.2075 3.8640
# 5 25.1377 3.5218 20.6344 8.2075 31.8452 0.6683
# 6 -1.7112 -8.4498 -10.9567 3.8640 0.6683 29.0220
#
#
#
# Elastic Compliance Matrix: (Units=1/GPa)
#
#
# Indices 1 2 3 4 5 6 
#
# 1 0.011092 -0.004759 -0.002419 0.001831 -0.007098 -0.001725
# 2 -0.004759 0.018433 -0.004011 0.002667 0.003564 0.003135
# 3 -0.002419 -0.004011 0.011897 -0.002554 -0.004774 0.003631
# 4 0.001831 0.002667 -0.002554 0.050147 -0.012874 -0.006460
# 5 -0.007098 0.003564 -0.004774 -0.012874 0.043031 -0.000460
# 6 -0.001725 0.003135 0.003631 -0.006460 -0.000460 0.037509
#
#
# Mechanical properties :
#
#
# Convention : Reuss Voigt Hill
#
# Bulk Modulus (GPa) = 52.50936 65.52949 59.01942
# Shear Modulus (GPa) = 24.89609 30.01827 27.45718
#
# Velocity S-wave (km/s) = 3.47915 3.82033 3.65373
# Velocity P-wave (km/s) = 6.45519 7.16383 6.81872
#
# Compressibility (1/GPa) = 0.01904422
#
# Stress axis : x y z
#
# Youngs Moduli (GPa) = 90.15467 54.25179 84.05281
#
# Poissons Ratio (x) = 0.25819 0.20333
# Poissons Ratio (y) = 0.42905 0.33711
# Poissons Ratio (z) = 0.21809 0.21759
#
# Static dielectric constant tensor:
#      x y z
#    x 3.947540 0.161490 0.239920 
#    y 0.161490 3.744890 -0.048480 
#    z 0.239920 -0.048480 3.851330 
# 
# 
# High freq. dielectric constant tensor:
#      x y z
#    x 1.816340 0.018310 0.019080 
#    y 0.018310 1.799490 -0.001560 
#    z 0.019080 -0.001560 1.801720 
# 
# From -- ./inp_files/218483.got.cif
#   From: 2010.06.25/outbox.cif.g09.slc.cpg/sg2_110_cif.got.tgz:218483.got - 2010.06.27 13:26:56.
