data_PCOD8015955
_publ_section_title
;
Structure prediction by ZEFSAII (Michael W. Deem and Ramdas Pophale) SiO2 
 PCOD8015955
Probable space group: P -1
;
_chemical_formula_sum "Si O2"
_cell_formula_units_Z 14
_cell_length_a 9.180044
_cell_length_b 17.118667
_cell_length_c 10.500125
_cell_angle_alpha 48.083222
_cell_angle_beta 137.512603
_cell_angle_gamma 97.881902
_cell_volume 586.234574
_symmetry_space_group_name_H-M "P -1"
_symmetry_group_IT_number 2
_symmetry_cell_setting 'triclinic'
loop_
_space_group_symop_operation_xyz
x,y,z
-x,-y,-z
loop_
_atom_site_type_symbol
_atom_site_label
_atom_site_fract_x
_atom_site_fract_y
_atom_site_fract_z
Si Si1 0.074111 0.562254 0.228333
Si Si2 0.808765 0.685177 0.295740
Si Si3 0.038944 0.078538 0.264172
Si Si4 0.479974 0.802702 0.704027
Si Si5 0.505715 0.408129 0.458799
Si Si6 0.341229 0.644434 0.659942
Si Si7 0.349799 0.969010 0.840640
O O1 0.002576 0.477706 0.347604
O O2 0.174105 0.511738 0.200162
O O3 0.367952 0.516384 0.532320
O O4 0.758733 0.736136 0.857582
O O5 0.013820 0.708417 0.344518
O O6 0.603465 0.717703 0.011437
O O7 0.610541 0.795519 0.164584
O O8 0.922107 0.000321 0.300649
O O9 0.272550 0.977965 0.405111
O O10 0.214251 0.065346 0.516255
O O11 0.760933 0.248128 0.863669
O O12 0.284783 0.773123 0.555262
O O13 0.461824 0.395972 0.295593
O O14 0.500000 0.500000 0.000000
O O15 0.500000 0.000000 0.000000
#
# Coordination Sequence:
#
# PCOD8015955 Si02
#       7
#     2   2   2   2   2   2   2
#     4  11  22  44  67  94 135 180 216 279 336 390
#     4  11  21  44  69  96 135 174 227 273 333 399
#     4  10  23  44  67  96 138 176 219 277 334 392
#     4  11  23  41  70  96 131 179 219 274 336 391
#     4  11  25  44  67  99 138 176 223 277 337 393
#     4  12  24  42  69 102 131 177 229 273 331 408
#     4  10  21  43  68 100 133 178 223 271 331 400
#
# _framework density 23.881222999999999
#
# number of rings (size 3 to 8) (size 9 to 14) (size 15 to 20)
#    0.000    1.143    4.286    2.143    0.000    1.714 
#    7.714    0.000    0.000    0.000    0.000    0.000 
#    0.000    0.000    0.000    0.000    0.000    0.000 
#
# Total GULP energy -173549.135955 kJ/mol
# GULP energy per Si atom -12396.366854 kJ/mol
# Density = 2.382687 g / cm^3
# Si number density = 23.881223 Si / 1000 Ang^3
#
#
#
# Elastic Constant Matrix: (Units=GPa)
#
#
# Indices 1 2 3 4 5 6 
#
# 1 102.5506 51.0999 24.4246 -2.0568 18.3082 -22.0708
# 2 51.0999 149.5107 39.9539 10.7591 3.4262 -29.6233
# 3 24.4246 39.9539 66.5589 -9.9472 -0.4747 -21.7193
# 4 -2.0568 10.7591 -9.9472 42.7626 -10.0132 16.1577
# 5 18.3082 3.4262 -0.4747 -10.0132 36.2272 -1.5854
# 6 -22.0708 -29.6233 -21.7193 16.1577 -1.5854 40.9665
#
#
#
# Elastic Compliance Matrix: (Units=1/GPa)
#
#
# Indices 1 2 3 4 5 6 
#
# 1 0.014075 -0.002800 -0.002269 -0.002850 -0.007439 0.005191
# 2 -0.002800 0.010510 -0.004171 -0.006420 -0.001129 0.006368
# 3 -0.002269 -0.004171 0.020724 0.004628 0.003313 0.005052
# 4 -0.002850 -0.006420 0.004628 0.034981 0.011028 -0.017094
# 5 -0.007439 -0.001129 0.003313 0.011028 0.034295 -0.006090
# 6 0.005191 0.006368 0.005052 -0.017094 -0.006090 0.040997
#
#
# Mechanical properties :
#
#
# Convention : Reuss Voigt Hill
#
# Bulk Modulus (GPa) = 37.27253 61.06410 49.16832
# Shear Modulus (GPa) = 27.32178 37.53404 32.42791
#
# Velocity S-wave (km/s) = 3.38608 3.96876 3.68894
# Velocity P-wave (km/s) = 5.56136 6.82839 6.22718
#
# Compressibility (1/GPa) = 0.02682941
#
# Stress axis : x y z
#
# Youngs Moduli (GPa) = 71.04758 95.15068 48.25246
#
# Poissons Ratio (x) = 0.26644 0.10949
# Poissons Ratio (y) = 0.19894 0.20124
# Poissons Ratio (z) = 0.16121 0.39683
#
# Static dielectric constant tensor:
#      x y z
#    x 4.478070 -0.148550 0.407560 
#    y -0.148550 4.490370 -0.067580 
#    z 0.407560 -0.067580 4.091110 
# 
# 
# High freq. dielectric constant tensor:
#      x y z
#    x 1.945740 -0.013120 0.023100 
#    y -0.013120 1.958610 -0.001150 
#    z 0.023100 -0.001150 1.926620 
# 
# From -- ./inp_files/217154.got.cif
#   From: 2010.06.25/outbox.cif.g09.slc.cpg/sg2_109_cif.got.tgz:217154.got - 2010.06.27 13:26:56.
