data_PCOD8015978
_publ_section_title
;
Structure prediction by ZEFSAII (Michael W. Deem and Ramdas Pophale) SiO2 
 PCOD8015978
Probable space group: P -1
;
_chemical_formula_sum "Si O2"
_cell_formula_units_Z 16
_cell_length_a 5.137614
_cell_length_b 24.177354
_cell_length_c 23.926113
_cell_angle_alpha 17.497239
_cell_angle_beta 77.583471
_cell_angle_gamma 83.893273
_cell_volume 821.883365
_symmetry_space_group_name_H-M "P -1"
_symmetry_group_IT_number 2
_symmetry_cell_setting 'triclinic'
loop_
_space_group_symop_operation_xyz
x,y,z
-x,-y,-z
loop_
_atom_site_type_symbol
_atom_site_label
_atom_site_fract_x
_atom_site_fract_y
_atom_site_fract_z
Si Si1 0.342634 0.807077 0.548316
Si Si2 0.230016 0.098092 0.970554
Si Si3 0.332671 0.665877 0.081701
Si Si4 0.512658 0.760579 0.854530
Si Si5 0.898928 0.768955 0.511134
Si Si6 0.114833 0.126993 0.075706
Si Si7 0.871258 0.270786 0.743317
Si Si8 0.044808 0.448227 0.985193
O O1 0.654754 0.798542 0.532448
O O2 0.173183 0.782124 0.522246
O O3 0.365988 0.008782 0.382121
O O4 0.175860 0.643957 0.756067
O O5 0.558119 0.223348 0.827498
O O6 0.062416 0.223498 0.827616
O O7 0.151477 0.075610 0.060252
O O8 0.144435 0.875156 0.167239
O O9 0.211031 0.435591 0.318179
O O10 0.429908 0.713137 0.968202
O O11 0.589403 0.746706 0.033845
O O12 0.092742 0.751166 0.027172
O O13 0.753845 0.679321 0.902620
O O14 0.249582 0.675390 0.908713
O O15 0.983283 0.926328 0.307343
O O16 0.000000 0.500000 0.500000
O O17 0.000000 0.500000 0.000000
#
# Coordination Sequence:
#
# PCOD8015978 Si02
#       8
#     2   2   2   2   2   2   2   2
#     4  12  23  40  66  89 119 163 209 248 313 380
#     4  10  23  39  63  96 128 161 211 266 302 364
#     4  12  23  40  65  90 125 170 206 247 319 380
#     4  12  23  42  68  87 123 166 204 256 316 380
#     4  12  23  39  63  91 120 168 203 247 310 380
#     4  12  24  40  60  98 130 156 210 264 305 366
#     4  10  21  43  68  89 125 176 212 248 317 363
#     4  12  26  43  64  94 125 158 213 271 307 366
#
# _framework density 19.467482
#
# number of rings (size 3 to 8) (size 9 to 14) (size 15 to 20)
#    0.000    0.500    5.000    3.750    0.000    3.000 
#    0.000    0.000    0.000    0.000    0.000    0.000 
#    0.000    0.000    0.000    0.000    0.000    0.000 
#
# Total GULP energy -198480.529964 kJ/mol
# GULP energy per Si atom -12405.033123 kJ/mol
# Density = 1.942317 g / cm^3
# Si number density = 19.467482 Si / 1000 Ang^3
#
#
#
# Elastic Constant Matrix: (Units=GPa)
#
#
# Indices 1 2 3 4 5 6 
#
# 1 156.1282 54.4892 49.5716 -11.3808 -2.1395 -3.0068
# 2 54.4892 141.9758 59.4184 -1.6091 -0.4876 -2.5579
# 3 49.5716 59.4184 182.0247 -23.7938 0.9399 -1.6698
# 4 -11.3808 -1.6091 -23.7938 31.7492 0.0119 -1.2818
# 5 -2.1395 -0.4876 0.9399 0.0119 33.7258 -10.6773
# 6 -3.0068 -2.5579 -1.6698 -1.2818 -10.6773 66.1675
#
#
#
# Elastic Compliance Matrix: (Units=1/GPa)
#
#
# Indices 1 2 3 4 5 6 
#
# 1 0.007767 -0.002512 -0.001049 0.001886 0.000600 0.000363
# 2 -0.002512 0.009065 -0.002584 -0.002372 0.000089 0.000139
# 3 -0.001049 -0.002584 0.007272 0.004946 -0.000281 0.000086
# 4 0.001886 -0.002372 0.004946 0.035794 0.000202 0.000845
# 5 0.000600 0.000089 -0.000281 0.000202 0.031306 0.005079
# 6 0.000363 0.000139 0.000086 0.000845 0.005079 0.015973
#
#
# Mechanical properties :
#
#
# Convention : Reuss Voigt Hill
#
# Bulk Modulus (GPa) = 84.64440 89.67635 87.16038
# Shear Modulus (GPa) = 40.51698 47.43845 43.97772
#
# Velocity S-wave (km/s) = 4.56704 4.94176 4.75809
# Velocity P-wave (km/s) = 8.44895 8.87276 8.66345
#
# Compressibility (1/GPa) = 0.01181413
#
# Stress axis : x y z
#
# Youngs Moduli (GPa) = 128.74404 110.31321 137.51942
#
# Poissons Ratio (x) = 0.27714 0.14419
# Poissons Ratio (y) = 0.32344 0.35538
# Poissons Ratio (z) = 0.13499 0.28507
#
# Static dielectric constant tensor:
#      x y z
#    x 3.901900 -0.011000 -0.002170 
#    y -0.011000 3.585950 -0.192550 
#    z -0.002170 -0.192550 3.768550 
# 
# 
# High freq. dielectric constant tensor:
#      x y z
#    x 1.784950 -0.000760 -0.000500 
#    y -0.000760 1.757450 -0.011080 
#    z -0.000500 -0.011080 1.772950 
# 
# From -- ./inp_files/120403.got.cif
#   From: 2010.06.25/outbox.cif.g09.slc.cpg/sg2_61_cif.got.tgz:120403.got - 2010.06.27 13:26:56.
