data_PCOD8015146
_publ_section_title
;
Structure prediction by ZEFSAII (Michael W. Deem and Ramdas Pophale) SiO2 
 PCOD8015146
Probable space group: P -1
;
_chemical_formula_sum "Si O2"
_cell_formula_units_Z 16
_cell_length_a 8.948216
_cell_length_b 16.885807
_cell_length_c 8.389529
_cell_angle_alpha 103.958721
_cell_angle_beta 100.638694
_cell_angle_gamma 37.373745
_cell_volume 746.695565
_symmetry_space_group_name_H-M "P -1"
_symmetry_group_IT_number 2
_symmetry_cell_setting 'triclinic'
loop_
_space_group_symop_operation_xyz
x,y,z
-x,-y,-z
loop_
_atom_site_type_symbol
_atom_site_label
_atom_site_fract_x
_atom_site_fract_y
_atom_site_fract_z
Si Si1 0.122905 0.046437 0.711683
Si Si2 0.764758 0.174994 0.409178
Si Si3 0.966253 0.249706 0.374730
Si Si4 0.554068 0.974125 0.810471
Si Si5 0.773812 0.774800 0.305248
Si Si6 0.660394 0.484938 0.232165
Si Si7 0.856387 0.311838 0.884410
Si Si8 0.749564 0.616791 0.410356
O O1 0.394022 0.969425 0.694670
O O2 0.966339 0.102801 0.549655
O O3 0.986127 0.167974 0.862632
O O4 0.168109 0.935360 0.732559
O O5 0.485604 0.285664 0.471676
O O6 0.797492 0.239827 0.335409
O O7 0.119008 0.201701 0.542425
O O8 0.781175 0.403295 0.381403
O O9 0.158732 0.164055 0.224326
O O10 0.485421 0.086575 0.755241
O O11 0.500000 0.000000 0.000000
O O12 0.746359 0.699361 0.344435
O O13 0.962210 0.695974 0.154806
O O14 0.366234 0.604233 0.244657
O O15 0.733674 0.548258 0.250126
O O16 0.757315 0.383764 0.067001
O O17 0.000000 0.500000 0.500000
#
# Coordination Sequence:
#
# PCOD8015146 Si02
#       8
#     2   2   2   2   2   2   2   2
#     4  10  21  42  66  90 134 163 219 275 327 374
#     4  11  24  39  68 100 129 166 225 285 321 383
#     4  12  22  39  68  99 127 176 224 268 332 393
#     4  11  24  43  65  97 136 174 218 271 335 400
#     4  11  23  40  68  93 130 174 224 271 330 390
#     4  11  24  41  67  93 137 176 218 271 337 398
#     4  10  22  45  64  92 131 180 215 269 334 407
#     4  12  25  42  66 102 137 168 223 284 326 385
#
# _framework density 21.427741999999999
#
# number of rings (size 3 to 8) (size 9 to 14) (size 15 to 20)
#    0.000    1.000    5.000    2.625    5.250    1.500 
#    0.000    5.000    0.000    0.000    0.000    0.000 
#    0.000    0.000    0.000    0.000    0.000    0.000 
#
# Total GULP energy -198296.785655 kJ/mol
# GULP energy per Si atom -12393.549103 kJ/mol
# Density = 2.137897 g / cm^3
# Si number density = 21.427742 Si / 1000 Ang^3
#
#
#
# Elastic Constant Matrix: (Units=GPa)
#
#
# Indices 1 2 3 4 5 6 
#
# 1 128.4919 70.0793 14.7157 12.8471 8.8037 10.1896
# 2 70.0793 132.0405 27.1200 3.2760 11.8847 18.5188
# 3 14.7157 27.1200 43.8802 7.3454 6.6330 7.2656
# 4 12.8471 3.2760 7.3454 39.1985 1.5502 7.5238
# 5 8.8037 11.8847 6.6330 1.5502 26.2826 -1.0368
# 6 10.1896 18.5188 7.2656 7.5238 -1.0368 42.8062
#
#
#
# Elastic Compliance Matrix: (Units=1/GPa)
#
#
# Indices 1 2 3 4 5 6 
#
# 1 0.011387 -0.006037 0.000568 -0.003365 -0.001014 0.000372
# 2 -0.006037 0.012520 -0.005164 0.002703 -0.002639 -0.003642
# 3 0.000568 -0.005164 0.027538 -0.004363 -0.004623 -0.001920
# 4 -0.003365 0.002703 -0.004363 0.028120 -0.000834 -0.004591
# 5 -0.001014 -0.002639 -0.004623 -0.000834 0.040927 0.003306
# 6 0.000372 -0.003642 -0.001920 -0.004591 0.003306 0.026061
#
#
# Mechanical properties :
#
#
# Convention : Reuss Voigt Hill
#
# Bulk Modulus (GPa) = 33.13745 58.69362 45.91554
# Shear Modulus (GPa) = 28.10920 34.49063 31.29991
#
# Velocity S-wave (km/s) = 3.62583 4.01637 3.82608
# Velocity P-wave (km/s) = 5.74692 6.99708 6.40259
#
# Compressibility (1/GPa) = 0.03017733
#
# Stress axis : x y z
#
# Youngs Moduli (GPa) = 87.82075 79.87531 36.31408
#
# Poissons Ratio (x) = 0.48224 -0.02062
# Poissons Ratio (y) = 0.53021 0.18751
# Poissons Ratio (z) = -0.04986 0.41244
#
# Static dielectric constant tensor:
#      x y z
#    x 4.108490 -0.068030 0.280250 
#    y -0.068030 4.272860 0.038500 
#    z 0.280250 0.038500 3.585060 
# 
# 
# High freq. dielectric constant tensor:
#      x y z
#    x 1.841860 -0.008950 0.014360 
#    y -0.008950 1.862720 0.001960 
#    z 0.014360 0.001960 1.816010 
# 
# From -- ./inp_files/178914.got.cif
#   From: 2010.06.25/outbox.cif.g09.slc.cpg/sg2_90_cif.got.tgz:178914.got - 2010.06.27 13:26:56.
