data_PCOD8015368
_publ_section_title
;
Structure prediction by ZEFSAII (Michael W. Deem and Ramdas Pophale) SiO2 
 PCOD8015368
Probable space group: P -1
;
_chemical_formula_sum "Si O2"
_cell_formula_units_Z 16
_cell_length_a 8.587794
_cell_length_b 14.320386
_cell_length_c 15.193391
_cell_angle_alpha 49.305700
_cell_angle_beta 38.193409
_cell_angle_gamma 41.331529
_cell_volume 754.183470
_symmetry_space_group_name_H-M "P -1"
_symmetry_group_IT_number 2
_symmetry_cell_setting 'triclinic'
loop_
_space_group_symop_operation_xyz
x,y,z
-x,-y,-z
loop_
_atom_site_type_symbol
_atom_site_label
_atom_site_fract_x
_atom_site_fract_y
_atom_site_fract_z
Si Si1 0.367739 0.193875 0.729488
Si Si2 0.593245 0.042365 0.020577
Si Si3 0.297472 0.567027 0.133362
Si Si4 0.904813 0.974881 0.283797
Si Si5 0.080145 0.403218 0.437849
Si Si6 0.670563 0.625549 0.071019
Si Si7 0.491980 0.879128 0.484855
Si Si8 0.641907 0.317456 0.658678
O O1 0.498927 0.172143 0.586520
O O2 0.529265 0.270179 0.654170
O O3 0.016851 0.291583 0.831844
O O4 0.452916 0.040851 0.827302
O O5 0.389919 0.213801 0.019611
O O6 0.942674 0.978538 0.887593
O O7 0.500000 0.000000 0.000000
O O8 0.237808 0.445653 0.269255
O O9 0.467120 0.603159 0.107816
O O10 0.500000 0.500000 0.000000
O O11 0.607733 0.992004 0.363612
O O12 0.144278 0.812453 0.293956
O O13 0.826242 0.053079 0.367470
O O14 0.301897 0.244613 0.464987
O O15 0.000000 0.500000 0.500000
O O16 0.799977 0.408437 0.510607
O O17 0.621984 0.594239 0.211998
O O18 0.000000 0.500000 0.000000
#
# Coordination Sequence:
#
# PCOD8015368 Si02
#       8
#     2   2   2   2   2   2   2   2
#     4  12  23  42  68 100 136 168 233 290 325 401
#     4  11  23  42  68  98 136 185 215 275 353 394
#     4  12  27  43  67 103 135 174 236 286 329 408
#     4   9  20  41  63  87 128 174 218 264 337 405
#     4  11  21  45  65  90 131 185 216 267 354 395
#     4  11  23  45  70  98 139 184 226 274 343 416
#     4  10  22  39  66  92 125 176 222 278 327 400
#     4  10  21  42  68  92 133 175 223 275 336 406
#
# _framework density 21.214998000000001
#
# number of rings (size 3 to 8) (size 9 to 14) (size 15 to 20)
#    0.000    1.250    5.000    2.250    1.750    3.000 
#    4.500    0.000    0.000    0.000    0.000    0.000 
#    0.000    0.000    0.000    0.000    0.000    0.000 
#
# Total GULP energy -198217.549696 kJ/mol
# GULP energy per Si atom -12388.596856 kJ/mol
# Density = 2.116671 g / cm^3
# Si number density = 21.214998 Si / 1000 Ang^3
#
#
#
# Elastic Constant Matrix: (Units=GPa)
#
#
# Indices 1 2 3 4 5 6 
#
# 1 123.6317 43.6998 49.2131 -8.8812 -9.7887 22.4898
# 2 43.6998 98.7034 59.7126 3.5625 -5.8345 11.1540
# 3 49.2131 59.7126 134.6771 1.6560 2.9745 15.4341
# 4 -8.8812 3.5625 1.6560 38.1441 7.3299 4.6716
# 5 -9.7887 -5.8345 2.9745 7.3299 36.9819 1.1828
# 6 22.4898 11.1540 15.4341 4.6716 1.1828 31.9678
#
#
#
# Elastic Compliance Matrix: (Units=1/GPa)
#
#
# Indices 1 2 3 4 5 6 
#
# 1 0.011716 -0.003057 -0.002254 0.003483 0.002324 -0.006683
# 2 -0.003057 0.015120 -0.005593 -0.002339 0.002496 -0.000175
# 3 -0.002254 -0.005593 0.010973 0.000180 -0.002343 -0.001700
# 4 0.003483 -0.002339 0.000180 0.028906 -0.005006 -0.005760
# 5 0.002324 0.002496 -0.002343 -0.005006 0.029285 -0.001726
# 6 -0.006683 -0.000175 -0.001700 -0.005760 -0.001726 0.037770
#
#
# Mechanical properties :
#
#
# Convention : Reuss Voigt Hill
#
# Bulk Modulus (GPa) = 62.49570 73.58481 68.04026
# Shear Modulus (GPa) = 31.07283 35.04453 33.05868
#
# Velocity S-wave (km/s) = 3.83124 4.06874 3.95177
# Velocity P-wave (km/s) = 7.00667 7.53879 7.27760
#
# Compressibility (1/GPa) = 0.01600110
#
# Stress axis : x y z
#
# Youngs Moduli (GPa) = 85.35243 66.13699 91.13100
#
# Poissons Ratio (x) = 0.20215 0.20544
# Poissons Ratio (y) = 0.26089 0.50972
# Poissons Ratio (z) = 0.19242 0.36992
#
# Static dielectric constant tensor:
#      x y z
#    x 3.876950 0.155740 -0.267090 
#    y 0.155740 3.881510 -0.114630 
#    z -0.267090 -0.114630 4.274900 
# 
# 
# High freq. dielectric constant tensor:
#      x y z
#    x 1.829540 0.012320 -0.008200 
#    y 0.012320 1.831860 0.008520 
#    z -0.008200 0.008520 1.840090 
# 
# From -- ./inp_files/503967.got.cif
#   From: 2010.06.25/outbox.cif.g09.slc.cpg/sg2_252_cif.got.tgz:503967.got - 2010.06.27 13:26:56.
