data_PCOD8015337
_publ_section_title
;
Structure prediction by ZEFSAII (Michael W. Deem and Ramdas Pophale) SiO2 
 PCOD8015337
Probable space group: P -1
;
_chemical_formula_sum "Si O2"
_cell_formula_units_Z 16
_cell_length_a 8.597552
_cell_length_b 15.202172
_cell_length_c 8.793771
_cell_angle_alpha 41.531444
_cell_angle_beta 72.565338
_cell_angle_gamma 83.193778
_cell_volume 716.813395
_symmetry_space_group_name_H-M "P -1"
_symmetry_group_IT_number 2
_symmetry_cell_setting 'triclinic'
loop_
_space_group_symop_operation_xyz
x,y,z
-x,-y,-z
loop_
_atom_site_type_symbol
_atom_site_label
_atom_site_fract_x
_atom_site_fract_y
_atom_site_fract_z
Si Si1 0.341184 0.618243 0.592481
Si Si2 0.221091 0.894818 0.713283
Si Si3 0.824003 0.386645 0.032825
Si Si4 0.573415 0.865770 0.121539
Si Si5 0.430634 0.145111 0.210241
Si Si6 0.510526 0.422349 0.939945
Si Si7 0.957060 0.409721 0.481473
Si Si8 0.047615 0.129506 0.918804
O O1 0.229516 0.586777 0.816144
O O2 0.460419 0.759043 0.399686
O O3 0.458706 0.504014 0.704347
O O4 0.238385 0.620373 0.462958
O O5 0.155572 0.769412 0.783490
O O6 0.393015 0.895709 0.749677
O O7 0.267165 0.031041 0.424602
O O8 0.068180 0.897243 0.866057
O O9 0.701450 0.405368 0.902458
O O10 0.978385 0.501688 0.800708
O O11 0.762169 0.869088 0.104083
O O12 0.553806 0.814782 0.021496
O O13 0.500000 0.000000 0.000000
O O14 0.401557 0.272535 0.157489
O O15 0.500000 0.500000 0.000000
O O16 0.000000 0.500000 0.500000
O O17 0.023950 0.268646 0.661579
O O18 0.000000 0.000000 0.000000
#
# Coordination Sequence:
#
# PCOD8015337 Si02
#       8
#     2   2   2   2   2   2   2   2
#     4  11  24  42  70  98 140 180 233 284 346 418
#     4  10  21  42  67  99 134 183 226 285 350 420
#     4  10  21  42  69  98 138 179 230 283 352 411
#     4  12  26  45  68 100 135 180 236 290 354 419
#     4  10  22  39  69  97 138 180 232 282 344 418
#     4   9  21  39  63 100 133 179 229 283 337 414
#     4  12  25  43  69 101 140 181 228 290 352 415
#     4  12  27  45  69 100 141 184 232 293 354 419
#
# _framework density 22.321013000000001
#
# number of rings (size 3 to 8) (size 9 to 14) (size 15 to 20)
#    0.000    1.250    1.250    4.125    3.500    7.000 
#    0.000    1.250    0.000    0.000    0.000    0.000 
#    0.000    0.000    0.000    0.000    0.000    0.000 
#
# Total GULP energy -198235.520619 kJ/mol
# GULP energy per Si atom -12389.720039 kJ/mol
# Density = 2.227021 g / cm^3
# Si number density = 22.321013 Si / 1000 Ang^3
#
#
#
# Elastic Constant Matrix: (Units=GPa)
#
#
# Indices 1 2 3 4 5 6 
#
# 1 126.3565 37.2036 44.2585 -11.9325 4.2304 0.8052
# 2 37.2036 115.7938 42.0872 -23.5318 5.2885 5.3683
# 3 44.2585 42.0872 125.9264 -21.3836 -11.7927 -6.6503
# 4 -11.9325 -23.5318 -21.3836 47.3220 -3.0962 4.1922
# 5 4.2304 5.2885 -11.7927 -3.0962 39.1500 0.3875
# 6 0.8052 5.3683 -6.6503 4.1922 0.3875 25.7095
#
#
#
# Elastic Compliance Matrix: (Units=1/GPa)
#
#
# Indices 1 2 3 4 5 6 
#
# 1 0.009554 -0.001890 -0.002894 0.000112 -0.001634 -0.000647
# 2 -0.001890 0.011347 -0.002793 0.004111 -0.001809 -0.003676
# 3 -0.002894 -0.002793 0.010920 0.002825 0.004173 0.002975
# 4 0.000112 0.004111 0.002825 0.025007 0.002303 -0.004244
# 5 -0.001634 -0.001809 0.004173 0.002303 0.027396 0.000720
# 6 -0.000647 -0.003676 0.002975 -0.004244 0.000720 0.041135
#
#
# Mechanical properties :
#
#
# Convention : Reuss Voigt Hill
#
# Bulk Modulus (GPa) = 60.00760 68.35281 64.18021
# Shear Modulus (GPa) = 34.23039 38.73812 36.48426
#
# Velocity S-wave (km/s) = 3.92031 4.17045 4.04731
# Velocity P-wave (km/s) = 6.88723 7.34026 7.11735
#
# Compressibility (1/GPa) = 0.01666456
#
# Stress axis : x y z
#
# Youngs Moduli (GPa) = 104.67048 88.12761 91.57837
#
# Poissons Ratio (x) = 0.16659 0.26505
# Poissons Ratio (y) = 0.19786 0.25582
# Poissons Ratio (z) = 0.30294 0.24618
#
# Static dielectric constant tensor:
#      x y z
#    x 4.277960 -0.073140 0.040730 
#    y -0.073140 3.811490 -0.282960 
#    z 0.040730 -0.282960 4.294430 
# 
# 
# High freq. dielectric constant tensor:
#      x y z
#    x 1.882310 0.006950 -0.004030 
#    y 0.006950 1.879660 -0.014250 
#    z -0.004030 -0.014250 1.889370 
# 
# From -- ./inp_files/205064.got.cif
#   From: 2010.06.25/outbox.cif.g09.slc.cpg/sg2_103_cif.got.tgz:205064.got - 2010.06.27 13:26:56.
