data_PCOD8015194
_publ_section_title
;
Structure prediction by ZEFSAII (Michael W. Deem and Ramdas Pophale) SiO2 
 PCOD8015194
Probable space group: P -1
;
_chemical_formula_sum "Si O2"
_cell_formula_units_Z 16
_cell_length_a 18.584802
_cell_length_b 9.390448
_cell_length_c 14.933801
_cell_angle_alpha 40.230909
_cell_angle_beta 34.134458
_cell_angle_gamma 28.500025
_cell_volume 691.478111
_symmetry_space_group_name_H-M "P -1"
_symmetry_group_IT_number 2
_symmetry_cell_setting 'triclinic'
loop_
_space_group_symop_operation_xyz
x,y,z
-x,-y,-z
loop_
_atom_site_type_symbol
_atom_site_label
_atom_site_fract_x
_atom_site_fract_y
_atom_site_fract_z
Si Si1 0.585501 0.749883 0.248195
Si Si2 0.703066 0.820007 0.534490
Si Si3 0.154618 0.231486 0.133980
Si Si4 0.055610 0.882655 0.398912
Si Si5 0.167265 0.921156 0.622775
Si Si6 0.651150 0.907761 0.826419
Si Si7 0.855367 0.857184 0.199551
Si Si8 0.870634 0.251795 0.895661
O O1 0.673532 0.421735 0.347722
O O2 0.493614 0.974475 0.321434
O O3 0.435259 0.848030 0.283124
O O4 0.718684 0.762541 0.058316
O O5 0.801127 0.474619 0.589976
O O6 0.701717 0.932949 0.382602
O O7 0.806523 0.860257 0.476098
O O8 0.211945 0.134954 0.226764
O O9 0.955387 0.558372 0.179567
O O10 0.145404 0.000267 0.210876
O O11 0.000000 0.000000 0.500000
O O12 0.874594 0.029817 0.463449
O O13 0.988044 0.037488 0.794623
O O14 0.731017 0.598549 0.842903
O O15 0.500000 0.000000 0.000000
O O16 0.010149 0.781037 0.134950
O O17 0.771806 0.149913 0.084907
#
# Coordination Sequence:
#
# PCOD8015194 Si02
#       8
#     2   2   2   2   2   2   2   2
#     4  11  23  43  66 102 135 166 224 273 338 386
#     4  11  24  41  68 100 134 173 219 276 330 387
#     4  10  21  42  66  95 131 177 218 270 325 397
#     4  12  26  44  68  95 135 180 224 267 329 397
#     4  11  24  42  71  99 129 175 225 279 319 391
#     4   9  20  35  65  98 131 168 213 277 326 381
#     4   9  17  35  64  94 128 166 218 274 308 385
#     4   9  17  35  64  94 125 166 228 260 314 386
#
# _framework density 23.138839000000001
#
# number of rings (size 3 to 8) (size 9 to 14) (size 15 to 20)
#    0.000    1.750    2.500    1.500    7.000    1.000 
#    0.000    0.625    0.000    0.000    0.000    0.000 
#    0.000    0.000    0.000    0.000    0.000    0.000 
#
# Total GULP energy -198285.468013 kJ/mol
# GULP energy per Si atom -12392.841751 kJ/mol
# Density = 2.308617 g / cm^3
# Si number density = 23.138839 Si / 1000 Ang^3
#
#
#
# Elastic Constant Matrix: (Units=GPa)
#
#
# Indices 1 2 3 4 5 6 
#
# 1 55.4854 45.3560 19.6982 -10.0054 2.3506 17.2318
# 2 45.3560 159.1001 39.7981 -5.7182 14.5129 21.7903
# 3 19.6982 39.7981 82.8796 2.7798 11.1836 21.3895
# 4 -10.0054 -5.7182 2.7798 44.9903 7.0138 2.5197
# 5 2.3506 14.5129 11.1836 7.0138 30.0430 -5.1731
# 6 17.2318 21.7903 21.3895 2.5197 -5.1731 31.2302
#
#
#
# Elastic Compliance Matrix: (Units=1/GPa)
#
#
# Indices 1 2 3 4 5 6 
#
# 1 0.027930 -0.005654 -0.000663 0.006648 -0.002828 -0.012017
# 2 -0.005654 0.009110 -0.001832 0.000776 -0.003921 -0.002694
# 3 -0.000663 -0.001832 0.016995 0.000355 -0.007409 -0.011251
# 4 0.006648 0.000776 0.000355 0.025525 -0.008345 -0.007894
# 5 -0.002828 -0.003921 -0.007409 -0.008345 0.043066 0.017178
# 6 -0.012017 -0.002694 -0.011251 -0.007894 0.017178 0.051719
#
#
# Mechanical properties :
#
#
# Convention : Reuss Voigt Hill
#
# Bulk Modulus (GPa) = 26.49984 56.35222 41.42603
# Shear Modulus (GPa) = 24.60356 34.09356 29.34856
#
# Velocity S-wave (km/s) = 3.26437 3.84270 3.56528
# Velocity P-wave (km/s) = 5.06809 6.64043 5.90681
#
# Compressibility (1/GPa) = 0.03773608
#
# Stress axis : x y z
#
# Youngs Moduli (GPa) = 35.80328 109.76937 58.84120
#
# Poissons Ratio (x) = 0.62060 0.03904
# Poissons Ratio (y) = 0.20242 0.10782
# Poissons Ratio (z) = 0.02376 0.20115
#
# Static dielectric constant tensor:
#      x y z
#    x 4.373730 0.243520 0.238540 
#    y 0.243520 4.261760 0.094990 
#    z 0.238540 0.094990 4.407120 
# 
# 
# High freq. dielectric constant tensor:
#      x y z
#    x 1.873860 0.014870 0.018830 
#    y 0.014870 1.916840 -0.000290 
#    z 0.018830 -0.000290 1.932570 
# 
# From -- ./inp_files/537581.got.cif
#   From: 2010.06.25/outbox.cif.g09.slc.cpg/sg2_269_cif.got.tgz:537581.got - 2010.06.27 13:26:56.
