data_PCOD8015461
_publ_section_title
;
Structure prediction by ZEFSAII (Michael W. Deem and Ramdas Pophale) SiO2 
 PCOD8015461
Probable space group: P -1
;
_chemical_formula_sum "Si O2"
_cell_formula_units_Z 16
_cell_length_a 12.490971
_cell_length_b 13.914564
_cell_length_c 10.450990
_cell_angle_alpha 34.342028
_cell_angle_beta 120.687671
_cell_angle_gamma 132.229971
_cell_volume 754.419058
_symmetry_space_group_name_H-M "P -1"
_symmetry_group_IT_number 2
_symmetry_cell_setting 'triclinic'
loop_
_space_group_symop_operation_xyz
x,y,z
-x,-y,-z
loop_
_atom_site_type_symbol
_atom_site_label
_atom_site_fract_x
_atom_site_fract_y
_atom_site_fract_z
Si Si1 0.398671 0.913490 0.225034
Si Si2 0.684703 0.300249 0.231817
Si Si3 0.907795 0.903895 0.423196
Si Si4 0.847126 0.468242 0.398277
Si Si5 0.309841 0.952744 0.857398
Si Si6 0.373202 0.088304 0.280713
Si Si7 0.089711 0.108454 0.060512
Si Si8 0.849707 0.470903 0.894112
O O1 0.279336 0.680521 0.419833
O O2 0.560096 0.950067 0.273382
O O3 0.383234 0.026860 0.210242
O O4 0.369744 0.001140 0.984121
O O5 0.810945 0.395592 0.309800
O O6 0.531311 0.288408 0.186960
O O7 0.645283 0.071991 0.447300
O O8 0.741767 0.416209 0.007510
O O9 0.870201 0.677106 0.624166
O O10 0.769444 0.923654 0.343747
O O11 0.000000 0.000000 0.500000
O O12 0.987996 0.034014 0.204301
O O13 0.000000 0.500000 0.500000
O O14 0.848922 0.668413 0.184935
O O15 0.214865 0.711763 0.045144
O O16 0.232556 0.104095 0.186463
O O17 0.000000 0.000000 0.000000
O O18 0.000000 0.500000 0.000000
#
# Coordination Sequence:
#
# PCOD8015461 Si02
#       8
#     2   2   2   2   2   2   2   2
#     4  10  23  45  67  96 132 181 214 280 338 403
#     4  10  22  41  64  97 127 172 221 269 337 404
#     4  12  26  43  67 104 137 176 229 281 333 405
#     4  11  24  41  68  93 132 174 221 278 339 402
#     4  11  24  45  68  97 142 174 226 274 339 405
#     4  10  21  42  69  92 136 170 220 275 337 400
#     4  12  26  43  66 101 136 175 226 286 334 402
#     4  12  24  40  70  99 134 182 221 275 341 399
#
# _framework density 21.208371
#
# number of rings (size 3 to 8) (size 9 to 14) (size 15 to 20)
#    0.000    1.000    2.500    4.500    3.500    1.500 
#    0.000    1.250    0.000    0.000    0.000    0.000 
#    0.000    0.000    0.000    0.000    0.000    0.000 
#
# Total GULP energy -198295.697738 kJ/mol
# GULP energy per Si atom -12393.481109 kJ/mol
# Density = 2.116010 g / cm^3
# Si number density = 21.208371 Si / 1000 Ang^3
#
#
#
# Elastic Constant Matrix: (Units=GPa)
#
#
# Indices 1 2 3 4 5 6 
#
# 1 94.0831 28.0670 23.2703 -5.9921 6.5708 21.1830
# 2 28.0670 97.4929 15.8063 2.4875 0.6671 14.8946
# 3 23.2703 15.8063 77.8512 -15.2027 5.6190 5.2912
# 4 -5.9921 2.4875 -15.2027 36.6881 -0.4208 -3.6957
# 5 6.5708 0.6671 5.6190 -0.4208 40.3505 8.6189
# 6 21.1830 14.8946 5.2912 -3.6957 8.6189 40.6151
#
#
#
# Elastic Compliance Matrix: (Units=1/GPa)
#
#
# Indices 1 2 3 4 5 6 
#
# 1 0.013444 -0.002556 -0.002973 0.000575 -0.000548 -0.005518
# 2 -0.002556 0.011855 -0.001966 -0.002347 0.001157 -0.003217
# 3 -0.002973 -0.001966 0.015377 0.006121 -0.001820 0.001211
# 4 0.000575 -0.002347 0.006121 0.030312 -0.001183 0.002773
# 5 -0.000548 0.001157 -0.001820 -0.001183 0.026287 -0.005587
# 6 -0.005518 -0.003217 0.001211 0.002773 -0.005587 0.029960
#
#
# Mechanical properties :
#
#
# Convention : Reuss Voigt Hill
#
# Bulk Modulus (GPa) = 38.93078 44.85716 41.89397
# Shear Modulus (GPa) = 33.15927 37.01634 35.08780
#
# Velocity S-wave (km/s) = 3.95840 4.18229 4.07188
# Velocity P-wave (km/s) = 6.26802 6.67223 6.47328
#
# Compressibility (1/GPa) = 0.02568661
#
# Stress axis : x y z
#
# Youngs Moduli (GPa) = 74.38181 84.35029 65.03224
#
# Poissons Ratio (x) = 0.21562 0.19331
# Poissons Ratio (y) = 0.19014 0.12786
# Poissons Ratio (z) = 0.22111 0.16584
#
# Static dielectric constant tensor:
#      x y z
#    x 4.016530 0.248160 -0.112740 
#    y 0.248160 4.122590 -0.086430 
#    z -0.112740 -0.086430 4.018790 
# 
# 
# High freq. dielectric constant tensor:
#      x y z
#    x 1.836140 0.014460 -0.013200 
#    y 0.014460 1.848760 0.009820 
#    z -0.013200 0.009820 1.829520 
# 
# From -- ./inp_files/428685.got.cif
#   From: 2010.06.25/outbox.cif.g09.slc.cpg/sg2_215_cif.got.tgz:428685.got - 2010.06.27 13:26:56.
