data_PCOD8015144
_publ_section_title
;
Structure prediction by ZEFSAII (Michael W. Deem and Ramdas Pophale) SiO2 
 PCOD8015144
Probable space group: P -1
;
_chemical_formula_sum "Si O2"
_cell_formula_units_Z 16
_cell_length_a 4.971141
_cell_length_b 24.145035
_cell_length_c 27.323911
_cell_angle_alpha 13.730884
_cell_angle_beta 71.562928
_cell_angle_gamma 67.159780
_cell_volume 689.149552
_symmetry_space_group_name_H-M "P -1"
_symmetry_group_IT_number 2
_symmetry_cell_setting 'triclinic'
loop_
_space_group_symop_operation_xyz
x,y,z
-x,-y,-z
loop_
_atom_site_type_symbol
_atom_site_label
_atom_site_fract_x
_atom_site_fract_y
_atom_site_fract_z
Si Si1 0.753435 0.115590 0.582628
Si Si2 0.850464 0.949243 0.476409
Si Si3 0.638503 0.648619 0.169715
Si Si4 0.301479 0.030010 0.789625
Si Si5 0.719429 0.137330 0.165815
Si Si6 0.390210 0.694726 0.731416
Si Si7 0.901271 0.445634 0.688320
Si Si8 0.164270 0.556244 0.488080
O O1 0.666689 0.413794 0.334938
O O2 0.991559 0.002578 0.622376
O O3 0.460879 0.041509 0.653553
O O4 0.928483 0.984482 0.734331
O O5 0.594513 0.836769 0.573279
O O6 0.089410 0.749615 0.669475
O O7 0.696880 0.212477 0.287579
O O8 0.923690 0.598599 0.231874
O O9 0.322010 0.710839 0.165156
O O10 0.584583 0.887239 0.932009
O O11 0.272582 0.836252 0.916675
O O12 0.334154 0.263903 0.555861
O O13 0.994636 0.154488 0.733456
O O14 0.569396 0.401123 0.974047
O O15 0.142263 0.375841 0.689392
O O16 0.500000 0.500000 0.500000
O O17 0.000000 0.500000 0.500000
#
# Coordination Sequence:
#
# PCOD8015144 Si02
#       8
#     2   2   2   2   2   2   2   2
#     4  12  22  38  62  91 129 160 217 267 321 375
#     4  10  22  40  61  87 121 167 212 268 308 390
#     4  12  22  43  65  96 127 174 210 269 318 379
#     4  10  25  42  70  92 132 170 214 260 334 372
#     4  12  24  40  62  93 127 166 208 274 319 383
#     4  10  22  41  60  86 124 163 216 258 324 378
#     4  10  24  42  65  93 134 159 217 268 304 388
#     4  10  21  42  66  90 131 169 204 264 320 372
#
# _framework density 23.217020999999999
#
# number of rings (size 3 to 8) (size 9 to 14) (size 15 to 20)
#    0.750    0.500    2.500    3.000    0.000    6.000 
#    0.000    3.750    0.000    0.000    0.000    0.000 
#    0.000    0.000    0.000    0.000    0.000    0.000 
#
# Total GULP energy -198310.220987 kJ/mol
# GULP energy per Si atom -12394.388812 kJ/mol
# Density = 2.316418 g / cm^3
# Si number density = 23.217021 Si / 1000 Ang^3
#
#
#
# Elastic Constant Matrix: (Units=GPa)
#
#
# Indices 1 2 3 4 5 6 
#
# 1 89.6149 15.3828 12.8854 4.2247 11.0904 4.3754
# 2 15.3828 115.7010 26.1538 -1.1889 0.7495 -2.9587
# 3 12.8854 26.1538 88.7785 10.6847 23.3690 8.8524
# 4 4.2247 -1.1889 10.6847 38.8497 6.3427 11.5015
# 5 11.0904 0.7495 23.3690 6.3427 26.2782 1.6288
# 6 4.3754 -2.9587 8.8524 11.5015 1.6288 29.3686
#
#
#
# Elastic Compliance Matrix: (Units=1/GPa)
#
#
# Indices 1 2 3 4 5 6 
#
# 1 0.012141 -0.001692 0.000291 -0.000086 -0.005205 -0.001745
# 2 -0.001692 0.009767 -0.003835 0.000334 0.003637 0.002059
# 3 0.000291 -0.003835 0.016675 -0.001153 -0.014303 -0.004211
# 4 -0.000086 0.000334 -0.001153 0.030290 -0.005567 -0.011159
# 5 -0.005205 0.003637 -0.014303 -0.005567 0.053923 0.004643
# 6 -0.001745 0.002059 -0.004211 -0.011159 0.004643 0.039899
#
#
# Mechanical properties :
#
#
# Convention : Reuss Voigt Hill
#
# Bulk Modulus (GPa) = 35.57254 44.77095 40.17174
# Shear Modulus (GPa) = 27.39159 34.87744 31.13451
#
# Velocity S-wave (km/s) = 3.43856 3.88007 3.66597
# Velocity P-wave (km/s) = 5.57852 6.27685 5.93796
#
# Compressibility (1/GPa) = 0.02811157
#
# Stress axis : x y z
#
# Youngs Moduli (GPa) = 82.36654 102.38269 59.96928
#
# Poissons Ratio (x) = 0.17320 -0.01743
# Poissons Ratio (y) = 0.13933 0.22998
# Poissons Ratio (z) = -0.02394 0.39263
#
# Static dielectric constant tensor:
#      x y z
#    x 4.001960 -0.038490 0.131150 
#    y -0.038490 4.391390 -0.104580 
#    z 0.131150 -0.104580 3.891690 
# 
# 
# High freq. dielectric constant tensor:
#      x y z
#    x 1.918960 -0.003830 0.015200 
#    y -0.003830 1.930690 -0.002790 
#    z 0.015200 -0.002790 1.894410 
# 
# From -- ./inp_files/605098.got.cif
#   From: 2010.06.25/outbox.cif.g09.slc.cpg/sg2_303_cif.got.tgz:605098.got - 2010.06.27 13:26:56.
