data_PCOD8015687
_publ_section_title
;
Structure prediction by ZEFSAII (Michael W. Deem and Ramdas Pophale) SiO2 
 PCOD8015687
Probable space group: P -1
;
_chemical_formula_sum "Si O2"
_cell_formula_units_Z 16
_cell_length_a 14.577659
_cell_length_b 9.111269
_cell_length_c 26.409216
_cell_angle_alpha 151.396202
_cell_angle_beta 27.788982
_cell_angle_gamma 134.661215
_cell_volume 738.906720
_symmetry_space_group_name_H-M "P -1"
_symmetry_group_IT_number 2
_symmetry_cell_setting 'triclinic'
loop_
_space_group_symop_operation_xyz
x,y,z
-x,-y,-z
loop_
_atom_site_type_symbol
_atom_site_label
_atom_site_fract_x
_atom_site_fract_y
_atom_site_fract_z
Si Si1 0.130532 0.741039 0.088804
Si Si2 0.834825 0.799978 0.869870
Si Si3 0.352072 0.921631 0.590170
Si Si4 0.781823 0.362283 0.876906
Si Si5 0.272063 0.317510 0.477032
Si Si6 0.665381 0.233572 0.791854
Si Si7 0.367120 0.006301 0.725158
Si Si8 0.976129 0.193548 0.122747
O O1 0.199385 0.826035 0.136381
O O2 0.237286 0.919317 0.051497
O O3 0.218165 0.358104 0.921597
O O4 0.882982 0.856246 0.239332
O O5 0.685497 0.583914 0.874448
O O6 0.844961 0.968044 0.970546
O O7 0.066555 0.556874 0.674287
O O8 0.380330 0.536831 0.458324
O O9 0.500000 0.000000 0.500000
O O10 0.407904 0.000602 0.643666
O O11 0.756262 0.134777 0.774331
O O12 0.992421 0.460247 0.799190
O O13 0.582025 0.697775 0.073095
O O14 0.210407 0.068696 0.394916
O O15 0.413111 0.100014 0.386316
O O16 0.248295 0.758565 0.727107
O O17 0.000000 0.000000 0.000000
#
# Coordination Sequence:
#
# PCOD8015687 Si02
#       8
#     2   2   2   2   2   2   2   2
#     4  11  22  43  62  97 130 171 209 270 330 376
#     4  10  24  39  63  91 134 167 214 272 321 372
#     4  11  27  42  62  98 141 164 206 268 332 389
#     4  10  22  37  64  95 124 161 222 271 308 379
#     4  11  22  43  65  92 128 175 214 259 320 388
#     4  10  21  43  62  92 122 172 225 262 308 382
#     4  12  23  42  67  96 131 171 216 256 323 400
#     4  11  20  36  63  97 122 170 211 267 311 385
#
# _framework density 21.653613
#
# number of rings (size 3 to 8) (size 9 to 14) (size 15 to 20)
#    0.000    1.250    5.000    1.125    1.750    2.500 
#    4.500    2.500    0.000    0.000    0.000    0.000 
#    0.000    0.000    0.000    0.000    0.000    0.000 
#
# Total GULP energy -198279.175586 kJ/mol
# GULP energy per Si atom -12392.448474 kJ/mol
# Density = 2.160433 g / cm^3
# Si number density = 21.653613 Si / 1000 Ang^3
#
#
#
# Elastic Constant Matrix: (Units=GPa)
#
#
# Indices 1 2 3 4 5 6 
#
# 1 180.9766 51.4235 41.0390 12.2800 15.0466 -23.9821
# 2 51.4235 93.9110 17.7065 -6.3136 5.9279 -18.1546
# 3 41.0390 17.7065 69.4849 8.3985 -0.9008 -1.5967
# 4 12.2800 -6.3136 8.3985 27.7017 -5.1633 3.4720
# 5 15.0466 5.9279 -0.9008 -5.1633 26.4994 0.9760
# 6 -23.9821 -18.1546 -1.5967 3.4720 0.9760 38.2518
#
#
#
# Elastic Compliance Matrix: (Units=1/GPa)
#
#
# Indices 1 2 3 4 5 6 
#
# 1 0.008626 -0.003190 -0.003648 -0.005003 -0.005442 0.004334
# 2 -0.003190 0.013946 -0.002140 0.004606 -0.000636 0.004128
# 3 -0.003648 -0.002140 0.017482 -0.003400 0.002567 -0.002330
# 4 -0.005003 0.004606 -0.003400 0.042968 0.010260 -0.005254
# 5 -0.005442 -0.000636 0.002567 0.010260 0.043263 -0.005642
# 6 0.004334 0.004128 -0.002330 -0.005254 -0.005642 0.031343
#
#
# Mechanical properties :
#
#
# Convention : Reuss Voigt Hill
#
# Bulk Modulus (GPa) = 45.25189 62.74561 53.99875
# Shear Modulus (GPa) = 27.32989 34.10415 30.71702
#
# Velocity S-wave (km/s) = 3.55652 3.97292 3.77047
# Velocity P-wave (km/s) = 6.14886 7.07710 6.62925
#
# Compressibility (1/GPa) = 0.02209853
#
# Stress axis : x y z
#
# Youngs Moduli (GPa) = 115.93477 71.70262 57.20163
#
# Poissons Ratio (x) = 0.22875 0.20866
# Poissons Ratio (y) = 0.36986 0.12240
# Poissons Ratio (z) = 0.42290 0.15343
#
# Static dielectric constant tensor:
#      x y z
#    x 4.239150 -0.087990 0.105960 
#    y -0.087990 4.231680 -0.079730 
#    z 0.105960 -0.079730 3.609850 
# 
# 
# High freq. dielectric constant tensor:
#      x y z
#    x 1.873070 -0.005560 0.007160 
#    y -0.005560 1.848010 -0.012900 
#    z 0.007160 -0.012900 1.821630 
# 
# From -- ./inp_files/619228.got.cif
#   From: 2010.06.25/outbox.cif.g09.slc.cpg/sg2_310_cif.got.tgz:619228.got - 2010.06.27 13:26:56.
