data_PCOD8015283
_publ_section_title
;
Structure prediction by ZEFSAII (Michael W. Deem and Ramdas Pophale) SiO2 
 PCOD8015283
Probable space group: P -1
;
_chemical_formula_sum "Si O2"
_cell_formula_units_Z 16
_cell_length_a 18.351525
_cell_length_b 12.478929
_cell_length_c 21.249408
_cell_angle_alpha 36.676726
_cell_angle_beta 18.490760
_cell_angle_gamma 28.590800
_cell_volume 723.290937
_symmetry_space_group_name_H-M "P -1"
_symmetry_group_IT_number 2
_symmetry_cell_setting 'triclinic'
loop_
_space_group_symop_operation_xyz
x,y,z
-x,-y,-z
loop_
_atom_site_type_symbol
_atom_site_label
_atom_site_fract_x
_atom_site_fract_y
_atom_site_fract_z
Si Si1 0.519321 0.706420 0.598485
Si Si2 0.491726 0.736089 0.950863
Si Si3 0.116788 0.118518 0.976057
Si Si4 0.733853 0.221749 0.647372
Si Si5 0.898396 0.579894 0.974769
Si Si6 0.447333 0.963426 0.653742
Si Si7 0.923904 0.386849 0.665756
Si Si8 0.331619 0.974330 0.095817
O O1 0.743205 0.432699 0.537207
O O2 0.461970 0.783450 0.681794
O O3 0.674360 0.799136 0.392733
O O4 0.201132 0.809087 0.783425
O O5 0.310551 0.640908 0.155607
O O6 0.533266 0.815784 0.946216
O O7 0.804197 0.533919 0.759541
O O8 0.328401 0.951082 0.936605
O O9 0.094612 0.346585 0.883665
O O10 0.248694 0.995325 0.859281
O O11 0.770546 0.154357 0.723277
O O12 0.444930 0.291549 0.815426
O O13 0.000000 0.000000 0.500000
O O14 0.936892 0.769138 0.831116
O O15 0.000000 0.500000 0.000000
O O16 0.775953 0.862602 0.450239
O O17 0.000000 0.500000 0.500000
O O18 0.500000 0.000000 0.000000
#
# Coordination Sequence:
#
# PCOD8015283 Si02
#       8
#     2   2   2   2   2   2   2   2
#     4  10  24  43  62  96 134 173 222 276 338 408
#     4  11  23  42  68  95 141 176 220 283 342 408
#     4  11  21  41  67  93 131 175 218 279 336 401
#     4  10  24  44  66  95 133 172 226 283 336 405
#     4  10  21  42  67  94 127 170 222 272 339 403
#     4  11  23  41  65  97 131 175 224 272 335 407
#     4  11  24  41  65 101 133 173 221 276 344 405
#     4  10  23  44  65  96 132 181 227 275 351 404
#
# _framework density 22.121110999999999
#
# number of rings (size 3 to 8) (size 9 to 14) (size 15 to 20)
#    0.000    1.500    3.750    0.375    3.500    2.000 
#   13.500    0.625    0.000    0.000    0.000    0.000 
#    0.000    0.000    0.000    0.000    0.000    0.000 
#
# Total GULP energy -198299.253879 kJ/mol
# GULP energy per Si atom -12393.703367 kJ/mol
# Density = 2.207076 g / cm^3
# Si number density = 22.121111 Si / 1000 Ang^3
#
#
#
# Elastic Constant Matrix: (Units=GPa)
#
#
# Indices 1 2 3 4 5 6 
#
# 1 126.0443 46.3104 18.1520 0.2084 27.3667 2.6700
# 2 46.3104 154.6728 36.9921 1.3395 14.5525 -2.2577
# 3 18.1520 36.9921 55.8321 4.3873 18.3755 -2.4244
# 4 0.2084 1.3395 4.3873 29.9777 2.3600 5.9837
# 5 27.3667 14.5525 18.3755 2.3600 29.4701 2.2887
# 6 2.6700 -2.2577 -2.4244 5.9837 2.2887 43.3620
#
#
#
# Elastic Compliance Matrix: (Units=1/GPa)
#
#
# Indices 1 2 3 4 5 6 
#
# 1 0.010806 -0.002665 0.001340 0.000665 -0.009584 -0.000315
# 2 -0.002665 0.008360 -0.005194 0.000244 0.001550 0.000193
# 3 0.001340 -0.005194 0.026159 -0.002888 -0.014938 0.002297
# 4 0.000665 0.000244 -0.002888 0.034855 -0.001346 -0.004928
# 5 -0.009584 0.001550 -0.014938 -0.001346 0.051699 -0.002707
# 6 -0.000315 0.000193 0.002297 -0.004928 -0.002707 0.024043
#
#
# Mechanical properties :
#
#
# Convention : Reuss Voigt Hill
#
# Bulk Modulus (GPa) = 30.96969 59.93979 45.45474
# Shear Modulus (GPa) = 27.82085 36.23495 32.02790
#
# Velocity S-wave (km/s) = 3.55020 4.05164 3.80918
# Velocity P-wave (km/s) = 5.55299 7.00305 6.31975
#
# Compressibility (1/GPa) = 0.03228963
#
# Stress axis : x y z
#
# Youngs Moduli (GPa) = 92.54047 119.61571 38.22732
#
# Poissons Ratio (x) = 0.31874 -0.05124
# Poissons Ratio (y) = 0.24659 0.19854
# Poissons Ratio (z) = -0.12405 0.62125
#
# Static dielectric constant tensor:
#      x y z
#    x 4.145880 -0.224300 0.109940 
#    y -0.224300 4.767930 -0.076810 
#    z 0.109940 -0.076810 3.769410 
# 
# 
# High freq. dielectric constant tensor:
#      x y z
#    x 1.871210 -0.003520 0.009690 
#    y -0.003520 1.897590 -0.002030 
#    z 0.009690 -0.002030 1.840020 
# 
# From -- ./inp_files/600058.got.cif
#   From: 2010.06.25/outbox.cif.g09.slc.cpg/sg2_301_cif.got.tgz:600058.got - 2010.06.27 13:26:56.
