data_PCOD8015201
_publ_section_title
;
Structure prediction by ZEFSAII (Michael W. Deem and Ramdas Pophale) SiO2 
 PCOD8015201
Probable space group: P -1
;
_chemical_formula_sum "Si O2"
_cell_formula_units_Z 16
_cell_length_a 12.896013
_cell_length_b 14.543068
_cell_length_c 9.621613
_cell_angle_alpha 29.081287
_cell_angle_beta 117.745686
_cell_angle_gamma 106.540404
_cell_volume 744.276390
_symmetry_space_group_name_H-M "P -1"
_symmetry_group_IT_number 2
_symmetry_cell_setting 'triclinic'
loop_
_space_group_symop_operation_xyz
x,y,z
-x,-y,-z
loop_
_atom_site_type_symbol
_atom_site_label
_atom_site_fract_x
_atom_site_fract_y
_atom_site_fract_z
Si Si1 0.965229 0.606926 0.195677
Si Si2 0.655858 0.787624 0.394784
Si Si3 0.031218 0.963596 0.406637
Si Si4 0.471101 0.441785 0.906998
Si Si5 0.690065 0.201609 0.182247
Si Si6 0.314757 0.236866 0.238674
Si Si7 0.918567 0.646021 0.649834
Si Si8 0.403427 0.763081 0.218222
O O1 0.000000 0.500000 0.500000
O O2 0.053084 0.452199 0.351890
O O3 0.826158 0.637812 0.022499
O O4 0.990648 0.817597 0.955143
O O5 0.637925 0.731343 0.619014
O O6 0.779809 0.652848 0.586070
O O7 0.545594 0.743181 0.299604
O O8 0.660660 0.010881 0.079488
O O9 0.169047 0.821184 0.663523
O O10 0.943087 0.859880 0.405013
O O11 0.000000 0.000000 0.500000
O O12 0.390452 0.621135 0.524755
O O13 0.500000 0.500000 0.000000
O O14 0.601031 0.347045 0.040800
O O15 0.388660 0.294678 0.079943
O O16 0.665395 0.993156 0.460188
O O17 0.658870 0.288500 0.892211
O O18 0.000000 0.500000 0.000000
#
# Coordination Sequence:
#
# PCOD8015201 Si02
#       8
#     2   2   2   2   2   2   2   2
#     4  11  26  44  64 103 136 172 222 285 336 394
#     4  10  21  42  66  96 128 173 221 265 327 397
#     4  11  23  44  73 100 134 175 230 278 329 409
#     4  12  24  38  62  94 126 168 214 262 325 386
#     4  10  24  42  66  94 129 174 217 265 332 391
#     4  10  21  43  63  88 136 167 209 269 333 391
#     4  12  23  42  76  96 129 186 227 270 340 399
#     4  10  22  41  65  95 131 165 220 274 316 395
#
# _framework density 21.497391
#
# number of rings (size 3 to 8) (size 9 to 14) (size 15 to 20)
#    0.000    1.250    3.750    2.250    3.500    3.500 
#    4.500    0.000    0.000    0.000    0.000    0.000 
#    0.000    0.000    0.000    0.000    0.000    0.000 
#
# Total GULP energy -198364.549597 kJ/mol
# GULP energy per Si atom -12397.784350 kJ/mol
# Density = 2.144846 g / cm^3
# Si number density = 21.497391 Si / 1000 Ang^3
#
#
#
# Elastic Constant Matrix: (Units=GPa)
#
#
# Indices 1 2 3 4 5 6 
#
# 1 67.3656 2.2195 33.1805 -4.0741 -1.7276 -15.5393
# 2 2.2195 65.9800 30.2629 0.1060 -2.2566 -11.4442
# 3 33.1805 30.2629 143.1855 10.6952 -14.8802 -17.3401
# 4 -4.0741 0.1060 10.6952 29.0478 -5.9479 -0.7338
# 5 -1.7276 -2.2566 -14.8802 -5.9479 34.7660 1.0938
# 6 -15.5393 -11.4442 -17.3401 -0.7338 1.0938 34.8739
#
#
#
# Elastic Compliance Matrix: (Units=1/GPa)
#
#
# Indices 1 2 3 4 5 6 
#
# 1 0.018838 0.002613 -0.004404 0.004383 -0.000255 0.007162
# 2 0.002613 0.017727 -0.003896 0.001816 -0.000236 0.005090
# 3 -0.004404 -0.003896 0.009561 -0.003479 0.002983 0.001346
# 4 0.004383 0.001816 -0.003479 0.037417 0.005203 0.001443
# 5 -0.000255 -0.000236 0.002983 0.005203 0.030889 0.000433
# 6 0.007162 0.005090 0.001346 0.001443 0.000433 0.034222
#
#
# Mechanical properties :
#
#
# Convention : Reuss Voigt Hill
#
# Bulk Modulus (GPa) = 28.77595 45.31744 37.04669
# Shear Modulus (GPa) = 29.13541 33.79541 31.46541
#
# Velocity S-wave (km/s) = 3.68543 3.96924 3.82996
# Velocity P-wave (km/s) = 5.61469 6.49097 6.06866
#
# Compressibility (1/GPa) = 0.03475125
#
# Stress axis : x y z
#
# Youngs Moduli (GPa) = 53.08401 56.41099 104.59346
#
# Poissons Ratio (x) = -0.14739 0.46064
# Poissons Ratio (y) = -0.13870 0.40750
# Poissons Ratio (z) = 0.23379 0.21978
#
# Static dielectric constant tensor:
#      x y z
#    x 4.510870 0.199950 -0.229980 
#    y 0.199950 3.676930 -0.081140 
#    z -0.229980 -0.081140 4.222000 
# 
# 
# High freq. dielectric constant tensor:
#      x y z
#    x 1.847220 0.005040 0.003310 
#    y 0.005040 1.838000 -0.011570 
#    z 0.003310 -0.011570 1.857200 
# 
# From -- ./inp_files/271399.got.cif
#   From: 2010.06.25/outbox.cif.g09.slc.cpg/sg2_136_cif.got.tgz:271399.got - 2010.06.27 13:26:56.
