data_PCOD8015032
_publ_section_title
;
Structure prediction by ZEFSAII (Michael W. Deem and Ramdas Pophale) SiO2 
 PCOD8015032
Probable space group: P -1
;
_chemical_formula_sum "Si O2"
_cell_formula_units_Z 14
_cell_length_a 11.385498
_cell_length_b 8.096772
_cell_length_c 17.106062
_cell_angle_alpha 42.010665
_cell_angle_beta 144.506228
_cell_angle_gamma 125.545464
_cell_volume 611.645661
_symmetry_space_group_name_H-M "P -1"
_symmetry_group_IT_number 2
_symmetry_cell_setting 'triclinic'
loop_
_space_group_symop_operation_xyz
x,y,z
-x,-y,-z
loop_
_atom_site_type_symbol
_atom_site_label
_atom_site_fract_x
_atom_site_fract_y
_atom_site_fract_z
Si Si1 0.174560 0.110574 0.396877
Si Si2 0.476436 0.738322 0.040231
Si Si3 0.879501 0.411515 0.392752
Si Si4 0.102014 0.731946 0.937029
Si Si5 0.023926 0.582113 0.247695
Si Si6 0.424440 0.779675 0.369737
Si Si7 0.336824 0.063356 0.069094
O O1 0.420702 0.101921 0.527096
O O2 0.074743 0.095548 0.261991
O O3 0.088299 0.364618 0.299972
O O4 0.119046 0.883445 0.500287
O O5 0.653347 0.536892 0.230235
O O6 0.264378 0.640112 0.989800
O O7 0.489069 0.798288 0.932893
O O8 0.500000 0.000000 0.000000
O O9 0.997904 0.480653 0.355638
O O10 0.000000 0.500000 0.500000
O O11 0.000000 0.500000 0.000000
O O12 0.210584 0.886432 0.007502
O O13 0.193643 0.787970 0.271367
O O14 0.818573 0.723507 0.055206
O O15 0.500000 0.500000 0.500000
O O16 0.444961 0.912636 0.250337
#
# Coordination Sequence:
#
# PCOD8015032 Si02
#       7
#     2   2   2   2   2   2   2
#     4  11  24  40  62  95 126 160 208 263 312 362
#     4   9  21  39  61  85 117 162 203 244 302 369
#     4  11  23  41  64  94 127 163 208 260 314 368
#     4  11  23  41  63  92 125 165 210 255 306 372
#     4  10  22  40  63  90 126 168 208 254 310 374
#     4  10  22  39  61  93 127 163 204 258 312 360
#     4  10  21  42  65  87 123 171 210 248 309 379
#
# _framework density 22.889071000000001
#
# number of rings (size 3 to 8) (size 9 to 14) (size 15 to 20)
#    0.000    1.714    0.000    5.143    0.000   11.429 
#    0.000    5.000    0.000    0.000    0.000    0.000 
#    0.000    0.000    0.000    0.000    0.000    0.000 
#
# Total GULP energy -173539.638628 kJ/mol
# GULP energy per Si atom -12395.688473 kJ/mol
# Density = 2.283697 g / cm^3
# Si number density = 22.889071 Si / 1000 Ang^3
#
#
#
# Elastic Constant Matrix: (Units=GPa)
#
#
# Indices 1 2 3 4 5 6 
#
# 1 92.1804 32.6162 43.4179 -8.1583 7.7567 39.7405
# 2 32.6162 74.0633 24.2461 -3.8708 -1.5160 19.1097
# 3 43.4179 24.2461 135.4946 -7.1674 -20.2026 17.2132
# 4 -8.1583 -3.8708 -7.1674 41.5129 2.8099 -1.4990
# 5 7.7567 -1.5160 -20.2026 2.8099 33.5854 -3.9941
# 6 39.7405 19.1097 17.2132 -1.4990 -3.9941 42.5370
#
#
#
# Elastic Compliance Matrix: (Units=1/GPa)
#
#
# Indices 1 2 3 4 5 6 
#
# 1 0.025615 -0.003873 -0.006618 0.003655 -0.012826 -0.020588
# 2 -0.003873 0.016466 -0.001199 0.000417 0.000497 -0.003233
# 3 -0.006618 -0.001199 0.010525 -0.000033 0.008193 0.003231
# 4 0.003655 0.000417 -0.000033 0.024954 -0.003292 -0.003018
# 5 -0.012826 0.000497 0.008193 -0.003292 0.039393 0.012027
# 6 -0.020588 -0.003233 0.003231 -0.003018 0.012027 0.043911
#
#
# Mechanical properties :
#
#
# Convention : Reuss Voigt Hill
#
# Bulk Modulus (GPa) = 34.21666 55.81095 45.01380
# Shear Modulus (GPa) = 25.77505 36.95760 31.36633
#
# Velocity S-wave (km/s) = 3.35936 4.02262 3.70586
# Velocity P-wave (km/s) = 5.47982 6.78317 6.16603
#
# Compressibility (1/GPa) = 0.02922553
#
# Stress axis : x y z
#
# Youngs Moduli (GPa) = 39.04026 60.73137 95.01184
#
# Poissons Ratio (x) = 0.23521 0.62883
# Poissons Ratio (y) = 0.15120 0.11388
# Poissons Ratio (z) = 0.25839 0.07279
#
# Static dielectric constant tensor:
#      x y z
#    x 4.799310 0.704930 0.246990 
#    y 0.704930 4.614150 0.177640 
#    z 0.246990 0.177640 4.447940 
# 
# 
# High freq. dielectric constant tensor:
#      x y z
#    x 1.898560 0.017330 -0.000270 
#    y 0.017330 1.908350 -0.003200 
#    z -0.000270 -0.003200 1.915330 
# 
# From -- ./inp_files/159784.got.cif
#   From: 2010.06.25/outbox.cif.g09.slc.cpg/sg2_80_cif.got.tgz:159784.got - 2010.06.27 13:26:56.
