data_PCOD8015234
_publ_section_title
;
Structure prediction by ZEFSAII (Michael W. Deem and Ramdas Pophale) SiO2 
 PCOD8015234
Probable space group: P -1
;
_chemical_formula_sum "Si O2"
_cell_formula_units_Z 16
_cell_length_a 11.864698
_cell_length_b 11.989280
_cell_length_c 6.861283
_cell_angle_alpha 52.670244
_cell_angle_beta 104.898755
_cell_angle_gamma 94.465059
_cell_volume 746.113732
_symmetry_space_group_name_H-M "P -1"
_symmetry_group_IT_number 2
_symmetry_cell_setting 'triclinic'
loop_
_space_group_symop_operation_xyz
x,y,z
-x,-y,-z
loop_
_atom_site_type_symbol
_atom_site_label
_atom_site_fract_x
_atom_site_fract_y
_atom_site_fract_z
Si Si1 0.938596 0.627141 0.125947
Si Si2 0.148719 0.867486 0.318000
Si Si3 0.606662 0.595402 0.435512
Si Si4 0.824291 0.415625 0.548177
Si Si5 0.892882 0.847396 0.207209
Si Si6 0.765037 0.727747 0.629220
Si Si7 0.469717 0.094179 0.077015
Si Si8 0.672113 0.992475 0.548246
O O1 0.895866 0.482675 0.337346
O O2 0.890267 0.758674 0.101024
O O3 0.081719 0.610372 0.202315
O O4 0.882716 0.651912 0.860222
O O5 0.217228 0.731157 0.389952
O O6 0.216831 0.917244 0.484453
O O7 0.022761 0.827765 0.378376
O O8 0.137354 0.988174 0.021185
O O9 0.500000 0.500000 0.500000
O O10 0.708588 0.515780 0.435930
O O11 0.666938 0.621672 0.645034
O O12 0.560929 0.743663 0.162269
O O13 0.798596 0.797375 0.367435
O O14 0.701410 0.842800 0.620418
O O15 0.577795 0.088305 0.280097
O O16 0.365186 0.033154 0.216410
O O17 0.500000 0.000000 0.000000
#
# Coordination Sequence:
#
# PCOD8015234 Si02
#       8
#     2   2   2   2   2   2   2   2
#     4  10  21  44  70  97 130 186 219 264 341 407
#     4  10  22  41  66 102 137 172 217 280 327 391
#     4  12  27  44  66 100 134 177 225 280 338 391
#     4  10  23  44  66  94 145 172 214 281 335 397
#     4  10  21  42  67 100 140 172 217 271 332 396
#     4  12  23  42  74  99 132 178 224 272 337 410
#     4  11  25  47  69  92 128 181 232 275 328 390
#     4  11  24  41  73 101 126 175 231 274 331 397
#
# _framework density 21.444451000000001
#
# number of rings (size 3 to 8) (size 9 to 14) (size 15 to 20)
#    0.000    1.250    3.750    1.500    1.750    2.000 
#    2.250    1.875    0.000    0.000    0.000    0.000 
#    0.000    0.000    0.000    0.000    0.000    0.000 
#
# Total GULP energy -198378.078677 kJ/mol
# GULP energy per Si atom -12398.629917 kJ/mol
# Density = 2.139564 g / cm^3
# Si number density = 21.444451 Si / 1000 Ang^3
#
#
#
# Elastic Constant Matrix: (Units=GPa)
#
#
# Indices 1 2 3 4 5 6 
#
# 1 101.5249 54.5724 25.9004 2.3876 2.2025 7.6887
# 2 54.5724 145.3595 43.9663 -11.0769 5.2889 10.1765
# 3 25.9004 43.9663 87.9408 -8.7534 3.9786 -0.8473
# 4 2.3876 -11.0769 -8.7534 35.8476 -7.5169 8.7779
# 5 2.2025 5.2889 3.9786 -7.5169 22.4984 0.7783
# 6 7.6887 10.1765 -0.8473 8.7779 0.7783 42.5197
#
#
#
# Elastic Compliance Matrix: (Units=1/GPa)
#
#
# Indices 1 2 3 4 5 6 
#
# 1 0.012800 -0.004376 -0.001816 -0.002623 -0.000754 -0.000748
# 2 -0.004376 0.009949 -0.003394 0.003052 -0.000212 -0.002284
# 3 -0.001816 -0.003394 0.013853 0.002033 -0.000830 0.001012
# 4 -0.002623 0.003052 0.002033 0.033537 0.010638 -0.007334
# 5 -0.000754 -0.000212 -0.000830 0.010638 0.048373 -0.002911
# 6 -0.000748 -0.002284 0.001012 -0.007334 -0.002911 0.025788
#
#
# Mechanical properties :
#
#
# Convention : Reuss Voigt Hill
#
# Bulk Modulus (GPa) = 57.37484 64.85595 61.11539
# Shear Modulus (GPa) = 29.53653 34.19888 31.86770
#
# Velocity S-wave (km/s) = 3.71529 3.99778 3.85912
# Velocity P-wave (km/s) = 6.72441 7.18464 6.95833
#
# Compressibility (1/GPa) = 0.01742924
#
# Stress axis : x y z
#
# Youngs Moduli (GPa) = 78.12345 100.51070 72.18855
#
# Poissons Ratio (x) = 0.43987 0.13111
# Poissons Ratio (y) = 0.34190 0.24500
# Poissons Ratio (z) = 0.14189 0.34112
#
# Static dielectric constant tensor:
#      x y z
#    x 4.100810 0.162620 0.338310 
#    y 0.162620 4.011400 -0.069770 
#    z 0.338310 -0.069770 3.861420 
# 
# 
# High freq. dielectric constant tensor:
#      x y z
#    x 1.845350 0.004590 0.027470 
#    y 0.004590 1.851040 -0.009450 
#    z 0.027470 -0.009450 1.830730 
# 
# From -- ./inp_files/68641.got.cif
#   From: 2010.06.25/outbox.cif.g09.slc.cpg/sg2_35_cif.got.tgz:68641.got - 2010.06.27 13:26:56.
