data_PCOD8015284
_publ_section_title
;
Structure prediction by ZEFSAII (Michael W. Deem and Ramdas Pophale) SiO2 
 PCOD8015284
Probable space group: P -1
;
_chemical_formula_sum "Si O2"
_cell_formula_units_Z 16
_cell_length_a 8.041676
_cell_length_b 5.016859
_cell_length_c 18.902496
_cell_angle_alpha 81.421899
_cell_angle_beta 128.141237
_cell_angle_gamma 102.250046
_cell_volume 585.959722
_symmetry_space_group_name_H-M "P -1"
_symmetry_group_IT_number 2
_symmetry_cell_setting 'triclinic'
loop_
_space_group_symop_operation_xyz
x,y,z
-x,-y,-z
loop_
_atom_site_type_symbol
_atom_site_label
_atom_site_fract_x
_atom_site_fract_y
_atom_site_fract_z
Si Si1 0.302418 0.935612 0.518889
Si Si2 0.596732 0.292060 0.677400
Si Si3 0.808320 0.520390 0.593185
Si Si4 0.956043 0.363434 0.144835
Si Si5 0.712259 0.781524 0.108565
Si Si6 0.340010 0.156771 0.199482
Si Si7 0.758076 0.415209 0.361201
Si Si8 0.690741 0.588017 0.960865
O O1 0.358367 0.711187 0.483697
O O2 0.151216 0.768247 0.546316
O O3 0.524080 0.041561 0.613529
O O4 0.192431 0.172830 0.445657
O O5 0.759100 0.509258 0.664923
O O6 0.375421 0.379848 0.641866
O O7 0.718393 0.161731 0.779972
O O8 0.042792 0.440708 0.638923
O O9 0.903426 0.597645 0.175006
O O10 0.209926 0.338396 0.211041
O O11 0.809645 0.085456 0.144084
O O12 0.888688 0.437289 0.043554
O O13 0.507724 0.645330 0.106441
O O14 0.627054 0.764788 0.004668
O O15 0.593647 0.241843 0.270061
O O16 0.253861 0.196625 0.096727
#
# Coordination Sequence:
#
# PCOD8015284 Si02
#       8
#     2   2   2   2   2   2   2   2
#     4  11  24  46  77 106 131 180 236 288 335 409
#     4  11  27  45  68 105 145 180 228 282 352 408
#     4  12  26  45  77 101 134 185 233 282 341 407
#     4  10  21  42  67  94 127 174 223 277 330 399
#     4   9  21  39  70 100 121 163 242 274 335 397
#     4  11  26  43  61  99 144 177 223 282 339 412
#     4  11  27  46  67 107 142 181 228 284 348 407
#     4   9  21  41  68 100 127 175 227 284 329 403
#
# _framework density 27.305630000000001
#
# number of rings (size 3 to 8) (size 9 to 14) (size 15 to 20)
#    0.750    0.750    1.250    2.250    8.750    2.500 
#    2.250    0.000    0.000    0.000    0.000    0.000 
#    0.000    0.000    0.000    0.000    0.000    0.000 
#
# Total GULP energy -198255.921952 kJ/mol
# GULP energy per Si atom -12390.995122 kJ/mol
# Density = 2.724348 g / cm^3
# Si number density = 27.305630 Si / 1000 Ang^3
#
#
#
# Elastic Constant Matrix: (Units=GPa)
#
#
# Indices 1 2 3 4 5 6 
#
# 1 124.0584 20.5089 45.5832 -35.8297 -8.7015 14.2872
# 2 20.5089 125.4212 35.1058 -32.7621 -10.7370 4.4479
# 3 45.5832 35.1058 71.3817 -33.2600 0.5547 12.6684
# 4 -35.8297 -32.7621 -33.2600 48.1884 1.2886 -2.0386
# 5 -8.7015 -10.7370 0.5547 1.2886 32.8916 -0.8925
# 6 14.2872 4.4479 12.6684 -2.0386 -0.8925 28.2560
#
#
#
# Elastic Compliance Matrix: (Units=1/GPa)
#
#
# Indices 1 2 3 4 5 6 
#
# 1 0.012107 0.001474 -0.004857 0.006408 0.003417 -0.003606
# 2 0.001474 0.010517 -0.003374 0.005805 0.003643 -0.000354
# 3 -0.004857 -0.003374 0.025515 0.011471 -0.003476 -0.007734
# 4 0.006408 0.005805 0.011471 0.037055 0.001767 -0.006567
# 5 0.003417 0.003643 -0.003476 0.001767 0.032497 0.000411
# 6 -0.003606 -0.000354 -0.007734 -0.006567 0.000411 0.040277
#
#
# Mechanical properties :
#
#
# Convention : Reuss Voigt Hill
#
# Bulk Modulus (GPa) = 28.88145 58.13965 43.51055
# Shear Modulus (GPa) = 27.31864 36.51143 31.91504
#
# Velocity S-wave (km/s) = 3.16646 3.66066 3.42249
# Velocity P-wave (km/s) = 4.89579 6.26144 5.62025
#
# Compressibility (1/GPa) = 0.03462430
#
# Stress axis : x y z
#
# Youngs Moduli (GPa) = 82.59363 95.08020 39.19274
#
# Poissons Ratio (x) = -0.14016 0.19038
# Poissons Ratio (y) = -0.12175 0.13225
# Poissons Ratio (z) = 0.40119 0.32084
#
# Static dielectric constant tensor:
#      x y z
#    x 4.626300 0.153410 -0.011870 
#    y 0.153410 4.968340 -0.136120 
#    z -0.011870 -0.136120 4.814780 
# 
# 
# High freq. dielectric constant tensor:
#      x y z
#    x 2.088130 0.009750 0.004940 
#    y 0.009750 2.102980 -0.009090 
#    z 0.004940 -0.009090 2.091490 
# 
# From -- ./inp_files/585232.got.cif
#   From: 2010.06.25/outbox.cif.g09.slc.cpg/sg2_293_cif.got.tgz:585232.got - 2010.06.27 13:26:56.
