data_PCOD8015791
_publ_section_title
;
Structure prediction by ZEFSAII (Michael W. Deem and Ramdas Pophale) SiO2 
 PCOD8015791
Probable space group: P -1
;
_chemical_formula_sum "Si O2"
_cell_formula_units_Z 16
_cell_length_a 16.363912
_cell_length_b 9.122834
_cell_length_c 10.556237
_cell_angle_alpha 87.864307
_cell_angle_beta 71.267421
_cell_angle_gamma 35.137736
_cell_volume 782.089758
_symmetry_space_group_name_H-M "P -1"
_symmetry_group_IT_number 2
_symmetry_cell_setting 'triclinic'
loop_
_space_group_symop_operation_xyz
x,y,z
-x,-y,-z
loop_
_atom_site_type_symbol
_atom_site_label
_atom_site_fract_x
_atom_site_fract_y
_atom_site_fract_z
Si Si1 0.975672 0.193603 0.671214
Si Si2 0.343157 0.182484 0.157592
Si Si3 0.684533 0.606584 0.360741
Si Si4 0.689188 0.114561 0.830161
Si Si5 0.001514 0.825713 0.635281
Si Si6 0.321698 0.715002 0.643026
Si Si7 0.501808 0.896837 0.695968
Si Si8 0.580831 0.294929 0.156316
O O1 0.834324 0.491642 0.807693
O O2 0.953978 0.239137 0.531177
O O3 0.943860 0.066429 0.713676
O O4 0.160672 0.980007 0.626617
O O5 0.359707 0.218399 0.290775
O O6 0.342645 0.009231 0.169962
O O7 0.500000 0.000000 0.000000
O O8 0.693525 0.432059 0.304218
O O9 0.551046 0.780663 0.533780
O O10 0.843313 0.445149 0.351195
O O11 0.645665 0.773414 0.259806
O O12 0.582494 0.367540 0.777162
O O13 0.875837 0.876779 0.714511
O O14 0.667883 0.194501 0.983041
O O15 0.500000 0.500000 0.500000
O O16 0.302752 0.828579 0.780839
O O17 0.457590 0.820637 0.804581
#
# Coordination Sequence:
#
# PCOD8015791 Si02
#       8
#     2   2   2   2   2   2   2   2
#     4  10  23  40  70  96 131 170 214 271 324 380
#     4  12  24  43  65  98 133 173 214 266 325 387
#     4  10  22  39  66  97 126 167 210 272 327 376
#     4  11  25  40  66  92 128 174 217 267 324 385
#     4  10  21  43  65  95 129 166 220 269 322 383
#     4  11  21  40  67  99 128 169 218 267 323 384
#     4  11  21  41  65  92 130 166 215 266 325 381
#     4  11  23  42  63  93 127 172 220 263 318 394
#
# _framework density 20.458008
#
# number of rings (size 3 to 8) (size 9 to 14) (size 15 to 20)
#    0.000    1.250    3.750    2.250    3.500    1.500 
#    2.250    2.500    0.000    0.000    0.000    0.000 
#    0.000    0.000    0.000    0.000    0.000    0.000 
#
# Total GULP energy -198259.543896 kJ/mol
# GULP energy per Si atom -12391.221494 kJ/mol
# Density = 2.041144 g / cm^3
# Si number density = 20.458008 Si / 1000 Ang^3
#
#
#
# Elastic Constant Matrix: (Units=GPa)
#
#
# Indices 1 2 3 4 5 6 
#
# 1 122.9023 45.3109 20.7622 -2.1227 -5.4846 -3.8373
# 2 45.3109 133.5539 25.8454 4.4254 -15.4446 1.8750
# 3 20.7622 25.8454 51.3056 5.1098 -6.9823 1.5535
# 4 -2.1227 4.4254 5.1098 29.3401 -2.7386 -4.1633
# 5 -5.4846 -15.4446 -6.9823 -2.7386 39.1550 -4.6854
# 6 -3.8373 1.8750 1.5535 -4.1633 -4.6854 29.9599
#
#
#
# Elastic Compliance Matrix: (Units=1/GPa)
#
#
# Indices 1 2 3 4 5 6 
#
# 1 0.009745 -0.002853 -0.002736 0.001884 0.000105 0.001847
# 2 -0.002853 0.009400 -0.003117 -0.000908 0.002628 -0.000507
# 3 -0.002736 -0.003117 0.022862 -0.003740 0.002018 -0.001545
# 4 0.001884 -0.000908 -0.003740 0.036074 0.002467 0.005891
# 5 0.000105 0.002628 0.002018 0.002467 0.027651 0.004411
# 6 0.001847 -0.000507 -0.001545 0.005891 0.004411 0.035235
#
#
# Mechanical properties :
#
#
# Convention : Reuss Voigt Hill
#
# Bulk Modulus (GPa) = 40.65788 54.62209 47.63999
# Shear Modulus (GPa) = 30.01593 34.08057 32.04825
#
# Velocity S-wave (km/s) = 3.83456 4.08595 3.96225
# Velocity P-wave (km/s) = 6.28666 7.00125 6.65355
#
# Compressibility (1/GPa) = 0.02459548
#
# Stress axis : x y z
#
# Youngs Moduli (GPa) = 102.61198 106.38311 43.74002
#
# Poissons Ratio (x) = 0.30353 0.11966
# Poissons Ratio (y) = 0.29277 0.13635
# Poissons Ratio (z) = 0.28072 0.33162
#
# Static dielectric constant tensor:
#      x y z
#    x 3.786640 -0.020400 0.096880 
#    y -0.020400 3.966050 0.024270 
#    z 0.096880 0.024270 3.472450 
# 
# 
# High freq. dielectric constant tensor:
#      x y z
#    x 1.809980 -0.000530 0.006470 
#    y -0.000530 1.805440 -0.004460 
#    z 0.006470 -0.004460 1.780110 
# 
# From -- ./inp_files/404855.got.cif
#   From: 2010.06.25/outbox.cif.g09.slc.cpg/sg2_203_cif.got.tgz:404855.got - 2010.06.27 13:26:56.
