data_PCOD8015850
_publ_section_title
;
Structure prediction by ZEFSAII (Michael W. Deem and Ramdas Pophale) SiO2 
 PCOD8015850
Probable space group: P -1
;
_chemical_formula_sum "Si O2"
_cell_formula_units_Z 16
_cell_length_a 6.525965
_cell_length_b 19.980291
_cell_length_c 9.095909
_cell_angle_alpha 128.967091
_cell_angle_beta 127.403251
_cell_angle_gamma 75.789549
_cell_volume 714.414983
_symmetry_space_group_name_H-M "P -1"
_symmetry_group_IT_number 2
_symmetry_cell_setting 'triclinic'
loop_
_space_group_symop_operation_xyz
x,y,z
-x,-y,-z
loop_
_atom_site_type_symbol
_atom_site_label
_atom_site_fract_x
_atom_site_fract_y
_atom_site_fract_z
Si Si1 0.582449 0.027753 0.736145
Si Si2 0.634746 0.079868 0.269249
Si Si3 0.276727 0.533817 0.752620
Si Si4 0.142471 0.129432 0.716884
Si Si5 0.257748 0.560576 0.123597
Si Si6 0.432403 0.736549 0.602524
Si Si7 0.433325 0.711741 0.912289
Si Si8 0.021434 0.816158 0.971834
O O1 0.365605 0.076416 0.781177
O O2 0.500000 0.000000 0.500000
O O3 0.562423 0.938232 0.698780
O O4 0.865308 0.097398 0.961621
O O5 0.670365 0.174528 0.341503
O O6 0.933658 0.074108 0.434959
O O7 0.500000 0.000000 0.000000
O O8 0.468022 0.464733 0.741267
O O9 0.441678 0.617492 0.852293
O O10 0.000000 0.500000 0.500000
O O11 0.218680 0.557169 0.926694
O O12 0.285005 0.223946 0.841204
O O13 0.983218 0.147364 0.815575
O O14 0.276601 0.660503 0.323258
O O15 0.000000 0.500000 0.000000
O O16 0.384988 0.704969 0.706266
O O17 0.737621 0.762153 0.721863
O O18 0.207085 0.747056 0.947622
#
# Coordination Sequence:
#
# PCOD8015850 Si02
#       8
#     2   2   2   2   2   2   2   2
#     4  11  23  41  66  90 125 184 241 283 342 416
#     4  12  25  42  63  97 140 180 228 294 348 403
#     4  11  25  47  76 108 146 189 238 293 363 439
#     4  10  23  41  66  93 133 180 236 284 341 419
#     4  11  27  47  75 113 148 182 240 300 360 436
#     4  11  26  44  66 104 142 176 229 297 353 418
#     4  10  23  44  71  96 131 186 231 277 354 425
#     4  10  21  43  66  94 132 180 235 283 343 420
#
# _framework density 22.395945000000001
#
# number of rings (size 3 to 8) (size 9 to 14) (size 15 to 20)
#    0.000    1.250    1.250    4.125    5.250    4.500 
#    4.500    0.000    0.000    0.000    0.000    0.000 
#    0.000    0.000    0.000    0.000    0.000    0.000 
#
# Total GULP energy -198315.825600 kJ/mol
# GULP energy per Si atom -12394.739100 kJ/mol
# Density = 2.234497 g / cm^3
# Si number density = 22.395945 Si / 1000 Ang^3
#
#
#
# Elastic Constant Matrix: (Units=GPa)
#
#
# Indices 1 2 3 4 5 6 
#
# 1 116.6485 34.3867 51.8253 -3.8275 4.3127 12.1101
# 2 34.3867 103.6395 40.1315 7.9144 0.8621 28.6190
# 3 51.8253 40.1315 164.1616 5.7943 9.9505 9.3251
# 4 -3.8275 7.9144 5.7943 37.5646 2.7075 2.4597
# 5 4.3127 0.8621 9.9505 2.7075 43.4168 3.4970
# 6 12.1101 28.6190 9.3251 2.4597 3.4970 40.6219
#
#
#
# Elastic Compliance Matrix: (Units=1/GPa)
#
#
# Indices 1 2 3 4 5 6 
#
# 1 0.010695 -0.002354 -0.002794 0.002112 -0.000428 -0.000980
# 2 -0.002354 0.013765 -0.002135 -0.002348 0.001279 -0.008474
# 3 -0.002794 -0.002135 0.007571 -0.000951 -0.001419 0.000779
# 4 0.002112 -0.002348 -0.000951 0.027615 -0.001644 -0.000287
# 5 -0.000428 0.001279 -0.001419 -0.001644 0.023669 -0.002386
# 6 -0.000980 -0.008474 0.000779 -0.000287 -0.002386 0.030923
#
#
# Mechanical properties :
#
#
# Convention : Reuss Voigt Hill
#
# Bulk Modulus (GPa) = 57.25698 70.79295 64.02497
# Shear Modulus (GPa) = 37.13994 41.52772 39.33383
#
# Velocity S-wave (km/s) = 4.07668 4.31077 4.19536
# Velocity P-wave (km/s) = 6.91234 7.51368 7.21927
#
# Compressibility (1/GPa) = 0.01746512
#
# Stress axis : x y z
#
# Youngs Moduli (GPa) = 93.50436 72.64640 132.08505
#
# Poissons Ratio (x) = 0.17099 0.36902
# Poissons Ratio (y) = 0.22009 0.28204
# Poissons Ratio (z) = 0.26123 0.15512
#
# Static dielectric constant tensor:
#      x y z
#    x 4.183750 0.084080 0.103260 
#    y 0.084080 3.991360 0.100270 
#    z 0.103260 0.100270 4.179770 
# 
# 
# High freq. dielectric constant tensor:
#      x y z
#    x 1.892020 0.017710 0.007690 
#    y 0.017710 1.876900 0.011590 
#    z 0.007690 0.011590 1.891550 
# 
# From -- ./inp_files/141666.got.cif
#   From: 2010.06.25/outbox.cif.g09.slc.cpg/sg2_71_cif.got.tgz:141666.got - 2010.06.27 13:26:56.
