data_PCOD8015065
_publ_section_title
;
Structure prediction by ZEFSAII (Michael W. Deem and Ramdas Pophale) SiO2 
 PCOD8015065
Probable space group: P -1
;
_chemical_formula_sum "Si O2"
_cell_formula_units_Z 16
_cell_length_a 29.493934
_cell_length_b 14.635505
_cell_length_c 8.908771
_cell_angle_alpha 129.047288
_cell_angle_beta 40.727109
_cell_angle_gamma 161.215366
_cell_volume 734.544433
_symmetry_space_group_name_H-M "P -1"
_symmetry_group_IT_number 2
_symmetry_cell_setting 'triclinic'
loop_
_space_group_symop_operation_xyz
x,y,z
-x,-y,-z
loop_
_atom_site_type_symbol
_atom_site_label
_atom_site_fract_x
_atom_site_fract_y
_atom_site_fract_z
Si Si1 0.047907 0.412825 0.194967
Si Si2 0.706784 0.021966 0.674730
Si Si3 0.877008 0.715967 0.609234
Si Si4 0.903734 0.074517 0.481216
Si Si5 0.454858 0.790213 0.878419
Si Si6 0.391622 0.218548 0.037994
Si Si7 0.710999 0.365407 0.376483
Si Si8 0.623709 0.436249 0.479785
O O1 0.173929 0.720051 0.236260
O O2 0.840034 0.130525 0.380631
O O3 0.139653 0.494391 0.907743
O O4 0.050390 0.326175 0.240874
O O5 0.621146 0.971169 0.711282
O O6 0.554229 0.725788 0.864846
O O7 0.748351 0.438229 0.534231
O O8 0.732563 0.544426 0.913181
O O9 0.000000 0.000000 0.500000
O O10 0.011351 0.841929 0.493721
O O11 0.822190 0.075498 0.730217
O O12 0.749128 0.746771 0.457270
O O13 0.435408 0.726125 0.687755
O O14 0.500000 0.000000 0.000000
O O15 0.500000 0.500000 0.000000
O O16 0.437784 0.181724 0.774051
O O17 0.747152 0.544564 0.385708
O O18 0.500000 0.000000 0.500000
#
# Coordination Sequence:
#
# PCOD8015065 Si02
#       8
#     2   2   2   2   2   2   2   2
#     4  10  22  40  67  92 125 171 216 262 328 390
#     4  10  21  42  65  93 130 168 213 271 320 387
#     4  12  25  40  63  96 131 171 215 277 323 381
#     4  10  22  41  62  93 129 169 214 266 328 387
#     4  12  26  42  65  97 134 173 223 271 332 392
#     4   9  20  39  64  92 127 170 212 261 327 388
#     4  12  24  40  65  95 130 172 221 266 328 395
#     4  11  22  39  64  90 129 172 213 267 325 385
#
# _framework density 21.782207
#
# number of rings (size 3 to 8) (size 9 to 14) (size 15 to 20)
#    0.000    1.250    1.250    5.250    3.500    2.000 
#    0.000    5.625    0.000    7.500    0.000    0.000 
#    0.000    0.000    0.000    0.000    0.000    0.000 
#
# Total GULP energy -198304.729087 kJ/mol
# GULP energy per Si atom -12394.045568 kJ/mol
# Density = 2.173263 g / cm^3
# Si number density = 21.782207 Si / 1000 Ang^3
#
#
#
# Elastic Constant Matrix: (Units=GPa)
#
#
# Indices 1 2 3 4 5 6 
#
# 1 138.3831 27.1872 37.5944 6.6696 -9.3999 8.6420
# 2 27.1872 69.6678 28.4355 3.6923 2.0167 3.5766
# 3 37.5944 28.4355 154.7639 7.8303 -4.3608 10.1098
# 4 6.6696 3.6923 7.8303 31.7749 -2.0723 9.4317
# 5 -9.3999 2.0167 -4.3608 -2.0723 31.0605 0.8131
# 6 8.6420 3.5766 10.1098 9.4317 0.8131 37.6528
#
#
#
# Elastic Compliance Matrix: (Units=1/GPa)
#
#
# Indices 1 2 3 4 5 6 
#
# 1 0.008403 -0.002702 -0.001365 -0.000589 0.002519 -0.001212
# 2 -0.002702 0.016500 -0.002392 -0.000901 -0.002284 -0.000030
# 3 -0.001365 -0.002392 0.007378 -0.000834 0.000755 -0.001248
# 4 -0.000589 -0.000901 -0.000834 0.034502 0.002281 -0.008247
# 5 0.002519 -0.002284 0.000755 0.002281 0.033413 -0.001857
# 6 -0.001212 -0.000030 -0.001248 -0.008247 -0.001857 0.029280
#
#
# Mechanical properties :
#
#
# Convention : Reuss Voigt Hill
#
# Bulk Modulus (GPa) = 51.64427 61.02769 56.33598
# Shear Modulus (GPa) = 33.59148 38.07082 35.83115
#
# Velocity S-wave (km/s) = 3.93128 4.18520 4.06023
# Velocity P-wave (km/s) = 6.66089 7.17165 6.92099
#
# Compressibility (1/GPa) = 0.01936323
#
# Stress axis : x y z
#
# Youngs Moduli (GPa) = 119.00350 60.60646 135.54720
#
# Poissons Ratio (x) = 0.16374 0.18500
# Poissons Ratio (y) = 0.32150 0.32425
# Poissons Ratio (z) = 0.16242 0.14498
#
# Static dielectric constant tensor:
#      x y z
#    x 4.091360 -0.253740 -0.079180 
#    y -0.253740 3.804240 -0.233690 
#    z -0.079180 -0.233690 4.648150 
# 
# 
# High freq. dielectric constant tensor:
#      x y z
#    x 1.869000 -0.023830 -0.002800 
#    y -0.023830 1.833680 -0.013220 
#    z -0.002800 -0.013220 1.869490 
# 
# From -- ./inp_files/270497.got.cif
#   From: 2010.06.25/outbox.cif.g09.slc.cpg/sg2_136_cif.got.tgz:270497.got - 2010.06.27 13:26:56.
