data_PCOD8015235
_publ_section_title
;
Structure prediction by ZEFSAII (Michael W. Deem and Ramdas Pophale) SiO2 
 PCOD8015235
Probable space group: P -1
;
_chemical_formula_sum "Si O2"
_cell_formula_units_Z 16
_cell_length_a 8.421081
_cell_length_b 12.504655
_cell_length_c 9.872202
_cell_angle_alpha 50.690558
_cell_angle_beta 98.872203
_cell_angle_gamma 82.382884
_cell_volume 757.822185
_symmetry_space_group_name_H-M "P -1"
_symmetry_group_IT_number 2
_symmetry_cell_setting 'triclinic'
loop_
_space_group_symop_operation_xyz
x,y,z
-x,-y,-z
loop_
_atom_site_type_symbol
_atom_site_label
_atom_site_fract_x
_atom_site_fract_y
_atom_site_fract_z
Si Si1 0.644806 0.867749 0.796582
Si Si2 0.308227 0.103452 0.527763
Si Si3 0.655006 0.596956 0.675203
Si Si4 0.989263 0.052032 0.607284
Si Si5 0.330191 0.456923 0.989592
Si Si6 0.109207 0.587591 0.370473
Si Si7 0.732109 0.338266 0.407093
Si Si8 0.054350 0.107794 0.025077
O O1 0.724130 0.896653 0.639234
O O2 0.643778 0.701953 0.942392
O O3 0.746940 0.917809 0.892355
O O4 0.449129 0.957346 0.707574
O O5 0.373672 0.233786 0.477785
O O6 0.140820 0.123356 0.579874
O O7 0.754054 0.534552 0.878559
O O8 0.753281 0.515413 0.625533
O O9 0.466614 0.589336 0.665616
O O10 0.805854 0.168073 0.517548
O O11 0.029216 0.917153 0.824175
O O12 0.000000 0.000000 0.500000
O O13 0.500000 0.500000 0.000000
O O14 0.208758 0.571012 0.777387
O O15 0.200416 0.648300 0.448308
O O16 0.000000 0.500000 0.500000
O O17 0.004672 0.725969 0.160530
O O18 0.000000 0.000000 0.000000
#
# Coordination Sequence:
#
# PCOD8015235 Si02
#       8
#     2   2   2   2   2   2   2   2
#     4  10  21  42  67 100 140 182 222 294 345 417
#     4  10  22  39  68 100 134 171 236 283 355 405
#     4  10  23  41  69  99 131 185 232 290 351 413
#     4  12  25  41  71 102 135 179 230 294 351 409
#     4   9  21  38  69 101 134 175 239 290 350 410
#     4  12  26  45  69  95 144 186 235 285 348 422
#     4  11  23  44  65  96 141 180 229 284 351 421
#     4  12  26  46  69 101 146 186 231 288 353 421
#
# _framework density 21.113133000000001
#
# number of rings (size 3 to 8) (size 9 to 14) (size 15 to 20)
#    0.000    1.250    2.500    2.625    7.000    1.000 
#    0.000    5.000    0.000    0.000    0.000    0.000 
#    0.000    0.000    0.000    0.000    0.000    0.000 
#
# Total GULP energy -198252.889453 kJ/mol
# GULP energy per Si atom -12390.805591 kJ/mol
# Density = 2.106508 g / cm^3
# Si number density = 21.113133 Si / 1000 Ang^3
#
#
#
# Elastic Constant Matrix: (Units=GPa)
#
#
# Indices 1 2 3 4 5 6 
#
# 1 80.9326 29.9867 39.3739 2.9822 -1.4490 -9.0125
# 2 29.9867 125.7294 51.4814 7.4887 5.0199 -4.3598
# 3 39.3739 51.4814 158.8680 -6.4117 -1.6221 -7.3132
# 4 2.9822 7.4887 -6.4117 35.4218 5.5606 -0.7225
# 5 -1.4490 5.0199 -1.6221 5.5606 33.6323 2.8988
# 6 -9.0125 -4.3598 -7.3132 -0.7225 2.8988 41.6146
#
#
#
# Elastic Compliance Matrix: (Units=1/GPa)
#
#
# Indices 1 2 3 4 5 6 
#
# 1 0.014937 -0.002237 -0.002914 -0.001398 0.000861 0.002404
# 2 -0.002237 0.009783 -0.002711 -0.002158 -0.001341 0.000120
# 3 -0.002914 -0.002711 0.008012 0.002240 0.000251 0.000514
# 4 -0.001398 -0.002158 0.002240 0.029954 -0.004644 0.000708
# 5 0.000861 -0.001341 0.000251 -0.004644 0.030935 -0.002145
# 6 0.002404 0.000120 0.000514 0.000708 -0.002145 0.024815
#
#
# Mechanical properties :
#
#
# Convention : Reuss Voigt Hill
#
# Bulk Modulus (GPa) = 58.79588 67.46822 63.13205
# Shear Modulus (GPa) = 35.75736 38.44626 37.10181
#
# Velocity S-wave (km/s) = 4.11981 4.27191 4.19655
# Velocity P-wave (km/s) = 7.10907 7.50714 7.31082
#
# Compressibility (1/GPa) = 0.01700799
#
# Stress axis : x y z
#
# Youngs Moduli (GPa) = 66.94689 102.21309 124.81347
#
# Poissons Ratio (x) = 0.22866 0.36372
# Poissons Ratio (y) = 0.14977 0.33839
# Poissons Ratio (z) = 0.19509 0.27712
#
# Static dielectric constant tensor:
#      x y z
#    x 3.084630 0.354840 -1.712590 
#    y 0.354840 3.829020 0.360130 
#    z -1.712590 0.360130 3.735910 
# 
# 
# High freq. dielectric constant tensor:
#      x y z
#    x 1.815440 0.018450 -0.005110 
#    y 0.018450 1.829460 -0.003400 
#    z -0.005110 -0.003400 1.846150 
# 
# From -- ./inp_files/184336.got.cif
#   From: 2010.06.25/outbox.cif.g09.slc.cpg/sg2_93_cif.got.tgz:184336.got - 2010.06.27 13:26:56.
