data_PCOD8015527
_publ_section_title
;
Structure prediction by ZEFSAII (Michael W. Deem and Ramdas Pophale) SiO2 
 PCOD8015527
Probable space group: P -1
;
_chemical_formula_sum "Si O2"
_cell_formula_units_Z 14
_cell_length_a 13.517573
_cell_length_b 8.714201
_cell_length_c 13.846445
_cell_angle_alpha 96.137778
_cell_angle_beta 31.396701
_cell_angle_gamma 117.347535
_cell_volume 594.342038
_symmetry_space_group_name_H-M "P -1"
_symmetry_group_IT_number 2
_symmetry_cell_setting 'triclinic'
loop_
_space_group_symop_operation_xyz
x,y,z
-x,-y,-z
loop_
_atom_site_type_symbol
_atom_site_label
_atom_site_fract_x
_atom_site_fract_y
_atom_site_fract_z
Si Si1 0.001181 0.863036 0.169773
Si Si2 0.582783 0.337695 0.163821
Si Si3 0.181632 0.352001 0.497731
Si Si4 0.369511 0.082100 0.517405
Si Si5 0.618047 0.201110 0.634617
Si Si6 0.695368 0.081335 0.753625
Si Si7 0.882929 0.459414 0.198765
O O1 0.993466 0.847732 0.292217
O O2 0.881717 0.958403 0.239227
O O3 0.833993 0.615034 0.259947
O O4 0.295197 0.019655 0.889160
O O5 0.478672 0.450698 0.235065
O O6 0.509350 0.262870 0.330065
O O7 0.411120 0.134601 0.220852
O O8 0.904699 0.491473 0.896096
O O9 0.241402 0.559487 0.500889
O O10 0.004609 0.246581 0.541213
O O11 0.592092 0.200847 0.427641
O O12 0.278121 0.866357 0.533424
O O13 0.701052 0.218285 0.677290
O O14 0.500000 0.000000 0.000000
O O15 0.000000 0.500000 0.000000
#
# Coordination Sequence:
#
# PCOD8015527 Si02
#       7
#     2   2   2   2   2   2   2
#     4  11  20  40  63  88 119 162 199 239 303 354
#     4   9  19  35  60  87 118 158 198 246 292 353
#     4  11  23  38  62  89 121 157 202 244 301 351
#     4   9  20  36  65  87 120 158 200 244 298 352
#     4  11  22  42  59  92 124 152 199 254 287 358
#     4  11  19  39  63  83 119 163 195 244 302 349
#     4  10  16  36  66  87 116 162 197 242 300 348
#
# _framework density 23.55546
#
# number of rings (size 3 to 8) (size 9 to 14) (size 15 to 20)
#    0.000    1.714    5.714    1.286    0.000    0.000 
#    5.143    2.143    0.000    0.000    0.000    0.000 
#    0.000    0.000    0.000    0.000    0.000    0.000 
#
# Total GULP energy -173484.849440 kJ/mol
# GULP energy per Si atom -12391.774960 kJ/mol
# Density = 2.350185 g / cm^3
# Si number density = 23.555460 Si / 1000 Ang^3
#
#
#
# Elastic Constant Matrix: (Units=GPa)
#
#
# Indices 1 2 3 4 5 6 
#
# 1 61.4039 41.3344 38.3436 -4.3715 -30.4122 -7.8729
# 2 41.3344 138.2462 46.4481 7.8107 -38.9797 -5.3921
# 3 38.3436 46.4481 73.5216 7.4670 -24.8456 -12.7890
# 4 -4.3715 7.8107 7.4670 40.6291 -2.1854 -8.9218
# 5 -30.4122 -38.9797 -24.8456 -2.1854 45.6893 -0.8475
# 6 -7.8729 -5.3921 -12.7890 -8.9218 -0.8475 30.1789
#
#
#
# Elastic Compliance Matrix: (Units=1/GPa)
#
#
# Indices 1 2 3 4 5 6 
#
# 1 0.033279 -0.002441 -0.010454 0.008237 0.014901 0.006669
# 2 -0.002441 0.010807 -0.003620 -0.001492 0.005545 -0.000525
# 3 -0.010454 -0.003620 0.023598 -0.003366 0.002730 0.005708
# 4 0.008237 -0.001492 -0.003366 0.028596 0.003915 0.009020
# 5 0.014901 0.005545 0.002730 0.003915 0.038362 0.008270
# 6 0.006669 -0.000525 0.005708 0.009020 0.008270 0.040099
#
#
# Mechanical properties :
#
#
# Convention : Reuss Voigt Hill
#
# Bulk Modulus (GPa) = 28.85818 58.38043 43.61930
# Shear Modulus (GPa) = 22.79734 33.10250 27.94992
#
# Velocity S-wave (km/s) = 3.11435 3.75280 3.44838
# Velocity P-wave (km/s) = 5.02095 6.60425 5.86626
#
# Compressibility (1/GPa) = 0.03465222
#
# Stress axis : x y z
#
# Youngs Moduli (GPa) = 30.04887 92.53220 42.37635
#
# Poissons Ratio (x) = 0.22591 0.44302
# Poissons Ratio (y) = 0.07336 0.15341
# Poissons Ratio (z) = 0.31415 0.33498
#
# Static dielectric constant tensor:
#      x y z
#    x 3.957070 0.598480 -0.033270 
#    y 0.598480 4.502510 0.009240 
#    z -0.033270 0.009240 4.168700 
# 
# 
# High freq. dielectric constant tensor:
#      x y z
#    x 1.931430 0.008670 -0.014140 
#    y 0.008670 1.935810 0.011880 
#    z -0.014140 0.011880 1.925650 
# 
# From -- ./inp_files/201025.got.cif
#   From: 2010.06.25/outbox.cif.g09.slc.cpg/sg2_101_cif.got.tgz:201025.got - 2010.06.27 13:26:56.
