data_PCOD8015803
_publ_section_title
;
Structure prediction by ZEFSAII (Michael W. Deem and Ramdas Pophale) SiO2 
 PCOD8015803
Probable space group: P -1
;
_chemical_formula_sum "Si O2"
_cell_formula_units_Z 16
_cell_length_a 11.528808
_cell_length_b 15.077147
_cell_length_c 8.659362
_cell_angle_alpha 130.167645
_cell_angle_beta 107.927982
_cell_angle_gamma 110.718588
_cell_volume 711.652147
_symmetry_space_group_name_H-M "P -1"
_symmetry_group_IT_number 2
_symmetry_cell_setting 'triclinic'
loop_
_space_group_symop_operation_xyz
x,y,z
-x,-y,-z
loop_
_atom_site_type_symbol
_atom_site_label
_atom_site_fract_x
_atom_site_fract_y
_atom_site_fract_z
Si Si1 0.337833 0.299453 0.659417
Si Si2 0.525795 0.814286 0.216364
Si Si3 0.536009 0.453457 0.613394
Si Si4 0.090118 0.546999 0.755530
Si Si5 0.499462 0.193224 0.150911
Si Si6 0.086850 0.181153 0.674280
Si Si7 0.828201 0.200225 0.707636
Si Si8 0.231972 0.806954 0.651359
O O1 0.388643 0.212303 0.656161
O O2 0.351872 0.313054 0.493013
O O3 0.134997 0.195028 0.526163
O O4 0.500000 0.500000 0.000000
O O5 0.649942 0.019641 0.523039
O O6 0.308669 0.680345 0.007666
O O7 0.545799 0.787166 0.015511
O O8 0.500000 0.500000 0.500000
O O9 0.576206 0.349380 0.467223
O O10 0.713638 0.643363 0.974133
O O11 0.000000 0.500000 0.500000
O O12 0.985354 0.359173 0.573950
O O13 0.049853 0.633257 0.939034
O O14 0.655618 0.205497 0.213416
O O15 0.312398 0.995491 0.921680
O O16 0.947786 0.185285 0.656712
O O17 0.000000 0.000000 0.500000
O O18 0.749507 0.216807 0.548521
#
# Coordination Sequence:
#
# PCOD8015803 Si02
#       8
#     2   2   2   2   2   2   2   2
#     4  10  23  42  67  97 128 181 230 281 336 411
#     4  11  23  43  70  95 142 181 227 280 351 412
#     4  11  25  43  72  99 136 181 229 286 359 403
#     4  12  25  42  65 106 138 172 233 287 340 410
#     4  10  21  43  65  98 137 185 219 286 345 416
#     4  11  23  46  69  97 136 180 241 282 333 413
#     4  11  25  43  70  96 139 191 222 283 351 415
#     4  10  23  40  65  97 139 180 226 273 350 409
#
# _framework density 22.482894000000002
#
# number of rings (size 3 to 8) (size 9 to 14) (size 15 to 20)
#    0.000    1.250    2.500    3.000    7.000    1.000 
#    0.000    0.625    0.000    0.000    0.000    0.000 
#    0.000    0.000    0.000    0.000    0.000    0.000 
#
# Total GULP energy -198238.276195 kJ/mol
# GULP energy per Si atom -12389.892262 kJ/mol
# Density = 2.243172 g / cm^3
# Si number density = 22.482894 Si / 1000 Ang^3
#
#
#
# Elastic Constant Matrix: (Units=GPa)
#
#
# Indices 1 2 3 4 5 6 
#
# 1 102.6686 40.6938 31.2339 12.6183 3.3768 13.5526
# 2 40.6938 154.1555 49.0051 16.6295 -0.6810 15.1720
# 3 31.2339 49.0051 105.8398 20.0597 -3.8995 8.5903
# 4 12.6183 16.6295 20.0597 48.2213 5.9051 8.4502
# 5 3.3768 -0.6810 -3.8995 5.9051 37.6697 5.0640
# 6 13.5526 15.1720 8.5903 8.4502 5.0640 28.2347
#
#
#
# Elastic Compliance Matrix: (Units=1/GPa)
#
#
# Indices 1 2 3 4 5 6 
#
# 1 0.011772 -0.001995 -0.002137 -0.000792 -0.000709 -0.003564
# 2 -0.001995 0.008253 -0.002871 -0.000757 0.000481 -0.002463
# 3 -0.002137 -0.002871 0.012220 -0.003713 0.002041 -0.000404
# 4 -0.000792 -0.000757 -0.003713 0.023988 -0.003463 -0.004642
# 5 -0.000709 0.000481 0.002041 -0.003463 0.027981 -0.004521
# 6 -0.003564 -0.002463 -0.000404 -0.004642 -0.004521 0.040775
#
#
# Mechanical properties :
#
#
# Convention : Reuss Voigt Hill
#
# Bulk Modulus (GPa) = 54.83064 67.16995 61.00029
# Shear Modulus (GPa) = 34.46511 38.94054 36.70282
#
# Velocity S-wave (km/s) = 3.91954 4.16625 4.04478
# Velocity P-wave (km/s) = 6.70256 7.28591 7.00031
#
# Compressibility (1/GPa) = 0.01823798
#
# Stress axis : x y z
#
# Youngs Moduli (GPa) = 84.94631 121.17480 81.83278
#
# Poissons Ratio (x) = 0.24177 0.17488
# Poissons Ratio (y) = 0.16948 0.23496
# Poissons Ratio (z) = 0.18153 0.34792
#
# Static dielectric constant tensor:
#      x y z
#    x 4.307470 0.619870 -0.156730 
#    y 0.619870 4.820510 0.085570 
#    z -0.156730 0.085570 4.366560 
# 
# 
# High freq. dielectric constant tensor:
#      x y z
#    x 1.865690 0.006400 -0.000090 
#    y 0.006400 1.905850 0.019600 
#    z -0.000090 0.019600 1.887180 
# 
# From -- ./inp_files/206776.got.cif
#   From: 2010.06.25/outbox.cif.g09.slc.cpg/sg2_104_cif.got.tgz:206776.got - 2010.06.27 13:26:56.
