data_PCOD8015775
_publ_section_title
;
Structure prediction by ZEFSAII (Michael W. Deem and Ramdas Pophale) SiO2 
 PCOD8015775
Probable space group: P -1
;
_chemical_formula_sum "Si O2"
_cell_formula_units_Z 14
_cell_length_a 18.520905
_cell_length_b 8.755924
_cell_length_c 12.380623
_cell_angle_alpha 133.813750
_cell_angle_beta 27.602863
_cell_angle_gamma 123.829757
_cell_volume 661.519599
_symmetry_space_group_name_H-M "P -1"
_symmetry_group_IT_number 2
_symmetry_cell_setting 'triclinic'
loop_
_space_group_symop_operation_xyz
x,y,z
-x,-y,-z
loop_
_atom_site_type_symbol
_atom_site_label
_atom_site_fract_x
_atom_site_fract_y
_atom_site_fract_z
Si Si1 0.158839 0.952609 0.698054
Si Si2 0.735261 0.600874 0.241280
Si Si3 0.143375 0.807003 0.219282
Si Si4 0.528109 0.332918 0.785606
Si Si5 0.954447 0.267544 0.462715
Si Si6 0.536960 0.397459 0.565835
Si Si7 0.710677 0.984107 0.045141
O O1 0.302721 0.822661 0.511973
O O2 0.135947 0.803659 0.554593
O O3 0.199600 0.180744 0.718679
O O4 0.000000 0.000000 0.000000
O O5 0.638165 0.562430 0.458551
O O6 0.627004 0.602659 0.279011
O O7 0.878523 0.400751 0.928119
O O8 0.166800 0.730730 0.274902
O O9 0.000000 0.000000 0.500000
O O10 0.291513 0.898441 0.013024
O O11 0.508266 0.458452 0.759242
O O12 0.385381 0.205883 0.928893
O O13 0.500000 0.500000 0.000000
O O14 0.000000 0.500000 0.500000
O O15 0.111898 0.097501 0.191366
O O16 0.632394 0.155271 0.320364
#
# Coordination Sequence:
#
# PCOD8015775 Si02
#       7
#     2   2   2   2   2   2   2
#     4  12  26  42  63 102 133 171 222 272 326 392
#     4  10  22  42  68  95 124 173 224 267 319 395
#     4   9  21  40  64  93 127 170 215 265 332 392
#     4  12  26  41  64 100 133 168 221 276 327 382
#     4  11  23  40  65  94 134 176 214 269 334 390
#     4  10  22  42  68  91 126 173 219 264 328 386
#     4  10  21  43  65  90 125 177 218 259 328 396
#
# _framework density 21.163394
#
# number of rings (size 3 to 8) (size 9 to 14) (size 15 to 20)
#    0.000    1.429    1.429    3.000    6.000    2.286 
#    0.000   12.857    0.000    0.000    0.000    0.000 
#    0.000    0.000    0.000    0.000    0.000    0.000 
#
# Total GULP energy -173538.617250 kJ/mol
# GULP energy per Si atom -12395.615518 kJ/mol
# Density = 2.111522 g / cm^3
# Si number density = 21.163394 Si / 1000 Ang^3
#
#
#
# Elastic Constant Matrix: (Units=GPa)
#
#
# Indices 1 2 3 4 5 6 
#
# 1 102.5221 55.8296 26.6800 -9.3076 29.7685 -7.6203
# 2 55.8296 147.0199 33.5755 0.1015 23.7683 -1.3789
# 3 26.6800 33.5755 81.6034 4.4719 14.1324 -6.0744
# 4 -9.3076 0.1015 4.4719 37.3326 -6.6388 3.1329
# 5 29.7685 23.7683 14.1324 -6.6388 47.1683 -4.5232
# 6 -7.6203 -1.3789 -6.0744 3.1329 -4.5232 32.8435
#
#
#
# Elastic Compliance Matrix: (Units=1/GPa)
#
#
# Indices 1 2 3 4 5 6 
#
# 1 0.014648 -0.004102 -0.002078 0.002696 -0.006007 0.001758
# 2 -0.004102 0.009100 -0.002154 -0.000981 -0.001594 -0.001094
# 3 -0.002078 -0.002154 0.014500 -0.002805 -0.002142 0.002082
# 4 0.002696 -0.000981 -0.002805 0.028594 0.003448 -0.002187
# 5 -0.006007 -0.001594 -0.002142 0.003448 0.027070 0.001542
# 6 0.001758 -0.001094 0.002082 -0.002187 0.001542 0.031615
#
#
# Mechanical properties :
#
#
# Convention : Reuss Voigt Hill
#
# Bulk Modulus (GPa) = 46.34240 62.59063 54.46652
# Shear Modulus (GPa) = 33.46958 37.80623 35.63790
#
# Velocity S-wave (km/s) = 3.98110 4.23116 4.10804
# Velocity P-wave (km/s) = 6.56332 7.31502 6.94934
#
# Compressibility (1/GPa) = 0.02157851
#
# Stress axis : x y z
#
# Youngs Moduli (GPa) = 68.26723 109.89340 68.96582
#
# Poissons Ratio (x) = 0.45081 0.14331
# Poissons Ratio (y) = 0.28005 0.14859
# Poissons Ratio (z) = 0.14186 0.23676
#
# Static dielectric constant tensor:
#      x y z
#    x 3.938050 -0.375570 0.089350 
#    y -0.375570 4.072790 -0.053420 
#    z 0.089350 -0.053420 4.396350 
# 
# 
# High freq. dielectric constant tensor:
#      x y z
#    x 1.811650 -0.022980 0.003650 
#    y -0.022980 1.835810 0.002930 
#    z 0.003650 0.002930 1.854090 
# 
# From -- ./inp_files/157250.got.cif
#   From: 2010.06.25/outbox.cif.g09.slc.cpg/sg2_79_cif.got.tgz:157250.got - 2010.06.27 13:26:56.
