data_PCOD8015447
_publ_section_title
;
Structure prediction by ZEFSAII (Michael W. Deem and Ramdas Pophale) SiO2 
 PCOD8015447
Probable space group: P -1
;
_chemical_formula_sum "Si O2"
_cell_formula_units_Z 16
_cell_length_a 16.862103
_cell_length_b 17.570370
_cell_length_c 8.691360
_cell_angle_alpha 143.364252
_cell_angle_beta 29.871865
_cell_angle_gamma 150.199355
_cell_volume 624.265362
_symmetry_space_group_name_H-M "P -1"
_symmetry_group_IT_number 2
_symmetry_cell_setting 'triclinic'
loop_
_space_group_symop_operation_xyz
x,y,z
-x,-y,-z
loop_
_atom_site_type_symbol
_atom_site_label
_atom_site_fract_x
_atom_site_fract_y
_atom_site_fract_z
Si Si1 0.257963 0.257076 0.457546
Si Si2 0.386809 0.235557 0.716722
Si Si3 0.992539 0.493423 0.817428
Si Si4 0.592465 0.422838 0.401424
Si Si5 0.748321 0.974684 0.136824
Si Si6 0.154225 0.814411 0.929890
Si Si7 0.297472 0.968522 0.242174
Si Si8 0.974382 0.770289 0.685096
O O1 0.398548 0.292256 0.422461
O O2 0.367946 0.408262 0.405669
O O3 0.202505 0.107359 0.208100
O O4 0.060542 0.227248 0.806964
O O5 0.572681 0.385080 0.559821
O O6 0.428451 0.160230 0.673038
O O7 0.289595 0.109469 0.539036
O O8 0.234372 0.272855 0.087409
O O9 0.051879 0.386725 0.464244
O O10 0.141591 0.662337 0.759306
O O11 0.770170 0.424327 0.033967
O O12 0.000000 0.500000 0.000000
O O13 0.719501 0.098361 0.298194
O O14 0.930429 0.083832 0.121724
O O15 0.273083 0.953060 0.076999
O O16 0.112162 0.809233 0.368420
O O17 0.500000 0.000000 0.000000
#
# Coordination Sequence:
#
# PCOD8015447 Si02
#       8
#     2   2   2   2   2   2   2   2
#     4  10  21  42  69 104 134 176 229 288 332 403
#     4  11  23  40  67 102 141 178 221 283 340 402
#     4  11  24  45  73  94 131 183 237 276 331 415
#     4  10  23  43  72 100 135 179 234 275 334 408
#     4  11  23  38  63  99 138 170 216 280 346 393
#     4  11  22  41  71  98 132 182 228 275 342 410
#     4  11  22  41  69  97 136 183 233 275 331 412
#     4  11  23  43  65 101 138 179 225 283 345 397
#
# _framework density 25.630125
#
# number of rings (size 3 to 8) (size 9 to 14) (size 15 to 20)
#    0.000    1.250    1.250    5.625    1.750    1.000 
#    0.000    5.625    0.000    0.000    0.000    0.000 
#    0.000    0.000    0.000    0.000    0.000    0.000 
#
# Total GULP energy -198235.225198 kJ/mol
# GULP energy per Si atom -12389.701575 kJ/mol
# Density = 2.557179 g / cm^3
# Si number density = 25.630125 Si / 1000 Ang^3
#
#
#
# Elastic Constant Matrix: (Units=GPa)
#
#
# Indices 1 2 3 4 5 6 
#
# 1 107.7587 44.9176 13.0108 -10.7737 12.9655 -26.8594
# 2 44.9176 117.4962 37.1269 0.5450 10.7875 -41.4866
# 3 13.0108 37.1269 74.8285 -2.8251 -5.4441 -7.7314
# 4 -10.7737 0.5450 -2.8251 41.9661 -5.6230 11.8821
# 5 12.9655 10.7875 -5.4441 -5.6230 28.3240 -10.7507
# 6 -26.8594 -41.4866 -7.7314 11.8821 -10.7507 64.9572
#
#
#
# Elastic Compliance Matrix: (Units=1/GPa)
#
#
# Indices 1 2 3 4 5 6 
#
# 1 0.011797 -0.003579 -0.000241 0.002183 -0.003018 0.001665
# 2 -0.003579 0.014832 -0.006355 -0.004079 -0.003214 0.007451
# 3 -0.000241 -0.006355 0.016887 0.002379 0.005621 -0.001653
# 4 0.002183 -0.004079 0.002379 0.026755 0.004190 -0.005620
# 5 -0.003018 -0.003214 0.005621 0.004190 0.041117 0.003407
# 6 0.001665 0.007451 -0.001653 -0.005620 0.003407 0.022237
#
#
# Mechanical properties :
#
#
# Convention : Reuss Voigt Hill
#
# Bulk Modulus (GPa) = 43.16491 54.46601 48.81546
# Shear Modulus (GPa) = 30.92226 40.71800 35.82013
#
# Velocity S-wave (km/s) = 3.47721 3.99015 3.74248
# Velocity P-wave (km/s) = 5.74451 6.52114 6.14511
#
# Compressibility (1/GPa) = 0.02316697
#
# Stress axis : x y z
#
# Youngs Moduli (GPa) = 84.76493 67.42183 59.21850
#
# Poissons Ratio (x) = 0.24132 0.01424
# Poissons Ratio (y) = 0.30340 0.37631
# Poissons Ratio (z) = 0.02039 0.42844
#
# Static dielectric constant tensor:
#      x y z
#    x 4.728720 -0.457810 0.176510 
#    y -0.457810 5.033770 -0.099700 
#    z 0.176510 -0.099700 4.343920 
# 
# 
# High freq. dielectric constant tensor:
#      x y z
#    x 2.020530 -0.019300 0.002250 
#    y -0.019300 2.044990 0.003300 
#    z 0.002250 0.003300 1.992520 
# 
# From -- ./inp_files/336793.got.cif
#   From: 2010.06.25/outbox.cif.g09.slc.cpg/sg2_169_cif.got.tgz:336793.got - 2010.06.27 13:26:56.
