data_PCOD8015001
_publ_section_title
;
Structure prediction by ZEFSAII (Michael W. Deem and Ramdas Pophale) SiO2 
 PCOD8015001
Probable space group: P -1
;
_chemical_formula_sum "Si O2"
_cell_formula_units_Z 14
_cell_length_a 15.860199
_cell_length_b 14.691910
_cell_length_c 6.786572
_cell_angle_alpha 76.346624
_cell_angle_beta 62.307662
_cell_angle_gamma 28.999908
_cell_volume 623.070821
_symmetry_space_group_name_H-M "P -1"
_symmetry_group_IT_number 2
_symmetry_cell_setting 'triclinic'
loop_
_space_group_symop_operation_xyz
x,y,z
-x,-y,-z
loop_
_atom_site_type_symbol
_atom_site_label
_atom_site_fract_x
_atom_site_fract_y
_atom_site_fract_z
Si Si1 0.718925 0.165305 0.202410
Si Si2 0.947883 0.102746 0.700105
Si Si3 0.140579 0.139252 0.019025
Si Si4 0.223406 0.400527 0.350005
Si Si5 0.788220 0.792857 0.438079
Si Si6 0.745433 0.445742 0.524117
Si Si7 0.450779 0.934721 0.111318
O O1 0.476432 0.395846 0.397206
O O2 0.793780 0.182312 0.969538
O O3 0.838529 0.061621 0.333487
O O4 0.751219 0.039342 0.121573
O O5 0.836808 0.296354 0.665562
O O6 0.000000 0.000000 0.500000
O O7 0.904398 0.316390 0.235144
O O8 0.259854 0.062052 0.126207
O O9 0.142223 0.230721 0.836097
O O10 0.291971 0.244561 0.469787
O O11 0.300601 0.415113 0.397017
O O12 0.979009 0.621801 0.471637
O O13 0.342699 0.302131 0.058224
O O14 0.618082 0.012532 0.610917
O O15 0.500000 0.000000 0.000000
#
# Coordination Sequence:
#
# PCOD8015001 Si02
#       7
#     2   2   2   2   2   2   2
#     4  11  26  47  73 105 131 182 230 280 360 413
#     4  11  25  51  75  98 140 172 227 296 347 421
#     4  12  24  43  66 102 141 178 234 278 336 413
#     4  10  21  42  64  96 135 182 231 276 341 391
#     4  10  23  41  63  94 140 184 227 281 327 400
#     4  12  24  46  71 104 140 181 227 290 345 411
#     4  10  22  42  64  93 136 184 228 275 330 389
#
# _framework density 22.469355
#
# number of rings (size 3 to 8) (size 9 to 14) (size 15 to 20)
#    0.000    1.143    4.286    1.286    0.000    4.571 
#    5.143    0.000    0.000    0.000    0.000    0.000 
#    0.000    0.000    0.000    0.000    0.000    0.000 
#
# Total GULP energy -173573.339359 kJ/mol
# GULP energy per Si atom -12398.095668 kJ/mol
# Density = 2.241821 g / cm^3
# Si number density = 22.469355 Si / 1000 Ang^3
#
#
#
# Elastic Constant Matrix: (Units=GPa)
#
#
# Indices 1 2 3 4 5 6 
#
# 1 105.2292 46.8864 40.1463 -8.4442 -2.2936 -12.6045
# 2 46.8864 94.2021 66.4957 3.0123 -11.8397 -6.1937
# 3 40.1463 66.4957 113.0358 10.0438 -7.0821 1.1850
# 4 -8.4442 3.0123 10.0438 37.4241 -2.8273 -9.3995
# 5 -2.2936 -11.8397 -7.0821 -2.8273 32.5860 2.3428
# 6 -12.6045 -6.1937 1.1850 -9.3995 2.3428 36.3667
#
#
#
# Elastic Compliance Matrix: (Units=1/GPa)
#
#
# Indices 1 2 3 4 5 6 
#
# 1 0.013799 -0.005037 -0.002567 0.005492 -0.001337 0.005514
# 2 -0.005037 0.021294 -0.010525 0.000888 0.005019 0.002130
# 3 -0.002567 -0.010525 0.016436 -0.005331 -0.000567 -0.004559
# 4 0.005492 0.000888 -0.005331 0.032054 0.001583 0.010411
# 5 -0.001337 0.005019 -0.000567 0.001583 0.032523 -0.001276
# 6 0.005514 0.002130 -0.004559 0.010411 -0.001276 0.032693
#
#
# Mechanical properties :
#
#
# Convention : Reuss Voigt Hill
#
# Bulk Modulus (GPa) = 65.48282 68.83598 67.15940
# Shear Modulus (GPa) = 26.29551 31.87127 29.08339
#
# Velocity S-wave (km/s) = 3.42465 3.77029 3.60162
# Velocity P-wave (km/s) = 6.69657 7.04667 6.87385
#
# Compressibility (1/GPa) = 0.01527118
#
# Stress axis : x y z
#
# Youngs Moduli (GPa) = 72.47005 46.96177 60.84278
#
# Poissons Ratio (x) = 0.23654 0.15621
# Poissons Ratio (y) = 0.36502 0.64034
# Poissons Ratio (z) = 0.18606 0.49425
#
# Static dielectric constant tensor:
#      x y z
#    x 4.495730 0.147480 -0.489020 
#    y 0.147480 4.030040 0.168680 
#    z -0.489020 0.168680 4.717550 
# 
# 
# High freq. dielectric constant tensor:
#      x y z
#    x 1.897160 -0.000040 -0.008850 
#    y -0.000040 1.874050 0.018280 
#    z -0.008850 0.018280 1.891440 
# 
# From -- ./inp_files/49455.got.cif
#   From: 2010.06.25/outbox.cif.g09.slc.cpg/sg2_25_cif.got.tgz:49455.got - 2010.06.27 13:26:56.
