data_PCOD8015512
_publ_section_title
;
Structure prediction by ZEFSAII (Michael W. Deem and Ramdas Pophale) SiO2 
 PCOD8015512
Probable space group: P -1
;
_chemical_formula_sum "Si O2"
_cell_formula_units_Z 16
_cell_length_a 11.447827
_cell_length_b 17.950844
_cell_length_c 17.026226
_cell_angle_alpha 149.638070
_cell_angle_beta 152.204984
_cell_angle_gamma 27.581300
_cell_volume 703.361366
_symmetry_space_group_name_H-M "P -1"
_symmetry_group_IT_number 2
_symmetry_cell_setting 'triclinic'
loop_
_space_group_symop_operation_xyz
x,y,z
-x,-y,-z
loop_
_atom_site_type_symbol
_atom_site_label
_atom_site_fract_x
_atom_site_fract_y
_atom_site_fract_z
Si Si1 0.158585 0.727093 0.168360
Si Si2 0.404674 0.922348 0.127804
Si Si3 0.207165 0.271444 0.608615
Si Si4 0.592401 0.353803 0.026130
Si Si5 0.001939 0.666564 0.176253
Si Si6 0.868791 0.782176 0.883104
Si Si7 0.571851 0.562764 0.518778
Si Si8 0.467639 0.913427 0.514208
O O1 0.943243 0.756884 0.138992
O O2 0.272123 0.848247 0.377021
O O3 0.421115 0.527874 0.132977
O O4 0.979017 0.801915 0.050372
O O5 0.269939 0.811277 0.981863
O O6 0.751535 0.785843 0.197952
O O7 0.268298 0.025432 0.059906
O O8 0.346790 0.067309 0.289285
O O9 0.360712 0.347795 0.823659
O O10 0.329283 0.237832 0.563038
O O11 0.862999 0.398388 0.510000
O O12 0.258428 0.094528 0.512663
O O13 0.854023 0.349168 0.127041
O O14 0.311266 0.618787 0.353765
O O15 0.000000 0.500000 0.000000
O O16 0.640423 0.718229 0.704147
O O17 0.500000 0.500000 0.500000
#
# Coordination Sequence:
#
# PCOD8015512 Si02
#       8
#     2   2   2   2   2   2   2   2
#     4  12  23  42  74 102 145 185 233 287 348 424
#     4  11  26  47  71 100 147 186 235 298 349 416
#     4  10  21  42  70 104 145 183 229 286 354 418
#     4  11  21  46  74 103 150 184 227 296 354 414
#     4  12  27  49  69  98 139 192 235 284 358 422
#     4  12  25  42  75 110 136 187 239 289 352 419
#     4  12  25  44  73 104 144 189 240 290 354 419
#     4  10  22  40  68 106 140 183 227 290 355 402
#
# _framework density 22.747909
#
# number of rings (size 3 to 8) (size 9 to 14) (size 15 to 20)
#    0.000    0.750    3.750    4.500    0.000    5.500 
#    0.000    2.500    0.000    0.000    0.000    0.000 
#    0.000    0.000    0.000    0.000    0.000    0.000 
#
# Total GULP energy -198344.036955 kJ/mol
# GULP energy per Si atom -12396.502310 kJ/mol
# Density = 2.269613 g / cm^3
# Si number density = 22.747909 Si / 1000 Ang^3
#
#
#
# Elastic Constant Matrix: (Units=GPa)
#
#
# Indices 1 2 3 4 5 6 
#
# 1 108.4331 7.7632 20.3028 -1.4082 13.3062 26.5834
# 2 7.7632 63.3102 15.6305 -12.3697 -0.2938 17.5947
# 3 20.3028 15.6305 89.6877 8.2044 16.3222 11.9269
# 4 -1.4082 -12.3697 8.2044 29.2396 4.5480 1.6581
# 5 13.3062 -0.2938 16.3222 4.5480 37.7931 2.8365
# 6 26.5834 17.5947 11.9269 1.6581 2.8365 45.6422
#
#
#
# Elastic Compliance Matrix: (Units=1/GPa)
#
#
# Indices 1 2 3 4 5 6 
#
# 1 0.011476 0.001292 -0.001587 0.002410 -0.003135 -0.006660
# 2 0.001292 0.020919 -0.003935 0.010361 0.000777 -0.008213
# 3 -0.001587 -0.003935 0.013575 -0.004781 -0.004711 -0.000639
# 4 0.002410 0.010361 -0.004781 0.040848 -0.003211 -0.005433
# 5 -0.003135 0.000777 -0.004711 -0.003211 0.029914 0.001015
# 6 -0.006660 -0.008213 -0.000639 -0.005433 0.001015 0.029256
#
#
# Mechanical properties :
#
#
# Convention : Reuss Voigt Hill
#
# Bulk Modulus (GPa) = 26.66094 38.75822 32.70958
# Shear Modulus (GPa) = 29.94889 37.05064 33.49976
#
# Velocity S-wave (km/s) = 3.63237 4.04015 3.84168
# Velocity P-wave (km/s) = 5.41644 6.23209 5.83852
#
# Compressibility (1/GPa) = 0.03750805
#
# Stress axis : x y z
#
# Youngs Moduli (GPa) = 87.14102 47.80411 73.66672
#
# Poissons Ratio (x) = -0.06175 0.11692
# Poissons Ratio (y) = -0.11257 0.28988
# Poissons Ratio (z) = 0.13831 0.18811
#
# Static dielectric constant tensor:
#      x y z
#    x 4.374380 0.069150 0.184980 
#    y 0.069150 4.115190 0.065460 
#    z 0.184980 0.065460 4.121740 
# 
# 
# High freq. dielectric constant tensor:
#      x y z
#    x 1.916120 0.012590 0.010480 
#    y 0.012590 1.897140 0.011580 
#    z 0.010480 0.011580 1.893240 
# 
# From -- ./inp_files/570282.got.cif
#   From: 2010.06.25/outbox.cif.g09.slc.cpg/sg2_286_cif.got.tgz:570282.got - 2010.06.27 13:26:56.
