data_PCOD8015820
_publ_section_title
;
Structure prediction by ZEFSAII (Michael W. Deem and Ramdas Pophale) SiO2 
 PCOD8015820
Probable space group: P -1
;
_chemical_formula_sum "Si O2"
_cell_formula_units_Z 14
_cell_length_a 13.370477
_cell_length_b 13.692917
_cell_length_c 13.635464
_cell_angle_alpha 137.583654
_cell_angle_beta 149.479187
_cell_angle_gamma 30.272463
_cell_volume 638.952787
_symmetry_space_group_name_H-M "P -1"
_symmetry_group_IT_number 2
_symmetry_cell_setting 'triclinic'
loop_
_space_group_symop_operation_xyz
x,y,z
-x,-y,-z
loop_
_atom_site_type_symbol
_atom_site_label
_atom_site_fract_x
_atom_site_fract_y
_atom_site_fract_z
Si Si1 0.227877 0.002235 0.673685
Si Si2 0.612158 0.027303 0.430062
Si Si3 0.208901 0.826380 0.976316
Si Si4 0.885361 0.858080 0.980862
Si Si5 0.576471 0.307676 0.747155
Si Si6 0.960838 0.367626 0.419637
Si Si7 0.193546 0.268724 0.982692
O O1 0.265580 0.977762 0.571437
O O2 0.147372 0.202679 0.793361
O O3 0.505190 0.821257 0.824949
O O4 0.000000 0.000000 0.500000
O O5 0.299061 0.154584 0.251181
O O6 0.660517 0.119864 0.624549
O O7 0.768656 0.805098 0.425416
O O8 0.113439 0.715777 0.784572
O O9 0.456550 0.694057 0.162746
O O10 0.233637 0.920440 0.972112
O O11 0.000000 0.000000 0.000000
O O12 0.858902 0.824755 0.046328
O O13 0.190535 0.691648 0.081543
O O14 0.285681 0.504161 0.615424
O O15 0.000000 0.500000 0.500000
O O16 0.000000 0.500000 0.000000
#
# Coordination Sequence:
#
# PCOD8015820 Si02
#       7
#     2   2   2   2   2   2   2
#     4  10  23  43  70  94 132 171 215 266 333 384
#     4  11  24  43  64  99 133 173 210 273 325 378
#     4  10  21  43  66  89 132 178 206 263 328 377
#     4  10  22  43  68  89 136 171 212 262 331 378
#     4  11  24  42  66  96 132 173 220 260 324 380
#     4  12  26  41  68 100 130 170 225 265 317 386
#     4  10  23  44  67 100 128 168 218 274 322 381
#
# _framework density 21.910851999999998
#
# number of rings (size 3 to 8) (size 9 to 14) (size 15 to 20)
#    0.000    1.429    2.857    2.143    4.000    5.143 
#    5.143    0.000    0.000    0.000    0.000    0.000 
#    0.000    0.000    0.000    0.000    0.000    0.000 
#
# Total GULP energy -173468.486068 kJ/mol
# GULP energy per Si atom -12390.606148 kJ/mol
# Density = 2.186098 g / cm^3
# Si number density = 21.910852 Si / 1000 Ang^3
#
#
#
# Elastic Constant Matrix: (Units=GPa)
#
#
# Indices 1 2 3 4 5 6 
#
# 1 96.9106 39.0530 57.1984 -0.1639 21.6985 0.6302
# 2 39.0530 123.0169 51.9978 5.3378 10.4088 -17.4689
# 3 57.1984 51.9978 120.2731 6.7418 17.6526 -2.3026
# 4 -0.1639 5.3378 6.7418 36.9125 -6.8853 9.1400
# 5 21.6985 10.4088 17.6526 -6.8853 36.8592 -8.1779
# 6 0.6302 -17.4689 -2.3026 9.1400 -8.1779 33.0850
#
#
#
# Elastic Compliance Matrix: (Units=1/GPa)
#
#
# Indices 1 2 3 4 5 6 
#
# 1 0.016408 -0.002883 -0.005713 0.001323 -0.006812 -0.004282
# 2 -0.002883 0.011512 -0.003506 -0.002520 0.001181 0.006877
# 3 -0.005713 -0.003506 0.013014 -0.002144 -0.002469 -0.000855
# 4 0.001323 -0.002520 -0.002144 0.030940 0.004771 -0.008873
# 5 -0.006812 0.001181 -0.002469 0.004771 0.034615 0.007820
# 6 -0.004282 0.006877 -0.000855 -0.008873 0.007820 0.038263
#
#
# Mechanical properties :
#
#
# Convention : Reuss Voigt Hill
#
# Bulk Modulus (GPa) = 59.77745 70.74435 65.26090
# Shear Modulus (GPa) = 28.64790 34.16809 31.40799
#
# Velocity S-wave (km/s) = 3.61983 3.95323 3.79019
# Velocity P-wave (km/s) = 6.69419 7.29347 7.00025
#
# Compressibility (1/GPa) = 0.01672872
#
# Stress axis : x y z
#
# Youngs Moduli (GPa) = 60.94694 86.86280 76.84319
#
# Poissons Ratio (x) = 0.25043 0.43900
# Poissons Ratio (y) = 0.17571 0.26945
# Poissons Ratio (z) = 0.34819 0.30458
#
# Static dielectric constant tensor:
#      x y z
#    x 4.238480 0.284470 -0.224070 
#    y 0.284470 4.667420 -0.607600 
#    z -0.224070 -0.607600 4.460490 
# 
# 
# High freq. dielectric constant tensor:
#      x y z
#    x 1.849840 -0.009620 0.005880 
#    y -0.009620 1.855410 -0.011820 
#    z 0.005880 -0.011820 1.878730 
# 
# From -- ./inp_files/533848.got.cif
#   From: 2010.06.25/outbox.cif.g09.slc.cpg/sg2_267_cif.got.tgz:533848.got - 2010.06.27 13:26:56.
