data_PCOD8015496
_publ_section_title
;
Structure prediction by ZEFSAII (Michael W. Deem and Ramdas Pophale) SiO2 
 PCOD8015496
Probable space group: P -1
;
_chemical_formula_sum "Si O2"
_cell_formula_units_Z 12
_cell_length_a 7.174989
_cell_length_b 6.363463
_cell_length_c 14.305209
_cell_angle_alpha 121.054854
_cell_angle_beta 130.103765
_cell_angle_gamma 79.465502
_cell_volume 416.689638
_symmetry_space_group_name_H-M "P -1"
_symmetry_group_IT_number 2
_symmetry_cell_setting 'triclinic'
loop_
_space_group_symop_operation_xyz
x,y,z
-x,-y,-z
loop_
_atom_site_type_symbol
_atom_site_label
_atom_site_fract_x
_atom_site_fract_y
_atom_site_fract_z
Si Si1 0.715379 0.408215 0.759631
Si Si2 0.408606 0.221866 0.446039
Si Si3 0.393885 0.096782 0.212561
Si Si4 0.241661 0.589453 0.939548
Si Si5 0.934812 0.173322 0.391727
Si Si6 0.763203 0.622106 0.294651
O O1 0.583275 0.199860 0.589939
O O2 0.763139 0.690294 0.794659
O O3 0.537210 0.405592 0.792037
O O4 0.004897 0.394606 0.869714
O O5 0.500000 0.500000 0.500000
O O6 0.423819 0.028700 0.319105
O O7 0.118298 0.175262 0.365598
O O8 0.667625 0.229574 0.288016
O O9 0.267211 0.859048 0.056329
O O10 0.181333 0.587110 0.807728
O O11 0.500000 0.500000 0.000000
O O12 0.071021 0.384539 0.560057
O O13 0.864887 0.894633 0.345962
#
# Coordination Sequence:
#
# PCOD8015496 Si02
#       6
#     2   2   2   2   2   2
#     4  10  24  43  69  97 132 173 221 273 324 387
#     4   9  21  41  69 102 131 165 217 277 324 387
#     4  11  23  42  69 101 129 174 218 271 330 388
#     4  12  25  44  64  95 137 178 218 270 330 388
#     4  10  21  42  69  99 131 172 218 270 329 386
#     4  10  23  43  66  97 135 173 218 269 326 395
#
# _framework density 28.798410000000001
#
# number of rings (size 3 to 8) (size 9 to 14) (size 15 to 20)
#    0.000    1.667    1.667    1.500    0.000   12.667 
#    0.000    5.000    0.000    0.000    0.000    0.000 
#    0.000    0.000    0.000    0.000    0.000    0.000 
#
# Total GULP energy -148766.862138 kJ/mol
# GULP energy per Si atom -12397.238512 kJ/mol
# Density = 2.873286 g / cm^3
# Si number density = 28.798410 Si / 1000 Ang^3
#
#
#
# Elastic Constant Matrix: (Units=GPa)
#
#
# Indices 1 2 3 4 5 6 
#
# 1 245.4300 11.0388 97.3205 11.9840 17.8481 8.8460
# 2 11.0388 35.6230 34.2780 10.4269 -10.9748 -6.8576
# 3 97.3205 34.2780 192.8070 51.2972 -15.6189 -6.6049
# 4 11.9840 10.4269 51.2972 43.2146 -18.8972 -2.2846
# 5 17.8481 -10.9748 -15.6189 -18.8972 68.8443 1.3761
# 6 8.8460 -6.8576 -6.6049 -2.2846 1.3761 39.5348
#
#
#
# Elastic Compliance Matrix: (Units=1/GPa)
#
#
# Indices 1 2 3 4 5 6 
#
# 1 0.005547 0.000324 -0.003509 0.001731 -0.001675 -0.001613
# 2 0.000324 0.036080 -0.006272 0.000827 0.004371 0.005034
# 3 -0.003509 -0.006272 0.010888 -0.010633 -0.000557 0.000921
# 4 0.001731 0.000827 -0.010633 0.038508 0.007842 -0.000068
# 5 -0.001675 0.004371 -0.000557 0.007842 0.017665 0.000878
# 6 -0.001613 0.005034 0.000921 -0.000068 0.000878 0.026648
#
#
# Mechanical properties :
#
#
# Convention : Reuss Voigt Hill
#
# Bulk Modulus (GPa) = 29.75985 84.34827 57.05406
# Shear Modulus (GPa) = 30.22090 52.40023 41.31057
#
# Velocity S-wave (km/s) = 3.24295 4.27025 3.79155
# Velocity P-wave (km/s) = 4.93747 7.32572 6.24679
#
# Compressibility (1/GPa) = 0.03360232
#
# Stress axis : x y z
#
# Youngs Moduli (GPa) = 180.28835 27.71651 91.84362
#
# Poissons Ratio (x) = -0.00899 0.32227
# Poissons Ratio (y) = -0.05850 0.57601
# Poissons Ratio (z) = 0.63261 0.17383
#
# Static dielectric constant tensor:
#      x y z
#    x 5.750300 0.155170 -0.293970 
#    y 0.155170 5.307340 -0.024470 
#    z -0.293970 -0.024470 6.157850 
# 
# 
# High freq. dielectric constant tensor:
#      x y z
#    x 2.192250 0.008270 0.005590 
#    y 0.008270 2.183400 0.023340 
#    z 0.005590 0.023340 2.176870 
# 
# From -- ./inp_files/480899.got.cif
#   From: 2010.06.25/outbox.cif.g09.slc.cpg/sg2_241_cif.got.tgz:480899.got - 2010.06.27 13:26:56.
