data_PCOD8015147
_publ_section_title
;
Structure prediction by ZEFSAII (Michael W. Deem and Ramdas Pophale) SiO2 
 PCOD8015147
Probable space group: P -1
;
_chemical_formula_sum "Si O2"
_cell_formula_units_Z 16
_cell_length_a 11.943596
_cell_length_b 11.370825
_cell_length_c 15.024582
_cell_angle_alpha 149.197579
_cell_angle_beta 123.477785
_cell_angle_gamma 77.786381
_cell_volume 687.923108
_symmetry_space_group_name_H-M "P -1"
_symmetry_group_IT_number 2
_symmetry_cell_setting 'triclinic'
loop_
_space_group_symop_operation_xyz
x,y,z
-x,-y,-z
loop_
_atom_site_type_symbol
_atom_site_label
_atom_site_fract_x
_atom_site_fract_y
_atom_site_fract_z
Si Si1 0.547652 0.699719 0.423693
Si Si2 0.620718 0.709231 0.267391
Si Si3 0.129821 0.646252 0.022780
Si Si4 0.655222 0.476012 0.469975
Si Si5 0.296760 0.049504 0.091667
Si Si6 0.872970 0.572533 0.300728
Si Si7 0.141264 0.740547 0.653036
Si Si8 0.223186 0.640534 0.252930
O O1 0.511065 0.633827 0.259672
O O2 0.581511 0.499221 0.359957
O O3 0.378122 0.640095 0.350746
O O4 0.716842 0.027791 0.727200
O O5 0.758181 0.669171 0.332717
O O6 0.718723 0.038257 0.493140
O O7 0.500000 0.500000 0.000000
O O8 0.179195 0.562902 0.079363
O O9 0.102435 0.425153 0.792170
O O10 0.950195 0.594921 0.921392
O O11 0.500440 0.234259 0.308898
O O12 0.760325 0.778752 0.769174
O O13 0.767782 0.375587 0.431326
O O14 0.208909 0.742966 0.900149
O O15 0.260101 0.022401 0.951123
O O16 0.055106 0.804616 0.579758
O O17 0.000000 0.500000 0.500000
#
# Coordination Sequence:
#
# PCOD8015147 Si02
#       8
#     2   2   2   2   2   2   2   2
#     4  11  21  43  69  94 130 174 219 269 336 396
#     4  11  23  41  69  94 130 175 213 269 341 394
#     4  10  21  42  66  90 134 166 216 280 318 393
#     4  11  23  43  69  98 128 181 221 264 340 396
#     4  10  23  43  67  95 135 168 227 272 319 402
#     4  11  22  43  65  93 132 173 210 272 339 384
#     4  10  23  42  61  95 137 165 216 277 321 390
#     4  10  23  42  65  99 128 167 223 275 324 402
#
# _framework density 23.258413000000001
#
# number of rings (size 3 to 8) (size 9 to 14) (size 15 to 20)
#    0.000    1.500    1.250    4.875    0.000    4.500 
#   18.000    0.000    0.000    0.000    0.000    0.000 
#    0.000    0.000    0.000    0.000    0.000    0.000 
#
# Total GULP energy -198354.730043 kJ/mol
# GULP energy per Si atom -12397.170628 kJ/mol
# Density = 2.320548 g / cm^3
# Si number density = 23.258413 Si / 1000 Ang^3
#
#
#
# Elastic Constant Matrix: (Units=GPa)
#
#
# Indices 1 2 3 4 5 6 
#
# 1 116.1639 10.6617 56.6309 -23.9932 10.7608 -10.2628
# 2 10.6617 47.3342 36.1437 -24.6872 -0.9529 -14.7506
# 3 56.6309 36.1437 81.4619 -22.9465 -18.2812 -20.2138
# 4 -23.9932 -24.6872 -22.9465 22.1802 12.1028 9.2688
# 5 10.7608 -0.9529 -18.2812 12.1028 46.4745 -10.1183
# 6 -10.2628 -14.7506 -20.2138 9.2688 -10.1183 29.9115
#
#
#
# Elastic Compliance Matrix: (Units=1/GPa)
#
#
# Indices 1 2 3 4 5 6 
#
# 1 -0.018252 -0.049387 0.028061 -0.078905 0.040574 0.026522
# 2 -0.049387 -0.054622 0.055487 -0.122669 0.076616 0.057546
# 3 0.028061 0.055487 -0.017354 0.109290 -0.045901 -0.024130
# 4 -0.078905 -0.122669 0.109290 -0.158389 0.116256 0.074698
# 5 0.040574 0.076616 -0.045901 0.116256 -0.040996 -0.029208
# 6 0.026522 0.057546 -0.024130 0.074698 -0.029208 0.021576
#
#
# Mechanical properties :
#
#
# Convention : Reuss Voigt Hill
#
# Bulk Modulus (GPa) = -45.65092 50.20364 2.27636
# Shear Modulus (GPa) = -14.54918 29.14814 7.29948
#
# Velocity S-wave (km/s) = -2.50380 3.54394 1.77348
# Velocity P-wave (km/s) = 5.29424 6.19500 2.27475
#
# Compressibility (1/GPa) = -0.02190536
#
# Stress axis : x y z
#
# Youngs Moduli (GPa) = -54.78948 -18.30769 -57.62233
#
# Poissons Ratio (x) = -0.90417 1.61695
# Poissons Ratio (y) = -2.70591 3.19732
# Poissons Ratio (z) = 1.53746 1.01585
#
# Static dielectric constant tensor:
#      x y z
#    x 3.179410 0.399120 0.362620 
#    y 0.399120 4.144710 -0.655750 
#    z 0.362620 -0.655750 4.833410 
# 
# 
# High freq. dielectric constant tensor:
#      x y z
#    x 1.927230 0.008800 -0.000540 
#    y 0.008800 1.905570 -0.017820 
#    z -0.000540 -0.017820 1.926960 
# 
# From -- ./inp_files/519967.got.cif
#   From: 2010.06.25/outbox.cif.g09.slc.cpg/sg2_260_cif.got.tgz:519967.got - 2010.06.27 13:26:56.
