data_PCOD8015020
_publ_section_title
;
Structure prediction by ZEFSAII (Michael W. Deem and Ramdas Pophale) SiO2 
 PCOD8015020
Probable space group: P -1
;
_chemical_formula_sum "Si O2"
_cell_formula_units_Z 16
_cell_length_a 9.469221
_cell_length_b 13.414086
_cell_length_c 12.302234
_cell_angle_alpha 137.693033
_cell_angle_beta 133.590710
_cell_angle_gamma 68.867893
_cell_volume 725.160240
_symmetry_space_group_name_H-M "P -1"
_symmetry_group_IT_number 2
_symmetry_cell_setting 'triclinic'
loop_
_space_group_symop_operation_xyz
x,y,z
-x,-y,-z
loop_
_atom_site_type_symbol
_atom_site_label
_atom_site_fract_x
_atom_site_fract_y
_atom_site_fract_z
Si Si1 0.972387 0.422373 0.038094
Si Si2 0.429218 0.029417 0.811616
Si Si3 0.511550 0.375865 0.073746
Si Si4 0.388938 0.864713 0.449265
Si Si5 0.757283 0.962290 0.064321
Si Si6 0.395857 0.379434 0.256448
Si Si7 0.790912 0.582780 0.229451
Si Si8 0.785218 0.904129 0.580266
O O1 0.979804 0.542856 0.238492
O O2 0.156026 0.353096 0.096819
O O3 0.758938 0.283681 0.809425
O O4 0.000000 0.500000 0.000000
O O5 0.363874 0.878859 0.576757
O O6 0.655043 0.058768 0.008194
O O7 0.447220 0.188801 0.884382
O O8 0.249467 0.988316 0.773036
O O9 0.508555 0.430280 0.241242
O O10 0.728800 0.460589 0.199140
O O11 0.365972 0.443410 0.976031
O O12 0.623343 0.859394 0.557211
O O13 0.338153 0.017492 0.502814
O O14 0.600288 0.787623 0.834814
O O15 0.992763 0.982604 0.172650
O O16 0.500000 0.500000 0.500000
O O17 0.838769 0.757051 0.439126
#
# Coordination Sequence:
#
# PCOD8015020 Si02
#       8
#     2   2   2   2   2   2   2   2
#     4  12  26  42  69 104 129 173 236 278 334 405
#     4  10  23  41  70  95 134 175 226 274 331 396
#     4  10  21  42  65 100 132 178 221 275 339 395
#     4  11  24  42  68  97 131 173 230 274 326 398
#     4  10  24  43  65  99 137 177 222 272 336 401
#     4  11  25  44  67  97 140 179 223 279 337 401
#     4  11  23  40  69  97 139 170 221 284 337 391
#     4  11  24  42  66  99 135 177 216 276 336 395
#
# _framework density 22.064088999999999
#
# number of rings (size 3 to 8) (size 9 to 14) (size 15 to 20)
#    0.000    1.250    3.750    1.500    5.250    3.000 
#    0.000    2.500    0.000    0.000    0.000    0.000 
#    0.000    0.000    0.000    0.000    0.000    0.000 
#
# Total GULP energy -198263.379591 kJ/mol
# GULP energy per Si atom -12391.461224 kJ/mol
# Density = 2.201387 g / cm^3
# Si number density = 22.064089 Si / 1000 Ang^3
#
#
#
# Elastic Constant Matrix: (Units=GPa)
#
#
# Indices 1 2 3 4 5 6 
#
# 1 124.0626 33.8882 44.2968 3.8797 -6.0238 -3.8283
# 2 33.8882 67.6860 12.5237 4.4562 -4.0960 4.0881
# 3 44.2968 12.5237 94.9520 3.9042 -16.4336 2.8451
# 4 3.8797 4.4562 3.9042 25.3955 -9.6914 -0.4618
# 5 -6.0238 -4.0960 -16.4336 -9.6914 42.4089 0.3300
# 6 -3.8283 4.0881 2.8451 -0.4618 0.3300 31.1546
#
#
#
# Elastic Compliance Matrix: (Units=1/GPa)
#
#
# Indices 1 2 3 4 5 6 
#
# 1 0.011135 -0.004868 -0.004755 -0.000392 -0.000840 0.002444
# 2 -0.004868 0.017526 0.000245 -0.002187 0.000620 -0.002959
# 3 -0.004755 0.000245 0.013574 0.000357 0.004705 -0.001901
# 4 -0.000392 -0.002187 0.000357 0.043524 0.009812 0.000747
# 5 -0.000840 0.000620 0.004705 0.009812 0.027592 -0.000761
# 6 0.002444 -0.002959 -0.001901 0.000747 -0.000761 0.032979
#
#
# Mechanical properties :
#
#
# Convention : Reuss Voigt Hill
#
# Bulk Modulus (GPa) = 42.58990 52.01311 47.30151
# Shear Modulus (GPa) = 28.91652 32.85793 30.88723
#
# Velocity S-wave (km/s) = 3.62411 3.86321 3.74557
# Velocity P-wave (km/s) = 6.07099 6.59727 6.33959
#
# Compressibility (1/GPa) = 0.02347975
#
# Stress axis : x y z
#
# Youngs Moduli (GPa) = 89.80885 57.05795 73.66958
#
# Poissons Ratio (x) = 0.27774 0.35030
# Poissons Ratio (y) = 0.43716 -0.01805
# Poissons Ratio (z) = 0.42704 -0.01398
#
# Static dielectric constant tensor:
#      x y z
#    x 4.206470 0.046370 -0.160200 
#    y 0.046370 4.282750 0.310370 
#    z -0.160200 0.310370 3.611970 
# 
# 
# High freq. dielectric constant tensor:
#      x y z
#    x 1.875140 -0.003660 -0.013280 
#    y -0.003660 1.870670 0.011570 
#    z -0.013280 0.011570 1.847180 
# 
# From -- ./inp_files/399870.got.cif
#   From: 2010.06.25/outbox.cif.g09.slc.cpg/sg2_200_cif.got.tgz:399870.got - 2010.06.27 13:26:56.
