data_PCOD8015541
_publ_section_title
;
Structure prediction by ZEFSAII (Michael W. Deem and Ramdas Pophale) SiO2 
 PCOD8015541
Probable space group: P -1
;
_chemical_formula_sum "Si O2"
_cell_formula_units_Z 16
_cell_length_a 20.399259
_cell_length_b 12.776943
_cell_length_c 17.468726
_cell_angle_alpha 29.073348
_cell_angle_beta 19.173368
_cell_angle_gamma 30.499056
_cell_volume 707.777134
_symmetry_space_group_name_H-M "P -1"
_symmetry_group_IT_number 2
_symmetry_cell_setting 'triclinic'
loop_
_space_group_symop_operation_xyz
x,y,z
-x,-y,-z
loop_
_atom_site_type_symbol
_atom_site_label
_atom_site_fract_x
_atom_site_fract_y
_atom_site_fract_z
Si Si1 0.233343 0.154548 0.839695
Si Si2 0.040892 0.787234 0.039280
Si Si3 0.100449 0.542430 0.496672
Si Si4 0.465475 0.543473 0.687624
Si Si5 0.125992 0.010661 0.596633
Si Si6 0.486376 0.890364 0.165885
Si Si7 0.586531 0.278998 0.877340
Si Si8 0.611419 0.811161 0.699846
O O1 0.151037 0.174810 0.830958
O O2 0.332938 0.363482 0.613734
O O3 0.405941 0.931161 0.804859
O O4 0.037567 0.143611 0.116049
O O5 0.054436 0.572845 0.213981
O O6 0.264392 0.743521 0.781199
O O7 0.000000 0.000000 0.000000
O O8 0.198983 0.666240 0.375019
O O9 0.261157 0.357666 0.392589
O O10 0.981564 0.728817 0.452037
O O11 0.436235 0.374068 0.760015
O O12 0.487460 0.420472 0.823645
O O13 0.268443 0.004387 0.519330
O O14 0.254674 0.937551 0.424301
O O15 0.500000 0.000000 0.000000
O O16 0.620720 0.011468 0.996156
O O17 0.441315 0.331132 0.079000
#
# Coordination Sequence:
#
# PCOD8015541 Si02
#       8
#     2   2   2   2   2   2   2   2
#     4  12  25  43  65 101 136 173 223 262 334 403
#     4  12  27  44  67 101 135 176 222 269 326 405
#     4  12  22  42  70 100 130 178 224 268 334 396
#     4  11  24  47  68  93 137 178 215 276 339 375
#     4  11  24  43  69 101 132 171 228 271 326 392
#     4   9  21  45  70  95 131 172 220 283 326 379
#     4  10  21  42  70  97 126 175 222 271 330 386
#     4  11  24  42  67  98 142 171 212 283 331 386
#
# _framework density 22.605986999999999
#
# number of rings (size 3 to 8) (size 9 to 14) (size 15 to 20)
#    0.000    1.000    2.500    5.250    1.750    1.500 
#    2.250    7.500    0.000    0.000    0.000    0.000 
#    0.000    0.000    0.000    0.000    0.000    0.000 
#
# Total GULP energy -198301.197606 kJ/mol
# GULP energy per Si atom -12393.824850 kJ/mol
# Density = 2.255453 g / cm^3
# Si number density = 22.605987 Si / 1000 Ang^3
#
#
#
# Elastic Constant Matrix: (Units=GPa)
#
#
# Indices 1 2 3 4 5 6 
#
# 1 79.5406 35.3651 40.6363 -2.0426 -2.3613 2.8930
# 2 35.3651 109.1325 59.8934 3.9568 -2.8758 20.3088
# 3 40.6363 59.8934 161.9160 -17.2843 -5.6474 13.6586
# 4 -2.0426 3.9568 -17.2843 30.1209 -3.1080 0.8082
# 5 -2.3613 -2.8758 -5.6474 -3.1080 39.6911 -5.0147
# 6 2.8930 20.3088 13.6586 0.8082 -5.0147 35.4739
#
#
#
# Elastic Compliance Matrix: (Units=1/GPa)
#
#
# Indices 1 2 3 4 5 6 
#
# 1 0.015623 -0.004029 -0.002577 0.000110 0.000545 0.002099
# 2 -0.004029 0.014035 -0.004170 -0.004442 -0.000939 -0.006132
# 3 -0.002577 -0.004170 0.009092 0.005735 0.001178 -0.000867
# 4 0.000110 -0.004442 0.005735 0.037436 0.003427 -0.000043
# 5 0.000545 -0.000939 0.001178 0.003427 0.026055 0.003645
# 6 0.002099 -0.006132 -0.000867 -0.000043 0.003645 0.032379
#
#
# Mechanical properties :
#
#
# Convention : Reuss Voigt Hill
#
# Bulk Modulus (GPa) = 58.14697 69.15318 63.65007
# Shear Modulus (GPa) = 30.88254 35.37013 33.12633
#
# Velocity S-wave (km/s) = 3.70012 3.95984 3.83218
# Velocity P-wave (km/s) = 6.63568 7.18082 6.91363
#
# Compressibility (1/GPa) = 0.01719780
#
# Stress axis : x y z
#
# Youngs Moduli (GPa) = 64.01000 71.25178 109.98958
#
# Poissons Ratio (x) = 0.28704 0.28344
# Poissons Ratio (y) = 0.25787 0.45867
# Poissons Ratio (z) = 0.16495 0.29713
#
# Static dielectric constant tensor:
#      x y z
#    x 4.265500 0.103650 -0.050810 
#    y 0.103650 4.010670 -0.226470 
#    z -0.050810 -0.226470 4.493270 
# 
# 
# High freq. dielectric constant tensor:
#      x y z
#    x 1.891720 -0.002790 0.005810 
#    y -0.002790 1.872020 -0.014880 
#    z 0.005810 -0.014880 1.914830 
# 
# From -- ./inp_files/577895.got.cif
#   From: 2010.06.25/outbox.cif.g09.slc.cpg/sg2_289_cif.got.tgz:577895.got - 2010.06.27 13:26:56.
