data_PCOD8015302
_publ_section_title
;
Structure prediction by ZEFSAII (Michael W. Deem and Ramdas Pophale) SiO2 
 PCOD8015302
Probable space group: P -1
;
_chemical_formula_sum "Si O2"
_cell_formula_units_Z 16
_cell_length_a 11.703818
_cell_length_b 11.945962
_cell_length_c 8.426549
_cell_angle_alpha 92.292131
_cell_angle_beta 139.929697
_cell_angle_gamma 84.075987
_cell_volume 752.953466
_symmetry_space_group_name_H-M "P -1"
_symmetry_group_IT_number 2
_symmetry_cell_setting 'triclinic'
loop_
_space_group_symop_operation_xyz
x,y,z
-x,-y,-z
loop_
_atom_site_type_symbol
_atom_site_label
_atom_site_fract_x
_atom_site_fract_y
_atom_site_fract_z
Si Si1 0.536394 0.527085 0.723853
Si Si2 0.584540 0.737711 0.655102
Si Si3 0.237702 0.391762 0.438321
Si Si4 0.147554 0.193999 0.836654
Si Si5 0.751898 0.844574 0.406089
Si Si6 0.436449 0.918952 0.294820
Si Si7 0.926878 0.539948 0.252128
Si Si8 0.034286 0.992286 0.850512
O O1 0.500000 0.500000 0.500000
O O2 0.492380 0.664390 0.686015
O O3 0.401108 0.460197 0.677571
O O4 0.734075 0.498532 0.006884
O O5 0.732464 0.651975 0.712748
O O6 0.444514 0.796789 0.383768
O O7 0.694330 0.827333 0.865283
O O8 0.224816 0.287398 0.535797
O O9 0.058711 0.478061 0.257859
O O10 0.241719 0.145032 0.774491
O O11 0.070956 0.324978 0.751162
O O12 0.996568 0.115395 0.731144
O O13 0.569052 0.909315 0.284591
O O14 0.916418 0.902130 0.652213
O O15 0.500000 0.000000 0.500000
O O16 0.238440 0.948635 0.023583
O O17 0.000000 0.500000 0.500000
O O18 0.000000 0.000000 0.000000
#
# Coordination Sequence:
#
# PCOD8015302 Si02
#       8
#     2   2   2   2   2   2   2   2
#     4   9  21  38  64  96 130 167 226 273 320 394
#     4   9  20  40  64  96 131 167 219 276 319 396
#     4  10  21  42  67  95 131 179 219 271 329 393
#     4  11  23  43  64 100 138 169 220 277 331 399
#     4  11  24  42  65  97 137 171 216 276 328 398
#     4  11  21  43  68  91 126 174 221 267 333 389
#     4  11  23  43  67  97 139 178 219 274 343 398
#     4  12  24  43  71  95 130 174 224 277 333 396
#
# _framework density 21.249652000000001
#
# number of rings (size 3 to 8) (size 9 to 14) (size 15 to 20)
#    0.000    1.500    3.750    1.125    0.000    9.500 
#    0.000    0.000    0.000    0.000    0.000    0.000 
#    0.000    0.000    0.000    0.000    0.000    0.000 
#
# Total GULP energy -198268.024983 kJ/mol
# GULP energy per Si atom -12391.751561 kJ/mol
# Density = 2.120129 g / cm^3
# Si number density = 21.249652 Si / 1000 Ang^3
#
#
#
# Elastic Constant Matrix: (Units=GPa)
#
#
# Indices 1 2 3 4 5 6 
#
# 1 122.8749 66.6178 47.0028 9.1365 4.9403 3.5262
# 2 66.6178 105.9666 36.7755 2.1974 12.1904 16.4599
# 3 47.0028 36.7755 115.2406 4.4751 14.4555 5.8730
# 4 9.1365 2.1974 4.4751 28.2722 2.3521 4.9959
# 5 4.9403 12.1904 14.4555 2.3521 41.1329 3.3748
# 6 3.5262 16.4599 5.8730 4.9959 3.3748 49.1176
#
#
#
# Elastic Compliance Matrix: (Units=1/GPa)
#
#
# Indices 1 2 3 4 5 6 
#
# 1 0.013965 -0.008143 -0.003308 -0.003939 0.001928 0.002390
# 2 -0.008143 0.016026 -0.001270 0.002674 -0.003093 -0.004694
# 3 -0.003308 -0.001270 0.010836 -0.000227 -0.002988 -0.000404
# 4 -0.003939 0.002674 -0.000227 0.037391 -0.002029 -0.004250
# 5 0.001928 -0.003093 -0.002988 -0.002029 0.026191 -0.000338
# 6 0.002390 -0.004694 -0.000404 -0.004250 -0.000338 0.022264
#
#
# Mechanical properties :
#
#
# Convention : Reuss Voigt Hill
#
# Bulk Modulus (GPa) = 64.99191 71.65270 68.32230
# Shear Modulus (GPa) = 31.79773 36.61694 34.20734
#
# Velocity S-wave (km/s) = 3.87251 4.15562 4.01656
# Velocity P-wave (km/s) = 7.11663 7.53779 7.33024
#
# Compressibility (1/GPa) = 0.01538653
#
# Stress axis : x y z
#
# Youngs Moduli (GPa) = 71.60620 62.39812 92.28286
#
# Poissons Ratio (x) = 0.50809 0.30528
# Poissons Ratio (y) = 0.58307 0.11717
# Poissons Ratio (z) = 0.23688 0.07923
#
# Static dielectric constant tensor:
#      x y z
#    x 3.784980 0.720800 0.488760 
#    y 0.720800 3.861980 -0.447510 
#    z 0.488760 -0.447510 3.169490 
# 
# 
# High freq. dielectric constant tensor:
#      x y z
#    x 1.826500 0.015100 -0.007010 
#    y 0.015100 1.853000 0.008430 
#    z -0.007010 0.008430 1.822040 
# 
# From -- ./inp_files/259248.got.cif
#   From: 2010.06.25/outbox.cif.g09.slc.cpg/sg2_130_cif.got.tgz:259248.got - 2010.06.27 13:26:56.
