data_PCOD8015104
_publ_section_title
;
Structure prediction by ZEFSAII (Michael W. Deem and Ramdas Pophale) SiO2 
 PCOD8015104
Probable space group: P -1
;
_chemical_formula_sum "Si O2"
_cell_formula_units_Z 16
_cell_length_a 8.190362
_cell_length_b 13.481654
_cell_length_c 9.443788
_cell_angle_alpha 78.528114
_cell_angle_beta 84.693230
_cell_angle_gamma 46.550048
_cell_volume 740.469635
_symmetry_space_group_name_H-M "P -1"
_symmetry_group_IT_number 2
_symmetry_cell_setting 'triclinic'
loop_
_space_group_symop_operation_xyz
x,y,z
-x,-y,-z
loop_
_atom_site_type_symbol
_atom_site_label
_atom_site_fract_x
_atom_site_fract_y
_atom_site_fract_z
Si Si1 0.879969 0.657000 0.470109
Si Si2 0.490632 0.607468 0.119547
Si Si3 0.326230 0.059010 0.123204
Si Si4 0.553015 0.202307 0.710390
Si Si5 0.181667 0.702297 0.866645
Si Si6 0.350342 0.768640 0.597036
Si Si7 0.670081 0.465222 0.617449
Si Si8 0.448741 0.116691 0.371808
O O1 0.673464 0.748726 0.351429
O O2 0.788653 0.731214 0.608766
O O3 0.000000 0.500000 0.500000
O O4 0.073392 0.655444 0.417111
O O5 0.522344 0.695732 0.181802
O O6 0.731435 0.450032 0.119811
O O7 0.337391 0.595856 0.223013
O O8 0.356393 0.685978 0.962392
O O9 0.431736 0.087866 0.222530
O O10 0.067260 0.200284 0.073750
O O11 0.304086 0.951478 0.199238
O O12 0.500000 0.000000 0.000000
O O13 0.704224 0.195415 0.578634
O O14 0.181294 0.766826 0.699341
O O15 0.599738 0.610864 0.620759
O O16 0.359323 0.877215 0.633286
O O17 0.500000 0.500000 0.500000
O O18 0.500000 0.000000 0.500000
#
# Coordination Sequence:
#
# PCOD8015104 Si02
#       8
#     2   2   2   2   2   2   2   2
#     4  11  21  38  69 102 130 168 220 280 339 383
#     4  10  23  44  68 100 131 169 227 278 339 395
#     4  12  29  47  63  94 141 187 228 264 340 405
#     4  11  23  44  66 102 132 169 227 274 334 406
#     4  10  26  45  68  96 135 178 223 278 340 397
#     4  10  21  42  66 100 125 166 221 275 332 390
#     4  11  20  36  67 102 134 165 214 276 335 393
#     4  11  23  44  65  95 136 171 223 276 325 400
#
# _framework density 21.607907999999998
#
# number of rings (size 3 to 8) (size 9 to 14) (size 15 to 20)
#    0.000    1.250    6.250    0.000    8.750    1.000 
#    2.250    0.625    0.000    0.000    0.000    0.000 
#    0.000    0.000    0.000    0.000    0.000    0.000 
#
# Total GULP energy -198275.506537 kJ/mol
# GULP energy per Si atom -12392.219159 kJ/mol
# Density = 2.155873 g / cm^3
# Si number density = 21.607908 Si / 1000 Ang^3
#
#
#
# Elastic Constant Matrix: (Units=GPa)
#
#
# Indices 1 2 3 4 5 6 
#
# 1 59.9699 44.2190 28.1870 10.6950 6.2982 -0.2493
# 2 44.2190 130.1369 47.0134 21.1073 1.6460 1.1333
# 3 28.1870 47.0134 100.1322 18.9565 2.0327 -4.1217
# 4 10.6950 21.1073 18.9565 38.5683 6.1873 -0.6547
# 5 6.2982 1.6460 2.0327 6.1873 34.0721 9.3258
# 6 -0.2493 1.1333 -4.1217 -0.6547 9.3258 47.0484
#
#
#
# Elastic Compliance Matrix: (Units=1/GPa)
#
#
# Indices 1 2 3 4 5 6 
#
# 1 0.023708 -0.006723 -0.003285 -0.000632 -0.003959 0.000776
# 2 -0.006723 0.011569 -0.002991 -0.003290 0.001724 -0.000964
# 3 -0.003285 -0.002991 0.013097 -0.003934 0.000392 0.001070
# 4 -0.000632 -0.003290 -0.003934 0.030725 -0.005406 0.001230
# 5 -0.003959 0.001724 0.000392 -0.005406 0.032762 -0.006597
# 6 0.000776 -0.000964 0.001070 0.001230 -0.006597 0.022701
#
#
# Mechanical properties :
#
#
# Convention : Reuss Voigt Hill
#
# Bulk Modulus (GPa) = 44.69248 58.78642 51.73945
# Shear Modulus (GPa) = 29.75826 35.32574 32.54200
#
# Velocity S-wave (km/s) = 3.71508 4.04772 3.88496
# Velocity P-wave (km/s) = 6.25546 7.00788 6.64233
#
# Compressibility (1/GPa) = 0.02237513
#
# Stress axis : x y z
#
# Youngs Moduli (GPa) = 42.17941 86.43422 76.35410
#
# Poissons Ratio (x) = 0.58111 0.25085
# Poissons Ratio (y) = 0.28358 0.22840
# Poissons Ratio (z) = 0.13857 0.25855
#
# Static dielectric constant tensor:
#      x y z
#    x 4.011020 -0.035790 -0.066310 
#    y -0.035790 5.443200 0.204720 
#    z -0.066310 0.204720 3.958170 
# 
# 
# High freq. dielectric constant tensor:
#      x y z
#    x 1.832520 0.016160 -0.004520 
#    y 0.016160 1.859520 0.012630 
#    z -0.004520 0.012630 1.840760 
# 
# From -- ./inp_files/206937.got.cif
#   From: 2010.06.25/outbox.cif.g09.slc.cpg/sg2_104_cif.got.tgz:206937.got - 2010.06.27 13:26:56.
