data_PCOD8015124
_publ_section_title
;
Structure prediction by ZEFSAII (Michael W. Deem and Ramdas Pophale) SiO2 
 PCOD8015124
Probable space group: P -1
;
_chemical_formula_sum "Si O2"
_cell_formula_units_Z 16
_cell_length_a 16.970340
_cell_length_b 8.963115
_cell_length_c 11.986575
_cell_angle_alpha 41.486303
_cell_angle_beta 133.568362
_cell_angle_gamma 109.084859
_cell_volume 804.143887
_symmetry_space_group_name_H-M "P -1"
_symmetry_group_IT_number 2
_symmetry_cell_setting 'triclinic'
loop_
_space_group_symop_operation_xyz
x,y,z
-x,-y,-z
loop_
_atom_site_type_symbol
_atom_site_label
_atom_site_fract_x
_atom_site_fract_y
_atom_site_fract_z
Si Si1 0.792052 0.661458 0.366284
Si Si2 0.774182 0.396660 0.282199
Si Si3 0.667178 0.596182 0.500366
Si Si4 0.747169 0.167930 0.975044
Si Si5 0.359957 0.945628 0.676147
Si Si6 0.536326 0.768492 0.745483
Si Si7 0.562062 0.331189 0.875942
Si Si8 0.018171 0.145091 0.539905
O O1 0.806150 0.457895 0.401624
O O2 0.732765 0.595362 0.450818
O O3 0.916977 0.667699 0.526931
O O4 0.713462 0.927544 0.084456
O O5 0.735469 0.167327 0.382971
O O6 0.894464 0.307952 0.381379
O O7 0.675392 0.629329 0.991770
O O8 0.707838 0.317639 0.738955
O O9 0.527019 0.696188 0.286780
O O10 0.693811 0.757204 0.535481
O O11 0.678445 0.329723 0.925059
O O12 0.890223 0.074357 0.171282
O O13 0.466320 0.840430 0.752198
O O14 0.403785 0.886942 0.879478
O O15 0.498645 0.579446 0.745661
O O16 0.500000 0.000000 0.500000
O O17 0.000000 0.000000 0.500000
#
# Coordination Sequence:
#
# PCOD8015124 Si02
#       8
#     2   2   2   2   2   2   2   2
#     4  10  23  41  64  88 125 161 201 250 309 355
#     4  11  22  42  64  84 126 167 197 248 312 359
#     4  12  22  39  65  90 127 158 206 253 301 362
#     4  10  24  38  64  95 117 159 212 248 302 359
#     4  11  22  38  60  91 121 167 200 245 310 364
#     4  11  24  36  58  93 128 157 203 253 301 363
#     4  11  21  39  59  90 124 164 202 247 308 363
#     4  10  21  42  66  88 118 159 207 250 305 358
#
# _framework density 19.896937000000001
#
# number of rings (size 3 to 8) (size 9 to 14) (size 15 to 20)
#    0.750    0.500    1.250    7.125    3.500    0.000 
#    0.000    4.375    0.000    0.000    0.000    0.000 
#    0.000    0.000    0.000    0.000    0.000    0.000 
#
# Total GULP energy -198239.476128 kJ/mol
# GULP energy per Si atom -12389.967258 kJ/mol
# Density = 1.985165 g / cm^3
# Si number density = 19.896937 Si / 1000 Ang^3
#
#
#
# Elastic Constant Matrix: (Units=GPa)
#
#
# Indices 1 2 3 4 5 6 
#
# 1 129.2055 36.2241 73.5540 -8.8718 8.5404 -2.9371
# 2 36.2241 101.9337 23.9847 7.4450 -0.5459 -12.1126
# 3 73.5540 23.9847 75.5066 5.0308 -2.5725 5.4207
# 4 -8.8718 7.4450 5.0308 21.1087 6.3971 7.2750
# 5 8.5404 -0.5459 -2.5725 6.3971 35.1252 -3.4196
# 6 -2.9371 -12.1126 5.4207 7.2750 -3.4196 29.5874
#
#
#
# Elastic Compliance Matrix: (Units=1/GPa)
#
#
# Indices 1 2 3 4 5 6 
#
# 1 0.026477 -0.005377 -0.025962 0.023905 -0.012990 -0.002195
# 2 -0.005377 0.013184 0.001387 -0.011311 0.004443 0.007904
# 3 -0.025962 0.001387 0.040318 -0.024502 0.013574 -0.001802
# 4 0.023905 -0.011311 -0.024502 0.081897 -0.024719 -0.020762
# 5 -0.012990 0.004443 0.013574 -0.024719 0.038022 0.008515
# 6 -0.002195 0.007904 -0.001802 -0.020762 0.008515 0.043235
#
#
# Mechanical properties :
#
#
# Convention : Reuss Voigt Hill
#
# Bulk Modulus (GPa) = 49.81027 63.79683 56.80355
# Shear Modulus (GPa) = 16.14329 28.68979 22.41654
#
# Velocity S-wave (km/s) = 2.85150 3.80138 3.36018
# Velocity P-wave (km/s) = 5.99416 7.16942 6.60797
#
# Compressibility (1/GPa) = 0.02007618
#
# Stress axis : x y z
#
# Youngs Moduli (GPa) = 37.76924 75.85135 24.80294
#
# Poissons Ratio (x) = 0.40783 0.64393
# Poissons Ratio (y) = 0.20307 -0.03441
# Poissons Ratio (z) = 0.98055 -0.10523
#
# Static dielectric constant tensor:
#      x y z
#    x 4.368140 -1.321550 -0.397180 
#    y -1.321550 6.177290 0.755690 
#    z -0.397180 0.755690 3.936780 
# 
# 
# High freq. dielectric constant tensor:
#      x y z
#    x 1.778060 -0.008100 0.004360 
#    y -0.008100 1.787590 -0.006660 
#    z 0.004360 -0.006660 1.754500 
# 
# From -- ./inp_files/446701.got.cif
#   From: 2010.06.25/outbox.cif.g09.slc.cpg/sg2_224_cif.got.tgz:446701.got - 2010.06.27 13:26:56.
