data_PCOD8015382
_publ_section_title
;
Structure prediction by ZEFSAII (Michael W. Deem and Ramdas Pophale) SiO2 
 PCOD8015382
Probable space group: P -1
;
_chemical_formula_sum "Si O2"
_cell_formula_units_Z 16
_cell_length_a 8.555404
_cell_length_b 9.540992
_cell_length_c 11.688889
_cell_angle_alpha 60.475340
_cell_angle_beta 109.118233
_cell_angle_gamma 117.399422
_cell_volume 730.800913
_symmetry_space_group_name_H-M "P -1"
_symmetry_group_IT_number 2
_symmetry_cell_setting 'triclinic'
loop_
_space_group_symop_operation_xyz
x,y,z
-x,-y,-z
loop_
_atom_site_type_symbol
_atom_site_label
_atom_site_fract_x
_atom_site_fract_y
_atom_site_fract_z
Si Si1 0.447555 0.058738 0.137704
Si Si2 0.548138 0.855389 0.411582
Si Si3 0.231533 0.978947 0.897917
Si Si4 0.437666 0.378752 0.139762
Si Si5 0.302738 0.597198 0.622887
Si Si6 0.198738 0.256632 0.605001
Si Si7 0.108154 0.795893 0.615614
Si Si8 0.954142 0.662442 0.881918
O O1 0.635191 0.099963 0.101181
O O2 0.446273 0.196200 0.178043
O O3 0.415507 0.884544 0.272859
O O4 0.295207 0.040787 0.016361
O O5 0.430708 0.777434 0.524847
O O6 0.625786 0.714700 0.439725
O O7 0.714695 0.034064 0.400724
O O8 0.047201 0.818598 0.929399
O O9 0.197695 0.132413 0.760628
O O10 0.577317 0.465018 0.238435
O O11 0.253242 0.377279 0.144576
O O12 0.500000 0.500000 0.000000
O O13 0.207302 0.443902 0.572893
O O14 0.151081 0.635975 0.639637
O O15 0.027008 0.165229 0.520474
O O16 0.019665 0.730426 0.743073
O O17 0.000000 0.500000 0.000000
#
# Coordination Sequence:
#
# PCOD8015382 Si02
#       8
#     2   2   2   2   2   2   2   2
#     4  10  21  42  68  94 136 175 225 277 333 402
#     4  11  23  43  70  99 137 185 227 272 341 408
#     4  10  22  42  68  99 135 181 220 285 338 401
#     4  12  25  43  68  96 135 176 229 282 337 408
#     4  12  25  42  69 105 135 181 231 277 341 401
#     4  11  24  41  69 101 142 174 229 280 343 393
#     4  12  24  46  68  99 140 181 225 284 338 403
#     4  12  26  43  69  98 132 183 230 277 342 407
#
# _framework density 21.893788000000001
#
# number of rings (size 3 to 8) (size 9 to 14) (size 15 to 20)
#    0.000    0.750    3.750    4.500    1.750    3.500 
#    0.000    1.250    0.000    0.000    0.000    0.000 
#    0.000    0.000    0.000    0.000    0.000    0.000 
#
# Total GULP energy -198384.162441 kJ/mol
# GULP energy per Si atom -12399.010153 kJ/mol
# Density = 2.184396 g / cm^3
# Si number density = 21.893788 Si / 1000 Ang^3
#
#
#
# Elastic Constant Matrix: (Units=GPa)
#
#
# Indices 1 2 3 4 5 6 
#
# 1 76.1960 20.2832 32.8328 -6.6670 1.4262 -5.9680
# 2 20.2832 87.5063 31.7701 3.1577 -3.8272 -4.2508
# 3 32.8328 31.7701 149.0501 11.2265 9.8746 22.8948
# 4 -6.6670 3.1577 11.2265 33.8415 4.4988 2.5805
# 5 1.4262 -3.8272 9.8746 4.4988 38.4511 -0.0300
# 6 -5.9680 -4.2508 22.8948 2.5805 -0.0300 34.7921
#
#
#
# Elastic Compliance Matrix: (Units=1/GPa)
#
#
# Indices 1 2 3 4 5 6 
#
# 1 0.016303 -0.002182 -0.004208 0.004467 -0.000260 0.004968
# 2 -0.002182 0.013295 -0.002912 -0.001259 0.002302 0.003262
# 3 -0.004208 -0.002912 0.009748 -0.002930 -0.002300 -0.007277
# 4 0.004467 -0.001259 -0.002930 0.031942 -0.003276 0.000169
# 5 -0.000260 0.002302 -0.002300 -0.003276 0.027221 0.002017
# 6 0.004968 0.003262 -0.007277 0.000169 0.002017 0.034770
#
#
# Mechanical properties :
#
#
# Convention : Reuss Voigt Hill
#
# Bulk Modulus (GPa) = 48.21349 53.61383 50.91366
# Shear Modulus (GPa) = 31.48646 36.60804 34.04725
#
# Velocity S-wave (km/s) = 3.79640 4.09354 3.94777
# Velocity P-wave (km/s) = 6.42544 6.84719 6.63966
#
# Compressibility (1/GPa) = 0.02074108
#
# Stress axis : x y z
#
# Youngs Moduli (GPa) = 61.33760 75.21450 102.58857
#
# Poissons Ratio (x) = 0.16414 0.43174
# Poissons Ratio (y) = 0.13386 0.29872
# Poissons Ratio (z) = 0.25814 0.21901
#
# Static dielectric constant tensor:
#      x y z
#    x 3.828350 0.221260 0.101320 
#    y 0.221260 3.418290 0.236780 
#    z 0.101320 0.236780 4.095900 
# 
# 
# High freq. dielectric constant tensor:
#      x y z
#    x 1.861320 -0.010670 0.012130 
#    y -0.010670 1.856950 0.007910 
#    z 0.012130 0.007910 1.876650 
# 
# From -- ./inp_files/223393.got.cif
#   From: 2010.06.25/outbox.cif.g09.slc.cpg/sg2_112_cif.got.tgz:223393.got - 2010.06.27 13:26:56.
