data_PCOD8015517
_publ_section_title
;
Structure prediction by ZEFSAII (Michael W. Deem and Ramdas Pophale) SiO2 
 PCOD8015517
Probable space group: P -1
;
_chemical_formula_sum "Si O2"
_cell_formula_units_Z 12
_cell_length_a 6.202304
_cell_length_b 19.529490
_cell_length_c 4.989344
_cell_angle_alpha 70.827893
_cell_angle_beta 101.402608
_cell_angle_gamma 76.670865
_cell_volume 530.305015
_symmetry_space_group_name_H-M "P -1"
_symmetry_group_IT_number 2
_symmetry_cell_setting 'triclinic'
loop_
_space_group_symop_operation_xyz
x,y,z
-x,-y,-z
loop_
_atom_site_type_symbol
_atom_site_label
_atom_site_fract_x
_atom_site_fract_y
_atom_site_fract_z
Si Si1 0.791956 0.479491 0.338871
Si Si2 0.781506 0.228987 0.131077
Si Si3 0.623283 0.165997 0.700134
Si Si4 0.650463 0.033358 0.182815
Si Si5 0.309593 0.596119 0.079588
Si Si6 0.264159 0.119110 0.382220
O O1 0.581544 0.557129 0.131439
O O2 0.726283 0.421791 0.598690
O O3 0.000000 0.500000 0.500000
O O4 0.848361 0.436053 0.121449
O O5 0.742264 0.183804 0.440539
O O6 0.038509 0.184687 0.135703
O O7 0.604304 0.230274 0.841998
O O8 0.758116 0.314208 0.099905
O O9 0.367188 0.158616 0.598356
O O10 0.778809 0.083065 0.976686
O O11 0.479175 0.093706 0.264441
O O12 0.814756 0.956057 0.466532
O O13 0.500000 0.000000 0.000000
#
# Coordination Sequence:
#
# PCOD8015517 Si02
#       6
#     2   2   2   2   2   2
#     4  10  21  42  70  90 125 167 201 244 308 364
#     4  12  26  39  66  94 130 166 203 260 325 363
#     4  11  24  42  60  93 124 167 214 256 314 381
#     4   9  20  43  63  85 126 164 219 269 301 371
#     4  10  23  41  61 100 127 154 211 253 290 384
#     4  10  23  43  62  89 127 166 213 274 309 361
#
# _framework density 22.628485000000001
#
# number of rings (size 3 to 8) (size 9 to 14) (size 15 to 20)
#    0.000    1.667    1.667    1.500    4.667    4.000 
#    0.000    0.000    0.000    0.000    0.000    0.000 
#    0.000    0.000    0.000    0.000    0.000    0.000 
#
# Total GULP energy -148679.475352 kJ/mol
# GULP energy per Si atom -12389.956279 kJ/mol
# Density = 2.257698 g / cm^3
# Si number density = 22.628485 Si / 1000 Ang^3
#
#
#
# Elastic Constant Matrix: (Units=GPa)
#
#
# Indices 1 2 3 4 5 6 
#
# 1 48.2198 43.6216 25.8588 -14.1005 6.9123 5.7004
# 2 43.6216 144.5002 49.0084 -4.4221 13.8306 6.2735
# 3 25.8588 49.0084 99.9344 3.3731 -1.9061 -4.7633
# 4 -14.1005 -4.4221 3.3731 47.9138 6.0610 5.8032
# 5 6.9123 13.8306 -1.9061 6.0610 30.7483 6.8550
# 6 5.7004 6.2735 -4.7633 5.8032 6.8550 25.5129
#
#
#
# Elastic Compliance Matrix: (Units=1/GPa)
#
#
# Indices 1 2 3 4 5 6 
#
# 1 0.036582 -0.007432 -0.006771 0.012360 -0.005758 -0.008874
# 2 -0.007432 0.010605 -0.003349 -0.000508 -0.003066 -0.000633
# 3 -0.006771 -0.003349 0.013852 -0.004335 0.003643 0.004930
# 4 0.012360 -0.000508 -0.004335 0.026507 -0.006309 -0.007780
# 5 -0.005758 -0.003066 0.003643 -0.006309 0.038016 -0.006059
# 6 -0.008874 -0.000633 0.004930 -0.007780 -0.006059 0.045652
#
#
# Mechanical properties :
#
#
# Convention : Reuss Voigt Hill
#
# Bulk Modulus (GPa) = 38.55950 58.84799 48.70374
# Shear Modulus (GPa) = 23.25982 32.44605 27.85293
#
# Velocity S-wave (km/s) = 3.20957 3.79074 3.51220
# Velocity P-wave (km/s) = 5.55089 6.72475 6.16582
#
# Compressibility (1/GPa) = 0.02593395
#
# Stress axis : x y z
#
# Youngs Moduli (GPa) = 27.33621 94.29211 72.19219
#
# Poissons Ratio (x) = 0.70079 0.48881
# Poissons Ratio (y) = 0.20317 0.24179
# Poissons Ratio (z) = 0.18509 0.31581
#
# Static dielectric constant tensor:
#      x y z
#    x 3.629470 0.248940 -0.077240 
#    y 0.248940 4.143390 -0.155840 
#    z -0.077240 -0.155840 4.214840 
# 
# 
# High freq. dielectric constant tensor:
#      x y z
#    x 1.856200 0.022960 -0.004040 
#    y 0.022960 1.895790 0.015860 
#    z -0.004040 0.015860 1.908700 
# 
# From -- ./inp_files/6322.got.cif
#   From: 2010.06.25/outbox.cif.g09.slc.cpg/sg2_4_cif.got.tgz:6322.got - 2010.06.27 13:26:56.
