data_PCOD8015915
_publ_section_title
;
Structure prediction by ZEFSAII (Michael W. Deem and Ramdas Pophale) SiO2 
 PCOD8015915
Probable space group: P -1
;
_chemical_formula_sum "Si O2"
_cell_formula_units_Z 16
_cell_length_a 14.380084
_cell_length_b 11.282560
_cell_length_c 9.019214
_cell_angle_alpha 73.724913
_cell_angle_beta 86.251144
_cell_angle_gamma 32.921531
_cell_volume 721.829446
_symmetry_space_group_name_H-M "P -1"
_symmetry_group_IT_number 2
_symmetry_cell_setting 'triclinic'
loop_
_space_group_symop_operation_xyz
x,y,z
-x,-y,-z
loop_
_atom_site_type_symbol
_atom_site_label
_atom_site_fract_x
_atom_site_fract_y
_atom_site_fract_z
Si Si1 0.962255 0.254872 0.995202
Si Si2 0.469959 0.146454 0.786309
Si Si3 0.908449 0.095760 0.245472
Si Si4 0.084233 0.295239 0.470314
Si Si5 0.166536 0.645680 0.562893
Si Si6 0.132106 0.257309 0.153099
Si Si7 0.569782 0.768749 0.912656
Si Si8 0.743893 0.049032 0.181522
O O1 0.756123 0.533114 0.886500
O O2 0.961798 0.110118 0.086720
O O3 0.084723 0.153080 0.877360
O O4 0.050134 0.215474 0.147003
O O5 0.370403 0.360402 0.614413
O O6 0.672696 0.957896 0.866487
O O7 0.466755 0.007883 0.773577
O O8 0.368973 0.267689 0.913354
O O9 0.837026 0.265687 0.321910
O O10 0.741288 0.193922 0.187264
O O11 0.086879 0.814667 0.374295
O O12 0.165080 0.255377 0.322350
O O13 0.000000 0.500000 0.500000
O O14 0.941589 0.357701 0.405322
O O15 0.233749 0.061673 0.637677
O O16 0.000000 0.500000 0.000000
O O17 0.444990 0.786489 0.922343
#
# Coordination Sequence:
#
# PCOD8015915 Si02
#       8
#     2   2   2   2   2   2   2   2
#     4  12  22  44  71 100 132 182 226 273 339 404
#     4  11  22  40  68 102 133 171 227 279 333 411
#     4  10  22  42  70  91 136 180 229 272 329 398
#     4  11  23  41  66  97 136 171 218 279 339 396
#     4  10  21  43  67  94 132 181 220 277 336 392
#     4  12  23  41  70 100 133 178 221 270 344 408
#     4  11  23  39  68 103 136 169 227 281 336 403
#     4  11  25  43  66 100 136 180 224 278 336 388
#
# _framework density 22.165900000000001
#
# number of rings (size 3 to 8) (size 9 to 14) (size 15 to 20)
#    0.000    1.000    5.000    1.875    1.750    0.500 
#    4.500    1.875    2.750    0.000    0.000    0.000 
#    0.000    0.000    0.000    0.000    0.000    0.000 
#
# Total GULP energy -198265.104992 kJ/mol
# GULP energy per Si atom -12391.569062 kJ/mol
# Density = 2.211545 g / cm^3
# Si number density = 22.165900 Si / 1000 Ang^3
#
#
#
# Elastic Constant Matrix: (Units=GPa)
#
#
# Indices 1 2 3 4 5 6 
#
# 1 143.7439 41.5031 18.9993 -6.0147 7.1743 11.6193
# 2 41.5031 104.3024 34.6483 -14.9238 -2.1868 -1.5913
# 3 18.9993 34.6483 91.6722 -3.6897 -14.3313 8.0590
# 4 -6.0147 -14.9238 -3.6897 42.6799 10.0732 -0.1191
# 5 7.1743 -2.1868 -14.3313 10.0732 33.7670 -1.4068
# 6 11.6193 -1.5913 8.0590 -0.1191 -1.4068 39.8266
#
#
#
# Elastic Compliance Matrix: (Units=1/GPa)
#
#
# Indices 1 2 3 4 5 6 
#
# 1 0.008290 -0.003062 -0.000717 0.000632 -0.002556 -0.002484
# 2 -0.003062 0.012889 -0.004516 0.004056 -0.001546 0.002280
# 3 -0.000717 -0.004516 0.013884 -0.001957 0.006230 -0.002567
# 4 0.000632 0.004056 -0.001957 0.026822 -0.008697 0.000147
# 5 -0.002556 -0.001546 0.006230 -0.008697 0.035323 0.000645
# 6 -0.002484 0.002280 -0.002567 0.000147 0.000645 0.026467
#
#
# Mechanical properties :
#
#
# Convention : Reuss Voigt Hill
#
# Bulk Modulus (GPa) = 54.12693 58.89111 56.50902
# Shear Modulus (GPa) = 34.14783 39.55923 36.85353
#
# Velocity S-wave (km/s) = 3.92925 4.22914 4.08195
# Velocity P-wave (km/s) = 6.71248 7.10447 6.91125
#
# Compressibility (1/GPa) = 0.01847509
#
# Stress axis : x y z
#
# Youngs Moduli (GPa) = 120.62107 77.58776 72.02300
#
# Poissons Ratio (x) = 0.23756 0.05162
# Poissons Ratio (y) = 0.36932 0.32523
# Poissons Ratio (z) = 0.08645 0.35036
#
# Static dielectric constant tensor:
#      x y z
#    x 4.506440 0.259240 0.027550 
#    y 0.259240 3.833320 -0.079430 
#    z 0.027550 -0.079430 3.992350 
# 
# 
# High freq. dielectric constant tensor:
#      x y z
#    x 1.887450 0.015150 0.002370 
#    y 0.015150 1.855370 -0.005530 
#    z 0.002370 -0.005530 1.863800 
# 
# From -- ./inp_files/307033.got.cif
#   From: 2010.06.25/outbox.cif.g09.slc.cpg/sg2_154_cif.got.tgz:307033.got - 2010.06.27 13:26:56.
