data_PCOD8015452
_publ_section_title
;
Structure prediction by ZEFSAII (Michael W. Deem and Ramdas Pophale) SiO2 
 PCOD8015452
Probable space group: P -1
;
_chemical_formula_sum "Si O2"
_cell_formula_units_Z 16
_cell_length_a 19.862504
_cell_length_b 8.958651
_cell_length_c 6.461449
_cell_angle_alpha 104.072990
_cell_angle_beta 66.534769
_cell_angle_gamma 131.997355
_cell_volume 783.352334
_symmetry_space_group_name_H-M "P -1"
_symmetry_group_IT_number 2
_symmetry_cell_setting 'triclinic'
loop_
_space_group_symop_operation_xyz
x,y,z
-x,-y,-z
loop_
_atom_site_type_symbol
_atom_site_label
_atom_site_fract_x
_atom_site_fract_y
_atom_site_fract_z
Si Si1 0.264128 0.820643 0.477096
Si Si2 0.908696 0.772699 0.556736
Si Si3 0.514727 0.406803 0.759087
Si Si4 0.162890 0.509218 0.835304
Si Si5 0.422354 0.796155 0.147826
Si Si6 0.916569 0.491168 0.681446
Si Si7 0.653863 0.746833 0.390661
Si Si8 0.741497 0.594551 0.002459
O O1 0.223316 0.721609 0.717769
O O2 0.352908 0.826295 0.344663
O O3 0.187037 0.691174 0.346950
O O4 0.291831 0.035804 0.502815
O O5 0.885813 0.672237 0.326749
O O6 0.947587 0.700155 0.641956
O O7 0.813087 0.717791 0.760191
O O8 0.000000 0.000000 0.500000
O O9 0.527153 0.245468 0.757779
O O10 0.607405 0.586037 0.578166
O O11 0.422551 0.287939 0.686632
O O12 0.500000 0.500000 0.000000
O O13 0.087432 0.507699 0.063224
O O14 0.224288 0.491606 0.913595
O O15 0.363845 0.599873 0.007475
O O16 0.500000 0.000000 0.000000
O O17 0.000000 0.500000 0.500000
O O18 0.731228 0.743803 0.179742
#
# Coordination Sequence:
#
# PCOD8015452 Si02
#       8
#     2   2   2   2   2   2   2   2
#     4  11  24  43  63 101 128 175 225 264 330 398
#     4  10  23  42  66  96 127 170 220 270 331 393
#     4  11  24  44  62  95 139 171 228 276 320 395
#     4  10  21  42  69  89 135 173 216 273 326 397
#     4  12  24  43  70  93 136 179 221 276 324 387
#     4  10  23  42  64  96 133 165 219 276 324 397
#     4  11  26  39  66  98 133 179 216 276 340 378
#     4  11  23  44  63 100 131 171 225 268 326 398
#
# _framework density 20.425037
#
# number of rings (size 3 to 8) (size 9 to 14) (size 15 to 20)
#    0.000    1.250    5.000    1.500    3.500    8.500 
#    0.000    0.000    0.000    0.000    0.000    0.000 
#    0.000    0.000    0.000    0.000    0.000    0.000 
#
# Total GULP energy -198358.076330 kJ/mol
# GULP energy per Si atom -12397.379771 kJ/mol
# Density = 2.037855 g / cm^3
# Si number density = 20.425037 Si / 1000 Ang^3
#
#
#
# Elastic Constant Matrix: (Units=GPa)
#
#
# Indices 1 2 3 4 5 6 
#
# 1 79.0451 33.8504 54.8190 -14.1574 -15.4464 -11.3664
# 2 33.8504 141.2285 54.2909 -16.8118 -5.1673 -7.0715
# 3 54.8190 54.2909 172.9324 -6.2192 -17.5121 -2.4929
# 4 -14.1574 -16.8118 -6.2192 28.7749 -8.3273 -6.1325
# 5 -15.4464 -5.1673 -17.5121 -8.3273 41.8637 3.0478
# 6 -11.3664 -7.0715 -2.4929 -6.1325 3.0478 29.3790
#
#
#
# Elastic Compliance Matrix: (Units=1/GPa)
#
#
# Indices 1 2 3 4 5 6 
#
# 1 0.022084 -0.000852 -0.005311 0.013592 0.007803 0.009916
# 2 -0.000852 0.008901 -0.002238 0.005045 0.000662 0.002607
# 3 -0.005311 -0.002238 0.008132 -0.002448 0.000861 -0.002504
# 4 0.013592 0.005045 -0.002448 0.051116 0.013652 0.015518
# 5 0.007803 0.000662 0.000861 0.013652 0.029704 0.003019
# 6 0.009916 0.002607 -0.002504 0.015518 0.003019 0.041216
#
#
# Mechanical properties :
#
#
# Convention : Reuss Voigt Hill
#
# Bulk Modulus (GPa) = 44.81412 75.45852 60.13632
# Shear Modulus (GPa) = 26.96981 36.68657 31.82819
#
# Velocity S-wave (km/s) = 3.63771 4.24271 3.95180
# Velocity P-wave (km/s) = 6.29542 7.81186 7.09427
#
# Compressibility (1/GPa) = 0.02231440
#
# Stress axis : x y z
#
# Youngs Moduli (GPa) = 45.28124 112.35270 122.96992
#
# Poissons Ratio (x) = 0.09567 0.65314
# Poissons Ratio (y) = 0.03856 0.27525
# Poissons Ratio (z) = 0.24050 0.25148
#
# Static dielectric constant tensor:
#      x y z
#    x 4.959340 0.625410 -0.979560 
#    y 0.625410 4.101410 -0.619780 
#    z -0.979560 -0.619780 4.871770 
# 
# 
# High freq. dielectric constant tensor:
#      x y z
#    x 1.798700 -0.006500 -0.003630 
#    y -0.006500 1.795840 -0.001370 
#    z -0.003630 -0.001370 1.818030 
# 
# From -- ./inp_files/38465.got.cif
#   From: 2010.06.25/outbox.cif.g09.slc.cpg/sg2_20_cif.got.tgz:38465.got - 2010.06.27 13:26:56.
