data_PCOD8015376
_publ_section_title
;
Structure prediction by ZEFSAII (Michael W. Deem and Ramdas Pophale) SiO2 
 PCOD8015376
Probable space group: P -1
;
_chemical_formula_sum "Si O2"
_cell_formula_units_Z 12
_cell_length_a 24.000680
_cell_length_b 7.243563
_cell_length_c 14.511565
_cell_angle_alpha 113.881182
_cell_angle_beta 161.772964
_cell_angle_gamma 55.213967
_cell_volume 548.149622
_symmetry_space_group_name_H-M "P -1"
_symmetry_group_IT_number 2
_symmetry_cell_setting 'triclinic'
loop_
_space_group_symop_operation_xyz
x,y,z
-x,-y,-z
loop_
_atom_site_type_symbol
_atom_site_label
_atom_site_fract_x
_atom_site_fract_y
_atom_site_fract_z
Si Si1 0.789484 0.867125 0.327849
Si Si2 0.934394 0.936480 0.214446
Si Si3 0.198931 0.231655 0.309349
Si Si4 0.426827 0.783585 0.450033
Si Si5 0.695403 0.908845 0.986316
Si Si6 0.254424 0.336014 0.606002
O O1 0.850766 0.651151 0.456643
O O2 0.799667 0.764159 0.220324
O O3 0.983472 0.898649 0.643947
O O4 0.535417 0.144005 0.011871
O O5 0.151794 0.627822 0.474660
O O6 0.852550 0.966328 0.197915
O O7 0.706426 0.050845 0.818368
O O8 0.164260 0.242390 0.367585
O O9 0.244189 0.972580 0.285708
O O10 0.435665 0.190126 0.655248
O O11 0.000000 0.500000 0.000000
O O12 0.500000 0.500000 0.500000
O O13 0.664656 0.738524 0.833841
#
# Coordination Sequence:
#
# PCOD8015376 Si02
#       6
#     2   2   2   2   2   2
#     4  10  23  41  65 100 132 171 224 267 328 398
#     4  12  22  40  68  96 132 177 216 271 334 390
#     4   9  18  41  69  91 125 179 216 267 328 383
#     4  10  23  41  66  98 129 167 225 272 323 390
#     4   9  22  41  65  93 136 171 213 274 327 389
#     4  10  21  42  68  93 134 173 218 276 323 388
#
# _framework density 21.891832999999998
#
# number of rings (size 3 to 8) (size 9 to 14) (size 15 to 20)
#    1.000    1.000    1.667    1.500    2.333    0.667 
#    3.000    4.167    0.000    0.000    0.000    0.000 
#    0.000    0.000    0.000    0.000    0.000    0.000 
#
# Total GULP energy -148658.545477 kJ/mol
# GULP energy per Si atom -12388.212123 kJ/mol
# Density = 2.184201 g / cm^3
# Si number density = 21.891833 Si / 1000 Ang^3
#
#
#
# Elastic Constant Matrix: (Units=GPa)
#
#
# Indices 1 2 3 4 5 6 
#
# 1 129.5630 22.4306 36.3319 19.8960 -21.5047 4.5826
# 2 22.4306 86.9414 32.9152 5.0941 -10.7496 2.6102
# 3 36.3319 32.9152 76.4539 4.6938 -19.8213 3.5269
# 4 19.8960 5.0941 4.6938 35.1879 1.9942 -0.7439
# 5 -21.5047 -10.7496 -19.8213 1.9942 30.5637 4.1690
# 6 4.5826 2.6102 3.5269 -0.7439 4.1690 27.0681
#
#
#
# Elastic Compliance Matrix: (Units=1/GPa)
#
#
# Indices 1 2 3 4 5 6 
#
# 1 0.010614 -0.000510 -0.002719 -0.005973 0.006260 -0.002522
# 2 -0.000510 0.013886 -0.005304 -0.001103 0.001265 -0.000787
# 3 -0.002719 -0.005304 0.019213 -0.000838 0.009141 -0.002962
# 4 -0.005973 -0.001103 -0.000838 0.032575 -0.007711 0.003310
# 5 0.006260 0.001265 0.009141 -0.007711 0.045303 -0.009562
# 6 -0.002522 -0.000787 -0.002962 0.003310 -0.009562 0.039396
#
#
# Mechanical properties :
#
#
# Convention : Reuss Voigt Hill
#
# Bulk Modulus (GPa) = 37.52539 52.92375 45.22457
# Shear Modulus (GPa) = 26.74710 31.98263 29.36487
#
# Velocity S-wave (km/s) = 3.49920 3.82637 3.66643
# Velocity P-wave (km/s) = 5.78829 6.61431 6.21504
#
# Compressibility (1/GPa) = 0.02664862
#
# Stress axis : x y z
#
# Youngs Moduli (GPa) = 94.21282 72.01369 52.04715
#
# Poissons Ratio (x) = 0.03669 0.14151
# Poissons Ratio (y) = 0.04800 0.27607
# Poissons Ratio (z) = 0.25615 0.38198
#
# Static dielectric constant tensor:
#      x y z
#    x 4.093230 -0.217550 -0.203380 
#    y -0.217550 3.443040 -0.052850 
#    z -0.203380 -0.052850 4.037990 
# 
# 
# High freq. dielectric constant tensor:
#      x y z
#    x 1.864750 -0.017130 -0.013960 
#    y -0.017130 1.822990 -0.017300 
#    z -0.013960 -0.017300 1.876370 
# 
# From -- ./inp_files/74869.got.cif
#   From: 2010.06.25/outbox.cif.g09.slc.cpg/sg2_38_cif.got.tgz:74869.got - 2010.06.27 13:26:56.
