data_PCOD8015647
_publ_section_title
;
Structure prediction by ZEFSAII (Michael W. Deem and Ramdas Pophale) SiO2 
 PCOD8015647
Probable space group: P -1
;
_chemical_formula_sum "Si O2"
_cell_formula_units_Z 16
_cell_length_a 12.238898
_cell_length_b 8.800068
_cell_length_c 9.309348
_cell_angle_alpha 59.408695
_cell_angle_beta 101.958649
_cell_angle_gamma 123.594173
_cell_volume 715.062114
_symmetry_space_group_name_H-M "P -1"
_symmetry_group_IT_number 2
_symmetry_cell_setting 'triclinic'
loop_
_space_group_symop_operation_xyz
x,y,z
-x,-y,-z
loop_
_atom_site_type_symbol
_atom_site_label
_atom_site_fract_x
_atom_site_fract_y
_atom_site_fract_z
Si Si1 0.923722 0.783159 0.500430
Si Si2 0.891307 0.246418 0.991292
Si Si3 0.102255 0.658861 0.731151
Si Si4 0.785441 0.797718 0.178969
Si Si5 0.376689 0.526581 0.945982
Si Si6 0.284315 0.561551 0.198994
Si Si7 0.397740 0.905759 0.646562
Si Si8 0.545962 0.718294 0.336213
O O1 0.886228 0.790386 0.321599
O O2 0.788592 0.632004 0.620021
O O3 0.015068 0.686001 0.575552
O O4 0.000000 0.000000 0.500000
O O5 0.785426 0.308847 0.897305
O O6 0.032974 0.417912 0.879713
O O7 0.892826 0.221043 0.177505
O O8 0.856887 0.028323 0.016112
O O9 0.242002 0.740384 0.652038
O O10 0.731914 0.616353 0.134083
O O11 0.658434 0.772241 0.230219
O O12 0.439748 0.773624 0.817453
O O13 0.500000 0.500000 0.000000
O O14 0.294221 0.463722 0.100024
O O15 0.428761 0.720314 0.222487
O O16 0.500000 0.000000 0.500000
O O17 0.399430 0.099047 0.622300
O O18 0.500000 0.500000 0.500000
#
# Coordination Sequence:
#
# PCOD8015647 Si02
#       8
#     2   2   2   2   2   2   2   2
#     4  11  22  40  72  99 131 187 238 284 343 423
#     4  10  21  42  73  98 134 182 237 282 344 426
#     4  10  21  43  70  97 133 182 234 285 350 415
#     4  12  23  42  72 107 139 183 240 285 350 417
#     4  12  27  44  66 107 148 180 229 298 357 404
#     4  11  24  42  71  98 140 182 236 291 348 415
#     4  12  27  46  71 101 147 179 226 298 358 412
#     4  12  23  42  72 104 137 186 240 284 348 423
#
# _framework density 22.375679999999999
#
# number of rings (size 3 to 8) (size 9 to 14) (size 15 to 20)
#    0.000    0.750    6.250    0.750    1.750    1.000 
#    0.000    3.125    0.000    0.000    0.000    0.000 
#    0.000    0.000    0.000    0.000    0.000    0.000 
#
# Total GULP energy -198350.271271 kJ/mol
# GULP energy per Si atom -12396.891954 kJ/mol
# Density = 2.232475 g / cm^3
# Si number density = 22.375680 Si / 1000 Ang^3
#
#
#
# Elastic Constant Matrix: (Units=GPa)
#
#
# Indices 1 2 3 4 5 6 
#
# 1 121.4653 21.3371 47.9017 -7.5669 -1.2219 22.0250
# 2 21.3371 101.8709 41.7362 -16.4655 4.9162 5.8270
# 3 47.9017 41.7362 87.7854 -8.5776 5.5140 7.9604
# 4 -7.5669 -16.4655 -8.5776 38.4034 4.9351 6.9977
# 5 -1.2219 4.9162 5.5140 4.9351 45.8559 -1.0020
# 6 22.0250 5.8270 7.9604 6.9977 -1.0020 37.1576
#
#
#
# Elastic Compliance Matrix: (Units=1/GPa)
#
#
# Indices 1 2 3 4 5 6 
#
# 1 0.011750 0.000697 -0.005987 0.002336 0.000571 -0.006216
# 2 0.000697 0.013047 -0.005818 0.004993 -0.001266 -0.002188
# 3 -0.005987 -0.005818 0.017508 0.000341 -0.001665 0.000601
# 4 0.002336 0.004993 0.000341 0.030712 -0.003997 -0.008132
# 5 0.000571 -0.001266 -0.001665 -0.003997 0.022623 0.001579
# 6 -0.006216 -0.002188 0.000601 -0.008132 0.001579 0.032385
#
#
# Mechanical properties :
#
#
# Convention : Reuss Voigt Hill
#
# Bulk Modulus (GPa) = 49.77674 59.23018 54.50346
# Shear Modulus (GPa) = 31.86006 37.62649 34.74328
#
# Velocity S-wave (km/s) = 3.77751 4.10516 3.94474
# Velocity P-wave (km/s) = 6.42809 6.99986 6.72006
#
# Compressibility (1/GPa) = 0.02008971
#
# Stress axis : x y z
#
# Youngs Moduli (GPa) = 85.10815 76.64557 57.11797
#
# Poissons Ratio (x) = -0.05346 0.34196
# Poissons Ratio (y) = -0.05936 0.33230
# Poissons Ratio (z) = 0.50954 0.44591
#
# Static dielectric constant tensor:
#      x y z
#    x 16.292250 3.465490 -7.926120 
#    y 3.465490 4.858300 -2.308190 
#    z -7.926120 -2.308190 9.433150 
# 
# 
# High freq. dielectric constant tensor:
#      x y z
#    x 1.893590 0.012280 0.010430 
#    y 0.012280 1.879550 -0.019660 
#    z 0.010430 -0.019660 1.878640 
# 
# From -- ./inp_files/242580.got.cif
#   From: 2010.06.25/outbox.cif.g09.slc.cpg/sg2_122_cif.got.tgz:242580.got - 2010.06.27 13:26:56.
