data_PCOD8015328
_publ_section_title
;
Structure prediction by ZEFSAII (Michael W. Deem and Ramdas Pophale) SiO2 
 PCOD8015328
Probable space group: P -1
;
_chemical_formula_sum "Si O2"
_cell_formula_units_Z 12
_cell_length_a 11.033759
_cell_length_b 11.441305
_cell_length_c 8.268796
_cell_angle_alpha 42.492554
_cell_angle_beta 42.013791
_cell_angle_gamma 52.912664
_cell_volume 468.415166
_symmetry_space_group_name_H-M "P -1"
_symmetry_group_IT_number 2
_symmetry_cell_setting 'triclinic'
loop_
_space_group_symop_operation_xyz
x,y,z
-x,-y,-z
loop_
_atom_site_type_symbol
_atom_site_label
_atom_site_fract_x
_atom_site_fract_y
_atom_site_fract_z
Si Si1 0.224076 0.125122 0.139265
Si Si2 0.825569 0.260366 0.401419
Si Si3 0.001440 0.241556 0.828494
Si Si4 0.508504 0.266702 0.478788
Si Si5 0.802862 0.466289 0.536628
Si Si6 0.756497 0.970445 0.426407
O O1 0.035501 0.237247 0.158241
O O2 0.227776 0.923312 0.291930
O O3 0.249415 0.143057 0.289148
O O4 0.385134 0.202785 0.808929
O O5 0.692398 0.325194 0.317419
O O6 0.799502 0.403100 0.421311
O O7 0.849848 0.305565 0.776818
O O8 0.042884 0.403173 0.731526
O O9 0.923962 0.089125 0.162256
O O10 0.195714 0.159119 0.639339
O O11 0.397356 0.430184 0.330214
O O12 0.569490 0.105174 0.459004
#
# Coordination Sequence:
#
# PCOD8015328 Si02
#       6
#     2   2   2   2   2   2
#     4  10  22  42  71 100 127 173 216 272 330 386
#     4  10  21  42  67  98 133 169 212 273 333 378
#     4  10  24  44  69  90 133 187 217 252 330 389
#     4  11  25  41  70 105 126 163 225 276 329 380
#     4  11  24  43  62 103 135 169 216 273 328 385
#     4  10  21  46  68  95 129 176 227 262 309 405
#
# _framework density 25.618296000000001
#
# number of rings (size 3 to 8) (size 9 to 14) (size 15 to 20)
#    0.000    1.667    1.667    2.500    7.000    2.000 
#    3.000    3.333    0.000    0.000    0.000    0.000 
#    0.000    0.000    0.000    0.000    0.000    0.000 
#
# Total GULP energy -148759.640880 kJ/mol
# GULP energy per Si atom -12396.636740 kJ/mol
# Density = 2.555999 g / cm^3
# Si number density = 25.618296 Si / 1000 Ang^3
#
#
#
# Elastic Constant Matrix: (Units=GPa)
#
#
# Indices 1 2 3 4 5 6 
#
# 1 45.2445 34.5520 -16.1590 6.1417 -3.8826 -26.5683
# 2 34.5520 119.3882 7.6860 18.7448 -3.8157 -20.1050
# 3 -16.1590 7.6860 63.8253 15.9688 -0.3782 -2.9895
# 4 6.1417 18.7448 15.9688 31.9619 -6.1631 -10.8275
# 5 -3.8826 -3.8157 -0.3782 -6.1631 30.8715 2.7346
# 6 -26.5683 -20.1050 -2.9895 -10.8275 2.7346 59.3302
#
#
#
# Elastic Compliance Matrix: (Units=1/GPa)
#
#
# Indices 1 2 3 4 5 6 
#
# 1 0.046398 -0.010850 0.014792 -0.003696 0.002427 0.017060
# 2 -0.010850 0.012063 -0.003274 -0.004021 -0.000571 -0.001643
# 3 0.014792 -0.003274 0.022737 -0.010847 -0.000849 0.004720
# 4 -0.003696 -0.004021 -0.010847 0.042438 0.007036 0.003856
# 5 0.002427 -0.000571 -0.000849 0.007036 0.033971 0.000569
# 6 0.017060 -0.001643 0.004720 0.003856 0.000569 0.024853
#
#
# Mechanical properties :
#
#
# Convention : Reuss Voigt Hill
#
# Bulk Modulus (GPa) = 12.11617 31.17956 21.64786
# Shear Modulus (GPa) = 23.96524 37.92464 30.94494
#
# Velocity S-wave (km/s) = 3.06187 3.85174 3.47929
# Velocity P-wave (km/s) = 4.15209 5.65494 4.96076
#
# Compressibility (1/GPa) = 0.08253437
#
# Stress axis : x y z
#
# Youngs Moduli (GPa) = 21.55250 82.89704 43.98153
#
# Poissons Ratio (x) = 0.89941 -0.65056
# Poissons Ratio (y) = 0.23384 0.14399
# Poissons Ratio (z) = -0.31880 0.27140
#
# Static dielectric constant tensor:
#      x y z
#    x 4.623840 -0.328800 -0.020160 
#    y -0.328800 5.056220 0.221540 
#    z -0.020160 0.221540 4.296990 
# 
# 
# High freq. dielectric constant tensor:
#      x y z
#    x 2.017300 -0.010470 0.003480 
#    y -0.010470 2.036270 0.012700 
#    z 0.003480 0.012700 2.006250 
# 
# From -- ./inp_files/246641.got.cif
#   From: 2010.06.25/outbox.cif.g09.slc.cpg/sg2_124_cif.got.tgz:246641.got - 2010.06.27 13:26:56.
