data_PCOD8015437
_publ_section_title
;
Structure prediction by ZEFSAII (Michael W. Deem and Ramdas Pophale) SiO2 
 PCOD8015437
Probable space group: P -1
;
_chemical_formula_sum "Si O2"
_cell_formula_units_Z 12
_cell_length_a 17.228456
_cell_length_b 14.592959
_cell_length_c 9.538971
_cell_angle_alpha 57.035081
_cell_angle_beta 46.968687
_cell_angle_gamma 16.831164
_cell_volume 435.059966
_symmetry_space_group_name_H-M "P -1"
_symmetry_group_IT_number 2
_symmetry_cell_setting 'triclinic'
loop_
_space_group_symop_operation_xyz
x,y,z
-x,-y,-z
loop_
_atom_site_type_symbol
_atom_site_label
_atom_site_fract_x
_atom_site_fract_y
_atom_site_fract_z
Si Si1 0.419530 0.845110 0.002699
Si Si2 0.789825 0.810361 0.273342
Si Si3 0.244403 0.641781 0.586314
Si Si4 0.728047 0.337020 0.143563
Si Si5 0.904638 0.685951 0.796505
Si Si6 0.345668 0.968026 0.463732
O O1 0.736528 0.446275 0.963727
O O2 0.434521 0.938911 0.004710
O O3 0.092936 0.096388 0.266867
O O4 0.365017 0.934900 0.835370
O O5 0.107491 0.435368 0.106701
O O6 0.500000 0.000000 0.500000
O O7 0.915389 0.744325 0.319735
O O8 0.340098 0.653920 0.361865
O O9 0.159508 0.759536 0.753095
O O10 0.594634 0.217912 0.491700
O O11 0.000000 0.000000 0.000000
O O12 0.273417 0.351611 0.701406
O O13 0.880598 0.759206 0.610584
#
# Coordination Sequence:
#
# PCOD8015437 Si02
#       6
#     2   2   2   2   2   2
#     4  11  23  46  70 102 147 190 241 302 364 437
#     4  10  23  42  67 108 141 192 242 296 360 439
#     4  10  24  46  68 107 139 191 237 307 366 436
#     4  11  25  45  73 102 142 186 248 301 372 435
#     4  10  21  43  68 101 142 195 235 297 362 431
#     4  10  21  42  69 101 146 186 239 298 362 432
#
# _framework density 27.582405999999999
#
# number of rings (size 3 to 8) (size 9 to 14) (size 15 to 20)
#    0.000    1.667    1.667    1.500    2.333    3.333 
#    9.000    5.000    0.000    0.000    0.000    0.000 
#    0.000    0.000    0.000    0.000    0.000    0.000 
#
# Total GULP energy -148662.507856 kJ/mol
# GULP energy per Si atom -12388.542321 kJ/mol
# Density = 2.751963 g / cm^3
# Si number density = 27.582406 Si / 1000 Ang^3
#
#
#
# Elastic Constant Matrix: (Units=GPa)
#
#
# Indices 1 2 3 4 5 6 
#
# 1 105.9623 31.6034 41.2017 18.1992 28.7714 14.3426
# 2 31.6034 107.9531 38.6638 -16.1429 27.1252 35.8003
# 3 41.2017 38.6638 87.4711 -21.0948 21.8326 18.6926
# 4 18.1992 -16.1429 -21.0948 55.4841 7.9316 20.2847
# 5 28.7714 27.1252 21.8326 7.9316 71.7332 16.2535
# 6 14.3426 35.8003 18.6926 20.2847 16.2535 50.2523
#
#
#
# Elastic Compliance Matrix: (Units=1/GPa)
#
#
# Indices 1 2 3 4 5 6 
#
# 1 0.017175 -0.006408 -0.010600 -0.015015 -0.001910 0.010284
# 2 -0.006408 0.019494 0.003169 0.016306 -0.003321 -0.018745
# 3 -0.010600 0.003169 0.023522 0.019158 -0.002874 -0.014786
# 4 -0.015015 0.016306 0.019158 0.047345 -0.003888 -0.032311
# 5 -0.001910 -0.003321 -0.002874 -0.003888 0.017276 -0.000038
# 6 0.010284 -0.018745 -0.014786 -0.032311 -0.000038 0.048873
#
#
# Mechanical properties :
#
#
# Convention : Reuss Voigt Hill
#
# Bulk Modulus (GPa) = 30.75657 58.25826 44.50742
# Shear Modulus (GPa) = 23.56273 48.15509 35.85891
#
# Velocity S-wave (km/s) = 2.92596 4.18288 3.60955
# Velocity P-wave (km/s) = 4.75289 6.67054 5.79163
#
# Compressibility (1/GPa) = 0.03251338
#
# Stress axis : x y z
#
# Youngs Moduli (GPa) = 58.22285 51.29910 42.51386
#
# Poissons Ratio (x) = 0.32871 0.45065
# Poissons Ratio (y) = 0.37307 -0.13473
# Poissons Ratio (z) = 0.61716 -0.16257
#
# Static dielectric constant tensor:
#      x y z
#    x 5.938620 1.189450 0.249110 
#    y 1.189450 5.806540 0.502280 
#    z 0.249110 0.502280 5.192130 
# 
# 
# High freq. dielectric constant tensor:
#      x y z
#    x 2.131840 0.023140 -0.003940 
#    y 0.023140 2.120460 0.009270 
#    z -0.003940 0.009270 2.114030 
# 
# From -- ./inp_files/335197.got.cif
#   From: 2010.06.25/outbox.cif.g09.slc.cpg/sg2_168_cif.got.tgz:335197.got - 2010.06.27 13:26:56.
