data_PCOD8015051
_publ_section_title
;
Structure prediction by ZEFSAII (Michael W. Deem and Ramdas Pophale) SiO2 
 PCOD8015051
Probable space group: P -1
;
_chemical_formula_sum "Si O2"
_cell_formula_units_Z 14
_cell_length_a 11.423453
_cell_length_b 14.262391
_cell_length_c 11.108309
_cell_angle_alpha 30.091515
_cell_angle_beta 39.635843
_cell_angle_gamma 50.889427
_cell_volume 575.269256
_symmetry_space_group_name_H-M "P -1"
_symmetry_group_IT_number 2
_symmetry_cell_setting 'triclinic'
loop_
_space_group_symop_operation_xyz
x,y,z
-x,-y,-z
loop_
_atom_site_type_symbol
_atom_site_label
_atom_site_fract_x
_atom_site_fract_y
_atom_site_fract_z
Si Si1 0.887199 0.619523 0.042722
Si Si2 0.456882 0.033387 0.634101
Si Si3 0.807279 0.300429 0.811618
Si Si4 0.310524 0.050006 0.237966
Si Si5 0.496156 0.419515 0.278407
Si Si6 0.106821 0.564445 0.154575
Si Si7 0.607448 0.289296 0.581634
O O1 0.700435 0.475838 0.368899
O O2 0.989915 0.666072 0.035524
O O3 0.853184 0.816935 0.788131
O O4 0.000000 0.500000 0.000000
O O5 0.416421 0.246882 0.448487
O O6 0.500000 0.000000 0.500000
O O7 0.631837 0.991409 0.624808
O O8 0.266917 0.901735 0.960539
O O9 0.634826 0.421055 0.811131
O O10 0.858586 0.289119 0.925180
O O11 0.984534 0.377449 0.507370
O O12 0.254104 0.850121 0.435522
O O13 0.488959 0.164087 0.910261
O O14 0.482724 0.353725 0.500290
O O15 0.705971 0.493736 0.989598
#
# Coordination Sequence:
#
# PCOD8015051 Si02
#       7
#     2   2   2   2   2   2   2
#     4  12  23  38  61  93 129 163 203 259 319 383
#     4  11  23  40  69  96 124 169 222 259 317 390
#     4  11  24  44  67  91 133 171 207 276 314 369
#     4  10  23  40  64  93 123 166 210 267 317 374
#     4  11  22  44  70  93 126 171 215 263 323 379
#     4  11  24  42  64 100 129 166 222 255 320 392
#     4  10  21  42  65  91 123 162 217 259 319 378
#
# _framework density 24.336428000000002
#
# number of rings (size 3 to 8) (size 9 to 14) (size 15 to 20)
#    0.000    1.143    2.857    3.429    0.000    0.571 
#    0.000    5.714    0.000    0.000    0.000    0.000 
#    0.000    0.000    0.000    0.000    0.000    0.000 
#
# Total GULP energy -173578.084478 kJ/mol
# GULP energy per Si atom -12398.434606 kJ/mol
# Density = 2.428104 g / cm^3
# Si number density = 24.336428 Si / 1000 Ang^3
#
#
#
# Elastic Constant Matrix: (Units=GPa)
#
#
# Indices 1 2 3 4 5 6 
#
# 1 118.3259 30.6380 15.9021 -1.1071 8.0095 6.5420
# 2 30.6380 73.1801 19.4180 -6.6987 0.7934 1.9885
# 3 15.9021 19.4180 66.9106 -5.9461 -8.9957 0.9412
# 4 -1.1071 -6.6987 -5.9461 34.3204 9.9126 -1.2806
# 5 8.0095 0.7934 -8.9957 9.9126 46.2563 1.0031
# 6 6.5420 1.9885 0.9412 -1.2806 1.0031 24.6194
#
#
#
# Elastic Compliance Matrix: (Units=1/GPa)
#
#
# Indices 1 2 3 4 5 6 
#
# 1 0.009847 -0.003660 -0.001514 -0.000208 -0.001844 -0.002199
# 2 -0.003660 0.016465 -0.003797 0.002716 -0.000968 -0.000031
# 3 -0.001514 -0.003797 0.016965 0.001174 0.003375 -0.000016
# 4 -0.000208 0.002716 0.001174 0.031847 -0.006644 0.001718
# 5 -0.001844 -0.000968 0.003375 -0.006644 0.024054 -0.000886
# 6 -0.002199 -0.000031 -0.000016 0.001718 -0.000886 0.041331
#
#
# Mechanical properties :
#
#
# Convention : Reuss Voigt Hill
#
# Bulk Modulus (GPa) = 39.46971 43.37031 41.42001
# Shear Modulus (GPa) = 29.95886 33.86979 31.91433
#
# Velocity S-wave (km/s) = 3.51241 3.73464 3.62523
# Velocity P-wave (km/s) = 5.71865 6.03793 5.88045
#
# Compressibility (1/GPa) = 0.02533589
#
# Stress axis : x y z
#
# Youngs Moduli (GPa) = 101.55537 60.73575 58.94425
#
# Poissons Ratio (x) = 0.22231 0.08921
# Poissons Ratio (y) = 0.37172 0.22379
# Poissons Ratio (z) = 0.15371 0.23059
#
# Static dielectric constant tensor:
#      x y z
#    x 4.188860 0.285380 -0.678240 
#    y 0.285380 4.295100 -0.174960 
#    z -0.678240 -0.174960 4.837320 
# 
# 
# High freq. dielectric constant tensor:
#      x y z
#    x 1.975390 0.013300 -0.000210 
#    y 0.013300 1.949160 0.000730 
#    z -0.000210 0.000730 1.980280 
# 
# From -- ./inp_files/426255.got.cif
#   From: 2010.06.25/outbox.cif.g09.slc.cpg/sg2_214_cif.got.tgz:426255.got - 2010.06.27 13:26:56.
