data_PCOD8015699
_publ_section_title
;
Structure prediction by ZEFSAII (Michael W. Deem and Ramdas Pophale) SiO2 
 PCOD8015699
Probable space group: P -1
;
_chemical_formula_sum "Si O2"
_cell_formula_units_Z 16
_cell_length_a 13.808446
_cell_length_b 8.951213
_cell_length_c 25.976420
_cell_angle_alpha 38.161358
_cell_angle_beta 22.748938
_cell_angle_gamma 48.915600
_cell_volume 735.477070
_symmetry_space_group_name_H-M "P -1"
_symmetry_group_IT_number 2
_symmetry_cell_setting 'triclinic'
loop_
_space_group_symop_operation_xyz
x,y,z
-x,-y,-z
loop_
_atom_site_type_symbol
_atom_site_label
_atom_site_fract_x
_atom_site_fract_y
_atom_site_fract_z
Si Si1 0.204607 0.990701 0.445510
Si Si2 0.065952 0.172526 0.858515
Si Si3 0.002374 0.617996 0.521823
Si Si4 0.329829 0.641561 0.936284
Si Si5 0.655822 0.273467 0.869194
Si Si6 0.935722 0.588146 0.062544
Si Si7 0.501830 0.582824 0.341377
Si Si8 0.157377 0.418238 0.642853
O O1 0.187996 0.716024 0.548248
O O2 0.490441 0.118993 0.247880
O O3 0.000000 0.000000 0.500000
O O4 0.117350 0.147012 0.491914
O O5 0.256377 0.207836 0.805637
O O6 0.223768 0.335196 0.689193
O O7 0.809532 0.264473 0.972487
O O8 0.982645 0.887412 0.957881
O O9 0.286647 0.702109 0.388330
O O10 0.000000 0.500000 0.500000
O O11 0.804523 0.415382 0.708687
O O12 0.476063 0.436655 0.937641
O O13 0.113197 0.494999 0.041439
O O14 0.863003 0.256419 0.816361
O O15 0.500000 0.000000 0.000000
O O16 0.633786 0.462275 0.263309
O O17 0.000000 0.500000 0.000000
O O18 0.358634 0.378365 0.510576
#
# Coordination Sequence:
#
# PCOD8015699 Si02
#       8
#     2   2   2   2   2   2   2   2
#     4  11  19  40  66  91 123 162 213 262 304 378
#     4  11  24  39  65  94 127 168 211 264 311 380
#     4  10  23  38  66  94 120 165 209 260 314 369
#     4  10  22  42  64  92 128 167 214 256 314 373
#     4  10  23  40  62  92 135 161 200 269 319 368
#     4  11  25  39  65  91 125 171 212 261 310 380
#     4  10  21  43  63  89 126 163 212 255 309 374
#     4  11  22  39  67  93 123 168 208 261 319 369
#
# _framework density 21.754587000000001
#
# number of rings (size 3 to 8) (size 9 to 14) (size 15 to 20)
#    0.000    1.500    3.750    3.375    5.250    1.500 
#    0.000    0.625    2.750    0.000    0.000    0.000 
#    0.000    0.000    0.000    0.000    0.000    0.000 
#
# Total GULP energy -198278.321514 kJ/mol
# GULP energy per Si atom -12392.395095 kJ/mol
# Density = 2.170507 g / cm^3
# Si number density = 21.754587 Si / 1000 Ang^3
#
#
#
# Elastic Constant Matrix: (Units=GPa)
#
#
# Indices 1 2 3 4 5 6 
#
# 1 76.6711 41.8366 31.1807 12.2132 16.9076 13.1636
# 2 41.8366 120.4407 61.9590 17.6241 8.0593 22.6091
# 3 31.1807 61.9590 110.6804 26.1231 -1.4143 8.6395
# 4 12.2132 17.6241 26.1231 46.7994 7.6155 5.8418
# 5 16.9076 8.0593 -1.4143 7.6155 37.9347 5.5370
# 6 13.1636 22.6091 8.6395 5.8418 5.5370 32.3779
#
#
#
# Elastic Compliance Matrix: (Units=1/GPa)
#
#
# Indices 1 2 3 4 5 6 
#
# 1 0.018379 -0.003925 -0.002790 -0.000279 -0.007006 -0.002738
# 2 -0.003925 0.014187 -0.006367 0.000146 -0.000577 -0.006539
# 3 -0.002790 -0.006367 0.014691 -0.005989 0.004047 0.002049
# 4 -0.000279 0.000146 -0.005989 0.025815 -0.004992 -0.002195
# 5 -0.007006 -0.000577 0.004047 -0.004992 0.031087 -0.002244
# 6 -0.002738 -0.006539 0.002049 -0.002195 -0.002244 0.036798
#
#
# Mechanical properties :
#
#
# Convention : Reuss Voigt Hill
#
# Bulk Modulus (GPa) = 47.41429 64.19387 55.80408
# Shear Modulus (GPa) = 28.71068 34.94346 31.82707
#
# Velocity S-wave (km/s) = 3.63678 4.01216 3.82907
# Velocity P-wave (km/s) = 6.28310 7.14391 6.72729
#
# Compressibility (1/GPa) = 0.02109069
#
# Stress axis : x y z
#
# Youngs Moduli (GPa) = 54.41060 70.48914 68.06985
#
# Poissons Ratio (x) = 0.27667 0.18994
# Poissons Ratio (y) = 0.21356 0.43342
# Poissons Ratio (z) = 0.15183 0.44883
#
# Static dielectric constant tensor:
#      x y z
#    x 3.947940 -0.188610 -0.181280 
#    y -0.188610 4.752320 0.926660 
#    z -0.181280 0.926660 4.351380 
# 
# 
# High freq. dielectric constant tensor:
#      x y z
#    x 1.842950 0.003320 -0.009660 
#    y 0.003320 1.850170 0.027590 
#    z -0.009660 0.027590 1.864100 
# 
# From -- ./inp_files/619238.got.cif
#   From: 2010.06.25/outbox.cif.g09.slc.cpg/sg2_310_cif.got.tgz:619238.got - 2010.06.27 13:26:56.
