data_PCOD8015504
_publ_section_title
;
Structure prediction by ZEFSAII (Michael W. Deem and Ramdas Pophale) SiO2 
 PCOD8015504
Probable space group: P -1
;
_chemical_formula_sum "Si O2"
_cell_formula_units_Z 14
_cell_length_a 11.471400
_cell_length_b 14.565774
_cell_length_c 9.250339
_cell_angle_alpha 53.955162
_cell_angle_beta 55.402024
_cell_angle_gamma 30.255495
_cell_volume 622.925252
_symmetry_space_group_name_H-M "P -1"
_symmetry_group_IT_number 2
_symmetry_cell_setting 'triclinic'
loop_
_space_group_symop_operation_xyz
x,y,z
-x,-y,-z
loop_
_atom_site_type_symbol
_atom_site_label
_atom_site_fract_x
_atom_site_fract_y
_atom_site_fract_z
Si Si1 0.113196 0.551238 0.235581
Si Si2 0.189168 0.103390 0.042303
Si Si3 0.428373 0.767245 0.631183
Si Si4 0.402973 0.011668 0.277566
Si Si5 0.372210 0.539004 0.415320
Si Si6 0.957170 0.653888 0.571195
Si Si7 0.928104 0.064798 0.828320
O O1 0.392345 0.362942 0.240326
O O2 0.023651 0.492470 0.280688
O O3 0.973790 0.668713 0.373608
O O4 0.056629 0.686288 0.034769
O O5 0.220296 0.104140 0.190461
O O6 0.185807 0.971835 0.133628
O O7 0.396178 0.031620 0.874776
O O8 0.436982 0.645671 0.646706
O O9 0.514759 0.820942 0.427593
O O10 0.161254 0.958877 0.682658
O O11 0.279829 0.146971 0.377545
O O12 0.500000 0.500000 0.500000
O O13 0.260585 0.714971 0.244736
O O14 0.175594 0.574076 0.569528
O O15 0.000000 0.000000 0.000000
#
# Coordination Sequence:
#
# PCOD8015504 Si02
#       7
#     2   2   2   2   2   2   2
#     4  10  23  42  69 101 132 173 235 284 321 404
#     4  11  26  43  64 106 139 171 227 289 333 395
#     4  11  25  46  72  97 134 185 228 274 334 410
#     4  11  24  44  72  96 137 182 223 281 342 394
#     4  11  24  43  71 100 132 178 229 272 335 414
#     4  10  21  42  70 100 128 180 231 272 332 405
#     4  12  27  45  67 102 142 177 222 281 344 397
#
# _framework density 22.474606000000001
#
# number of rings (size 3 to 8) (size 9 to 14) (size 15 to 20)
#    0.000    1.143    1.429    5.143    4.000    6.286 
#    0.000    0.000    0.000    0.000    0.000    0.000 
#    0.000    0.000    0.000    0.000    0.000    0.000 
#
# Total GULP energy -173626.394048 kJ/mol
# GULP energy per Si atom -12401.885289 kJ/mol
# Density = 2.242345 g / cm^3
# Si number density = 22.474606 Si / 1000 Ang^3
#
#
#
# Elastic Constant Matrix: (Units=GPa)
#
#
# Indices 1 2 3 4 5 6 
#
# 1 142.8184 25.9683 32.4716 -4.0160 -3.0526 6.3941
# 2 25.9683 96.2816 39.7145 -10.5711 3.0780 15.7053
# 3 32.4716 39.7145 68.0628 -13.0921 1.1609 3.6630
# 4 -4.0160 -10.5711 -13.0921 26.8999 -5.3297 -2.9910
# 5 -3.0526 3.0780 1.1609 -5.3297 37.2424 -8.2397
# 6 6.3941 15.7053 3.6630 -2.9910 -8.2397 31.3237
#
#
#
# Elastic Compliance Matrix: (Units=1/GPa)
#
#
# Indices 1 2 3 4 5 6 
#
# 1 0.007948 -0.000660 -0.003521 -0.000773 0.000525 -0.000816
# 2 -0.000660 0.015179 -0.007983 0.000683 -0.002543 -0.007146
# 3 -0.003521 -0.007983 0.022343 0.007876 0.001523 0.003261
# 4 -0.000773 0.000683 0.007876 0.043055 0.006861 0.004810
# 5 0.000525 -0.002543 0.001523 0.006861 0.030158 0.009578
# 6 -0.000816 -0.007146 0.003261 0.004810 0.009578 0.038271
#
#
# Mechanical properties :
#
#
# Convention : Reuss Voigt Hill
#
# Bulk Modulus (GPa) = 47.29503 55.94128 51.61816
# Shear Modulus (GPa) = 26.54922 33.02710 29.78816
#
# Velocity S-wave (km/s) = 3.44073 3.83760 3.64457
# Velocity P-wave (km/s) = 6.07242 6.67691 6.38183
#
# Compressibility (1/GPa) = 0.02114387
#
# Stress axis : x y z
#
# Youngs Moduli (GPa) = 125.81184 65.88112 44.75625
#
# Poissons Ratio (x) = 0.04350 0.15757
# Poissons Ratio (y) = 0.08306 0.35727
# Poissons Ratio (z) = 0.44293 0.52590
#
# Static dielectric constant tensor:
#      x y z
#    x 4.358980 0.110450 -0.094510 
#    y 0.110450 3.843910 -0.041340 
#    z -0.094510 -0.041340 3.909080 
# 
# 
# High freq. dielectric constant tensor:
#      x y z
#    x 1.906130 0.005260 -0.006030 
#    y 0.005260 1.886530 -0.013920 
#    z -0.006030 -0.013920 1.872150 
# 
# From -- ./inp_files/271791.got.cif
#   From: 2010.06.25/outbox.cif.g09.slc.cpg/sg2_136_cif.got.tgz:271791.got - 2010.06.27 13:26:56.
