data_PCOD8015552
_publ_section_title
;
Structure prediction by ZEFSAII (Michael W. Deem and Ramdas Pophale) SiO2 
 PCOD8015552
Probable space group: P -1
;
_chemical_formula_sum "Si O2"
_cell_formula_units_Z 14
_cell_length_a 9.080429
_cell_length_b 8.779623
_cell_length_c 10.575132
_cell_angle_alpha 62.695838
_cell_angle_beta 51.833409
_cell_angle_gamma 68.910116
_cell_volume 585.461867
_symmetry_space_group_name_H-M "P -1"
_symmetry_group_IT_number 2
_symmetry_cell_setting 'triclinic'
loop_
_space_group_symop_operation_xyz
x,y,z
-x,-y,-z
loop_
_atom_site_type_symbol
_atom_site_label
_atom_site_fract_x
_atom_site_fract_y
_atom_site_fract_z
Si Si1 0.126597 0.075694 0.799481
Si Si2 0.988865 0.528174 0.347757
Si Si3 0.413036 0.820257 0.119801
Si Si4 0.952327 0.977897 0.683370
Si Si5 0.542481 0.014751 0.615207
Si Si6 0.366408 0.650521 0.453639
Si Si7 0.702485 0.723609 0.816953
O O1 0.071297 0.278771 0.736052
O O2 0.120669 0.979155 0.699233
O O3 0.330578 0.045743 0.771501
O O4 0.000000 0.000000 0.000000
O O5 0.842148 0.402656 0.423938
O O6 0.000000 0.500000 0.500000
O O7 0.196023 0.462400 0.206262
O O8 0.474578 0.696573 0.251516
O O9 0.497135 0.710341 0.995452
O O10 0.187244 0.859966 0.244345
O O11 0.500000 0.000000 0.000000
O O12 0.338832 0.824506 0.484776
O O13 0.839160 0.809595 0.811976
O O14 0.000000 0.000000 0.500000
O O15 0.665584 0.845071 0.666975
O O16 0.500000 0.000000 0.500000
O O17 0.500000 0.500000 0.500000
#
# Coordination Sequence:
#
# PCOD8015552 Si02
#       7
#     2   2   2   2   2   2   2
#     4  12  28  48  72 109 153 188 242 316 378 431
#     4  12  27  48  74 110 144 193 254 305 360 450
#     4  10  21  42  71 100 141 187 243 294 363 433
#     4  11  21  42  75 103 137 199 249 291 359 453
#     4  12  25  46  72 108 145 193 239 302 374 438
#     4  12  25  46  72 104 148 189 238 305 366 433
#     4  11  25  43  76 104 139 194 251 296 365 439
#
# _framework density 23.912745000000001
#
# number of rings (size 3 to 8) (size 9 to 14) (size 15 to 20)
#    0.000    0.571    4.286    5.143    4.000    0.000 
#    2.571    5.000    0.000    0.000    0.000    0.000 
#    0.000    0.000    0.000    0.000    0.000    0.000 
#
# Total GULP energy -173434.060551 kJ/mol
# GULP energy per Si atom -12388.147182 kJ/mol
# Density = 2.385832 g / cm^3
# Si number density = 23.912745 Si / 1000 Ang^3
#
#
#
# Elastic Constant Matrix: (Units=GPa)
#
#
# Indices 1 2 3 4 5 6 
#
# 1 128.7907 13.6476 22.9057 -1.0432 -3.1750 -2.2271
# 2 13.6476 101.6395 29.8190 9.6289 -4.1374 -16.7651
# 3 22.9057 29.8190 118.9755 0.3017 2.6012 11.6535
# 4 -1.0432 9.6289 0.3017 55.8289 0.2649 7.8567
# 5 -3.1750 -4.1374 2.6012 0.2649 35.7631 4.3210
# 6 -2.2271 -16.7651 11.6535 7.8567 4.3210 31.2506
#
#
#
# Elastic Compliance Matrix: (Units=1/GPa)
#
#
# Indices 1 2 3 4 5 6 
#
# 1 0.008120 -0.000505 -0.001525 0.000139 0.000682 0.000747
# 2 -0.000505 0.012986 -0.004069 -0.003531 0.000663 0.009244
# 3 -0.001525 -0.004069 0.010360 0.001529 -0.000591 -0.006457
# 4 0.000139 -0.003531 0.001529 0.019556 0.000242 -0.007405
# 5 0.000682 0.000663 -0.000591 0.000242 0.028549 -0.003384
# 6 0.000747 0.009244 -0.006457 -0.007405 -0.003384 0.041749
#
#
# Mechanical properties :
#
#
# Convention : Reuss Voigt Hill
#
# Bulk Modulus (GPa) = 51.89672 53.57227 52.73450
# Shear Modulus (GPa) = 35.72915 43.43743 39.58329
#
# Velocity S-wave (km/s) = 3.86961 4.26666 4.07298
# Velocity P-wave (km/s) = 6.45870 6.83553 6.64978
#
# Compressibility (1/GPa) = 0.01926904
#
# Stress axis : x y z
#
# Youngs Moduli (GPa) = 123.15010 77.00320 96.52524
#
# Poissons Ratio (x) = 0.03888 0.14722
# Poissons Ratio (y) = 0.06218 0.39272
# Poissons Ratio (z) = 0.18783 0.31330
#
# Static dielectric constant tensor:
#      x y z
#    x -2.489560 5.017780 1.718770 
#    y 5.017780 1.078400 -1.043450 
#    z 1.718770 -1.043450 4.677050 
# 
# 
# High freq. dielectric constant tensor:
#      x y z
#    x 1.956940 -0.011690 -0.008720 
#    y -0.011690 1.951290 0.017860 
#    z -0.008720 0.017860 1.952940 
# 
# From -- ./inp_files/427337.got.cif
#   From: 2010.06.25/outbox.cif.g09.slc.cpg/sg2_214_cif.got.tgz:427337.got - 2010.06.27 13:26:56.
