data_PCOD8015072
_publ_section_title
;
Structure prediction by ZEFSAII (Michael W. Deem and Ramdas Pophale) SiO2 
 PCOD8015072
Probable space group: P -1
;
_chemical_formula_sum "Si O2"
_cell_formula_units_Z 16
_cell_length_a 14.067799
_cell_length_b 11.423444
_cell_length_c 14.343260
_cell_angle_alpha 121.049493
_cell_angle_beta 40.189403
_cell_angle_gamma 149.990748
_cell_volume 663.781351
_symmetry_space_group_name_H-M "P -1"
_symmetry_group_IT_number 2
_symmetry_cell_setting 'triclinic'
loop_
_space_group_symop_operation_xyz
x,y,z
-x,-y,-z
loop_
_atom_site_type_symbol
_atom_site_label
_atom_site_fract_x
_atom_site_fract_y
_atom_site_fract_z
Si Si1 0.119859 0.086401 0.574846
Si Si2 0.115327 0.372915 0.378560
Si Si3 0.803365 0.289209 0.426202
Si Si4 0.886258 0.176796 0.029534
Si Si5 0.304894 0.175550 0.833947
Si Si6 0.096119 0.581874 0.137484
Si Si7 0.708570 0.988282 0.887361
Si Si8 0.592813 0.592655 0.324625
O O1 0.287258 0.272631 0.433326
O O2 0.323683 0.275164 0.586496
O O3 0.825952 0.934158 0.747354
O O4 0.058117 0.875082 0.531686
O O5 0.203072 0.576196 0.455419
O O6 0.427549 0.555179 0.193748
O O7 0.937662 0.272315 0.379440
O O8 0.002142 0.472338 0.265677
O O9 0.500000 0.000000 0.500000
O O10 0.922534 0.366895 0.097861
O O11 0.749041 0.019546 0.166415
O O12 0.675328 0.979058 0.020653
O O13 0.185040 0.341730 0.852423
O O14 0.416143 0.285220 0.689602
O O15 0.000000 0.000000 0.000000
O O16 0.065829 0.718379 0.195250
O O17 0.416306 0.781950 0.969940
#
# Coordination Sequence:
#
# PCOD8015072 Si02
#       8
#     2   2   2   2   2   2   2   2
#     4  10  23  42  70 101 139 179 234 293 346 425
#     4  11  26  45  72 106 138 189 235 287 357 419
#     4  11  27  48  70 102 144 185 236 292 349 422
#     4  10  21  42  65  94 134 181 223 283 341 409
#     4  10  22  41  67 101 139 177 228 286 350 415
#     4  11  24  42  69  93 132 187 229 278 349 414
#     4  10  24  43  63 102 135 173 233 285 340 412
#     4   9  22  41  65 103 139 178 226 286 358 402
#
# _framework density 24.104322
#
# number of rings (size 3 to 8) (size 9 to 14) (size 15 to 20)
#    0.000    1.750    0.000    1.875    8.750    5.500 
#    0.000    2.500    0.000    0.000    0.000    0.000 
#    0.000    0.000    0.000    0.000    0.000    0.000 
#
# Total GULP energy -198237.187334 kJ/mol
# GULP energy per Si atom -12389.824208 kJ/mol
# Density = 2.404946 g / cm^3
# Si number density = 24.104322 Si / 1000 Ang^3
#
#
#
# Elastic Constant Matrix: (Units=GPa)
#
#
# Indices 1 2 3 4 5 6 
#
# 1 129.7110 35.2270 35.1257 -10.7430 9.7730 -14.5002
# 2 35.2270 97.1666 37.9421 -11.1548 4.7931 -21.7586
# 3 35.1257 37.9421 73.2389 -21.2915 13.0788 -5.4338
# 4 -10.7430 -11.1548 -21.2915 37.9291 1.8592 3.4286
# 5 9.7730 4.7931 13.0788 1.8592 43.4416 -15.1799
# 6 -14.5002 -21.7586 -5.4338 3.4286 -15.1799 38.8410
#
#
#
# Elastic Compliance Matrix: (Units=1/GPa)
#
#
# Indices 1 2 3 4 5 6 
#
# 1 0.009316 -0.001549 -0.003466 0.000060 -0.000166 0.002055
# 2 -0.001549 0.015470 -0.007696 -0.001194 0.004050 0.008699
# 3 -0.003466 -0.007696 0.023450 0.010904 -0.008161 -0.006477
# 4 0.000060 -0.001194 0.010904 0.032850 -0.006111 -0.004409
# 5 -0.000166 0.004050 -0.008161 -0.006111 0.029984 0.013323
# 6 0.002055 0.008699 -0.006477 -0.004409 0.013323 0.036077
#
#
# Mechanical properties :
#
#
# Convention : Reuss Voigt Hill
#
# Bulk Modulus (GPa) = 43.83399 57.41181 50.62290
# Shear Modulus (GPa) = 27.75115 36.83044 32.29080
#
# Velocity S-wave (km/s) = 3.39675 3.91315 3.66406
# Velocity P-wave (km/s) = 5.79728 6.65483 6.24080
#
# Compressibility (1/GPa) = 0.02281335
#
# Stress axis : x y z
#
# Youngs Moduli (GPa) = 107.34380 64.64321 42.64336
#
# Poissons Ratio (x) = 0.10011 0.14781
# Poissons Ratio (y) = 0.16623 0.32820
# Poissons Ratio (z) = 0.37207 0.49752
#
# Static dielectric constant tensor:
#      x y z
#    x 4.753800 -0.130520 0.059120 
#    y -0.130520 4.410730 -0.355310 
#    z 0.059120 -0.355310 4.305210 
# 
# 
# High freq. dielectric constant tensor:
#      x y z
#    x 1.974700 -0.004340 0.002960 
#    y -0.004340 1.957780 -0.023080 
#    z 0.002960 -0.023080 1.943230 
# 
# From -- ./inp_files/532600.got.cif
#   From: 2010.06.25/outbox.cif.g09.slc.cpg/sg2_267_cif.got.tgz:532600.got - 2010.06.27 13:26:56.
