data_PCOD8015724
_publ_section_title
;
Structure prediction by ZEFSAII (Michael W. Deem and Ramdas Pophale) SiO2 
 PCOD8015724
Probable space group: P -1
;
_chemical_formula_sum "Si O2"
_cell_formula_units_Z 14
_cell_length_a 13.944131
_cell_length_b 8.877267
_cell_length_c 11.115427
_cell_angle_alpha 102.139612
_cell_angle_beta 125.225659
_cell_angle_gamma 121.368269
_cell_volume 653.881512
_symmetry_space_group_name_H-M "P -1"
_symmetry_group_IT_number 2
_symmetry_cell_setting 'triclinic'
loop_
_space_group_symop_operation_xyz
x,y,z
-x,-y,-z
loop_
_atom_site_type_symbol
_atom_site_label
_atom_site_fract_x
_atom_site_fract_y
_atom_site_fract_z
Si Si1 0.926891 0.753238 0.438276
Si Si2 0.491555 0.172627 0.033867
Si Si3 0.459790 0.839776 0.337012
Si Si4 0.231499 0.867012 0.577782
Si Si5 0.713163 0.079938 0.911238
Si Si6 0.432840 0.601906 0.475759
Si Si7 0.103263 0.399443 0.361035
O O1 0.997569 0.796522 0.634219
O O2 0.018851 0.725917 0.406291
O O3 0.691763 0.481684 0.216505
O O4 0.000000 0.000000 0.500000
O O5 0.351420 0.076785 0.807075
O O6 0.500000 0.000000 0.000000
O O7 0.398429 0.106634 0.085292
O O8 0.327159 0.780528 0.125709
O O9 0.363517 0.589265 0.290650
O O10 0.500000 0.000000 0.500000
O O11 0.662960 0.994077 0.450072
O O12 0.215081 0.663811 0.546840
O O13 0.632100 0.900394 0.708943
O O14 0.945878 0.298074 0.133796
O O15 0.500000 0.500000 0.500000
O O16 0.255246 0.445757 0.413371
#
# Coordination Sequence:
#
# PCOD8015724 Si02
#       7
#     2   2   2   2   2   2   2
#     4  12  27  41  64 106 144 175 223 286 347 405
#     4  12  20  42  71  99 135 178 220 282 345 397
#     4  10  21  43  63  98 127 175 227 279 325 396
#     4  12  23  41  73  99 133 177 233 278 340 407
#     4  11  22  41  70  97 131 171 236 285 333 399
#     4  11  25  46  67  90 142 183 222 279 346 408
#     4  12  23  44  70 102 133 180 233 282 337 408
#
# _framework density 21.410606000000001
#
# number of rings (size 3 to 8) (size 9 to 14) (size 15 to 20)
#    0.000    0.571    8.571    1.286    2.000    1.714 
#    2.571    0.000    0.000    0.000    0.000    0.000 
#    0.000    0.000    0.000    0.000    0.000    0.000 
#
# Total GULP energy -173501.601772 kJ/mol
# GULP energy per Si atom -12392.971555 kJ/mol
# Density = 2.136187 g / cm^3
# Si number density = 21.410606 Si / 1000 Ang^3
#
#
#
# Elastic Constant Matrix: (Units=GPa)
#
#
# Indices 1 2 3 4 5 6 
#
# 1 151.0678 64.1629 26.4298 -7.4780 18.0570 5.6717
# 2 64.1629 137.7449 30.6704 -5.0672 -1.0784 1.2149
# 3 26.4298 30.6704 105.2060 -3.9614 7.8255 3.5228
# 4 -7.4780 -5.0672 -3.9614 27.9418 1.1026 -5.8716
# 5 18.0570 -1.0784 7.8255 1.1026 25.3825 -3.8173
# 6 5.6717 1.2149 3.5228 -5.8716 -3.8173 35.3291
#
#
#
# Elastic Compliance Matrix: (Units=1/GPa)
#
#
# Indices 1 2 3 4 5 6 
#
# 1 0.009544 -0.004319 -0.000483 0.001598 -0.007171 -0.001845
# 2 -0.004319 0.009779 -0.002107 0.000379 0.004286 0.001093
# 3 -0.000483 -0.002107 0.010549 0.000879 -0.003202 -0.001102
# 4 0.001598 0.000379 0.000879 0.037687 -0.002176 0.005671
# 5 -0.007171 0.004286 -0.003202 -0.002176 0.046665 0.006004
# 6 -0.001845 0.001093 -0.001102 0.005671 0.006004 0.030265
#
#
# Mechanical properties :
#
#
# Convention : Reuss Voigt Hill
#
# Bulk Modulus (GPa) = 62.29246 70.72725 66.50985
# Shear Modulus (GPa) = 30.55139 35.91436 33.23288
#
# Velocity S-wave (km/s) = 3.78157 4.10006 3.94403
# Velocity P-wave (km/s) = 6.94438 7.45114 7.20222
#
# Compressibility (1/GPa) = 0.01605331
#
# Stress axis : x y z
#
# Youngs Moduli (GPa) = 104.77714 102.26309 94.79683
#
# Poissons Ratio (x) = 0.44170 0.04580
# Poissons Ratio (y) = 0.45256 0.19972
# Poissons Ratio (z) = 0.05062 0.21545
#
# Static dielectric constant tensor:
#      x y z
#    x 3.824550 0.281430 0.006080 
#    y 0.281430 3.743200 -0.117380 
#    z 0.006080 -0.117380 3.891990 
# 
# 
# High freq. dielectric constant tensor:
#      x y z
#    x 1.840560 0.018720 0.006900 
#    y 0.018720 1.830210 -0.016150 
#    z 0.006900 -0.016150 1.830330 
# 
# From -- ./inp_files/258770.got.cif
#   From: 2010.06.25/outbox.cif.g09.slc.cpg/sg2_130_cif.got.tgz:258770.got - 2010.06.27 13:26:56.
