data_PCOD8015616
_publ_section_title
;
Structure prediction by ZEFSAII (Michael W. Deem and Ramdas Pophale) SiO2 
 PCOD8015616
Probable space group: P -1
;
_chemical_formula_sum "Si O2"
_cell_formula_units_Z 14
_cell_length_a 18.834412
_cell_length_b 4.777369
_cell_length_c 9.027471
_cell_angle_alpha 108.518388
_cell_angle_beta 130.283172
_cell_angle_gamma 71.164632
_cell_volume 579.768642
_symmetry_space_group_name_H-M "P -1"
_symmetry_group_IT_number 2
_symmetry_cell_setting 'triclinic'
loop_
_space_group_symop_operation_xyz
x,y,z
-x,-y,-z
loop_
_atom_site_type_symbol
_atom_site_label
_atom_site_fract_x
_atom_site_fract_y
_atom_site_fract_z
Si Si1 0.674841 0.518740 0.464396
Si Si2 0.223371 0.897953 0.686240
Si Si3 0.601587 0.982721 0.203401
Si Si4 0.835672 0.339206 0.136998
Si Si5 0.947334 0.727362 0.617010
Si Si6 0.219427 0.251775 0.126859
Si Si7 0.080020 0.637103 0.209675
O O1 0.624944 0.693820 0.286987
O O2 0.680369 0.739833 0.651271
O O3 0.775290 0.327037 0.494720
O O4 0.608877 0.270188 0.368299
O O5 0.322134 0.026569 0.830194
O O6 0.134696 0.175537 0.602453
O O7 0.220655 0.703193 0.797311
O O8 0.500000 0.000000 0.000000
O O9 0.819953 0.058913 0.963303
O O10 0.786933 0.640969 0.035606
O O11 0.946822 0.346929 0.324232
O O12 0.921470 0.451579 0.630862
O O13 0.944119 0.004230 0.771621
O O14 0.167643 0.512930 0.204153
O O15 0.000000 0.500000 0.000000
#
# Coordination Sequence:
#
# PCOD8015616 Si02
#       7
#     2   2   2   2   2   2   2
#     4  10  22  40  66  93 117 154 201 254 291 360
#     4  10  26  38  63  89 127 154 206 253 300 354
#     4  10  21  42  72  94 112 149 203 256 304 360
#     4  12  25  37  57  89 130 171 195 241 305 349
#     4  12  22  37  57  84 122 168 210 244 284 347
#     4  12  23  39  60  87 125 163 208 247 290 354
#     4  12  20  35  55  80 112 161 218 246 277 336
#
# _framework density 24.147563000000002
#
# number of rings (size 3 to 8) (size 9 to 14) (size 15 to 20)
#    0.857    0.000    4.286    3.857    2.000    0.000 
#    0.000    2.857    0.000    5.143    0.000    0.000 
#    0.000    0.000    0.000    0.000    0.000    0.000 
#
# Total GULP energy -173454.859501 kJ/mol
# GULP energy per Si atom -12389.632821 kJ/mol
# Density = 2.409260 g / cm^3
# Si number density = 24.147563 Si / 1000 Ang^3
#
#
#
# Elastic Constant Matrix: (Units=GPa)
#
#
# Indices 1 2 3 4 5 6 
#
# 1 66.2498 7.3818 38.5124 -3.5899 5.6789 11.0213
# 2 7.3818 67.5577 -2.4132 -18.3609 12.8063 15.4688
# 3 38.5124 -2.4132 112.9175 -9.5569 15.4274 6.7231
# 4 -3.5899 -18.3609 -9.5569 37.7771 12.7782 -0.7227
# 5 5.6789 12.8063 15.4274 12.7782 35.5054 -3.1703
# 6 11.0213 15.4688 6.7231 -0.7227 -3.1703 25.6799
#
#
#
# Elastic Compliance Matrix: (Units=1/GPa)
#
#
# Indices 1 2 3 4 5 6 
#
# 1 0.020031 -0.000721 -0.006334 0.000101 -0.000818 -0.006603
# 2 -0.000721 0.033532 0.008535 0.027291 -0.027722 -0.024778
# 3 -0.006334 0.008535 0.014412 0.011491 -0.013132 -0.007494
# 4 0.000101 0.027291 0.011491 0.054568 -0.036497 -0.022461
# 5 -0.000818 -0.027722 -0.013132 -0.036497 0.059530 0.026810
# 6 -0.006603 -0.024778 -0.007494 -0.022461 0.026810 0.061340
#
#
# Mechanical properties :
#
#
# Convention : Reuss Voigt Hill
#
# Bulk Modulus (GPa) = 14.09732 37.07632 25.58682
# Shear Modulus (GPa) = 18.93260 33.34208 26.13734
#
# Velocity S-wave (km/s) = 2.80310 3.71989 3.29356
# Velocity P-wave (km/s) = 4.04069 5.81701 5.00823
#
# Compressibility (1/GPa) = 0.07093547
#
# Stress axis : x y z
#
# Youngs Moduli (GPa) = 49.92367 29.82257 69.38873
#
# Poissons Ratio (x) = 0.02149 0.43949
# Poissons Ratio (y) = 0.03597 -0.59224
# Poissons Ratio (z) = 0.31620 -0.25454
#
# Static dielectric constant tensor:
#      x y z
#    x 3.874860 0.086730 -0.080920 
#    y 0.086730 4.683550 0.247880 
#    z -0.080920 0.247880 4.489180 
# 
# 
# High freq. dielectric constant tensor:
#      x y z
#    x 1.911750 0.016350 -0.010050 
#    y 0.016350 1.980500 0.025730 
#    z -0.010050 0.025730 1.982490 
# 
# From -- ./inp_files/79622.got.cif
#   From: 2010.06.25/outbox.cif.g09.slc.cpg/sg2_40_cif.got.tgz:79622.got - 2010.06.27 13:26:56.
