data_PCOD8015511
_publ_section_title
;
Structure prediction by ZEFSAII (Michael W. Deem and Ramdas Pophale) SiO2 
 PCOD8015511
Probable space group: P -1
;
_chemical_formula_sum "Si O2"
_cell_formula_units_Z 16
_cell_length_a 9.376399
_cell_length_b 12.024520
_cell_length_c 14.634637
_cell_angle_alpha 29.776972
_cell_angle_beta 73.043169
_cell_angle_gamma 85.073200
_cell_volume 733.616246
_symmetry_space_group_name_H-M "P -1"
_symmetry_group_IT_number 2
_symmetry_cell_setting 'triclinic'
loop_
_space_group_symop_operation_xyz
x,y,z
-x,-y,-z
loop_
_atom_site_type_symbol
_atom_site_label
_atom_site_fract_x
_atom_site_fract_y
_atom_site_fract_z
Si Si1 0.658469 0.740116 0.043326
Si Si2 0.348287 0.353536 0.689794
Si Si3 0.082088 0.908133 0.472769
Si Si4 0.337506 0.818947 0.054162
Si Si5 0.167642 0.471842 0.490695
Si Si6 0.668566 0.619605 0.929014
Si Si7 0.879366 0.421938 0.904524
Si Si8 0.987835 0.999041 0.234831
O O1 0.628595 0.577549 0.256506
O O2 0.523527 0.861013 0.971766
O O3 0.656092 0.574286 0.073373
O O4 0.832246 0.947756 0.874524
O O5 0.500000 0.500000 0.500000
O O6 0.215878 0.451451 0.601891
O O7 0.309540 0.069143 0.889285
O O8 0.047149 0.627877 0.696996
O O9 0.266726 0.087668 0.303297
O O10 0.000000 0.000000 0.500000
O O11 0.980468 0.919965 0.395752
O O12 0.293256 0.677467 0.259848
O O13 0.232999 0.666046 0.100003
O O14 0.000000 0.500000 0.500000
O O15 0.146140 0.210820 0.642607
O O16 0.789821 0.510537 0.938128
O O17 0.500000 0.500000 0.000000
O O18 0.934592 0.224416 0.079498
#
# Coordination Sequence:
#
# PCOD8015511 Si02
#       8
#     2   2   2   2   2   2   2   2
#     4  11  25  43  69 101 143 180 232 281 352 405
#     4  12  27  46  70 102 139 185 232 283 351 416
#     4   9  21  39  67  95 134 180 221 277 342 401
#     4  12  24  46  72 100 141 182 229 292 343 418
#     4  12  27  44  71 103 136 183 233 285 351 412
#     4  10  21  42  70 103 138 183 231 286 344 417
#     4  11  22  43  73  99 139 182 231 282 349 407
#     4  11  24  43  67 104 136 176 234 286 339 421
#
# _framework density 21.809767999999998
#
# number of rings (size 3 to 8) (size 9 to 14) (size 15 to 20)
#    0.000    1.000    5.000    1.125    3.500    5.500 
#    2.250    1.250    0.000    6.000    0.000    0.000 
#    0.000    0.000    0.000    0.000    0.000    0.000 
#
# Total GULP energy -198283.240020 kJ/mol
# GULP energy per Si atom -12392.702501 kJ/mol
# Density = 2.176013 g / cm^3
# Si number density = 21.809768 Si / 1000 Ang^3
#
#
#
# Elastic Constant Matrix: (Units=GPa)
#
#
# Indices 1 2 3 4 5 6 
#
# 1 91.9873 26.2397 30.3430 0.2249 -3.9064 -7.4728
# 2 26.2397 114.6867 51.9328 22.3095 5.8189 11.8067
# 3 30.3430 51.9328 128.5927 -2.2139 -1.0878 -3.5442
# 4 0.2249 22.3095 -2.2139 39.4024 2.8825 4.4100
# 5 -3.9064 5.8189 -1.0878 2.8825 35.1477 -3.9888
# 6 -7.4728 11.8067 -3.5442 4.4100 -3.9888 37.0241
#
#
#
# Elastic Compliance Matrix: (Units=1/GPa)
#
#
# Indices 1 2 3 4 5 6 
#
# 1 0.012579 -0.002697 -0.001754 0.000827 0.002104 0.003359
# 2 -0.002697 0.013750 -0.005199 -0.007323 -0.002686 -0.004844
# 3 -0.001754 -0.005199 0.010410 0.003243 0.000951 0.002016
# 4 0.000827 -0.007323 0.003243 0.029884 -0.001145 -0.000870
# 5 0.002104 -0.002686 0.000951 -0.001145 0.029789 0.004718
# 6 0.003359 -0.004844 0.002016 -0.000870 0.004718 0.030037
#
#
# Mechanical properties :
#
#
# Convention : Reuss Voigt Hill
#
# Bulk Modulus (GPa) = 57.34534 61.36642 59.35588
# Shear Modulus (GPa) = 32.98958 37.43159 35.21059
#
# Velocity S-wave (km/s) = 3.89344 4.14729 4.02237
# Velocity P-wave (km/s) = 6.82366 7.15063 6.98906
#
# Compressibility (1/GPa) = 0.01743821
#
# Stress axis : x y z
#
# Youngs Moduli (GPa) = 79.49547 72.72579 96.06543
#
# Poissons Ratio (x) = 0.19615 0.16854
# Poissons Ratio (y) = 0.21440 0.49945
# Poissons Ratio (z) = 0.13947 0.37810
#
# Static dielectric constant tensor:
#      x y z
#    x 4.325790 0.430060 -0.310610 
#    y 0.430060 4.379700 0.123920 
#    z -0.310610 0.123920 4.819920 
# 
# 
# High freq. dielectric constant tensor:
#      x y z
#    x 1.854880 0.013880 -0.007810 
#    y 0.013880 1.868260 0.010010 
#    z -0.007810 0.010010 1.862450 
# 
# From -- ./inp_files/85106.got.cif
#   From: 2010.06.25/outbox.cif.g09.slc.cpg/sg2_43_cif.got.tgz:85106.got - 2010.06.27 13:26:56.
