data_PCOD8015035
_publ_section_title
;
Structure prediction by ZEFSAII (Michael W. Deem and Ramdas Pophale) SiO2 
 PCOD8015035
Probable space group: P -1
;
_chemical_formula_sum "Si O2"
_cell_formula_units_Z 16
_cell_length_a 10.902110
_cell_length_b 8.651319
_cell_length_c 9.649495
_cell_angle_alpha 65.556678
_cell_angle_beta 107.923726
_cell_angle_gamma 118.356939
_cell_volume 722.064262
_symmetry_space_group_name_H-M "P -1"
_symmetry_group_IT_number 2
_symmetry_cell_setting 'triclinic'
loop_
_space_group_symop_operation_xyz
x,y,z
-x,-y,-z
loop_
_atom_site_type_symbol
_atom_site_label
_atom_site_fract_x
_atom_site_fract_y
_atom_site_fract_z
Si Si1 0.622575 0.187951 0.929637
Si Si2 0.707314 0.717701 0.942531
Si Si3 0.396562 0.330061 0.778740
Si Si4 0.806148 0.080587 0.221915
Si Si5 0.972479 0.673985 0.976340
Si Si6 0.506379 0.279237 0.357922
Si Si7 0.285618 0.912319 0.520107
Si Si8 0.814703 0.136891 0.799378
O O1 0.555240 0.338843 0.847537
O O2 0.683775 0.174687 0.803789
O O3 0.741425 0.215798 0.076095
O O4 0.500000 0.000000 0.000000
O O5 0.806132 0.625184 0.942151
O O6 0.571227 0.691276 0.815849
O O7 0.801080 0.935225 0.914632
O O8 0.657854 0.631254 0.107318
O O9 0.416863 0.513422 0.625173
O O10 0.286583 0.138694 0.747416
O O11 0.820460 0.120605 0.375951
O O12 0.958398 0.152178 0.173353
O O13 0.000000 0.500000 0.000000
O O14 0.038112 0.723441 0.136001
O O15 0.622535 0.205831 0.379109
O O16 0.391349 0.130377 0.472819
O O17 0.190398 0.844170 0.375050
#
# Coordination Sequence:
#
# PCOD8015035 Si02
#       8
#     2   2   2   2   2   2   2   2
#     4   9  17  33  61  91 120 156 210 254 313 354
#     4  11  21  40  65  97 125 164 217 264 316 368
#     4  11  21  35  64  97 128 163 209 271 307 377
#     4  10  22  40  63  91 126 170 211 261 312 371
#     4  11  25  42  69  93 121 164 225 272 304 364
#     4  10  24  36  63  97 129 169 202 255 322 391
#     4  10  23  43  61  93 136 171 200 254 334 379
#     4  10  21  42  65  87 129 175 201 260 317 378
#
# _framework density 22.158691000000001
#
# number of rings (size 3 to 8) (size 9 to 14) (size 15 to 20)
#    0.000    1.750    3.750    1.500   14.000    0.500 
#    0.000    3.125    0.000    0.000    0.000    0.000 
#    0.000    0.000    0.000    0.000    0.000    0.000 
#
# Total GULP energy -198288.970084 kJ/mol
# GULP energy per Si atom -12393.060630 kJ/mol
# Density = 2.210826 g / cm^3
# Si number density = 22.158691 Si / 1000 Ang^3
#
#
#
# Elastic Constant Matrix: (Units=GPa)
#
#
# Indices 1 2 3 4 5 6 
#
# 1 93.8334 18.4367 38.5850 -0.1056 -6.5990 -13.6229
# 2 18.4367 97.4182 44.2032 -11.4530 8.3085 -7.2934
# 3 38.5850 44.2032 102.3375 8.3979 -15.0581 -10.7312
# 4 -0.1056 -11.4530 8.3979 30.8381 -10.2687 8.2624
# 5 -6.5990 8.3085 -15.0581 -10.2687 30.8854 3.1883
# 6 -13.6229 -7.2934 -10.7312 8.2624 3.1883 28.7161
#
#
#
# Elastic Compliance Matrix: (Units=1/GPa)
#
#
# Indices 1 2 3 4 5 6 
#
# 1 0.013168 -0.000188 -0.004372 0.000049 0.000282 0.004520
# 2 -0.000188 0.014995 -0.007770 0.005759 -0.005929 -0.000183
# 3 -0.004372 -0.007770 0.016612 -0.005936 0.006963 0.003095
# 4 0.000049 0.005759 -0.005936 0.044025 0.011722 -0.014701
# 5 0.000282 -0.005929 0.006963 0.011722 0.042028 -0.006809
# 6 0.004520 -0.000183 0.003095 -0.014701 -0.006809 0.043064
#
#
# Mechanical properties :
#
#
# Convention : Reuss Voigt Hill
#
# Bulk Modulus (GPa) = 49.71481 55.11543 52.41512
# Shear Modulus (GPa) = 24.35952 30.91221 27.63586
#
# Velocity S-wave (km/s) = 3.31920 3.73907 3.53537
# Velocity P-wave (km/s) = 6.09704 6.60060 6.35381
#
# Compressibility (1/GPa) = 0.02011473
#
# Stress axis : x y z
#
# Youngs Moduli (GPa) = 75.94098 66.68712 60.19599
#
# Poissons Ratio (x) = 0.01255 0.26318
# Poissons Ratio (y) = 0.01429 0.46774
# Poissons Ratio (z) = 0.33202 0.51818
#
# Static dielectric constant tensor:
#      x y z
#    x 4.841250 -0.232810 0.305220 
#    y -0.232810 4.029570 -0.148370 
#    z 0.305220 -0.148370 3.841930 
# 
# 
# High freq. dielectric constant tensor:
#      x y z
#    x 1.865380 -0.005890 -0.006900 
#    y -0.005890 1.875630 -0.009280 
#    z -0.006900 -0.009280 1.848900 
# 
# From -- ./inp_files/242641.got.cif
#   From: 2010.06.25/outbox.cif.g09.slc.cpg/sg2_122_cif.got.tgz:242641.got - 2010.06.27 13:26:56.
