data_PCOD8015519
_publ_section_title
;
Structure prediction by ZEFSAII (Michael W. Deem and Ramdas Pophale) SiO2 
 PCOD8015519
Probable space group: P -1
;
_chemical_formula_sum "Si O2"
_cell_formula_units_Z 16
_cell_length_a 13.732951
_cell_length_b 9.245473
_cell_length_c 14.245475
_cell_angle_alpha 62.382717
_cell_angle_beta 29.160709
_cell_angle_gamma 55.657340
_cell_volume 725.780553
_symmetry_space_group_name_H-M "P -1"
_symmetry_group_IT_number 2
_symmetry_cell_setting 'triclinic'
loop_
_space_group_symop_operation_xyz
x,y,z
-x,-y,-z
loop_
_atom_site_type_symbol
_atom_site_label
_atom_site_fract_x
_atom_site_fract_y
_atom_site_fract_z
Si Si1 0.153475 0.337144 0.172360
Si Si2 0.966938 0.600046 0.097631
Si Si3 0.288222 0.020812 0.026905
Si Si4 0.534132 0.363245 0.931076
Si Si5 0.156291 0.824511 0.965644
Si Si6 0.423400 0.046887 0.708533
Si Si7 0.087846 0.076867 0.676284
Si Si8 0.023103 0.666566 0.476612
O O1 0.972241 0.459667 0.216828
O O2 0.281868 0.146943 0.079298
O O3 0.071858 0.295328 0.352168
O O4 0.327173 0.427494 0.018808
O O5 0.165051 0.667244 0.933677
O O6 0.745355 0.768591 0.245401
O O7 0.000000 0.500000 0.000000
O O8 0.425648 0.823596 0.999993
O O9 0.412649 0.070995 0.822235
O O10 0.041145 0.053486 0.193687
O O11 0.731548 0.360620 0.702957
O O12 0.500000 0.500000 0.000000
O O13 0.048885 0.794448 0.163894
O O14 0.374527 0.867379 0.781408
O O15 0.000000 0.000000 0.000000
O O16 0.661006 0.022363 0.476802
O O17 0.088391 0.176699 0.549136
O O18 0.000000 0.500000 0.500000
#
# Coordination Sequence:
#
# PCOD8015519 Si02
#       8
#     2   2   2   2   2   2   2   2
#     4  12  24  42  68  92 136 171 214 267 329 383
#     4  11  23  43  64  95 133 172 219 267 315 385
#     4  10  23  42  65  97 131 170 212 267 325 389
#     4  11  24  41  69  97 128 169 214 261 330 394
#     4   9  21  39  67  90 123 169 219 265 317 369
#     4  10  21  42  70  91 127 174 217 265 324 375
#     4  10  22  40  69  94 129 163 222 266 319 392
#     4  11  23  40  64 100 130 162 212 274 324 386
#
# _framework density 22.045231999999999
#
# number of rings (size 3 to 8) (size 9 to 14) (size 15 to 20)
#    0.000    1.500    2.500    1.875    3.500    5.000 
#    0.000    4.375    0.000    0.000    0.000    0.000 
#    0.000    0.000    0.000    0.000    0.000    0.000 
#
# Total GULP energy -198249.089859 kJ/mol
# GULP energy per Si atom -12390.568116 kJ/mol
# Density = 2.199506 g / cm^3
# Si number density = 22.045232 Si / 1000 Ang^3
#
#
#
# Elastic Constant Matrix: (Units=GPa)
#
#
# Indices 1 2 3 4 5 6 
#
# 1 119.7685 39.1888 45.3098 5.0983 11.6341 12.4034
# 2 39.1888 93.4700 20.1934 12.1498 13.0130 10.7746
# 3 45.3098 20.1934 82.2273 0.5764 -16.9861 5.1902
# 4 5.0983 12.1498 0.5764 23.3230 -2.2445 7.9734
# 5 11.6341 13.0130 -16.9861 -2.2445 41.5480 2.6487
# 6 12.4034 10.7746 5.1902 7.9734 2.6487 48.7014
#
#
#
# Elastic Compliance Matrix: (Units=1/GPa)
#
#
# Indices 1 2 3 4 5 6 
#
# 1 0.012816 -0.002599 -0.007536 -0.001364 -0.005844 -0.001345
# 2 -0.002599 0.014177 -0.003048 -0.007007 -0.005291 -0.000715
# 3 -0.007536 -0.003048 0.019410 0.004100 0.011270 -0.000759
# 4 -0.001364 -0.007007 0.004100 0.049864 0.007399 -0.007106
# 5 -0.005844 -0.005291 0.011270 0.007399 0.032466 -0.001519
# 6 -0.001345 -0.000715 -0.000759 -0.007106 -0.001519 0.022361
#
#
# Mechanical properties :
#
#
# Convention : Reuss Voigt Hill
#
# Bulk Modulus (GPa) = 49.91199 56.09443 53.00321
# Shear Modulus (GPa) = 27.15325 35.43272 31.29298
#
# Velocity S-wave (km/s) = 3.51337 4.01343 3.77170
# Velocity P-wave (km/s) = 6.25686 6.85399 6.56222
#
# Compressibility (1/GPa) = 0.02003526
#
# Stress axis : x y z
#
# Youngs Moduli (GPa) = 78.02747 70.53790 51.51967
#
# Poissons Ratio (x) = 0.18335 0.38827
# Poissons Ratio (y) = 0.20282 0.15704
# Poissons Ratio (z) = 0.58804 0.21501
#
# Static dielectric constant tensor:
#      x y z
#    x 5.577980 0.953900 0.358110 
#    y 0.953900 4.717530 0.109190 
#    z 0.358110 0.109190 4.105000 
# 
# 
# High freq. dielectric constant tensor:
#      x y z
#    x 1.885980 -0.000370 0.003200 
#    y -0.000370 1.865170 -0.006860 
#    z 0.003200 -0.006860 1.845890 
# 
# From -- ./inp_files/529518.got.cif
#   From: 2010.06.25/outbox.cif.g09.slc.cpg/sg2_265_cif.got.tgz:529518.got - 2010.06.27 13:26:56.
