data_PCOD8015883
_publ_section_title
;
Structure prediction by ZEFSAII (Michael W. Deem and Ramdas Pophale) SiO2 
 PCOD8015883
Probable space group: P -1
;
_chemical_formula_sum "Si O2"
_cell_formula_units_Z 16
_cell_length_a 15.962088
_cell_length_b 13.268458
_cell_length_c 13.807496
_cell_angle_alpha 121.377749
_cell_angle_beta 39.537735
_cell_angle_gamma 153.066898
_cell_volume 687.633484
_symmetry_space_group_name_H-M "P -1"
_symmetry_group_IT_number 2
_symmetry_cell_setting 'triclinic'
loop_
_space_group_symop_operation_xyz
x,y,z
-x,-y,-z
loop_
_atom_site_type_symbol
_atom_site_label
_atom_site_fract_x
_atom_site_fract_y
_atom_site_fract_z
Si Si1 0.247170 0.040796 0.547966
Si Si2 0.655739 0.308306 0.995384
Si Si3 0.576760 0.477916 0.832115
Si Si4 0.512717 0.605520 0.345121
Si Si5 0.751926 0.207349 0.610639
Si Si6 0.370179 0.102080 0.949799
Si Si7 0.686267 0.513258 0.238499
Si Si8 0.074439 0.711457 0.296182
O O1 0.215081 0.098188 0.700452
O O2 0.510571 0.301004 0.372015
O O3 0.314853 0.959585 0.482689
O O4 0.928417 0.785158 0.648165
O O5 0.762010 0.491542 0.068654
O O6 0.344575 0.995414 0.144834
O O7 0.571608 0.301373 0.963908
O O8 0.922690 0.425079 0.806585
O O9 0.410592 0.362906 0.819178
O O10 0.494040 0.279115 0.838734
O O11 0.500000 0.500000 0.000000
O O12 0.479715 0.456333 0.359032
O O13 0.230071 0.464423 0.546383
O O14 0.439159 0.021325 0.821037
O O15 0.883229 0.246889 0.606677
O O16 0.000000 0.500000 0.500000
O O17 0.007955 0.821439 0.147611
#
# Coordination Sequence:
#
# PCOD8015883 Si02
#       8
#     2   2   2   2   2   2   2   2
#     4  12  26  45  73 103 141 185 233 290 353 413
#     4  10  22  42  69 100 142 182 231 291 345 405
#     4  12  26  48  70  98 142 191 231 287 354 419
#     4  12  26  44  70 105 144 180 238 287 349 422
#     4  11  21  46  71  99 140 187 233 286 350 415
#     4  11  25  43  70 104 140 180 238 287 341 418
#     4  12  26  44  71 109 140 187 232 286 351 418
#     4  10  21  43  67 103 141 180 233 287 345 415
#
# _framework density 23.26821
#
# number of rings (size 3 to 8) (size 9 to 14) (size 15 to 20)
#    0.000    0.750    3.750    2.625    1.750    6.500 
#    0.000    1.250    0.000    0.000    0.000    0.000 
#    0.000    0.000    0.000    0.000    0.000    0.000 
#
# Total GULP energy -198309.008446 kJ/mol
# GULP energy per Si atom -12394.313028 kJ/mol
# Density = 2.321525 g / cm^3
# Si number density = 23.268210 Si / 1000 Ang^3
#
#
#
# Elastic Constant Matrix: (Units=GPa)
#
#
# Indices 1 2 3 4 5 6 
#
# 1 109.0703 42.4461 37.5756 1.5552 -4.4543 -12.1482
# 2 42.4461 117.2999 36.7376 19.7210 2.8919 -6.0569
# 3 37.5756 36.7376 92.3032 9.3140 -6.1832 -3.7191
# 4 1.5552 19.7210 9.3140 51.6287 -2.7389 5.7681
# 5 -4.4543 2.8919 -6.1832 -2.7389 39.6481 4.5707
# 6 -12.1482 -6.0569 -3.7191 5.7681 4.5707 29.7593
#
#
#
# Elastic Compliance Matrix: (Units=1/GPa)
#
#
# Indices 1 2 3 4 5 6 
#
# 1 0.012068 -0.003299 -0.003531 0.001184 0.000727 0.003473
# 2 -0.003299 0.011445 -0.002875 -0.004061 -0.002135 0.001738
# 3 -0.003531 -0.002875 0.013639 -0.001110 0.001910 -0.000400
# 4 0.001184 -0.004061 -0.001110 0.021775 0.002344 -0.005062
# 5 0.000727 -0.002135 0.001910 0.002344 0.026428 -0.004412
# 6 0.003473 0.001738 -0.000400 -0.005062 -0.004412 0.036983
#
#
# Mechanical properties :
#
#
# Convention : Reuss Voigt Hill
#
# Bulk Modulus (GPa) = 56.36238 61.35469 58.85853
# Shear Modulus (GPa) = 33.86123 37.66815 35.76469
#
# Velocity S-wave (km/s) = 3.81892 4.02788 3.92479
# Velocity P-wave (km/s) = 6.61219 6.93235 6.77416
#
# Compressibility (1/GPa) = 0.01774233
#
# Stress axis : x y z
#
# Youngs Moduli (GPa) = 82.86287 87.37785 73.31727
#
# Poissons Ratio (x) = 0.28825 0.25886
# Poissons Ratio (y) = 0.27336 0.21081
# Poissons Ratio (z) = 0.29256 0.25124
#
# Static dielectric constant tensor:
#      x y z
#    x 4.239260 -0.009970 -0.115890 
#    y -0.009970 4.325130 0.364580 
#    z -0.115890 0.364580 4.251490 
# 
# 
# High freq. dielectric constant tensor:
#      x y z
#    x 1.920340 -0.006860 -0.002890 
#    y -0.006860 1.918890 0.020170 
#    z -0.002890 0.020170 1.926050 
# 
# From -- ./inp_files/532603.got.cif
#   From: 2010.06.25/outbox.cif.g09.slc.cpg/sg2_267_cif.got.tgz:532603.got - 2010.06.27 13:26:56.
