data_PCOD8015471
_publ_section_title
;
Structure prediction by ZEFSAII (Michael W. Deem and Ramdas Pophale) SiO2 
 PCOD8015471
Probable space group: P -1
;
_chemical_formula_sum "Si O2"
_cell_formula_units_Z 14
_cell_length_a 9.693802
_cell_length_b 8.424334
_cell_length_c 9.343784
_cell_angle_alpha 100.228823
_cell_angle_beta 121.974106
_cell_angle_gamma 80.356718
_cell_volume 634.525053
_symmetry_space_group_name_H-M "P -1"
_symmetry_group_IT_number 2
_symmetry_cell_setting 'triclinic'
loop_
_space_group_symop_operation_xyz
x,y,z
-x,-y,-z
loop_
_atom_site_type_symbol
_atom_site_label
_atom_site_fract_x
_atom_site_fract_y
_atom_site_fract_z
Si Si1 0.420149 0.652055 0.565433
Si Si2 0.923592 0.227329 0.586404
Si Si3 0.584495 0.518118 0.899136
Si Si4 0.101739 0.349841 0.961592
Si Si5 0.181691 0.119906 0.499101
Si Si6 0.548806 0.185674 0.674814
Si Si7 0.156567 0.077056 0.158880
O O1 0.500000 0.500000 0.500000
O O2 0.227389 0.634775 0.485166
O O3 0.496347 0.655728 0.767111
O O4 0.446244 0.804861 0.496914
O O5 0.994576 0.240175 0.787060
O O6 0.065903 0.246561 0.551683
O O7 0.842087 0.060185 0.488290
O O8 0.603134 0.348847 0.799099
O O9 0.500000 0.500000 0.000000
O O10 0.760103 0.575145 0.044365
O O11 0.189120 0.234979 0.111747
O O12 0.000000 0.500000 0.000000
O O13 0.369440 0.155283 0.626609
O O14 0.118383 0.142003 0.307098
O O15 0.680390 0.044159 0.775573
O O16 0.000000 0.000000 0.000000
#
# Coordination Sequence:
#
# PCOD8015471 Si02
#       7
#     2   2   2   2   2   2   2
#     4  10  21  42  69  94 130 179 226 275 330 409
#     4  11  24  44  64 102 139 178 224 283 343 406
#     4  11  25  44  65 100 137 176 225 285 347 396
#     4  12  25  45  69  98 138 180 228 281 344 409
#     4  11  24  42  68  99 138 174 230 283 341 402
#     4  11  23  45  69  99 134 183 235 277 335 424
#     4  12  23  43  72 105 133 181 234 287 343 408
#
# _framework density 22.063745999999998
#
# number of rings (size 3 to 8) (size 9 to 14) (size 15 to 20)
#    0.000    0.857    2.857    4.714    2.000    3.429 
#    0.000    5.714    0.000    0.000    0.000    0.000 
#    0.000    0.000    0.000    0.000    0.000    0.000 
#
# Total GULP energy -173563.170569 kJ/mol
# GULP energy per Si atom -12397.369326 kJ/mol
# Density = 2.201353 g / cm^3
# Si number density = 22.063746 Si / 1000 Ang^3
#
#
#
# Elastic Constant Matrix: (Units=GPa)
#
#
# Indices 1 2 3 4 5 6 
#
# 1 190.1965 53.8147 52.9417 -17.9864 8.0642 -18.8328
# 2 53.8147 95.4080 37.1508 -17.2889 6.4003 -10.0020
# 3 52.9417 37.1508 96.9550 -15.7863 -0.0046 -13.2927
# 4 -17.9864 -17.2889 -15.7863 32.9625 0.9324 4.2825
# 5 8.0642 6.4003 -0.0046 0.9324 41.5393 2.6143
# 6 -18.8328 -10.0020 -13.2927 4.2825 2.6143 38.2137
#
#
#
# Elastic Compliance Matrix: (Units=1/GPa)
#
#
# Indices 1 2 3 4 5 6 
#
# 1 0.006982 -0.002527 -0.002402 0.001119 -0.001111 0.001894
# 2 -0.002527 0.014186 -0.003196 0.004456 -0.001858 0.000984
# 3 -0.002402 -0.003196 0.013699 0.003250 0.000741 0.002330
# 4 0.001119 0.004456 0.003250 0.035013 -0.001629 -0.000964
# 5 -0.001111 -0.001858 0.000741 -0.001629 0.024756 -0.002287
# 6 0.001894 0.000984 0.002330 -0.000964 -0.002287 0.028435
#
#
# Mechanical properties :
#
#
# Convention : Reuss Voigt Hill
#
# Bulk Modulus (GPa) = 53.71302 74.48599 64.09951
# Shear Modulus (GPa) = 34.35805 38.45326 36.40565
#
# Velocity S-wave (km/s) = 3.95044 4.17925 4.06645
# Velocity P-wave (km/s) = 6.72349 7.55783 7.15284
#
# Compressibility (1/GPa) = 0.01861746
#
# Stress axis : x y z
#
# Youngs Moduli (GPa) = 143.22851 70.49135 72.99810
#
# Poissons Ratio (x) = 0.17811 0.17536
# Poissons Ratio (y) = 0.36190 0.23328
# Poissons Ratio (z) = 0.34408 0.22527
#
# Static dielectric constant tensor:
#      x y z
#    x 4.306270 0.115820 0.045220 
#    y 0.115820 4.368090 -0.099290 
#    z 0.045220 -0.099290 4.426950 
# 
# 
# High freq. dielectric constant tensor:
#      x y z
#    x 1.885450 -0.000800 0.009120 
#    y -0.000800 1.862060 -0.001410 
#    z 0.009120 -0.001410 1.867950 
# 
# From -- ./inp_files/156759.got.cif
#   From: 2010.06.25/outbox.cif.g09.slc.cpg/sg2_79_cif.got.tgz:156759.got - 2010.06.27 13:26:56.
