data_PCOD8015579
_publ_section_title
;
Structure prediction by ZEFSAII (Michael W. Deem and Ramdas Pophale) SiO2 
 PCOD8015579
Probable space group: P -1
;
_chemical_formula_sum "Si O2"
_cell_formula_units_Z 14
_cell_length_a 8.970447
_cell_length_b 12.508342
_cell_length_c 9.817759
_cell_angle_alpha 53.977422
_cell_angle_beta 73.615327
_cell_angle_gamma 49.063243
_cell_volume 663.381504
_symmetry_space_group_name_H-M "P -1"
_symmetry_group_IT_number 2
_symmetry_cell_setting 'triclinic'
loop_
_space_group_symop_operation_xyz
x,y,z
-x,-y,-z
loop_
_atom_site_type_symbol
_atom_site_label
_atom_site_fract_x
_atom_site_fract_y
_atom_site_fract_z
Si Si1 0.421893 0.174587 0.319427
Si Si2 0.018642 0.994515 0.659301
Si Si3 0.619325 0.508921 0.346685
Si Si4 0.359277 0.064520 0.789639
Si Si5 0.636388 0.111804 0.831861
Si Si6 0.928169 0.736844 0.515251
Si Si7 0.604835 0.351685 0.192469
O O1 0.181145 0.289860 0.316799
O O2 0.486735 0.276960 0.297273
O O3 0.500000 0.000000 0.500000
O O4 0.503712 0.119129 0.186355
O O5 0.174160 0.797560 0.812009
O O6 0.114519 0.084315 0.597301
O O7 0.000000 0.000000 0.500000
O O8 0.813497 0.088655 0.722727
O O9 0.500000 0.500000 0.500000
O O10 0.504444 0.705457 0.193921
O O11 0.628971 0.410929 0.285998
O O12 0.839274 0.423373 0.413750
O O13 0.506738 0.103456 0.761791
O O14 0.176413 0.232831 0.628264
O O15 0.273936 0.034907 0.966946
O O16 0.500000 0.500000 0.000000
#
# Coordination Sequence:
#
# PCOD8015579 Si02
#       7
#     2   2   2   2   2   2   2
#     4  10  21  42  71  95 129 177 232 268 324 412
#     4  12  22  43  71  97 127 184 229 266 335 415
#     4  12  26  43  65 102 138 169 222 285 334 394
#     4  10  23  43  67  96 130 183 222 274 338 403
#     4  11  25  44  66  95 142 173 220 281 342 400
#     4  11  23  39  71  95 124 180 228 269 327 405
#     4  12  26  45  69 104 137 174 227 287 337 394
#
# _framework density 21.103995000000001
#
# number of rings (size 3 to 8) (size 9 to 14) (size 15 to 20)
#    0.000    0.857    5.714    1.714    6.000    2.286 
#    5.143    1.429    0.000    0.000    0.000    0.000 
#    0.000    0.000    0.000    0.000    0.000    0.000 
#
# Total GULP energy -173519.164821 kJ/mol
# GULP energy per Si atom -12394.226059 kJ/mol
# Density = 2.105596 g / cm^3
# Si number density = 21.103995 Si / 1000 Ang^3
#
#
#
# Elastic Constant Matrix: (Units=GPa)
#
#
# Indices 1 2 3 4 5 6 
#
# 1 138.4913 55.2671 44.9692 5.5310 1.0054 -7.3088
# 2 55.2671 112.7399 29.9528 -9.0865 4.5444 -11.8633
# 3 44.9692 29.9528 94.0469 -2.7202 1.6997 -11.6859
# 4 5.5310 -9.0865 -2.7202 37.7150 -0.1932 0.4333
# 5 1.0054 4.5444 1.6997 -0.1932 19.2339 -0.4302
# 6 -7.3088 -11.8633 -11.6859 0.4333 -0.4302 43.5042
#
#
#
# Elastic Compliance Matrix: (Units=1/GPa)
#
#
# Indices 1 2 3 4 5 6 
#
# 1 0.010224 -0.004342 -0.003652 -0.002800 0.000777 -0.000412
# 2 -0.004342 0.011942 -0.001323 0.003382 -0.002396 0.002114
# 3 -0.003652 -0.001323 0.013160 0.001134 -0.000591 0.002543
# 4 -0.002800 0.003382 0.001134 0.027814 -0.000463 0.000475
# 5 0.000777 -0.002396 -0.000591 -0.000463 0.052561 -0.000157
# 6 -0.000412 0.002114 0.002543 0.000475 -0.000157 0.024171
#
#
# Mechanical properties :
#
#
# Convention : Reuss Voigt Hill
#
# Bulk Modulus (GPa) = 59.91177 67.29515 63.60346
# Shear Modulus (GPa) = 30.47499 34.42988 32.45244
#
# Velocity S-wave (km/s) = 3.80417 4.04349 3.92566
# Velocity P-wave (km/s) = 6.90986 7.33187 7.12399
#
# Compressibility (1/GPa) = 0.01669121
#
# Stress axis : x y z
#
# Youngs Moduli (GPa) = 97.81285 83.74050 75.98705
#
# Poissons Ratio (x) = 0.36359 0.27749
# Poissons Ratio (y) = 0.42469 0.10056
# Poissons Ratio (z) = 0.35720 0.11082
#
# Static dielectric constant tensor:
#      x y z
#    x 21.836020 3.047970 -0.381430 
#    y 3.047970 4.993630 0.168960 
#    z -0.381430 0.168960 3.858060 
# 
# 
# High freq. dielectric constant tensor:
#      x y z
#    x 1.844270 0.001930 -0.001300 
#    y 0.001930 1.826450 0.002600 
#    z -0.001300 0.002600 1.819230 
# 
# From -- ./inp_files/184434.got.cif
#   From: 2010.06.25/outbox.cif.g09.slc.cpg/sg2_93_cif.got.tgz:184434.got - 2010.06.27 13:26:56.
