data_PCOD8015649
_publ_section_title
;
Structure prediction by ZEFSAII (Michael W. Deem and Ramdas Pophale) SiO2 
 PCOD8015649
Probable space group: P -1
;
_chemical_formula_sum "Si O2"
_cell_formula_units_Z 12
_cell_length_a 8.297973
_cell_length_b 26.276707
_cell_length_c 5.347270
_cell_angle_alpha 123.117287
_cell_angle_beta 119.773573
_cell_angle_gamma 32.715420
_cell_volume 526.029269
_symmetry_space_group_name_H-M "P -1"
_symmetry_group_IT_number 2
_symmetry_cell_setting 'triclinic'
loop_
_space_group_symop_operation_xyz
x,y,z
-x,-y,-z
loop_
_atom_site_type_symbol
_atom_site_label
_atom_site_fract_x
_atom_site_fract_y
_atom_site_fract_z
Si Si1 0.279257 0.460872 0.237183
Si Si2 0.172062 0.214939 0.748824
Si Si3 0.272863 0.583131 0.846721
Si Si4 0.840005 0.020507 0.680791
Si Si5 0.295897 0.735292 0.735586
Si Si6 0.066954 0.833563 0.328470
O O1 0.181043 0.551924 0.508446
O O2 0.560715 0.401491 0.110100
O O3 0.400002 0.382809 0.330739
O O4 0.000000 0.500000 0.000000
O O5 0.514849 0.134156 0.724702
O O6 0.985412 0.239201 0.429668
O O7 0.137176 0.174624 0.838265
O O8 0.036364 0.314637 0.995676
O O9 0.500000 0.500000 0.000000
O O10 0.000000 0.000000 0.500000
O O11 0.836626 0.948374 0.478631
O O12 0.000000 0.000000 0.000000
O O13 0.298895 0.774867 0.588529
O O14 0.254518 0.787636 0.090950
#
# Coordination Sequence:
#
# PCOD8015649 Si02
#       6
#     2   2   2   2   2   2
#     4  11  24  42  70 108 147 187 248 306 356 428
#     4  10  24  44  74  92 142 193 242 279 366 436
#     4  11  22  47  69 100 145 195 240 294 365 437
#     4  12  28  45  67 109 143 176 238 307 363 421
#     4  10  21  42  73  99 131 191 243 276 361 430
#     4  10  22  44  71  91 136 183 238 278 349 437
#
# _framework density 22.812417
#
# number of rings (size 3 to 8) (size 9 to 14) (size 15 to 20)
#    1.000    0.333    3.333    1.500    2.333    2.667 
#    6.000    0.000    0.000    0.000    0.000    0.000 
#    0.000    0.000    0.000    0.000    0.000    0.000 
#
# Total GULP energy -148730.134114 kJ/mol
# GULP energy per Si atom -12394.177843 kJ/mol
# Density = 2.276049 g / cm^3
# Si number density = 22.812417 Si / 1000 Ang^3
#
#
#
# Elastic Constant Matrix: (Units=GPa)
#
#
# Indices 1 2 3 4 5 6 
#
# 1 61.5926 47.0321 47.0832 0.7649 -4.4055 -2.3003
# 2 47.0321 183.2467 67.0908 13.0965 1.1279 -17.0589
# 3 47.0832 67.0908 144.9324 -0.5059 -10.8061 -10.5460
# 4 0.7649 13.0965 -0.5059 48.7189 1.2384 0.7784
# 5 -4.4055 1.1279 -10.8061 1.2384 40.8803 -6.0345
# 6 -2.3003 -17.0589 -10.5460 0.7784 -6.0345 27.4959
#
#
#
# Elastic Compliance Matrix: (Units=1/GPa)
#
#
# Indices 1 2 3 4 5 6 
#
# 1 0.024010 -0.004300 -0.005960 0.000744 0.000693 -0.002814
# 2 -0.004300 0.007781 -0.001994 -0.002088 -0.000606 0.003629
# 3 -0.005960 -0.001994 0.010140 0.000629 0.002469 0.002678
# 4 0.000744 -0.002088 0.000629 0.021124 -0.000590 -0.001719
# 5 0.000693 -0.000606 0.002469 -0.000590 0.026167 0.006389
# 6 -0.002814 0.003629 0.002678 -0.001719 0.006389 0.040863
#
#
# Mechanical properties :
#
#
# Convention : Reuss Voigt Hill
#
# Bulk Modulus (GPa) = 57.39003 79.13154 68.26078
# Shear Modulus (GPa) = 31.17176 38.65671 34.91424
#
# Velocity S-wave (km/s) = 3.70055 4.12095 3.91640
# Velocity P-wave (km/s) = 6.59323 7.57669 7.10200
#
# Compressibility (1/GPa) = 0.01742463
#
# Stress axis : x y z
#
# Youngs Moduli (GPa) = 41.64867 128.51112 98.61877
#
# Poissons Ratio (x) = 0.55257 0.58779
# Poissons Ratio (y) = 0.17908 0.19661
# Poissons Ratio (z) = 0.24823 0.25621
#
# Static dielectric constant tensor:
#      x y z
#    x 3.832950 0.279510 -0.066710 
#    y 0.279510 4.186990 0.150980 
#    z -0.066710 0.150980 4.182140 
# 
# 
# High freq. dielectric constant tensor:
#      x y z
#    x 1.871660 0.018740 -0.006730 
#    y 0.018740 1.908210 0.010160 
#    z -0.006730 0.010160 1.906090 
# 
# From -- ./inp_files/56562.got.cif
#   From: 2010.06.25/outbox.cif.g09.slc.cpg/sg2_29_cif.got.tgz:56562.got - 2010.06.27 13:26:56.
