data_PCOD8015431
_publ_section_title
;
Structure prediction by ZEFSAII (Michael W. Deem and Ramdas Pophale) SiO2 
 PCOD8015431
Probable space group: P -1
;
_chemical_formula_sum "Si O2"
_cell_formula_units_Z 14
_cell_length_a 6.709165
_cell_length_b 11.642263
_cell_length_c 11.048372
_cell_angle_alpha 106.789604
_cell_angle_beta 103.196260
_cell_angle_gamma 124.736353
_cell_volume 588.240781
_symmetry_space_group_name_H-M "P -1"
_symmetry_group_IT_number 2
_symmetry_cell_setting 'triclinic'
loop_
_space_group_symop_operation_xyz
x,y,z
-x,-y,-z
loop_
_atom_site_type_symbol
_atom_site_label
_atom_site_fract_x
_atom_site_fract_y
_atom_site_fract_z
Si Si1 0.337725 0.763757 0.383973
Si Si2 0.130345 0.435085 0.564379
Si Si3 0.377703 0.004765 0.300334
Si Si4 0.797847 0.856379 0.110310
Si Si5 0.280858 0.328176 0.165714
Si Si6 0.119778 0.836283 0.736444
Si Si7 0.706180 0.428411 0.885631
O O1 0.536007 0.848692 0.556596
O O2 0.364032 0.649671 0.282090
O O3 0.018408 0.647338 0.351689
O O4 0.438991 0.906365 0.349129
O O5 0.459664 0.580101 0.678338
O O6 0.000000 0.500000 0.500000
O O7 0.083086 0.296351 0.436344
O O8 0.564500 0.081700 0.225905
O O9 0.054267 0.873356 0.185895
O O10 0.520857 0.705826 0.092860
O O11 0.889127 0.024458 0.212874
O O12 0.750292 0.814843 0.946980
O O13 0.311805 0.435921 0.093528
O O14 0.001815 0.256578 0.179679
O O15 0.000000 0.500000 0.000000
#
# Coordination Sequence:
#
# PCOD8015431 Si02
#       7
#     2   2   2   2   2   2   2
#     4  10  21  42  69 100 138 188 231 295 349 410
#     4  11  25  47  72 105 146 185 240 296 352 429
#     4  10  23  44  69 105 141 178 243 296 345 416
#     4  12  26  46  73 104 143 186 242 294 347 433
#     4  12  27  45  72 106 144 192 234 290 370 413
#     4  11  26  46  73 106 141 187 240 296 350 428
#     4  12  25  46  73 105 145 188 238 293 357 427
#
# _framework density 23.799778
#
# number of rings (size 3 to 8) (size 9 to 14) (size 15 to 20)
#    0.000    0.857    1.429    4.714    6.000    1.143 
#    0.000    0.000    0.000    0.000    0.000    0.000 
#    0.000    0.000    0.000    0.000    0.000    0.000 
#
# Total GULP energy -173551.843614 kJ/mol
# GULP energy per Si atom -12396.560258 kJ/mol
# Density = 2.374561 g / cm^3
# Si number density = 23.799778 Si / 1000 Ang^3
#
#
#
# Elastic Constant Matrix: (Units=GPa)
#
#
# Indices 1 2 3 4 5 6 
#
# 1 102.1050 35.1690 74.9867 11.7114 -2.5898 18.9722
# 2 35.1690 89.7309 38.7770 12.3165 3.5735 14.8814
# 3 74.9867 38.7770 125.8908 21.8442 -16.9140 8.4042
# 4 11.7114 12.3165 21.8442 29.4711 -0.5179 -5.8048
# 5 -2.5898 3.5735 -16.9140 -0.5179 54.3078 -1.7367
# 6 18.9722 14.8814 8.4042 -5.8048 -1.7367 53.2515
#
#
#
# Elastic Compliance Matrix: (Units=1/GPa)
#
#
# Indices 1 2 3 4 5 6 
#
# 1 0.019290 -0.002004 -0.010960 0.000340 -0.002506 -0.004628
# 2 -0.002004 0.014202 -0.002535 -0.003954 -0.001964 -0.003350
# 3 -0.010960 -0.002535 0.017011 -0.006843 0.004920 0.001343
# 4 0.000340 -0.003954 -0.006843 0.041795 -0.001246 0.006579
# 5 -0.002506 -0.001964 0.004920 -0.001246 0.019982 0.001181
# 6 -0.004628 -0.003350 0.001343 0.006579 0.001181 0.021908
#
#
# Mechanical properties :
#
#
# Convention : Reuss Voigt Hill
#
# Bulk Modulus (GPa) = 51.26589 68.39913 59.83251
# Shear Modulus (GPa) = 29.12273 38.65900 33.89086
#
# Velocity S-wave (km/s) = 3.50187 4.03469 3.77769
# Velocity P-wave (km/s) = 6.15939 7.10681 6.64999
#
# Compressibility (1/GPa) = 0.01950615
#
# Stress axis : x y z
#
# Youngs Moduli (GPa) = 51.83945 70.41324 58.78458
#
# Poissons Ratio (x) = 0.14108 0.64427
# Poissons Ratio (y) = 0.10387 0.14903
# Poissons Ratio (z) = 0.56815 0.17851
#
# Static dielectric constant tensor:
#      x y z
#    x 4.119240 0.234890 -0.411290 
#    y 0.234890 4.393710 0.315640 
#    z -0.411290 0.315640 4.432390 
# 
# 
# High freq. dielectric constant tensor:
#      x y z
#    x 1.932510 0.019480 -0.025980 
#    y 0.019480 1.955660 0.018420 
#    z -0.025980 0.018420 1.951020 
# 
# From -- ./inp_files/118772.got.cif
#   From: 2010.06.25/outbox.cif.g09.slc.cpg/sg2_60_cif.got.tgz:118772.got - 2010.06.27 13:26:56.
