data_PCOD8015509
_publ_section_title
;
Structure prediction by ZEFSAII (Michael W. Deem and Ramdas Pophale) SiO2 
 PCOD8015509
Probable space group: P -1
;
_chemical_formula_sum "Si O2"
_cell_formula_units_Z 16
_cell_length_a 10.446884
_cell_length_b 9.886579
_cell_length_c 13.159479
_cell_angle_alpha 103.457177
_cell_angle_beta 34.980635
_cell_angle_gamma 90.978844
_cell_volume 720.147763
_symmetry_space_group_name_H-M "P -1"
_symmetry_group_IT_number 2
_symmetry_cell_setting 'triclinic'
loop_
_space_group_symop_operation_xyz
x,y,z
-x,-y,-z
loop_
_atom_site_type_symbol
_atom_site_label
_atom_site_fract_x
_atom_site_fract_y
_atom_site_fract_z
Si Si1 0.795342 0.832562 0.709751
Si Si2 0.254628 0.673270 0.492241
Si Si3 0.029465 0.616708 0.828121
Si Si4 0.613515 0.833359 0.604415
Si Si5 0.553185 0.833438 0.228893
Si Si6 0.353956 0.616568 0.788495
Si Si7 0.072141 0.673098 0.181027
Si Si8 0.372139 0.832536 0.122700
O O1 0.748774 0.810419 0.619244
O O2 0.049471 0.720746 0.550330
O O3 0.788945 0.000016 0.764564
O O4 0.603450 0.792765 0.896333
O O5 0.139321 0.689104 0.680773
O O6 0.416245 0.778912 0.397478
O O7 0.419050 0.507177 0.336077
O O8 0.226366 0.547280 0.773617
O O9 0.926303 0.492970 0.828750
O O10 0.826118 0.742724 0.037313
O O11 0.431179 0.742709 0.705538
O O12 0.804858 0.778741 0.381318
O O13 0.465051 0.999949 0.710210
O O14 0.441441 0.810401 0.190614
O O15 0.171793 0.688775 0.008208
O O16 0.229713 0.720698 0.170517
#
# Coordination Sequence:
#
# PCOD8015509 Si02
#       8
#     2   2   2   2   2   2   2   2
#     4  10  21  42  70 101 139 174 215 279 346 404
#     4  12  24  44  71  98 133 186 221 276 340 399
#     4  12  27  46  69  97 139 181 230 282 332 392
#     4  11  25  45  71 105 137 174 224 279 342 406
#     4  11  25  45  71 105 137 174 224 279 342 406
#     4  12  27  46  69  97 139 181 230 282 332 392
#     4  12  24  44  71  98 133 186 221 276 340 399
#     4  10  21  42  70 101 139 174 215 279 346 404
#
# _framework density 22.217659999999999
#
# number of rings (size 3 to 8) (size 9 to 14) (size 15 to 20)
#    0.000    0.750    5.000    2.250    0.000    4.500 
#    4.500    1.250    0.000    0.000    0.000    0.000 
#    0.000    0.000    0.000    0.000    0.000    0.000 
#
# Total GULP energy -198484.213733 kJ/mol
# GULP energy per Si atom -12405.263358 kJ/mol
# Density = 2.216709 g / cm^3
# Si number density = 22.217660 Si / 1000 Ang^3
#
#
#
# Elastic Constant Matrix: (Units=GPa)
#
#
# Indices 1 2 3 4 5 6 
#
# 1 55.5111 32.3839 25.3510 3.4745 -15.2727 4.8977
# 2 32.3839 137.6723 51.9811 -0.1178 -26.3624 13.1210
# 3 25.3510 51.9811 144.6579 -9.0677 -21.6231 3.5269
# 4 3.4745 -0.1178 -9.0677 43.9715 -8.0681 -0.9905
# 5 -15.2727 -26.3624 -21.6231 -8.0681 15.4637 5.8486
# 6 4.8977 13.1210 3.5269 -0.9905 5.8486 22.3661
#
#
#
# Elastic Compliance Matrix: (Units=1/GPa)
#
#
# Indices 1 2 3 4 5 6 
#
# 1 0.030811 0.004467 0.002019 0.007284 0.053502 -0.023354
# 2 0.004467 0.017574 0.001552 0.008690 0.050265 -0.024292
# 3 0.002019 0.001552 0.010655 0.006727 0.026727 -0.009724
# 4 0.007284 0.008690 0.006727 0.033544 0.056916 -0.021152
# 5 0.053502 0.050265 0.026727 0.056916 0.317938 -0.126036
# 6 -0.023354 -0.024292 -0.009724 -0.021152 -0.126036 0.097629
#
#
# Mechanical properties :
#
#
# Convention : Reuss Voigt Hill
#
# Bulk Modulus (GPa) = 13.31257 61.91926 37.61592
# Shear Modulus (GPa) = 9.66905 31.56861 20.61883
#
# Velocity S-wave (km/s) = 2.08840 3.77354 3.04968
# Velocity P-wave (km/s) = 3.43804 6.84953 5.41923
#
# Compressibility (1/GPa) = 0.07511699
#
# Stress axis : x y z
#
# Youngs Moduli (GPa) = 32.45592 56.90106 93.85237
#
# Poissons Ratio (x) = -0.25419 -0.18944
# Poissons Ratio (y) = -0.14499 -0.14570
# Poissons Ratio (z) = -0.06551 -0.08834
#
# Static dielectric constant tensor:
#      x y z
#    x 3.820760 -0.008040 -0.004610 
#    y -0.008040 4.037060 -0.131540 
#    z -0.004610 -0.131540 4.274170 
# 
# 
# High freq. dielectric constant tensor:
#      x y z
#    x 1.856080 -0.000430 -0.001150 
#    y -0.000430 1.876210 -0.011970 
#    z -0.001150 -0.011970 1.897710 
# 
# From -- ./inp_files/398173.got.cif
#   From: 2010.06.25/outbox.cif.g09.slc.cpg/sg2_200_cif.got.tgz:398173.got - 2010.06.27 13:26:56.
