data_PCOD8015277
_publ_section_title
;
Structure prediction by ZEFSAII (Michael W. Deem and Ramdas Pophale) SiO2 
 PCOD8015277
Probable space group: P -1
;
_chemical_formula_sum "Si O2"
_cell_formula_units_Z 16
_cell_length_a 9.174061
_cell_length_b 12.213676
_cell_length_c 13.972501
_cell_angle_alpha 30.032484
_cell_angle_beta 85.870627
_cell_angle_gamma 77.346629
_cell_volume 742.027172
_symmetry_space_group_name_H-M "P -1"
_symmetry_group_IT_number 2
_symmetry_cell_setting 'triclinic'
loop_
_space_group_symop_operation_xyz
x,y,z
-x,-y,-z
loop_
_atom_site_type_symbol
_atom_site_label
_atom_site_fract_x
_atom_site_fract_y
_atom_site_fract_z
Si Si1 0.614585 0.514970 0.224981
Si Si2 0.931555 0.034782 0.758402
Si Si3 0.948060 0.740093 0.264921
Si Si4 0.623136 0.611392 0.944679
Si Si5 0.920098 0.470097 0.929027
Si Si6 0.592218 0.096905 0.656607
Si Si7 0.941906 0.447152 0.325292
Si Si8 0.585576 0.992222 0.101781
O O1 0.560938 0.305515 0.425530
O O2 0.755649 0.540299 0.261696
O O3 0.684341 0.475942 0.143585
O O4 0.465709 0.741921 0.062017
O O5 0.760576 0.034304 0.743973
O O6 0.991344 0.209683 0.560379
O O7 0.952115 0.101136 0.819187
O O8 0.044878 0.789282 0.910743
O O9 0.986729 0.656917 0.215880
O O10 0.000000 0.500000 0.500000
O O11 0.768188 0.883919 0.172913
O O12 0.740661 0.570576 0.882014
O O13 0.567661 0.884715 0.759877
O O14 0.500000 0.500000 0.000000
O O15 0.973180 0.610261 0.736969
O O16 0.000000 0.500000 0.000000
O O17 0.473528 0.160367 0.702838
O O18 0.500000 0.000000 0.000000
#
# Coordination Sequence:
#
# PCOD8015277 Si02
#       8
#     2   2   2   2   2   2   2   2
#     4  10  21  42  67  93 131 174 223 274 331 403
#     4  10  23  41  66  97 134 169 219 280 328 394
#     4  10  23  45  65  99 142 171 217 289 325 389
#     4  11  25  43  62  92 134 169 224 286 333 398
#     4  12  22  40  66  93 124 173 222 267 339 394
#     4  10  23  44  66  95 131 178 225 269 344 407
#     4  10  21  43  65  96 131 170 220 273 328 395
#     4  11  22  41  68  94 135 178 221 270 327 400
#
# _framework density 21.562553000000001
#
# number of rings (size 3 to 8) (size 9 to 14) (size 15 to 20)
#    0.000    1.500    3.750    0.750    3.500    3.000 
#    4.500    0.000    0.000    0.000    0.000    0.000 
#    0.000    0.000    0.000    0.000    0.000    0.000 
#
# Total GULP energy -198270.562240 kJ/mol
# GULP energy per Si atom -12391.910140 kJ/mol
# Density = 2.151348 g / cm^3
# Si number density = 21.562553 Si / 1000 Ang^3
#
#
#
# Elastic Constant Matrix: (Units=GPa)
#
#
# Indices 1 2 3 4 5 6 
#
# 1 78.6285 25.7124 18.1184 -7.5029 -5.1039 3.6520
# 2 25.7124 109.6044 16.2326 -3.9484 -16.6185 11.4785
# 3 18.1184 16.2326 88.1541 -1.5087 -16.0442 1.9161
# 4 -7.5029 -3.9484 -1.5087 28.8061 -3.2682 -10.6849
# 5 -5.1039 -16.6185 -16.0442 -3.2682 38.6296 -2.9830
# 6 3.6520 11.4785 1.9161 -10.6849 -2.9830 45.4986
#
#
#
# Elastic Compliance Matrix: (Units=1/GPa)
#
#
# Indices 1 2 3 4 5 6 
#
# 1 0.014551 -0.002991 -0.002398 0.003433 -0.000032 0.000492
# 2 -0.002991 0.010730 -0.000613 0.000308 0.003829 -0.002118
# 3 -0.002398 -0.000613 0.012831 0.000609 0.004821 0.000266
# 4 0.003433 0.000308 0.000609 0.039675 0.004911 0.009260
# 5 -0.000032 0.003829 0.004821 0.004911 0.030099 0.001960
# 6 0.000492 -0.002118 0.000266 0.009260 0.001960 0.024765
#
#
# Mechanical properties :
#
#
# Convention : Reuss Voigt Hill
#
# Bulk Modulus (GPa) = 38.30068 44.05707 41.17888
# Shear Modulus (GPa) = 32.60330 37.00843 34.80587
#
# Velocity S-wave (km/s) = 3.89271 4.14735 4.02205
# Velocity P-wave (km/s) = 6.16485 6.58867 6.38028
#
# Compressibility (1/GPa) = 0.02610919
#
# Stress axis : x y z
#
# Youngs Moduli (GPa) = 68.72194 93.20030 77.93331
#
# Poissons Ratio (x) = 0.27878 0.18686
# Poissons Ratio (y) = 0.20556 0.04776
# Poissons Ratio (z) = 0.16477 0.05711
#
# Static dielectric constant tensor:
#      x y z
#    x 3.802530 0.236610 -0.003410 
#    y 0.236610 5.195600 0.505680 
#    z -0.003410 0.505680 4.160700 
# 
# 
# High freq. dielectric constant tensor:
#      x y z
#    x 1.834380 0.007290 -0.009400 
#    y 0.007290 1.862120 0.004760 
#    z -0.009400 0.004760 1.849530 
# 
# From -- ./inp_files/246067.got.cif
#   From: 2010.06.25/outbox.cif.g09.slc.cpg/sg2_124_cif.got.tgz:246067.got - 2010.06.27 13:26:56.
