data_PCOD8015626
_publ_section_title
;
Structure prediction by ZEFSAII (Michael W. Deem and Ramdas Pophale) SiO2 
 PCOD8015626
Probable space group: P -1
;
_chemical_formula_sum "Si O2"
_cell_formula_units_Z 14
_cell_length_a 4.910070
_cell_length_b 20.245220
_cell_length_c 6.091584
_cell_angle_alpha 99.741205
_cell_angle_beta 81.943165
_cell_angle_gamma 82.288127
_cell_volume 583.127888
_symmetry_space_group_name_H-M "P -1"
_symmetry_group_IT_number 2
_symmetry_cell_setting 'triclinic'
loop_
_space_group_symop_operation_xyz
x,y,z
-x,-y,-z
loop_
_atom_site_type_symbol
_atom_site_label
_atom_site_fract_x
_atom_site_fract_y
_atom_site_fract_z
Si Si1 0.283334 0.915225 0.546636
Si Si2 0.932079 0.706053 0.097727
Si Si3 0.713075 0.984017 0.767184
Si Si4 0.329152 0.542123 0.354105
Si Si5 0.630497 0.241619 0.633089
Si Si6 0.324063 0.664946 0.685822
Si Si7 0.281564 0.419628 0.049580
O O1 0.579045 0.931795 0.601461
O O2 0.291591 0.835694 0.487421
O O3 0.029170 0.946023 0.760081
O O4 0.241317 0.947426 0.325784
O O5 0.618024 0.747071 0.153801
O O6 0.095174 0.732015 0.295866
O O7 0.944620 0.622918 0.053172
O O8 0.081048 0.718452 0.858828
O O9 0.500000 0.000000 0.000000
O O10 0.500000 0.500000 0.500000
O O11 0.174990 0.610223 0.530694
O O12 0.141455 0.490953 0.226349
O O13 0.530484 0.564772 0.162493
O O14 0.518762 0.289083 0.465653
O O15 0.538249 0.629162 0.821837
#
# Coordination Sequence:
#
# PCOD8015626 Si02
#       7
#     2   2   2   2   2   2   2
#     4  10  23  42  65 102 133 175 216 263 320 385
#     4  12  25  43  65  95 132 175 222 274 323 404
#     4  10  21  42  72  98 135 169 219 268 314 374
#     4   9  19  39  69  94 125 171 221 286 339 393
#     4  12  27  43  67  97 141 175 218 269 330 393
#     4  11  23  42  66  93 132 176 219 279 341 392
#     4  10  21  43  65  96 128 168 231 276 336 398
#
# _framework density 24.008455000000001
#
# number of rings (size 3 to 8) (size 9 to 14) (size 15 to 20)
#    0.000    1.429    2.857    1.286    2.000    2.857 
#    0.000   10.000    0.000    0.000    0.000    0.000 
#    0.000    0.000    0.000    0.000    0.000    0.000 
#
# Total GULP energy -173468.675866 kJ/mol
# GULP energy per Si atom -12390.619705 kJ/mol
# Density = 2.395381 g / cm^3
# Si number density = 24.008455 Si / 1000 Ang^3
#
#
#
# Elastic Constant Matrix: (Units=GPa)
#
#
# Indices 1 2 3 4 5 6 
#
# 1 82.5412 28.3337 8.8463 0.5328 -8.4034 9.3388
# 2 28.3337 148.6702 52.9633 8.5387 2.1927 12.6868
# 3 8.8463 52.9633 94.2166 3.8958 -11.2838 -0.9638
# 4 0.5328 8.5387 3.8958 24.1635 -4.8973 -1.2218
# 5 -8.4034 2.1927 -11.2838 -4.8973 33.2577 16.7846
# 6 9.3388 12.6868 -0.9638 -1.2218 16.7846 31.5323
#
#
#
# Elastic Compliance Matrix: (Units=1/GPa)
#
#
# Indices 1 2 3 4 5 6 
#
# 1 0.014629 -0.002724 0.001000 0.001777 0.008286 -0.007548
# 2 -0.002724 0.009510 -0.005293 -0.003070 -0.002595 -0.001919
# 3 0.001000 -0.005293 0.014170 0.000727 0.005959 -0.000877
# 4 0.001777 -0.003070 0.000727 0.043911 0.008390 -0.002034
# 5 0.008286 -0.002595 0.005959 0.008390 0.049286 -0.027138
# 6 -0.007548 -0.001919 -0.000877 -0.002034 -0.027138 0.049061
#
#
# Mechanical properties :
#
#
# Convention : Reuss Voigt Hill
#
# Bulk Modulus (GPa) = 41.19833 56.19052 48.69443
# Shear Modulus (GPa) = 24.66767 33.47634 29.07200
#
# Velocity S-wave (km/s) = 3.20888 3.73816 3.48358
# Velocity P-wave (km/s) = 5.56115 6.48745 6.04208
#
# Compressibility (1/GPa) = 0.02427283
#
# Stress axis : x y z
#
# Youngs Moduli (GPa) = 68.35590 105.15683 70.57009
#
# Poissons Ratio (x) = 0.28648 -0.07054
# Poissons Ratio (y) = 0.18622 0.37356
# Poissons Ratio (z) = -0.06833 0.55664
#
# Static dielectric constant tensor:
#      x y z
#    x 4.218390 0.248510 0.001140 
#    y 0.248510 4.313620 0.181790 
#    z 0.001140 0.181790 4.696500 
# 
# 
# High freq. dielectric constant tensor:
#      x y z
#    x 1.942690 0.017590 -0.007640 
#    y 0.017590 1.938650 0.009590 
#    z -0.007640 0.009590 1.966260 
# 
# From -- ./inp_files/7798.got.cif
#   From: 2010.06.25/outbox.cif.g09.slc.cpg/sg2_4_cif.got.tgz:7798.got - 2010.06.27 13:26:56.
