data_PCOD8015491
_publ_section_title
;
Structure prediction by ZEFSAII (Michael W. Deem and Ramdas Pophale) SiO2 
 PCOD8015491
Probable space group: P -1
;
_chemical_formula_sum "Si O2"
_cell_formula_units_Z 16
_cell_length_a 9.157982
_cell_length_b 13.370831
_cell_length_c 17.916784
_cell_angle_alpha 39.258120
_cell_angle_beta 142.753281
_cell_angle_gamma 146.141870
_cell_volume 696.824310
_symmetry_space_group_name_H-M "P -1"
_symmetry_group_IT_number 2
_symmetry_cell_setting 'triclinic'
loop_
_space_group_symop_operation_xyz
x,y,z
-x,-y,-z
loop_
_atom_site_type_symbol
_atom_site_label
_atom_site_fract_x
_atom_site_fract_y
_atom_site_fract_z
Si Si1 0.713048 0.628102 0.446731
Si Si2 0.610010 0.153619 0.020449
Si Si3 0.800331 0.744106 0.829740
Si Si4 0.399876 0.807748 0.224441
Si Si5 0.205155 0.301184 0.984069
Si Si6 0.720838 0.673413 0.163793
Si Si7 0.719260 0.987579 0.545858
Si Si8 0.695031 0.282814 0.593927
O O1 0.500000 0.500000 0.500000
O O2 0.558480 0.724762 0.290014
O O3 0.761211 0.495754 0.487704
O O4 0.029921 0.802875 0.503195
O O5 0.956532 0.301626 0.063077
O O6 0.537160 0.030809 0.137264
O O7 0.441666 0.258371 0.890563
O O8 0.500000 0.000000 0.000000
O O9 0.483085 0.553470 0.800111
O O10 0.860447 0.905806 0.703045
O O11 0.834341 0.820547 0.886410
O O12 0.444912 0.796302 0.336842
O O13 0.061820 0.673197 0.141622
O O14 0.210917 0.219618 0.951754
O O15 0.500000 0.500000 0.000000
O O16 0.012907 0.715806 0.297970
O O17 0.550510 0.852449 0.486138
O O18 0.500000 0.000000 0.500000
#
# Coordination Sequence:
#
# PCOD8015491 Si02
#       8
#     2   2   2   2   2   2   2   2
#     4  10  23  47  70  99 141 185 233 286 350 420
#     4  12  24  40  66 101 139 174 225 290 351 406
#     4  11  23  44  66 102 139 175 233 287 352 412
#     4  10  21  42  69  98 137 180 227 284 349 421
#     4   9  20  42  67  96 132 178 225 278 343 417
#     4  10  24  44  70  99 138 183 228 283 351 423
#     4  12  27  43  72 103 140 187 236 294 347 410
#     4  10  25  47  71 100 140 184 238 280 347 421
#
# _framework density 22.961312
#
# number of rings (size 3 to 8) (size 9 to 14) (size 15 to 20)
#    0.000    1.500    2.500    1.125    1.750    9.000 
#    4.500    2.500    0.000    0.000    0.000    0.000 
#    0.000    0.000    0.000    0.000    0.000    0.000 
#
# Total GULP energy -198239.317972 kJ/mol
# GULP energy per Si atom -12389.957373 kJ/mol
# Density = 2.290905 g / cm^3
# Si number density = 22.961312 Si / 1000 Ang^3
#
#
#
# Elastic Constant Matrix: (Units=GPa)
#
#
# Indices 1 2 3 4 5 6 
#
# 1 97.5509 45.6492 46.8454 10.2481 9.1438 6.7173
# 2 45.6492 123.1641 39.5937 15.0842 -1.0510 6.7773
# 3 46.8454 39.5937 83.1561 10.0305 5.0260 -8.4641
# 4 10.2481 15.0842 10.0305 37.0570 0.0306 1.6056
# 5 9.1438 -1.0510 5.0260 0.0306 46.7698 1.9444
# 6 6.7173 6.7773 -8.4641 1.6056 1.9444 42.1727
#
#
#
# Elastic Compliance Matrix: (Units=1/GPa)
#
#
# Indices 1 2 3 4 5 6 
#
# 1 0.015904 -0.003191 -0.007541 -0.000909 -0.002229 -0.003397
# 2 -0.003191 0.010786 -0.003299 -0.002536 0.001299 -0.001851
# 3 -0.007541 -0.003299 0.018691 -0.001872 -0.000840 0.005593
# 4 -0.000909 -0.002536 -0.001872 0.028816 0.000342 -0.000936
# 5 -0.002229 0.001299 -0.000840 0.000342 0.021980 -0.001049
# 6 -0.003397 -0.001851 0.005593 -0.000936 -0.001049 0.025757
#
#
# Mechanical properties :
#
#
# Convention : Reuss Voigt Hill
#
# Bulk Modulus (GPa) = 57.74419 63.11640 60.43030
# Shear Modulus (GPa) = 32.09876 36.65209 34.37543
#
# Velocity S-wave (km/s) = 3.74297 3.99965 3.87344
# Velocity P-wave (km/s) = 6.62441 6.99124 6.81030
#
# Compressibility (1/GPa) = 0.01731776
#
# Stress axis : x y z
#
# Youngs Moduli (GPa) = 62.87663 92.71279 53.50284
#
# Poissons Ratio (x) = 0.29585 0.40349
# Poissons Ratio (y) = 0.20064 0.17650
# Poissons Ratio (z) = 0.47418 0.30585
#
# Static dielectric constant tensor:
#      x y z
#    x 4.570770 0.151930 0.075190 
#    y 0.151930 4.297550 -0.218600 
#    z 0.075190 -0.218600 4.335090 
# 
# 
# High freq. dielectric constant tensor:
#      x y z
#    x 1.920720 0.021190 0.004610 
#    y 0.021190 1.894220 0.008120 
#    z 0.004610 0.008120 1.907540 
# 
# From -- ./inp_files/559722.got.cif
#   From: 2010.06.25/outbox.cif.g09.slc.cpg/sg2_280_cif.got.tgz:559722.got - 2010.06.27 13:26:56.
