data_PCOD8015162
_publ_section_title
;
Structure prediction by ZEFSAII (Michael W. Deem and Ramdas Pophale) SiO2 
 PCOD8015162
Probable space group: P -1
;
_chemical_formula_sum "Si O2"
_cell_formula_units_Z 16
_cell_length_a 14.418509
_cell_length_b 9.225844
_cell_length_c 5.937350
_cell_angle_alpha 88.161810
_cell_angle_beta 73.260358
_cell_angle_gamma 84.437708
_cell_volume 752.766008
_symmetry_space_group_name_H-M "P -1"
_symmetry_group_IT_number 2
_symmetry_cell_setting 'triclinic'
loop_
_space_group_symop_operation_xyz
x,y,z
-x,-y,-z
loop_
_atom_site_type_symbol
_atom_site_label
_atom_site_fract_x
_atom_site_fract_y
_atom_site_fract_z
Si Si1 0.617801 0.036154 0.567222
Si Si2 0.952451 0.860022 0.629589
Si Si3 0.551391 0.514691 0.211872
Si Si4 0.418314 0.159546 0.781030
Si Si5 0.250615 0.005412 0.137294
Si Si6 0.296677 0.744546 0.813555
Si Si7 0.099325 0.650256 0.835259
Si Si8 0.031181 0.389200 0.677707
O O1 0.526193 0.090906 0.788942
O O2 0.628330 0.166855 0.379894
O O3 0.593927 0.886862 0.469415
O O4 0.721509 0.011606 0.619411
O O5 0.855474 0.912310 0.833424
O O6 0.918512 0.761737 0.450809
O O7 0.027329 0.760810 0.734907
O O8 0.000000 0.000000 0.500000
O O9 0.500000 0.500000 0.500000
O O10 0.592947 0.669730 0.183500
O O11 0.643321 0.398039 0.128094
O O12 0.500000 0.500000 0.000000
O O13 0.332702 0.098893 0.981216
O O14 0.251724 0.844785 0.042081
O O15 0.207054 0.698137 0.730168
O O16 0.102497 0.478335 0.774888
O O17 0.062610 0.655852 0.117693
O O18 0.000000 0.500000 0.500000
#
# Coordination Sequence:
#
# PCOD8015162 Si02
#       8
#     2   2   2   2   2   2   2   2
#     4  10  21  42  66  92 132 168 227 271 340 400
#     4  11  23  40  63  97 133 168 221 281 341 406
#     4  12  27  47  70 103 141 182 231 289 350 414
#     4  10  23  41  66  95 127 176 222 280 338 404
#     4  11  24  39  65  96 130 177 223 276 341 413
#     4  11  24  41  67  96 127 178 223 275 343 411
#     4  10  22  42  66  90 131 171 220 274 337 411
#     4   9  21  41  63  88 126 169 217 276 340 395
#
# _framework density 21.254943000000001
#
# number of rings (size 3 to 8) (size 9 to 14) (size 15 to 20)
#    0.000    1.500    1.250    2.625    1.750    9.000 
#    0.000    0.000    0.000    0.000    0.000    0.000 
#    0.000    0.000    0.000    0.000    0.000    0.000 
#
# Total GULP energy -198225.429086 kJ/mol
# GULP energy per Si atom -12389.089318 kJ/mol
# Density = 2.120657 g / cm^3
# Si number density = 21.254943 Si / 1000 Ang^3
#
#
#
# Elastic Constant Matrix: (Units=GPa)
#
#
# Indices 1 2 3 4 5 6 
#
# 1 136.2070 65.1415 35.5096 10.7674 -5.2616 -4.8940
# 2 65.1415 170.8013 48.1303 25.8061 -1.1948 7.0613
# 3 35.5096 48.1303 94.0985 8.4054 -1.5711 -0.6288
# 4 10.7674 25.8061 8.4054 36.4380 -1.6856 -1.7427
# 5 -5.2616 -1.1948 -1.5711 -1.6856 31.6295 -1.0082
# 6 -4.8940 7.0613 -0.6288 -1.7427 -1.0082 38.5853
#
#
#
# Elastic Compliance Matrix: (Units=1/GPa)
#
#
# Indices 1 2 3 4 5 6 
#
# 1 0.009460 -0.003129 -0.001936 0.000018 0.001417 0.001779
# 2 -0.003129 0.008647 -0.002850 -0.004680 -0.000657 -0.002254
# 3 -0.001936 -0.002850 0.012853 -0.000342 0.000206 0.000475
# 4 0.000018 -0.004680 -0.000342 0.031013 0.001535 0.002294
# 5 0.001417 -0.000657 0.000206 0.001535 0.031957 0.001208
# 6 0.001779 -0.002254 0.000475 0.002294 0.001208 0.026698
#
#
# Mechanical properties :
#
#
# Convention : Reuss Voigt Hill
#
# Bulk Modulus (GPa) = 66.09137 77.62996 71.86066
# Shear Modulus (GPa) = 35.33579 38.15227 36.74403
#
# Velocity S-wave (km/s) = 4.08177 4.24132 4.16231
# Velocity P-wave (km/s) = 7.30592 7.78380 7.54865
#
# Compressibility (1/GPa) = 0.01513057
#
# Stress axis : x y z
#
# Youngs Moduli (GPa) = 105.70850 115.64892 77.80577
#
# Poissons Ratio (x) = 0.36184 0.15060
# Poissons Ratio (y) = 0.33074 0.22175
# Poissons Ratio (z) = 0.20461 0.32961
#
# Static dielectric constant tensor:
#      x y z
#    x 3.852920 0.256550 0.203210 
#    y 0.256550 4.238330 0.282550 
#    z 0.203210 0.282550 4.194920 
# 
# 
# High freq. dielectric constant tensor:
#      x y z
#    x 1.827070 0.015020 0.000630 
#    y 0.015020 1.849600 0.006260 
#    z 0.000630 0.006260 1.834950 
# 
# From -- ./inp_files/85182.got.cif
#   From: 2010.06.25/outbox.cif.g09.slc.cpg/sg2_43_cif.got.tgz:85182.got - 2010.06.27 13:26:56.
