data_PCOD8015624
_publ_section_title
;
Structure prediction by ZEFSAII (Michael W. Deem and Ramdas Pophale) SiO2 
 PCOD8015624
Probable space group: P -1
;
_chemical_formula_sum "Si O2"
_cell_formula_units_Z 12
_cell_length_a 16.784748
_cell_length_b 8.860618
_cell_length_c 8.756290
_cell_angle_alpha 147.038734
_cell_angle_beta 55.979159
_cell_angle_gamma 113.984698
_cell_volume 581.500821
_symmetry_space_group_name_H-M "P -1"
_symmetry_group_IT_number 2
_symmetry_cell_setting 'triclinic'
loop_
_space_group_symop_operation_xyz
x,y,z
-x,-y,-z
loop_
_atom_site_type_symbol
_atom_site_label
_atom_site_fract_x
_atom_site_fract_y
_atom_site_fract_z
Si Si1 0.210726 0.313888 0.751320
Si Si2 0.275968 0.152787 0.232047
Si Si3 0.629472 0.500597 0.781079
Si Si4 0.375863 0.105342 0.608564
Si Si5 0.111591 0.920795 0.349795
Si Si6 0.538786 0.292963 0.416338
O O1 0.283687 0.301839 0.515934
O O2 0.275526 0.281257 0.806352
O O3 0.142392 0.070190 0.598611
O O4 0.135778 0.594048 0.075218
O O5 0.275178 0.387150 0.298574
O O6 0.175138 0.019314 0.223179
O O7 0.365053 0.905796 0.906450
O O8 0.555783 0.488423 0.709184
O O9 0.651062 0.200352 0.583367
O O10 0.585733 0.738960 0.152187
O O11 0.458351 0.095393 0.382321
O O12 0.000000 0.000000 0.500000
O O13 0.500000 0.500000 0.500000
#
# Coordination Sequence:
#
# PCOD8015624 Si02
#       6
#     2   2   2   2   2   2
#     4  10  23  42  66 101 120 170 211 260 323 370
#     4  10  24  41  65  95 128 164 222 254 325 363
#     4  12  25  43  59  94 131 179 211 256 315 372
#     4  12  26  41  64  90 141 170 211 255 313 383
#     4  10  21  42  72  98 123 156 218 272 319 374
#     4  12  26  43  64  94 132 173 224 259 305 373
#
# _framework density 20.636257000000001
#
# number of rings (size 3 to 8) (size 9 to 14) (size 15 to 20)
#    1.000    0.000    1.667    5.500    4.667    1.333 
#    0.000    0.000    0.000    6.000    0.000    0.000 
#    0.000    0.000    0.000    0.000    0.000    0.000 
#
# Total GULP energy -148703.705857 kJ/mol
# GULP energy per Si atom -12391.975488 kJ/mol
# Density = 2.058929 g / cm^3
# Si number density = 20.636257 Si / 1000 Ang^3
#
#
#
# Elastic Constant Matrix: (Units=GPa)
#
#
# Indices 1 2 3 4 5 6 
#
# 1 108.7195 48.5686 41.2746 -7.7818 -19.4191 11.3755
# 2 48.5686 129.6463 44.8486 12.0803 -19.0790 -2.6538
# 3 41.2746 44.8486 108.6634 20.7604 -5.1329 11.1059
# 4 -7.7818 12.0803 20.7604 21.4649 0.2709 2.4243
# 5 -19.4191 -19.0790 -5.1329 0.2709 37.1528 -3.3500
# 6 11.3755 -2.6538 11.1059 2.4243 -3.3500 20.1613
#
#
#
# Elastic Compliance Matrix: (Units=1/GPa)
#
#
# Indices 1 2 3 4 5 6 
#
# 1 0.016482 -0.005001 -0.006179 0.015580 0.004385 -0.007699
# 2 -0.005001 0.011677 -0.002079 -0.007213 0.003779 0.006999
# 3 -0.006179 -0.002079 0.015716 -0.015796 -0.002366 -0.003938
# 4 0.015580 -0.007213 -0.015796 0.072650 0.000859 -0.009632
# 5 0.004385 0.003779 -0.002366 0.000859 0.031213 0.004410
# 6 -0.007699 0.006999 -0.003938 -0.009632 0.004410 0.058925
#
#
# Mechanical properties :
#
#
# Convention : Reuss Voigt Hill
#
# Bulk Modulus (GPa) = 57.61077 68.49034 63.05056
# Shear Modulus (GPa) = 20.92327 29.91162 25.41745
#
# Velocity S-wave (km/s) = 3.18765 3.81132 3.51335
# Velocity P-wave (km/s) = 6.44407 7.25463 6.86133
#
# Compressibility (1/GPa) = 0.01735786
#
# Stress axis : x y z
#
# Youngs Moduli (GPa) = 60.67251 85.63520 63.62751
#
# Poissons Ratio (x) = 0.42826 0.39316
# Poissons Ratio (y) = 0.30342 0.13228
# Poissons Ratio (z) = 0.37490 0.17803
#
# Static dielectric constant tensor:
#      x y z
#    x 3.488740 0.021020 0.257560 
#    y 0.021020 4.014710 0.091080 
#    z 0.257560 0.091080 3.718170 
# 
# 
# High freq. dielectric constant tensor:
#      x y z
#    x 1.780790 0.002110 0.014660 
#    y 0.002110 1.811440 0.016470 
#    z 0.014660 0.016470 1.812990 
# 
# From -- ./inp_files/287994.got.cif
#   From: 2010.06.25/outbox.cif.g09.slc.cpg/sg2_144_cif.got.tgz:287994.got - 2010.06.27 13:26:56.
