data_PCOD8015088
_publ_section_title
;
Structure prediction by ZEFSAII (Michael W. Deem and Ramdas Pophale) SiO2 
 PCOD8015088
Probable space group: P -1
;
_chemical_formula_sum "Si O2"
_cell_formula_units_Z 14
_cell_length_a 10.974753
_cell_length_b 11.815869
_cell_length_c 6.751257
_cell_angle_alpha 86.633505
_cell_angle_beta 68.530169
_cell_angle_gamma 50.465815
_cell_volume 609.554153
_symmetry_space_group_name_H-M "P -1"
_symmetry_group_IT_number 2
_symmetry_cell_setting 'triclinic'
loop_
_space_group_symop_operation_xyz
x,y,z
-x,-y,-z
loop_
_atom_site_type_symbol
_atom_site_label
_atom_site_fract_x
_atom_site_fract_y
_atom_site_fract_z
Si Si1 0.366323 0.641785 0.924960
Si Si2 0.599511 0.793802 0.771760
Si Si3 0.103909 0.532961 0.310368
Si Si4 0.871175 0.408001 0.116850
Si Si5 0.324639 0.868920 0.201677
Si Si6 0.529617 0.691384 0.486268
Si Si7 0.101463 0.199505 0.344507
O O1 0.212586 0.646173 0.953042
O O2 0.456742 0.631260 0.669790
O O3 0.500000 0.500000 0.000000
O O4 0.280336 0.795370 0.080600
O O5 0.692103 0.616881 0.777012
O O6 0.522117 0.817241 0.594137
O O7 0.726653 0.827118 0.698629
O O8 0.451524 0.889011 0.017822
O O9 0.000000 0.500000 0.500000
O O10 0.053373 0.684798 0.417427
O O11 0.053473 0.552804 0.105485
O O12 0.730425 0.550926 0.324091
O O13 0.035786 0.270378 0.158047
O O14 0.409988 0.767785 0.356511
O O15 0.148534 0.039450 0.343120
#
# Coordination Sequence:
#
# PCOD8015088 Si02
#       7
#     2   2   2   2   2   2   2
#     4  11  24  42  71  98 124 169 235 268 307 405
#     4  10  21  42  65  96 131 172 225 258 316 410
#     4  10  22  40  63  99 130 166 219 263 314 399
#     4  12  23  41  70  96 132 176 215 270 332 377
#     4  11  24  43  66  97 132 171 221 275 321 380
#     4  11  22  40  73  96 122 177 225 264 327 382
#     4  11  26  40  63 100 140 167 210 277 336 376
#
# _framework density 22.967607000000001
#
# number of rings (size 3 to 8) (size 9 to 14) (size 15 to 20)
#    0.000    1.143    4.286    1.714    0.000    8.000 
#    0.000    1.429    0.000    0.000    0.000    0.000 
#    0.000    0.000    0.000    0.000    0.000    0.000 
#
# Total GULP energy -173574.148986 kJ/mol
# GULP energy per Si atom -12398.153499 kJ/mol
# Density = 2.291533 g / cm^3
# Si number density = 22.967607 Si / 1000 Ang^3
#
#
#
# Elastic Constant Matrix: (Units=GPa)
#
#
# Indices 1 2 3 4 5 6 
#
# 1 43.7996 -9.4518 19.3941 -6.9031 14.1035 2.9263
# 2 -9.4518 96.3691 31.2748 22.7618 -0.3568 4.7158
# 3 19.3941 31.2748 139.2131 -7.6045 8.9430 4.8687
# 4 -6.9031 22.7618 -7.6045 40.6638 2.7052 3.9432
# 5 14.1035 -0.3568 8.9430 2.7052 29.6880 -0.3190
# 6 2.9263 4.7158 4.8687 3.9432 -0.3190 22.8102
#
#
#
# Elastic Compliance Matrix: (Units=1/GPa)
#
#
# Indices 1 2 3 4 5 6 
#
# 1 0.030627 0.003489 -0.003787 0.003911 -0.013774 -0.004711
# 2 0.003489 0.013950 -0.004041 -0.007895 0.000435 -0.001098
# 3 -0.003787 -0.004041 0.008933 0.003491 -0.001271 -0.001207
# 4 0.003911 -0.007895 0.003491 0.031215 -0.005904 -0.005093
# 5 -0.013774 0.000435 -0.001271 -0.005904 0.041191 0.003545
# 6 -0.004711 -0.001098 -0.001207 -0.005093 0.003545 0.045859
#
#
# Mechanical properties :
#
#
# Convention : Reuss Voigt Hill
#
# Bulk Modulus (GPa) = 22.30537 40.20178 31.25358
# Shear Modulus (GPa) = 25.58867 34.51003 30.04935
#
# Velocity S-wave (km/s) = 3.34146 3.88048 3.62102
# Velocity P-wave (km/s) = 4.96185 6.13345 5.57849
#
# Compressibility (1/GPa) = 0.04483224
#
# Stress axis : x y z
#
# Youngs Moduli (GPa) = 32.65040 71.68288 111.94176
#
# Poissons Ratio (x) = -0.25008 0.42396
# Poissons Ratio (y) = -0.11391 0.45233
# Poissons Ratio (z) = 0.12366 0.28966
#
# Static dielectric constant tensor:
#      x y z
#    x 3.986030 0.007120 0.203730 
#    y 0.007120 4.275660 0.281610 
#    z 0.203730 0.281610 4.660370 
# 
# 
# High freq. dielectric constant tensor:
#      x y z
#    x 1.897350 0.004900 0.014190 
#    y 0.004900 1.888830 0.005910 
#    z 0.014190 0.005910 1.929760 
# 
# From -- ./inp_files/68936.got.cif
#   From: 2010.06.25/outbox.cif.g09.slc.cpg/sg2_35_cif.got.tgz:68936.got - 2010.06.27 13:26:56.
