data_PCOD8015528
_publ_section_title
;
Structure prediction by ZEFSAII (Michael W. Deem and Ramdas Pophale) SiO2 
 PCOD8015528
Probable space group: P -1
;
_chemical_formula_sum "Si O2"
_cell_formula_units_Z 16
_cell_length_a 17.119338
_cell_length_b 24.880349
_cell_length_c 13.810372
_cell_angle_alpha 20.360706
_cell_angle_beta 149.090459
_cell_angle_gamma 158.160364
_cell_volume 757.947450
_symmetry_space_group_name_H-M "P -1"
_symmetry_group_IT_number 2
_symmetry_cell_setting 'triclinic'
loop_
_space_group_symop_operation_xyz
x,y,z
-x,-y,-z
loop_
_atom_site_type_symbol
_atom_site_label
_atom_site_fract_x
_atom_site_fract_y
_atom_site_fract_z
Si Si1 0.619371 0.508595 0.768735
Si Si2 0.150661 0.960701 0.464071
Si Si3 0.947731 0.519191 0.019613
Si Si4 0.913297 0.602796 0.261042
Si Si5 0.950837 0.994404 0.346184
Si Si6 0.839217 0.879603 0.119895
Si Si7 0.884527 0.256388 0.572632
Si Si8 0.402281 0.689700 0.730017
O O1 0.723197 0.449073 0.911269
O O2 0.378260 0.363651 0.723932
O O3 0.746721 0.760323 0.481455
O O4 0.628892 0.463174 0.966194
O O5 0.124666 0.772933 0.801753
O O6 0.945116 0.858406 0.354301
O O7 0.352574 0.102856 0.370867
O O8 0.157100 0.084937 0.350545
O O9 0.962154 0.387715 0.332885
O O10 0.000000 0.500000 0.000000
O O11 0.681371 0.441223 0.239207
O O12 0.000000 0.500000 0.500000
O O13 0.912641 0.622138 0.344716
O O14 0.069863 0.838131 0.979763
O O15 0.000000 0.000000 0.500000
O O16 0.782408 0.017320 0.851063
O O17 0.000000 0.000000 0.000000
O O18 0.711261 0.234526 0.482429
#
# Coordination Sequence:
#
# PCOD8015528 Si02
#       8
#     2   2   2   2   2   2   2   2
#     4  10  23  39  69  97 130 178 219 265 339 389
#     4  11  24  41  66 100 131 170 227 276 320 400
#     4  10  23  41  64  94 138 178 217 266 329 397
#     4  10  21  42  70  94 126 168 222 269 325 400
#     4  11  22  43  67  96 131 170 217 275 333 390
#     4  12  23  41  66 100 133 167 227 274 320 394
#     4  10  23  43  67  93 133 180 217 276 330 388
#     4  10  21  42  70  97 127 177 227 263 339 394
#
# _framework density 21.109641
#
# number of rings (size 3 to 8) (size 9 to 14) (size 15 to 20)
#    0.000    1.500    3.750    0.750    3.500    3.500 
#    2.250    3.125    0.000    0.000    0.000    0.000 
#    0.000    0.000    0.000    0.000    0.000    0.000 
#
# Total GULP energy -198270.282237 kJ/mol
# GULP energy per Si atom -12391.892640 kJ/mol
# Density = 2.106159 g / cm^3
# Si number density = 21.109641 Si / 1000 Ang^3
#
#
#
# Elastic Constant Matrix: (Units=GPa)
#
#
# Indices 1 2 3 4 5 6 
#
# 1 119.2478 50.2262 30.1221 1.8676 -14.8562 -7.4395
# 2 50.2262 119.6021 47.4432 -5.3011 -2.8983 -5.8011
# 3 30.1221 47.4432 135.5101 -9.5432 -3.8683 -8.2825
# 4 1.8676 -5.3011 -9.5432 27.6827 -8.1860 -7.9977
# 5 -14.8562 -2.8983 -3.8683 -8.1860 32.1291 -2.5057
# 6 -7.4395 -5.8011 -8.2825 -7.9977 -2.5057 33.2622
#
#
#
# Elastic Compliance Matrix: (Units=1/GPa)
#
#
# Indices 1 2 3 4 5 6 
#
# 1 0.011030 -0.004117 -0.000735 0.000222 0.004852 0.001985
# 2 -0.004117 0.011325 -0.002943 0.001349 -0.000847 0.000582
# 3 -0.000735 -0.002943 0.009054 0.003863 0.001674 0.002632
# 4 0.000222 0.001349 0.003863 0.045435 0.013293 0.013173
# 5 0.004852 -0.000847 0.001674 0.013293 0.037455 0.007372
# 6 0.001985 0.000582 0.002632 0.013173 0.007372 0.034988
#
#
# Mechanical properties :
#
#
# Convention : Reuss Voigt Hill
#
# Bulk Modulus (GPa) = 63.21616 69.99367 66.60491
# Shear Modulus (GPa) = 29.38573 35.05271 32.21922
#
# Velocity S-wave (km/s) = 3.73507 4.07935 3.91100
# Velocity P-wave (km/s) = 6.97227 7.44428 7.21214
#
# Compressibility (1/GPa) = 0.01581874
#
# Stress axis : x y z
#
# Youngs Moduli (GPa) = 90.65868 88.30022 110.44730
#
# Poissons Ratio (x) = 0.36352 0.08119
# Poissons Ratio (y) = 0.37323 0.32509
# Poissons Ratio (z) = 0.06664 0.25991
#
# Static dielectric constant tensor:
#      x y z
#    x 4.139530 -0.353760 -0.034000 
#    y -0.353760 3.952020 0.051640 
#    z -0.034000 0.051640 4.123250 
# 
# 
# High freq. dielectric constant tensor:
#      x y z
#    x 1.835760 -0.015650 -0.004670 
#    y -0.015650 1.801560 -0.002960 
#    z -0.004670 -0.002960 1.844790 
# 
# From -- ./inp_files/356504.got.cif
#   From: 2010.06.25/outbox.cif.g09.slc.cpg/sg2_179_cif.got.tgz:356504.got - 2010.06.27 13:26:56.
