data_PCOD8015186
_publ_section_title
;
Structure prediction by ZEFSAII (Michael W. Deem and Ramdas Pophale) SiO2 
 PCOD8015186
Probable space group: P -1
;
_chemical_formula_sum "Si O2"
_cell_formula_units_Z 14
_cell_length_a 8.939273
_cell_length_b 19.673288
_cell_length_c 12.009307
_cell_angle_alpha 152.446828
_cell_angle_beta 139.525408
_cell_angle_gamma 47.954152
_cell_volume 634.076750
_symmetry_space_group_name_H-M "P -1"
_symmetry_group_IT_number 2
_symmetry_cell_setting 'triclinic'
loop_
_space_group_symop_operation_xyz
x,y,z
-x,-y,-z
loop_
_atom_site_type_symbol
_atom_site_label
_atom_site_fract_x
_atom_site_fract_y
_atom_site_fract_z
Si Si1 0.522976 0.664337 0.877846
Si Si2 0.470375 0.668905 0.200232
Si Si3 0.363269 0.671316 0.557194
Si Si4 0.595916 0.135513 0.347972
Si Si5 0.853053 0.779748 0.421288
Si Si6 0.873719 0.954997 0.097373
Si Si7 0.885625 0.340824 0.207785
O O1 0.505490 0.717354 0.816759
O O2 0.597584 0.497910 0.690894
O O3 0.260204 0.680430 0.793767
O O4 0.707893 0.755174 0.189065
O O5 0.364004 0.757942 0.371348
O O6 0.708352 0.739732 0.391940
O O7 0.500000 0.500000 0.000000
O O8 0.280803 0.683084 0.022382
O O9 0.465197 0.765100 0.649802
O O10 0.086437 0.688063 0.427993
O O11 0.820290 0.034778 0.303162
O O12 0.368990 0.031621 0.088167
O O13 0.921805 0.953535 0.714994
O O14 0.924280 0.783187 0.878252
O O15 0.000000 0.500000 0.500000
#
# Coordination Sequence:
#
# PCOD8015186 Si02
#       7
#     2   2   2   2   2   2   2
#     4  10  22  39  65  98 130 172 228 270 324 403
#     4  11  24  41  70 100 133 174 221 276 327 399
#     4  10  21  42  66  94 134 179 213 280 328 388
#     4  10  22  45  62  99 134 169 226 266 335 402
#     4  10  23  43  65  97 131 178 220 272 333 395
#     4  10  23  45  65  93 134 178 218 274 336 393
#     4  11  24  44  68  96 131 170 226 280 332 397
#
# _framework density 22.079346000000001
#
# number of rings (size 3 to 8) (size 9 to 14) (size 15 to 20)
#    0.000    1.714    0.000    3.857    4.000    4.571 
#   23.143    0.000    0.000    0.000    0.000    0.000 
#    0.000    0.000    0.000    0.000    0.000    0.000 
#
# Total GULP energy -173499.492180 kJ/mol
# GULP energy per Si atom -12392.820870 kJ/mol
# Density = 2.202909 g / cm^3
# Si number density = 22.079346 Si / 1000 Ang^3
#
#
#
# Elastic Constant Matrix: (Units=GPa)
#
#
# Indices 1 2 3 4 5 6 
#
# 1 110.3658 32.9905 46.9493 14.4610 -1.6939 -7.3917
# 2 32.9905 54.5584 16.3284 12.4242 9.8487 -13.4909
# 3 46.9493 16.3284 93.9253 27.6833 16.2446 -1.7985
# 4 14.4610 12.4242 27.6833 34.2253 -8.4132 -7.8034
# 5 -1.6939 9.8487 16.2446 -8.4132 36.3324 2.5014
# 6 -7.3917 -13.4909 -1.7985 -7.8034 2.5014 41.9084
#
#
#
# Elastic Compliance Matrix: (Units=1/GPa)
#
#
# Indices 1 2 3 4 5 6 
#
# 1 0.015265 -0.009662 -0.009673 0.007160 0.009318 -0.000056
# 2 -0.009662 0.029806 0.006669 -0.014432 -0.015295 0.006403
# 3 -0.009673 0.006669 0.024127 -0.022699 -0.018188 -0.001665
# 4 0.007160 -0.014432 -0.022699 0.057610 0.027409 0.004734
# 5 0.009318 -0.015295 -0.018188 0.027409 0.046703 -0.001745
# 6 -0.000056 0.006403 -0.001665 0.004734 -0.001745 0.026827
#
#
# Mechanical properties :
#
#
# Convention : Reuss Voigt Hill
#
# Bulk Modulus (GPa) = 22.79658 50.15400 36.47529
# Shear Modulus (GPa) = 20.80813 33.33198 27.07006
#
# Velocity S-wave (km/s) = 3.07322 3.88963 3.50528
# Velocity P-wave (km/s) = 4.78959 6.55263 5.73921
#
# Compressibility (1/GPa) = 0.04386623
#
# Stress axis : x y z
#
# Youngs Moduli (GPa) = 65.50922 33.55053 41.44772
#
# Poissons Ratio (x) = 0.32415 0.40094
# Poissons Ratio (y) = 0.63292 -0.27643
# Poissons Ratio (z) = 0.63370 -0.22376
#
# Static dielectric constant tensor:
#      x y z
#    x 5.547620 -0.528230 0.387210 
#    y -0.528230 4.002290 -0.104630 
#    z 0.387210 -0.104630 4.242870 
# 
# 
# High freq. dielectric constant tensor:
#      x y z
#    x 1.877460 -0.011970 -0.000990 
#    y -0.011970 1.859960 0.004550 
#    z -0.000990 0.004550 1.880910 
# 
# From -- ./inp_files/342781.got.cif
#   From: 2010.06.25/outbox.cif.g09.slc.cpg/sg2_172_cif.got.tgz:342781.got - 2010.06.27 13:26:56.
