data_PCOD8015700
_publ_section_title
;
Structure prediction by ZEFSAII (Michael W. Deem and Ramdas Pophale) SiO2 
 PCOD8015700
Probable space group: P -1
;
_chemical_formula_sum "Si O2"
_cell_formula_units_Z 14
_cell_length_a 19.440296
_cell_length_b 13.431839
_cell_length_c 8.302000
_cell_angle_alpha 73.426024
_cell_angle_beta 48.200472
_cell_angle_gamma 34.025067
_cell_volume 694.478742
_symmetry_space_group_name_H-M "P -1"
_symmetry_group_IT_number 2
_symmetry_cell_setting 'triclinic'
loop_
_space_group_symop_operation_xyz
x,y,z
-x,-y,-z
loop_
_atom_site_type_symbol
_atom_site_label
_atom_site_fract_x
_atom_site_fract_y
_atom_site_fract_z
Si Si1 0.892054 0.896684 0.020926
Si Si2 0.790249 0.541706 0.117567
Si Si3 0.784052 0.536233 0.475730
Si Si4 0.406309 0.887714 0.365439
Si Si5 0.498035 0.348239 0.964146
Si Si6 0.891594 0.632365 0.442331
Si Si7 0.791302 0.169633 0.824121
O O1 0.070082 0.705406 0.970522
O O2 0.983194 0.740908 0.795596
O O3 0.846348 0.059602 0.959484
O O4 0.685902 0.056055 0.345141
O O5 0.678607 0.672023 0.404956
O O6 0.640626 0.683104 0.134307
O O7 0.941024 0.488181 0.884310
O O8 0.793251 0.626669 0.531401
O O9 0.647207 0.587485 0.750642
O O10 0.400199 0.801811 0.285046
O O11 0.293276 0.100226 0.366928
O O12 0.682254 0.196782 0.863877
O O13 0.363253 0.581712 0.011308
O O14 0.000000 0.500000 0.500000
O O15 0.000000 0.000000 0.500000
#
# Coordination Sequence:
#
# PCOD8015700 Si02
#       7
#     2   2   2   2   2   2   2
#     4   9  22  40  64  87 124 166 204 252 311 363
#     4   9  21  40  61  89 127 165 210 244 303 372
#     4  10  21  43  63  89 128 166 210 249 298 380
#     4  11  24  42  61  96 130 159 205 265 304 365
#     4  11  25  39  67  96 123 159 213 259 312 368
#     4  11  24  39  62  95 129 166 208 252 312 361
#     4  11  22  44  68  92 120 166 209 256 316 373
#
# _framework density 20.159005000000001
#
# number of rings (size 3 to 8) (size 9 to 14) (size 15 to 20)
#    0.857    0.857    1.429    2.143    2.000    5.714 
#    0.000    1.429    0.000    0.000    0.000    0.000 
#    0.000    0.000    0.000    0.000    0.000    0.000 
#
# Total GULP energy -173502.734987 kJ/mol
# GULP energy per Si atom -12393.052499 kJ/mol
# Density = 2.011312 g / cm^3
# Si number density = 20.159005 Si / 1000 Ang^3
#
#
#
# Elastic Constant Matrix: (Units=GPa)
#
#
# Indices 1 2 3 4 5 6 
#
# 1 121.8921 58.8967 45.8065 0.6729 -9.0556 10.4380
# 2 58.8967 154.2814 43.4558 -8.3707 -8.2965 -6.9373
# 3 45.8065 43.4558 95.0549 -5.5958 -9.0444 6.0695
# 4 0.6729 -8.3707 -5.5958 34.3191 0.3943 2.1480
# 5 -9.0556 -8.2965 -9.0444 0.3943 28.6451 2.9177
# 6 10.4380 -6.9373 6.0695 2.1480 2.9177 33.0224
#
#
#
# Elastic Compliance Matrix: (Units=1/GPa)
#
#
# Indices 1 2 3 4 5 6 
#
# 1 0.011833 -0.003628 -0.003699 -0.001498 0.001940 -0.003896
# 2 -0.003628 0.008781 -0.002353 0.001620 0.000296 0.003292
# 3 -0.003699 -0.002353 0.013892 0.001873 0.002738 -0.002242
# 4 -0.001498 0.001620 0.001873 0.029959 0.000328 -0.001508
# 5 0.001940 0.000296 0.002738 0.000328 0.036911 -0.004337
# 6 -0.003896 0.003292 -0.002242 -0.001508 -0.004337 0.033099
#
#
# Mechanical properties :
#
#
# Convention : Reuss Voigt Hill
#
# Bulk Modulus (GPa) = 66.01647 74.17184 70.09415
# Shear Modulus (GPa) = 31.46990 34.06862 32.76926
#
# Velocity S-wave (km/s) = 3.95534 4.11542 4.03617
# Velocity P-wave (km/s) = 7.32657 7.71074 7.52111
#
# Compressibility (1/GPa) = 0.01514774
#
# Stress axis : x y z
#
# Youngs Moduli (GPa) = 84.51151 113.88129 71.98263
#
# Poissons Ratio (x) = 0.41311 0.26623
# Poissons Ratio (y) = 0.30657 0.16938
# Poissons Ratio (z) = 0.31257 0.26797
#
# Static dielectric constant tensor:
#      x y z
#    x 3.486300 -0.080300 0.052500 
#    y -0.080300 3.870860 -0.079730 
#    z 0.052500 -0.079730 3.697430 
# 
# 
# High freq. dielectric constant tensor:
#      x y z
#    x 1.760980 -0.007990 -0.000640 
#    y -0.007990 1.799460 -0.006350 
#    z -0.000640 -0.006350 1.795980 
# 
# From -- ./inp_files/333084.got.cif
#   From: 2010.06.25/outbox.cif.g09.slc.cpg/sg2_167_cif.got.tgz:333084.got - 2010.06.27 13:26:56.
