data_PCOD8015949
_publ_section_title
;
Structure prediction by ZEFSAII (Michael W. Deem and Ramdas Pophale) SiO2 
 PCOD8015949
Probable space group: P -1
;
_chemical_formula_sum "Si O2"
_cell_formula_units_Z 12
_cell_length_a 11.683117
_cell_length_b 9.497689
_cell_length_c 8.836995
_cell_angle_alpha 57.176389
_cell_angle_beta 73.409335
_cell_angle_gamma 38.323570
_cell_volume 492.266318
_symmetry_space_group_name_H-M "P -1"
_symmetry_group_IT_number 2
_symmetry_cell_setting 'triclinic'
loop_
_space_group_symop_operation_xyz
x,y,z
-x,-y,-z
loop_
_atom_site_type_symbol
_atom_site_label
_atom_site_fract_x
_atom_site_fract_y
_atom_site_fract_z
Si Si1 0.453045 0.091533 0.714432
Si Si2 0.070261 0.147872 0.718841
Si Si3 0.703750 0.432225 0.317836
Si Si4 0.911338 0.991892 0.726428
Si Si5 0.646368 0.138391 0.976092
Si Si6 0.794598 0.712334 0.600024
O O1 0.393946 0.329886 0.671860
O O2 0.330566 0.198348 0.549356
O O3 0.675888 0.851989 0.718966
O O4 0.418402 0.983272 0.912000
O O5 0.109499 0.211216 0.513517
O O6 0.954267 0.391682 0.740546
O O7 0.954548 0.110069 0.741559
O O8 0.268179 0.883084 0.886110
O O9 0.544007 0.550008 0.185611
O O10 0.890420 0.303494 0.238085
O O11 0.770447 0.195254 0.522804
O O12 0.806107 0.972127 0.881204
#
# Coordination Sequence:
#
# PCOD8015949 Si02
#       6
#     2   2   2   2   2   2
#     4  10  21  43  68  98 127 169 222 268 316 385
#     4  10  21  43  67  99 126 172 221 263 323 381
#     4  11  25  45  63  96 134 177 214 257 334 386
#     4  11  25  45  67  92 138 175 209 267 326 396
#     4  11  25  42  67 102 129 169 217 275 321 374
#     4   9  20  40  71  95 127 170 220 267 317 383
#
# _framework density 24.377047000000001
#
# number of rings (size 3 to 8) (size 9 to 14) (size 15 to 20)
#    0.000    1.667    1.667    1.500    2.333    5.333 
#    3.000    0.000    0.000    0.000    0.000    0.000 
#    0.000    0.000    0.000    0.000    0.000    0.000 
#
# Total GULP energy -148792.510537 kJ/mol
# GULP energy per Si atom -12399.375878 kJ/mol
# Density = 2.432156 g / cm^3
# Si number density = 24.377047 Si / 1000 Ang^3
#
#
#
# Elastic Constant Matrix: (Units=GPa)
#
#
# Indices 1 2 3 4 5 6 
#
# 1 54.7047 52.2456 36.1716 -4.0351 0.5178 -19.2428
# 2 52.2456 170.8573 53.7736 15.4043 -21.4151 -22.6963
# 3 36.1716 53.7736 90.3878 5.4709 4.3068 -21.9304
# 4 -4.0351 15.4043 5.4709 30.5559 -25.3843 -9.2059
# 5 0.5178 -21.4151 4.3068 -25.3843 43.9049 5.9075
# 6 -19.2428 -22.6963 -21.9304 -9.2059 5.9075 37.1163
#
#
#
# Elastic Compliance Matrix: (Units=1/GPa)
#
#
# Indices 1 2 3 4 5 6 
#
# 1 0.037788 -0.008109 -0.008485 0.019624 0.005955 0.013539
# 2 -0.008109 0.009796 -0.002883 -0.002763 0.003720 -0.001194
# 3 -0.008485 -0.002883 0.018031 -0.009163 -0.008861 0.003630
# 4 0.019624 -0.002763 -0.009163 0.078455 0.042560 0.015755
# 5 0.005955 0.003720 -0.008861 0.042560 0.049622 0.002785
# 6 0.013539 -0.001194 0.003630 0.015755 0.002785 0.038840
#
#
# Mechanical properties :
#
#
# Convention : Reuss Voigt Hill
#
# Bulk Modulus (GPa) = 37.50512 66.70349 52.10430
# Shear Modulus (GPa) = 17.83332 33.89936 25.86634
#
# Velocity S-wave (km/s) = 2.70767 3.73316 3.26098
# Velocity P-wave (km/s) = 5.01938 6.78267 5.96652
#
# Compressibility (1/GPa) = 0.02666303
#
# Stress axis : x y z
#
# Youngs Moduli (GPa) = 26.46349 102.07741 55.45861
#
# Poissons Ratio (x) = 0.82775 0.47054
# Poissons Ratio (y) = 0.21459 0.15988
# Poissons Ratio (z) = 0.22453 0.29428
#
# Static dielectric constant tensor:
#      x y z
#    x 4.382190 -0.485740 0.227660 
#    y -0.485740 4.443620 0.045380 
#    z 0.227660 0.045380 4.524440 
# 
# 
# High freq. dielectric constant tensor:
#      x y z
#    x 1.963460 -0.021720 0.012600 
#    y -0.021720 1.962060 0.004970 
#    z 0.012600 0.004970 1.968370 
# 
# From -- ./inp_files/236509.got.cif
#   From: 2010.06.25/outbox.cif.g09.slc.cpg/sg2_119_cif.got.tgz:236509.got - 2010.06.27 13:26:56.
