data_PCOD8015963
_publ_section_title
;
Structure prediction by ZEFSAII (Michael W. Deem and Ramdas Pophale) SiO2 
 PCOD8015963
Probable space group: P -1
;
_chemical_formula_sum "Si O2"
_cell_formula_units_Z 14
_cell_length_a 10.536213
_cell_length_b 4.838031
_cell_length_c 21.432771
_cell_angle_alpha 113.353711
_cell_angle_beta 146.928790
_cell_angle_gamma 81.707094
_cell_volume 507.349664
_symmetry_space_group_name_H-M "P -1"
_symmetry_group_IT_number 2
_symmetry_cell_setting 'triclinic'
loop_
_space_group_symop_operation_xyz
x,y,z
-x,-y,-z
loop_
_atom_site_type_symbol
_atom_site_label
_atom_site_fract_x
_atom_site_fract_y
_atom_site_fract_z
Si Si1 0.596713 0.685472 0.793047
Si Si2 0.258445 0.939401 0.436107
Si Si3 0.589601 0.364444 0.420784
Si Si4 0.512309 0.449477 0.131672
Si Si5 0.960963 0.706771 0.772722
Si Si6 0.082594 0.647760 0.953641
Si Si7 0.666443 0.860687 0.123289
O O1 0.422789 0.689860 0.663424
O O2 0.421431 0.509214 0.763672
O O3 0.787454 0.501017 0.837223
O O4 0.766370 0.051877 0.913236
O O5 0.313111 0.883600 0.526333
O O6 0.033583 0.623829 0.287663
O O7 0.500000 0.000000 0.500000
O O8 0.208646 0.273683 0.446236
O O9 0.318436 0.318284 0.332306
O O10 0.684485 0.792220 0.199255
O O11 0.212335 0.385308 0.994447
O O12 0.543815 0.132465 0.086505
O O13 0.119291 0.757684 0.906243
O O14 0.074279 0.004232 0.796670
O O15 0.500000 0.500000 0.000000
#
# Coordination Sequence:
#
# PCOD8015963 Si02
#       7
#     2   2   2   2   2   2   2
#     4  10  22  44  67 101 139 174 233 282 349 410
#     4  10  21  43  68 102 133 171 227 290 352 401
#     4  10  23  42  74 101 131 175 224 296 348 400
#     4  12  25  44  63  95 141 183 233 274 334 418
#     4  10  23  45  68 100 141 173 231 282 349 414
#     4  10  22  42  68 103 135 182 220 292 350 412
#     4  12  28  44  65  94 143 195 228 275 335 419
#
# _framework density 27.594380000000001
#
# number of rings (size 3 to 8) (size 9 to 14) (size 15 to 20)
#    0.000    1.429    1.429    3.429    4.000    3.429 
#   20.571    0.000    0.000    5.143    0.000    0.000 
#    0.000    0.000    0.000    0.000    0.000    0.000 
#
# Total GULP energy -173539.494317 kJ/mol
# GULP energy per Si atom -12395.678166 kJ/mol
# Density = 2.753157 g / cm^3
# Si number density = 27.594380 Si / 1000 Ang^3
#
#
#
# Elastic Constant Matrix: (Units=GPa)
#
#
# Indices 1 2 3 4 5 6 
#
# 1 114.1798 43.8005 26.3938 0.8863 -28.0946 30.6041
# 2 43.8005 154.1469 21.2194 -1.1131 -5.6470 17.0948
# 3 26.3938 21.2194 92.8414 6.0716 -29.6198 16.3418
# 4 0.8863 -1.1131 6.0716 37.3212 11.2414 3.3209
# 5 -28.0946 -5.6470 -29.6198 11.2414 34.5194 -11.7463
# 6 30.6041 17.0948 16.3418 3.3209 -11.7463 52.2635
#
#
#
# Elastic Compliance Matrix: (Units=1/GPa)
#
#
# Indices 1 2 3 4 5 6 
#
# 1 0.013784 -0.003224 0.001637 -0.003819 0.011759 -0.004643
# 2 -0.003224 0.007671 -0.002126 0.002006 -0.004196 -0.001027
# 3 0.001637 -0.002126 0.017327 -0.008307 0.018195 -0.001064
# 4 -0.003819 0.002006 -0.008307 0.035345 -0.022480 -0.003121
# 5 0.011759 -0.004196 0.018195 -0.022480 0.062219 0.004209
# 6 -0.004643 -0.001027 -0.001064 -0.003121 0.004209 0.023666
#
#
# Mechanical properties :
#
#
# Convention : Reuss Voigt Hill
#
# Bulk Modulus (GPa) = 31.89159 60.44395 46.16777
# Shear Modulus (GPa) = 28.10728 42.80445 35.45586
#
# Velocity S-wave (km/s) = 3.19499 3.94280 3.58843
# Velocity P-wave (km/s) = 5.01926 6.53296 5.82549
#
# Compressibility (1/GPa) = 0.03135623
#
# Stress axis : x y z
#
# Youngs Moduli (GPa) = 72.54739 130.36661 57.71310
#
# Poissons Ratio (x) = 0.42029 -0.09447
# Poissons Ratio (y) = 0.23388 0.12268
# Poissons Ratio (z) = -0.11875 0.27713
#
# Static dielectric constant tensor:
#      x y z
#    x 5.753750 0.429740 -0.337750 
#    y 0.429740 5.628680 -0.005090 
#    z -0.337750 -0.005090 4.973270 
# 
# 
# High freq. dielectric constant tensor:
#      x y z
#    x 2.108510 0.014290 -0.021850 
#    y 0.014290 2.132020 -0.007450 
#    z -0.021850 -0.007450 2.087430 
# 
# From -- ./inp_files/509920.got.cif
#   From: 2010.06.25/outbox.cif.g09.slc.cpg/sg2_255_cif.got.tgz:509920.got - 2010.06.27 13:26:56.
