data_PCOD8015257
_publ_section_title
;
Structure prediction by ZEFSAII (Michael W. Deem and Ramdas Pophale) SiO2 
 PCOD8015257
Probable space group: P -1
;
_chemical_formula_sum "Si O2"
_cell_formula_units_Z 16
_cell_length_a 17.261179
_cell_length_b 13.584509
_cell_length_c 9.794460
_cell_angle_alpha 41.087619
_cell_angle_beta 119.111812
_cell_angle_gamma 145.734205
_cell_volume 790.015211
_symmetry_space_group_name_H-M "P -1"
_symmetry_group_IT_number 2
_symmetry_cell_setting 'triclinic'
loop_
_space_group_symop_operation_xyz
x,y,z
-x,-y,-z
loop_
_atom_site_type_symbol
_atom_site_label
_atom_site_fract_x
_atom_site_fract_y
_atom_site_fract_z
Si Si1 0.589191 0.481949 0.709719
Si Si2 0.850163 0.383527 0.449230
Si Si3 0.110924 0.223462 0.960696
Si Si4 0.280094 0.754321 0.808650
Si Si5 0.111205 0.238716 0.248483
Si Si6 0.536582 0.746418 0.427940
Si Si7 0.453126 0.101827 0.196489
Si Si8 0.572526 0.445756 0.167882
O O1 0.739655 0.650942 0.737586
O O2 0.599064 0.673798 0.499780
O O3 0.571766 0.360611 0.680638
O O4 0.461817 0.256958 0.941000
O O5 0.869388 0.583947 0.277036
O O6 0.798957 0.280316 0.356736
O O7 0.000000 0.500000 0.500000
O O8 0.719334 0.172972 0.665067
O O9 0.258630 0.324688 0.973911
O O10 0.044447 0.136302 0.146946
O O11 0.000000 0.000000 0.000000
O O12 0.431921 0.871623 0.778762
O O13 0.329565 0.953983 0.746344
O O14 0.159350 0.479128 0.066000
O O15 0.000000 0.000000 0.500000
O O16 0.440573 0.595426 0.638881
O O17 0.492756 0.198332 0.285299
O O18 0.500000 0.500000 0.000000
#
# Coordination Sequence:
#
# PCOD8015257 Si02
#       8
#     2   2   2   2   2   2   2   2
#     4  10  23  41  60  95 124 162 215 262 305 393
#     4  11  23  38  62  96 131 162 203 268 321 371
#     4  11  25  41  60  99 128 162 220 260 315 388
#     4  10  21  42  67  90 125 168 213 264 312 380
#     4  10  22  44  62  84 132 173 203 256 323 374
#     4  11  22  37  66  94 122 157 216 264 317 366
#     4  11  20  42  65  90 127 161 217 259 312 382
#     4  12  21  38  71  94 121 172 212 267 319 372
#
# _framework density 20.252775
#
# number of rings (size 3 to 8) (size 9 to 14) (size 15 to 20)
#    0.000    1.250    6.250    1.125    3.500    3.000 
#    9.000    0.625    0.000    0.000    0.000    0.000 
#    0.000    0.000    0.000    0.000    0.000    0.000 
#
# Total GULP energy -198229.534285 kJ/mol
# GULP energy per Si atom -12389.345893 kJ/mol
# Density = 2.020668 g / cm^3
# Si number density = 20.252775 Si / 1000 Ang^3
#
#
#
# Elastic Constant Matrix: (Units=GPa)
#
#
# Indices 1 2 3 4 5 6 
#
# 1 76.2443 57.8317 43.3513 -6.8501 7.4230 -5.6841
# 2 57.8317 141.2947 59.9447 -12.4890 4.1442 -19.0197
# 3 43.3513 59.9447 144.4208 -22.0757 -11.0747 -2.2132
# 4 -6.8501 -12.4890 -22.0757 30.7197 0.0755 1.8912
# 5 7.4230 4.1442 -11.0747 0.0755 29.2458 1.3998
# 6 -5.6841 -19.0197 -2.2132 1.8912 1.3998 48.4276
#
#
#
# Elastic Compliance Matrix: (Units=1/GPa)
#
#
# Indices 1 2 3 4 5 6 
#
# 1 0.021113 -0.006837 -0.004111 -0.000999 -0.005935 -0.000184
# 2 -0.006837 0.011605 -0.002626 0.001086 -0.001080 0.003624
# 3 -0.004111 -0.002626 0.010506 0.005639 0.005447 -0.001411
# 4 -0.000999 0.001086 0.005639 0.036876 0.002185 -0.000936
# 5 -0.005935 -0.001080 0.005447 0.002185 0.038008 -0.002056
# 6 -0.000184 0.003624 -0.001411 -0.000936 -0.002056 0.022083
#
#
# Mechanical properties :
#
#
# Convention : Reuss Voigt Hill
#
# Bulk Modulus (GPa) = 62.19795 76.02392 69.11093
# Shear Modulus (GPa) = 28.95257 35.06742 32.00999
#
# Velocity S-wave (km/s) = 3.78505 4.16563 3.97989
# Velocity P-wave (km/s) = 7.06256 7.79459 7.43758
#
# Compressibility (1/GPa) = 0.01607770
#
# Stress axis : x y z
#
# Youngs Moduli (GPa) = 47.36448 86.16772 95.18226
#
# Poissons Ratio (x) = 0.58909 0.39126
# Poissons Ratio (y) = 0.32381 0.24996
# Poissons Ratio (z) = 0.19470 0.22629
#
# Static dielectric constant tensor:
#      x y z
#    x 3.479440 -0.162330 -0.239680 
#    y -0.162330 3.847060 -0.451210 
#    z -0.239680 -0.451210 5.368230 
# 
# 
# High freq. dielectric constant tensor:
#      x y z
#    x 1.766900 -0.009210 0.013050 
#    y -0.009210 1.796970 0.003490 
#    z 0.013050 0.003490 1.803560 
# 
# From -- ./inp_files/306544.got.cif
#   From: 2010.06.25/outbox.cif.g09.slc.cpg/sg2_154_cif.got.tgz:306544.got - 2010.06.27 13:26:56.
