data_PCOD8015374
_publ_section_title
;
Structure prediction by ZEFSAII (Michael W. Deem and Ramdas Pophale) SiO2 
 PCOD8015374
Probable space group: P -1
;
_chemical_formula_sum "Si O2"
_cell_formula_units_Z 16
_cell_length_a 20.597708
_cell_length_b 8.859052
_cell_length_c 21.384758
_cell_angle_alpha 36.033809
_cell_angle_beta 19.257301
_cell_angle_gamma 37.927051
_cell_volume 750.587296
_symmetry_space_group_name_H-M "P -1"
_symmetry_group_IT_number 2
_symmetry_cell_setting 'triclinic'
loop_
_space_group_symop_operation_xyz
x,y,z
-x,-y,-z
loop_
_atom_site_type_symbol
_atom_site_label
_atom_site_fract_x
_atom_site_fract_y
_atom_site_fract_z
Si Si1 0.157027 0.311223 0.736743
Si Si2 0.674227 0.404463 0.921829
Si Si3 0.855189 0.927734 0.601169
Si Si4 0.975092 0.795634 0.404646
Si Si5 0.479703 0.693179 0.509912
Si Si6 0.400434 0.206904 0.335198
Si Si7 0.358133 0.547161 0.370582
Si Si8 0.751544 0.295626 0.163917
O O1 0.322379 0.399184 0.601392
O O2 0.175394 0.446665 0.607801
O O3 0.204299 0.006263 0.788115
O O4 0.946663 0.416135 0.924649
O O5 0.782575 0.645163 0.767668
O O6 0.830374 0.180283 0.822252
O O7 0.500000 0.500000 0.000000
O O8 0.589259 0.258107 0.105656
O O9 0.961675 0.959384 0.426288
O O10 0.660620 0.142206 0.710600
O O11 0.000000 0.000000 0.500000
O O12 0.774724 0.874153 0.521255
O O13 0.000000 0.500000 0.500000
O O14 0.500000 0.500000 0.500000
O O15 0.293596 0.661154 0.735610
O O16 0.467932 0.984815 0.398437
O O17 0.328853 0.468416 0.351381
O O18 0.570542 0.421497 0.244319
#
# Coordination Sequence:
#
# PCOD8015374 Si02
#       8
#     2   2   2   2   2   2   2   2
#     4  10  21  43  66  95 130 169 217 266 328 395
#     4  11  24  45  69  92 133 180 222 268 336 399
#     4  11  25  45  68  99 135 173 225 287 329 387
#     4  10  22  44  64  90 131 171 215 277 329 387
#     4  11  24  41  65  96 136 170 215 273 326 393
#     4  12  23  42  70  95 128 183 221 266 338 398
#     4  11  22  41  66  98 133 171 218 273 333 382
#     4  10  21  42  68  93 132 170 216 267 325 396
#
# _framework density 21.316641000000001
#
# number of rings (size 3 to 8) (size 9 to 14) (size 15 to 20)
#    0.000    1.250    5.000    2.250    3.500    4.000 
#    4.500    0.000    0.000    0.000    0.000    0.000 
#    0.000    0.000    0.000    0.000    0.000    0.000 
#
# Total GULP energy -198351.708402 kJ/mol
# GULP energy per Si atom -12396.981775 kJ/mol
# Density = 2.126812 g / cm^3
# Si number density = 21.316641 Si / 1000 Ang^3
#
#
#
# Elastic Constant Matrix: (Units=GPa)
#
#
# Indices 1 2 3 4 5 6 
#
# 1 121.9361 25.6882 55.9093 19.7919 12.7786 23.2326
# 2 25.6882 71.8624 25.2660 24.2137 4.4913 16.9127
# 3 55.9093 25.2660 166.5227 34.5304 19.9295 7.9941
# 4 19.7919 24.2137 34.5304 22.8738 7.2545 12.3625
# 5 12.7786 4.4913 19.9295 7.2545 35.0427 4.0417
# 6 23.2326 16.9127 7.9941 12.3625 4.0417 37.5654
#
#
#
# Elastic Compliance Matrix: (Units=1/GPa)
#
#
# Indices 1 2 3 4 5 6 
#
# 1 0.011107 -0.001545 -0.003063 0.000025 -0.001496 -0.005369
# 2 -0.001545 0.022596 0.002304 -0.025910 0.001880 -0.001384
# 3 -0.003063 0.002304 0.010242 -0.017053 -0.001993 0.004504
# 4 0.000025 -0.025910 -0.017053 0.110132 -0.007464 -0.020162
# 5 -0.001496 0.001880 -0.001993 -0.007464 0.031570 -0.000438
# 6 -0.005369 -0.001384 0.004504 -0.020162 -0.000438 0.036288
#
#
# Mechanical properties :
#
#
# Convention : Reuss Voigt Hill
#
# Bulk Modulus (GPa) = 25.42066 63.78314 44.60190
# Shear Modulus (GPa) = 20.86347 35.99356 28.42851
#
# Velocity S-wave (km/s) = 3.13188 4.11362 3.65585
# Velocity P-wave (km/s) = 5.00294 7.24908 6.22810
#
# Compressibility (1/GPa) = 0.03933808
#
# Stress axis : x y z
#
# Youngs Moduli (GPa) = 90.03716 44.25587 97.63341
#
# Poissons Ratio (x) = 0.06836 0.29906
# Poissons Ratio (y) = 0.13908 -0.22499
# Poissons Ratio (z) = 0.27579 -0.10198
#
# Static dielectric constant tensor:
#      x y z
#    x 3.748980 0.778080 0.453520 
#    y 0.778080 1.743080 -0.585420 
#    z 0.453520 -0.585420 3.712850 
# 
# 
# High freq. dielectric constant tensor:
#      x y z
#    x 1.843210 0.003350 0.014120 
#    y 0.003350 1.834150 0.018930 
#    z 0.014120 0.018930 1.832990 
# 
# From -- ./inp_files/601101.got.cif
#   From: 2010.06.25/outbox.cif.g09.slc.cpg/sg2_301_cif.got.tgz:601101.got - 2010.06.27 13:26:56.
