data_PCOD8015093
_publ_section_title
;
Structure prediction by ZEFSAII (Michael W. Deem and Ramdas Pophale) SiO2 
 PCOD8015093
Probable space group: P -1
;
_chemical_formula_sum "Si O2"
_cell_formula_units_Z 12
_cell_length_a 8.535740
_cell_length_b 10.203368
_cell_length_c 8.580331
_cell_angle_alpha 55.768580
_cell_angle_beta 100.078069
_cell_angle_gamma 67.576668
_cell_volume 491.356914
_symmetry_space_group_name_H-M "P -1"
_symmetry_group_IT_number 2
_symmetry_cell_setting 'triclinic'
loop_
_space_group_symop_operation_xyz
x,y,z
-x,-y,-z
loop_
_atom_site_type_symbol
_atom_site_label
_atom_site_fract_x
_atom_site_fract_y
_atom_site_fract_z
Si Si1 0.938804 0.835924 0.214634
Si Si2 0.680914 0.511147 0.006027
Si Si3 0.603707 0.828378 0.254108
Si Si4 0.562025 0.193669 0.464725
Si Si5 0.984427 0.878790 0.845529
Si Si6 0.666269 0.472974 0.368497
O O1 0.829143 0.754059 0.335441
O O2 0.167389 0.668387 0.384320
O O3 0.890952 0.872766 0.996873
O O4 0.893189 0.030890 0.162105
O O5 0.756086 0.491048 0.209491
O O6 0.867053 0.336328 0.057363
O O7 0.500000 0.500000 0.000000
O O8 0.580680 0.729099 0.765708
O O9 0.527679 0.882958 0.381428
O O10 0.547666 0.684462 0.285933
O O11 0.500000 0.000000 0.000000
O O12 0.530895 0.396646 0.376271
O O13 0.797350 0.022019 0.599806
#
# Coordination Sequence:
#
# PCOD8015093 Si02
#       6
#     2   2   2   2   2   2
#     4  10  22  39  68  90 127 161 212 264 305 369
#     4  10  23  40  67  91 128 166 212 252 309 383
#     4  12  23  39  64  97 126 158 214 262 312 365
#     4  10  22  42  67  93 125 167 208 260 307 375
#     4  10  21  42  65  97 121 167 210 258 314 365
#     4  10  23  41  64  92 124 169 208 255 316 371
#
# _framework density 24.422163999999999
#
# number of rings (size 3 to 8) (size 9 to 14) (size 15 to 20)
#    0.000    1.667    1.667    2.000    4.667    6.000 
#    0.000    4.167    0.000    0.000    0.000    0.000 
#    0.000    0.000    0.000    0.000    0.000    0.000 
#
# Total GULP energy -148663.299487 kJ/mol
# GULP energy per Si atom -12388.608291 kJ/mol
# Density = 2.436658 g / cm^3
# Si number density = 24.422164 Si / 1000 Ang^3
#
#
#
# Elastic Constant Matrix: (Units=GPa)
#
#
# Indices 1 2 3 4 5 6 
#
# 1 72.5635 5.5057 9.7189 1.6140 -17.1929 -14.1831
# 2 5.5057 50.2554 26.1524 -1.1381 7.6160 -20.6508
# 3 9.7189 26.1524 163.8197 2.6911 -3.5029 -15.3405
# 4 1.6140 -1.1381 2.6911 26.3590 -13.1195 -2.7371
# 5 -17.1929 7.6160 -3.5029 -13.1195 30.6668 3.7504
# 6 -14.1831 -20.6508 -15.3405 -2.7371 3.7504 28.1734
#
#
#
# Elastic Compliance Matrix: (Units=1/GPa)
#
#
# Indices 1 2 3 4 5 6 
#
# 1 0.017935 -0.000359 -0.000130 0.005427 0.011511 0.007690
# 2 -0.000359 0.033383 -0.003300 -0.002012 -0.012662 0.023982
# 3 -0.000130 -0.003300 0.006764 -0.000032 0.001382 0.001012
# 4 0.005427 -0.002012 -0.000032 0.050065 0.024611 0.002828
# 5 0.011511 -0.012662 0.001382 0.024611 0.053811 -0.007506
# 6 0.007690 0.023982 0.001012 0.002828 -0.007506 0.058769
#
#
# Mechanical properties :
#
#
# Convention : Reuss Voigt Hill
#
# Bulk Modulus (GPa) = 19.80000 41.04361 30.42180
# Shear Modulus (GPa) = 20.39659 33.39063 26.89361
#
# Velocity S-wave (km/s) = 2.89306 3.70161 3.32203
# Velocity P-wave (km/s) = 4.39144 5.92551 5.21519
#
# Compressibility (1/GPa) = 0.05050504
#
# Stress axis : x y z
#
# Youngs Moduli (GPa) = 55.75581 29.95543 147.85068
#
# Poissons Ratio (x) = 0.01075 0.01917
# Poissons Ratio (y) = 0.02001 0.48790
# Poissons Ratio (z) = 0.00723 0.09885
#
# Static dielectric constant tensor:
#      x y z
#    x -0.941230 -1.050370 0.170430 
#    y -1.050370 3.996520 0.448160 
#    z 0.170430 0.448160 5.335030 
# 
# 
# High freq. dielectric constant tensor:
#      x y z
#    x 1.950940 -0.009540 -0.003380 
#    y -0.009540 1.937890 0.002130 
#    z -0.003380 0.002130 2.002000 
# 
# From -- ./inp_files/146466.got.cif
#   From: 2010.06.25/outbox.cif.g09.slc.cpg/sg2_74_cif.got.tgz:146466.got - 2010.06.27 13:26:56.
