data_PCOD8015301
_publ_section_title
;
Structure prediction by ZEFSAII (Michael W. Deem and Ramdas Pophale) SiO2 
 PCOD8015301
Probable space group: P -1
;
_chemical_formula_sum "Si O2"
_cell_formula_units_Z 16
_cell_length_a 11.843756
_cell_length_b 17.612467
_cell_length_c 19.107695
_cell_angle_alpha 155.844818
_cell_angle_beta 27.590842
_cell_angle_gamma 138.184732
_cell_volume 711.933757
_symmetry_space_group_name_H-M "P -1"
_symmetry_group_IT_number 2
_symmetry_cell_setting 'triclinic'
loop_
_space_group_symop_operation_xyz
x,y,z
-x,-y,-z
loop_
_atom_site_type_symbol
_atom_site_label
_atom_site_fract_x
_atom_site_fract_y
_atom_site_fract_z
Si Si1 0.754806 0.274383 0.360346
Si Si2 0.967799 0.532248 0.724078
Si Si3 0.761054 0.906519 0.820522
Si Si4 0.209029 0.558325 0.891493
Si Si5 0.004347 0.012839 0.367261
Si Si6 0.008667 0.396309 0.740000
Si Si7 0.543855 0.286213 0.923041
Si Si8 0.246430 0.101918 0.024052
O O1 0.902142 0.309775 0.239557
O O2 0.498626 0.453889 0.672118
O O3 0.949160 0.242554 0.292857
O O4 0.682575 0.080336 0.221985
O O5 0.158550 0.327680 0.417212
O O6 0.944696 0.530537 0.818772
O O7 0.684601 0.579441 0.886770
O O8 0.722614 0.978991 0.982296
O O9 0.979523 0.970990 0.712876
O O10 0.500000 0.000000 0.000000
O O11 0.191073 0.480362 0.756981
O O12 0.000000 0.500000 0.000000
O O13 0.149753 0.791409 0.125553
O O14 0.146488 0.163297 0.448094
O O15 0.707580 0.092457 0.623944
O O16 0.736296 0.410111 0.940159
O O17 0.441340 0.219606 0.995098
#
# Coordination Sequence:
#
# PCOD8015301 Si02
#       8
#     2   2   2   2   2   2   2   2
#     4  10  24  42  65  95 136 174 223 273 336 403
#     4  10  21  42  67  95 131 178 222 271 344 393
#     4  11  24  39  65 101 131 171 226 273 334 403
#     4  12  25  42  66 100 132 177 233 267 334 406
#     4   9  23  44  63 100 133 172 220 276 333 393
#     4   9  23  39  67  98 131 178 211 286 332 385
#     4   9  20  44  69  92 136 177 221 273 337 400
#     4  10  23  43  68  95 134 180 215 282 335 391
#
# _framework density 22.474
#
# number of rings (size 3 to 8) (size 9 to 14) (size 15 to 20)
#    0.750    1.250    0.000    1.875    5.250    6.000 
#    0.000    0.625    0.000    0.000    0.000    0.000 
#    0.000    0.000    0.000    0.000    0.000    0.000 
#
# Total GULP energy -198305.369879 kJ/mol
# GULP energy per Si atom -12394.085617 kJ/mol
# Density = 2.242285 g / cm^3
# Si number density = 22.474000 Si / 1000 Ang^3
#
#
#
# Elastic Constant Matrix: (Units=GPa)
#
#
# Indices 1 2 3 4 5 6 
#
# 1 77.3584 26.8990 42.7437 -2.2689 -11.8256 -11.9568
# 2 26.8990 76.6180 22.2344 -3.9778 -11.0716 -14.1428
# 3 42.7437 22.2344 135.1296 6.2950 -26.7965 -4.0510
# 4 -2.2689 -3.9778 6.2950 41.5867 -0.3038 2.9743
# 5 -11.8256 -11.0716 -26.7965 -0.3038 28.2608 -0.2733
# 6 -11.9568 -14.1428 -4.0510 2.9743 -0.2733 31.9599
#
#
#
# Elastic Compliance Matrix: (Units=1/GPa)
#
#
# Indices 1 2 3 4 5 6 
#
# 1 0.017721 -0.003816 -0.004571 0.000999 0.001639 0.004283
# 2 -0.003816 0.016261 -0.000478 0.001048 0.004386 0.005648
# 3 -0.004571 -0.000478 0.010564 -0.001812 0.007894 -0.000347
# 4 0.000999 0.001048 -0.001812 0.024591 -0.000641 -0.001686
# 5 0.001639 0.004386 0.007894 -0.000641 0.045305 0.004002
# 6 0.004283 0.005648 -0.000347 -0.001686 0.004002 0.035538
#
#
# Mechanical properties :
#
#
# Convention : Reuss Voigt Hill
#
# Bulk Modulus (GPa) = 37.29081 52.54000 44.91541
# Shear Modulus (GPa) = 28.30471 33.51009 30.90740
#
# Velocity S-wave (km/s) = 3.55271 3.86561 3.71246
# Velocity P-wave (km/s) = 5.78428 6.58429 6.19721
#
# Compressibility (1/GPa) = 0.02681626
#
# Stress axis : x y z
#
# Youngs Moduli (GPa) = 56.43020 61.49721 94.65900
#
# Poissons Ratio (x) = 0.23466 0.43267
# Poissons Ratio (y) = 0.21533 0.04528
# Poissons Ratio (z) = 0.25793 0.02942
#
# Static dielectric constant tensor:
#      x y z
#    x 3.875530 -0.100180 -0.067620 
#    y -0.100180 4.190590 -0.045870 
#    z -0.067620 -0.045870 4.023300 
# 
# 
# High freq. dielectric constant tensor:
#      x y z
#    x 1.862800 -0.012530 -0.008510 
#    y -0.012530 1.895380 -0.002280 
#    z -0.008510 -0.002280 1.888470 
# 
# From -- ./inp_files/569962.got.cif
#   From: 2010.06.25/outbox.cif.g09.slc.cpg/sg2_285_cif.got.tgz:569962.got - 2010.06.27 13:26:56.
