data_PCOD8015195
_publ_section_title
;
Structure prediction by ZEFSAII (Michael W. Deem and Ramdas Pophale) SiO2 
 PCOD8015195
Probable space group: P -1
;
_chemical_formula_sum "Si O2"
_cell_formula_units_Z 16
_cell_length_a 9.108484
_cell_length_b 14.396186
_cell_length_c 10.959684
_cell_angle_alpha 137.069893
_cell_angle_beta 110.811333
_cell_angle_gamma 51.839125
_cell_volume 756.873939
_symmetry_space_group_name_H-M "P -1"
_symmetry_group_IT_number 2
_symmetry_cell_setting 'triclinic'
loop_
_space_group_symop_operation_xyz
x,y,z
-x,-y,-z
loop_
_atom_site_type_symbol
_atom_site_label
_atom_site_fract_x
_atom_site_fract_y
_atom_site_fract_z
Si Si1 0.040477 0.353381 0.677520
Si Si2 0.517477 0.391359 0.608820
Si Si3 0.573322 0.689030 0.239580
Si Si4 0.185040 0.995365 0.434099
Si Si5 0.173888 0.967022 0.684579
Si Si6 0.664482 0.603752 0.913978
Si Si7 0.657921 0.847084 0.978048
Si Si8 0.837340 0.528357 0.563506
O O1 0.228676 0.345093 0.691296
O O2 0.894611 0.499507 0.868100
O O3 0.927183 0.379161 0.543679
O O4 0.111783 0.183457 0.598023
O O5 0.494878 0.375745 0.733185
O O6 0.587867 0.511753 0.726614
O O7 0.318227 0.474927 0.562852
O O8 0.659657 0.221272 0.412288
O O9 0.402955 0.878965 0.341388
O O10 0.610978 0.600978 0.035514
O O11 0.040422 0.976175 0.287791
O O12 0.182085 0.947430 0.524124
O O13 0.208055 0.101000 0.875486
O O14 0.580073 0.787076 0.008015
O O15 0.770523 0.696841 0.774900
O O16 0.500000 0.000000 0.000000
O O17 0.000000 0.500000 0.500000
#
# Coordination Sequence:
#
# PCOD8015195 Si02
#       8
#     2   2   2   2   2   2   2   2
#     4  11  22  41  66  98 132 174 213 272 324 395
#     4  11  22  44  70  93 136 175 215 271 323 394
#     4  11  23  40  67  99 136 171 213 277 326 383
#     4  10  22  39  66  97 130 174 216 267 325 384
#     4  10  21  42  66  95 133 170 218 265 326 388
#     4  11  25  41  65 105 130 169 222 269 331 388
#     4  11  24  42  69  93 132 176 215 271 324 390
#     4  11  24  42  65  97 129 172 216 264 329 385
#
# _framework density 21.139583999999999
#
# number of rings (size 3 to 8) (size 9 to 14) (size 15 to 20)
#    0.000    1.250    3.750    1.875    0.000    7.000 
#    0.000    0.000    0.000    3.000    0.000    0.000 
#    0.000    0.000    0.000    0.000    0.000    0.000 
#
# Total GULP energy -198227.784392 kJ/mol
# GULP energy per Si atom -12389.236525 kJ/mol
# Density = 2.109147 g / cm^3
# Si number density = 21.139584 Si / 1000 Ang^3
#
#
#
# Elastic Constant Matrix: (Units=GPa)
#
#
# Indices 1 2 3 4 5 6 
#
# 1 83.9258 37.3537 33.8537 3.2550 2.3482 -23.6514
# 2 37.3537 99.2427 29.8358 6.8935 2.0425 -24.5187
# 3 33.8537 29.8358 69.5973 -5.8116 7.8541 -5.5042
# 4 3.2550 6.8935 -5.8116 32.2241 1.0394 0.9236
# 5 2.3482 2.0425 7.8541 1.0394 45.3989 1.9155
# 6 -23.6514 -24.5187 -5.5042 0.9236 1.9155 33.3390
#
#
#
# Elastic Compliance Matrix: (Units=1/GPa)
#
#
# Indices 1 2 3 4 5 6 
#
# 1 0.019180 -0.001893 -0.007931 -0.003280 0.000077 0.010992
# 2 -0.001893 0.014771 -0.005065 -0.004135 0.000033 0.008797
# 3 -0.007931 -0.005065 0.020740 0.005887 -0.002835 -0.005928
# 4 -0.003280 -0.004135 0.005887 0.033500 -0.001208 -0.005255
# 5 0.000077 0.000033 -0.002835 -0.001208 0.022609 -0.001655
# 6 0.010992 0.008797 -0.005928 -0.005255 -0.001655 0.043524
#
#
# Mechanical properties :
#
#
# Convention : Reuss Voigt Hill
#
# Bulk Modulus (GPa) = 40.13932 50.53914 45.33923
# Shear Modulus (GPa) = 25.98649 32.30723 29.14686
#
# Velocity S-wave (km/s) = 3.50991 3.91357 3.71722
# Velocity P-wave (km/s) = 5.95441 6.66187 6.31805
#
# Compressibility (1/GPa) = 0.02491323
#
# Stress axis : x y z
#
# Youngs Moduli (GPa) = 52.13855 67.69839 48.21524
#
# Poissons Ratio (x) = 0.12813 0.38241
# Poissons Ratio (y) = 0.09868 0.24421
# Poissons Ratio (z) = 0.41353 0.34289
#
# Static dielectric constant tensor:
#      x y z
#    x 4.014250 -0.285820 -0.148110 
#    y -0.285820 4.180220 0.018550 
#    z -0.148110 0.018550 3.424070 
# 
# 
# High freq. dielectric constant tensor:
#      x y z
#    x 1.833440 -0.009800 0.000770 
#    y -0.009800 1.840760 0.002440 
#    z 0.000770 0.002440 1.812160 
# 
# From -- ./inp_files/176044.got.cif
#   From: 2010.06.25/outbox.cif.g09.slc.cpg/sg2_89_cif.got.tgz:176044.got - 2010.06.27 13:26:56.
