data_PCOD8015128
_publ_section_title
;
Structure prediction by ZEFSAII (Michael W. Deem and Ramdas Pophale) SiO2 
 PCOD8015128
Probable space group: P -1
;
_chemical_formula_sum "Si O2"
_cell_formula_units_Z 16
_cell_length_a 18.702707
_cell_length_b 31.677567
_cell_length_c 25.005489
_cell_angle_alpha 9.857874
_cell_angle_beta 17.382445
_cell_angle_gamma 17.938835
_cell_volume 739.522679
_symmetry_space_group_name_H-M "P -1"
_symmetry_group_IT_number 2
_symmetry_cell_setting 'triclinic'
loop_
_space_group_symop_operation_xyz
x,y,z
-x,-y,-z
loop_
_atom_site_type_symbol
_atom_site_label
_atom_site_fract_x
_atom_site_fract_y
_atom_site_fract_z
Si Si1 0.926760 0.924501 0.589239
Si Si2 0.732454 0.165183 0.047556
Si Si3 0.565166 0.238109 0.628571
Si Si4 0.134652 0.129174 0.894103
Si Si5 0.459829 0.602553 0.756628
Si Si6 0.136905 0.450896 0.593164
Si Si7 0.511371 0.630470 0.271441
Si Si8 0.343456 0.373373 0.230386
O O1 0.154075 0.808515 0.533344
O O2 0.782958 0.181289 0.343979
O O3 0.761507 0.723703 0.968638
O O4 0.000000 0.000000 0.500000
O O5 0.620510 0.926388 0.410189
O O6 0.513656 0.415884 0.900046
O O7 0.871387 0.257852 0.782378
O O8 0.901072 0.107813 0.051953
O O9 0.399129 0.310487 0.604141
O O10 0.503087 0.450651 0.452130
O O11 0.500000 0.000000 0.000000
O O12 0.310367 0.264896 0.563640
O O13 0.054893 0.294553 0.797762
O O14 0.272362 0.854018 0.158676
O O15 0.435270 0.409616 0.061107
O O16 0.938449 0.480201 0.745318
O O17 0.500000 0.500000 0.500000
O O18 0.500000 0.500000 0.000000
#
# Coordination Sequence:
#
# PCOD8015128 Si02
#       8
#     2   2   2   2   2   2   2   2
#     4  11  23  42  66  93 126 167 214 268 321 376
#     4  11  22  40  63  89 124 168 203 248 316 384
#     4  12  24  43  65  94 129 169 217 268 318 379
#     4  10  21  42  66  89 123 166 208 253 315 384
#     4  10  22  40  61  88 121 159 204 256 311 373
#     4  11  23  41  65  92 123 163 207 261 318 378
#     4  11  24  42  66  96 129 170 216 263 321 383
#     4  12  24  38  59  93 126 158 205 259 309 373
#
# _framework density 21.635577000000001
#
# number of rings (size 3 to 8) (size 9 to 14) (size 15 to 20)
#    0.000    1.000    0.000    9.375    0.000    3.000 
#    0.000    6.250    0.000    0.000    0.000    0.000 
#    0.000    0.000    0.000    0.000    0.000    0.000 
#
# Total GULP energy -198388.158822 kJ/mol
# GULP energy per Si atom -12399.259926 kJ/mol
# Density = 2.158633 g / cm^3
# Si number density = 21.635577 Si / 1000 Ang^3
#
#
#
# Elastic Constant Matrix: (Units=GPa)
#
#
# Indices 1 2 3 4 5 6 
#
# 1 84.8804 10.3904 46.5069 5.1834 1.5192 -1.4016
# 2 10.3904 98.3893 36.8503 -0.7734 10.5157 -0.5852
# 3 46.5069 36.8503 156.5359 -9.6452 0.4597 -0.8230
# 4 5.1834 -0.7734 -9.6452 28.6633 4.4985 3.4994
# 5 1.5192 10.5157 0.4597 4.4985 40.0799 2.8517
# 6 -1.4016 -0.5852 -0.8230 3.4994 2.8517 27.6198
#
#
#
# Elastic Compliance Matrix: (Units=1/GPa)
#
#
# Indices 1 2 3 4 5 6 
#
# 1 0.014584 0.000185 -0.004635 -0.004311 -0.000147 0.001167
# 2 0.000185 0.011502 -0.002766 -0.000245 -0.003002 0.000512
# 3 -0.004635 -0.002766 0.008639 0.003670 0.000429 -0.000546
# 4 -0.004311 -0.000245 0.003670 0.038041 -0.003761 -0.004546
# 5 -0.000147 -0.003002 0.000429 -0.003761 0.026324 -0.002300
# 6 0.001167 0.000512 -0.000546 -0.004546 -0.002300 0.037073
#
#
# Mechanical properties :
#
#
# Convention : Reuss Voigt Hill
#
# Bulk Modulus (GPa) = 49.28334 58.58898 53.93616
# Shear Modulus (GPa) = 31.77422 35.67645 33.72533
#
# Velocity S-wave (km/s) = 3.83640 4.06516 3.95244
# Velocity P-wave (km/s) = 6.51554 7.01233 6.76849
#
# Compressibility (1/GPa) = 0.02029083
#
# Stress axis : x y z
#
# Youngs Moduli (GPa) = 68.56997 86.93980 115.75834
#
# Poissons Ratio (x) = -0.01607 0.53659
# Poissons Ratio (y) = -0.01267 0.32022
# Poissons Ratio (z) = 0.31785 0.24050
#
# Static dielectric constant tensor:
#      x y z
#    x 3.621960 0.080680 0.132270 
#    y 0.080680 4.097430 0.255940 
#    z 0.132270 0.255940 3.988340 
# 
# 
# High freq. dielectric constant tensor:
#      x y z
#    x 1.846820 0.009260 0.005650 
#    y 0.009260 1.863110 -0.004150 
#    z 0.005650 -0.004150 1.862370 
# 
# From -- ./inp_files/271320.got.cif
#   From: 2010.06.25/outbox.cif.g09.slc.cpg/sg2_136_cif.got.tgz:271320.got - 2010.06.27 13:26:56.
