data_PCOD8015389
_publ_section_title
;
Structure prediction by ZEFSAII (Michael W. Deem and Ramdas Pophale) SiO2 
 PCOD8015389
Probable space group: P -1
;
_chemical_formula_sum "Si O2"
_cell_formula_units_Z 16
_cell_length_a 8.432531
_cell_length_b 8.464603
_cell_length_c 12.351188
_cell_angle_alpha 88.313061
_cell_angle_beta 80.072443
_cell_angle_gamma 59.001824
_cell_volume 742.539433
_symmetry_space_group_name_H-M "P -1"
_symmetry_group_IT_number 2
_symmetry_cell_setting 'triclinic'
loop_
_space_group_symop_operation_xyz
x,y,z
-x,-y,-z
loop_
_atom_site_type_symbol
_atom_site_label
_atom_site_fract_x
_atom_site_fract_y
_atom_site_fract_z
Si Si1 0.370225 0.450878 0.327202
Si Si2 0.725019 0.095638 0.227729
Si Si3 0.136562 0.536993 0.552833
Si Si4 0.466788 0.835485 0.978589
Si Si5 0.840621 0.597399 0.832442
Si Si6 0.052161 0.136752 0.274323
Si Si7 0.778502 0.716126 0.249514
Si Si8 0.403102 0.767702 0.214570
O O1 0.545841 0.243024 0.314810
O O2 0.303113 0.515903 0.456283
O O3 0.200457 0.458010 0.279627
O O4 0.439788 0.575257 0.258969
O O5 0.673562 0.108694 0.107175
O O6 0.894210 0.131089 0.222411
O O7 0.790201 0.894803 0.272842
O O8 0.032075 0.743809 0.609120
O O9 0.225545 0.387865 0.640677
O O10 0.000000 0.500000 0.500000
O O11 0.669319 0.649289 0.932837
O O12 0.371171 0.785194 0.088146
O O13 0.500000 0.000000 0.000000
O O14 0.857095 0.777440 0.815621
O O15 0.043007 0.421043 0.846075
O O16 0.219258 0.932278 0.292294
O O17 0.585280 0.784615 0.208209
#
# Coordination Sequence:
#
# PCOD8015389 Si02
#       8
#     2   2   2   2   2   2   2   2
#     4  11  23  45  67  97 136 173 224 280 324 397
#     4  11  25  43  69 100 141 171 226 277 328 397
#     4  11  24  45  72  95 133 180 221 273 344 391
#     4  11  22  46  70  98 134 184 217 271 340 392
#     4  10  21  42  68  95 139 171 221 279 324 395
#     4  11  23  42  67 101 135 173 223 281 326 397
#     4  11  23  42  67 102 133 178 223 276 333 394
#     4  12  25  43  70  99 139 176 225 274 332 397
#
# _framework density 21.547677
#
# number of rings (size 3 to 8) (size 9 to 14) (size 15 to 20)
#    0.000    1.000    5.000    3.000    0.000    6.000 
#    0.000    0.000    0.000    0.000    0.000    0.000 
#    0.000    0.000    0.000    0.000    0.000    0.000 
#
# Total GULP energy -198442.342504 kJ/mol
# GULP energy per Si atom -12402.646407 kJ/mol
# Density = 2.149863 g / cm^3
# Si number density = 21.547677 Si / 1000 Ang^3
#
#
#
# Elastic Constant Matrix: (Units=GPa)
#
#
# Indices 1 2 3 4 5 6 
#
# 1 111.6231 24.8784 22.1947 9.4394 16.3469 -0.7602
# 2 24.8784 118.7855 48.0574 17.7862 -4.5173 -6.1891
# 3 22.1947 48.0574 116.6528 13.6979 -11.8237 -0.0080
# 4 9.4394 17.7862 13.6979 27.5856 4.5076 -4.5055
# 5 16.3469 -4.5173 -11.8237 4.5076 30.8232 -3.2784
# 6 -0.7602 -6.1891 -0.0080 -4.5055 -3.2784 39.8092
#
#
#
# Elastic Compliance Matrix: (Units=1/GPa)
#
#
# Indices 1 2 3 4 5 6 
#
# 1 0.010744 -0.001645 -0.001965 -0.000661 -0.006668 -0.000675
# 2 -0.001645 0.011047 -0.003448 -0.004969 0.002033 0.001290
# 3 -0.001965 -0.003448 0.011347 -0.003706 0.005373 -0.000548
# 4 -0.000661 -0.004969 -0.003706 0.043359 -0.007770 0.003482
# 5 -0.006668 0.002033 0.005373 -0.007770 0.039749 0.002584
# 6 -0.000675 0.001290 -0.000548 0.003482 0.002584 0.025914
#
#
# Mechanical properties :
#
#
# Convention : Reuss Voigt Hill
#
# Bulk Modulus (GPa) = 52.57421 59.70249 56.13835
# Shear Modulus (GPa) = 30.74723 36.43899 33.59311
#
# Velocity S-wave (km/s) = 3.78158 4.11674 3.95272
# Velocity P-wave (km/s) = 6.59690 7.09677 6.85140
#
# Compressibility (1/GPa) = 0.01902073
#
# Stress axis : x y z
#
# Youngs Moduli (GPa) = 93.07693 90.52474 88.13213
#
# Poissons Ratio (x) = 0.14892 0.17315
# Poissons Ratio (y) = 0.15312 0.30391
# Poissons Ratio (z) = 0.18287 0.31216
#
# Static dielectric constant tensor:
#      x y z
#    x 3.926340 -0.069780 0.011720 
#    y -0.069780 3.948210 0.208170 
#    z 0.011720 0.208170 3.951940 
# 
# 
# High freq. dielectric constant tensor:
#      x y z
#    x 1.855640 -0.003290 -0.003420 
#    y -0.003290 1.852750 0.015540 
#    z -0.003420 0.015540 1.833490 
# 
# From -- ./inp_files/382272.got.cif
#   From: 2010.06.25/outbox.cif.g09.slc.cpg/sg2_192_cif.got.tgz:382272.got - 2010.06.27 13:26:56.
