data_PCOD8015099
_publ_section_title
;
Structure prediction by ZEFSAII (Michael W. Deem and Ramdas Pophale) SiO2 
 PCOD8015099
Probable space group: P -1
;
_chemical_formula_sum "Si O2"
_cell_formula_units_Z 14
_cell_length_a 8.695535
_cell_length_b 6.852153
_cell_length_c 11.699652
_cell_angle_alpha 115.614718
_cell_angle_beta 76.101155
_cell_angle_gamma 114.904070
_cell_volume 568.698303
_symmetry_space_group_name_H-M "P -1"
_symmetry_group_IT_number 2
_symmetry_cell_setting 'triclinic'
loop_
_space_group_symop_operation_xyz
x,y,z
-x,-y,-z
loop_
_atom_site_type_symbol
_atom_site_label
_atom_site_fract_x
_atom_site_fract_y
_atom_site_fract_z
Si Si1 0.162037 0.675711 0.894956
Si Si2 0.490318 0.690287 0.960817
Si Si3 0.692999 0.520176 0.723152
Si Si4 0.916027 0.198905 0.292295
Si Si5 0.413397 0.949738 0.233673
Si Si6 0.938009 0.171755 0.827467
Si Si7 0.392207 0.780104 0.535922
O O1 0.311996 0.605729 0.904770
O O2 0.196857 0.811356 0.803478
O O3 0.007753 0.434139 0.836801
O O4 0.102660 0.833091 0.031842
O O5 0.632439 0.717693 0.843079
O O6 0.500000 0.500000 0.000000
O O7 0.509134 0.927958 0.089710
O O8 0.618078 0.286924 0.751868
O O9 0.615427 0.451820 0.590593
O O10 0.895923 0.610908 0.703779
O O11 0.805596 0.242455 0.426387
O O12 0.924412 0.946632 0.247782
O O13 0.232372 0.971550 0.248221
O O14 0.522413 0.181692 0.343395
O O15 0.500000 0.000000 0.500000
#
# Coordination Sequence:
#
# PCOD8015099 Si02
#       7
#     2   2   2   2   2   2   2
#     4  10  22  41  64 104 139 172 216 273 331 397
#     4   9  20  37  72  95 131 177 214 264 337 389
#     4  10  21  42  65  98 134 172 222 276 323 391
#     4  12  24  40  68  98 130 175 228 274 326 393
#     4   9  19  42  65  96 133 176 217 268 328 398
#     4  10  22  39  67  99 140 172 215 273 338 387
#     4  10  24  43  68  92 136 178 223 275 336 393
#
# _framework density 24.617625
#
# number of rings (size 3 to 8) (size 9 to 14) (size 15 to 20)
#    0.000    2.000    1.429    0.857    8.000    2.286 
#    0.000   10.000    0.000    0.000    0.000    0.000 
#    0.000    0.000    0.000    0.000    0.000    0.000 
#
# Total GULP energy -173498.198394 kJ/mol
# GULP energy per Si atom -12392.728457 kJ/mol
# Density = 2.456159 g / cm^3
# Si number density = 24.617625 Si / 1000 Ang^3
#
#
#
# Elastic Constant Matrix: (Units=GPa)
#
#
# Indices 1 2 3 4 5 6 
#
# 1 129.5166 20.8706 71.7438 9.3637 -4.2160 10.9047
# 2 20.8706 26.4512 38.4927 11.6658 -3.2934 12.5227
# 3 71.7438 38.4927 169.1619 13.4243 -5.3324 13.6098
# 4 9.3637 11.6658 13.4243 28.2279 13.2433 -4.8182
# 5 -4.2160 -3.2934 -5.3324 13.2433 44.5525 0.5862
# 6 10.9047 12.5227 13.6098 -4.8182 0.5862 35.8028
#
#
#
# Elastic Compliance Matrix: (Units=1/GPa)
#
#
# Indices 1 2 3 4 5 6 
#
# 1 0.010312 -0.000470 -0.003909 -0.002219 0.001157 -0.001808
# 2 -0.000470 0.105064 -0.015786 -0.052549 0.021954 -0.038036
# 3 -0.003909 -0.015786 0.010523 0.004099 -0.001539 0.003289
# 4 -0.002219 -0.052549 0.004099 0.072650 -0.025564 0.027693
# 5 0.001157 0.021954 -0.001539 -0.025564 0.031742 -0.011406
# 6 -0.001808 -0.038036 0.003289 0.027693 -0.011406 0.044449
#
#
# Mechanical properties :
#
#
# Convention : Reuss Voigt Hill
#
# Bulk Modulus (GPa) = 11.68619 65.26042 38.47331
# Shear Modulus (GPa) = 14.55214 34.65148 24.60181
#
# Velocity S-wave (km/s) = 2.43395 3.75585 3.16469
# Velocity P-wave (km/s) = 3.55755 6.73615 5.38665
#
# Compressibility (1/GPa) = 0.08557107
#
# Stress axis : x y z
#
# Youngs Moduli (GPa) = 96.97293 9.51797 95.03194
#
# Poissons Ratio (x) = 0.00447 0.37144
# Poissons Ratio (y) = 0.04556 1.50015
# Poissons Ratio (z) = 0.37902 0.15025
#
# Static dielectric constant tensor:
#      x y z
#    x 4.366870 0.116510 0.100160 
#    y 0.116510 4.132550 0.035740 
#    z 0.100160 0.035740 5.306400 
# 
# 
# High freq. dielectric constant tensor:
#      x y z
#    x 1.978340 0.011540 0.003630 
#    y 0.011540 1.975800 -0.002150 
#    z 0.003630 -0.002150 1.984620 
# 
# From -- ./inp_files/381413.got.cif
#   From: 2010.06.25/outbox.cif.g09.slc.cpg/sg2_191_cif.got.tgz:381413.got - 2010.06.27 13:26:56.
