data_PCOD8015845
_publ_section_title
;
Structure prediction by ZEFSAII (Michael W. Deem and Ramdas Pophale) SiO2 
 PCOD8015845
Probable space group: P -1
;
_chemical_formula_sum "Si O2"
_cell_formula_units_Z 14
_cell_length_a 20.214312
_cell_length_b 9.856128
_cell_length_c 12.457006
_cell_angle_alpha 134.174167
_cell_angle_beta 25.380444
_cell_angle_gamma 143.099557
_cell_volume 635.549713
_symmetry_space_group_name_H-M "P -1"
_symmetry_group_IT_number 2
_symmetry_cell_setting 'triclinic'
loop_
_space_group_symop_operation_xyz
x,y,z
-x,-y,-z
loop_
_atom_site_type_symbol
_atom_site_label
_atom_site_fract_x
_atom_site_fract_y
_atom_site_fract_z
Si Si1 0.282304 0.275279 0.503728
Si Si2 0.957811 0.786772 0.695481
Si Si3 0.466275 0.965874 0.694213
Si Si4 0.969223 0.515194 0.712025
Si Si5 0.536412 0.140404 0.131624
Si Si6 0.430332 0.265565 0.755450
Si Si7 0.905287 0.487663 0.020940
O O1 0.419883 0.253950 0.366864
O O2 0.410254 0.466323 0.333334
O O3 0.176867 0.357760 0.774862
O O4 0.129299 0.033671 0.540624
O O5 0.012265 0.736420 0.704648
O O6 0.927297 0.593268 0.551695
O O7 0.771920 0.782145 0.966871
O O8 0.534310 0.022507 0.749422
O O9 0.571857 0.873466 0.421902
O O10 0.248923 0.775508 0.910778
O O11 0.488825 0.186145 0.730251
O O12 0.749353 0.338830 0.935203
O O13 0.038056 0.574572 0.768373
O O14 0.500000 0.000000 0.000000
O O15 0.000000 0.500000 0.000000
#
# Coordination Sequence:
#
# PCOD8015845 Si02
#       7
#     2   2   2   2   2   2   2
#     4  11  23  39  70  95 123 172 219 259 318 378
#     4  11  22  41  66  98 128 169 212 267 323 382
#     4   9  22  41  68  92 131 175 204 271 329 364
#     4  10  23  41  65  94 135 168 206 270 329 369
#     4  11  21  43  66  94 133 167 215 267 316 388
#     4  10  21  43  66  94 131 166 218 267 315 385
#     4  10  22  43  65  94 129 170 217 265 315 386
#
# _framework density 22.028174
#
# number of rings (size 3 to 8) (size 9 to 14) (size 15 to 20)
#    0.000    1.714    2.857    0.857    2.000    2.286 
#   10.286    2.857    0.000    0.000    0.000    0.000 
#    0.000    0.000    0.000    0.000    0.000    0.000 
#
# Total GULP energy -173557.873332 kJ/mol
# GULP energy per Si atom -12396.990952 kJ/mol
# Density = 2.197804 g / cm^3
# Si number density = 22.028174 Si / 1000 Ang^3
#
#
#
# Elastic Constant Matrix: (Units=GPa)
#
#
# Indices 1 2 3 4 5 6 
#
# 1 182.8506 55.8792 65.4270 23.1430 21.5219 -24.7909
# 2 55.8792 113.0407 34.8823 -1.3300 -5.2049 -29.0638
# 3 65.4270 34.8823 121.4818 13.6631 -4.6598 -18.1754
# 4 23.1430 -1.3300 13.6631 20.4274 -0.7390 -0.6996
# 5 21.5219 -5.2049 -4.6598 -0.7390 27.1512 0.1365
# 6 -24.7909 -29.0638 -18.1754 -0.6996 0.1365 29.5665
#
#
#
# Elastic Compliance Matrix: (Units=1/GPa)
#
#
# Indices 1 2 3 4 5 6 
#
# 1 0.010942 -0.004259 -0.003477 -0.010634 -0.010389 0.002647
# 2 -0.004259 0.014119 -0.000809 0.006846 0.006080 0.009944
# 3 -0.003477 -0.000809 0.011370 -0.003449 0.004442 0.003177
# 4 -0.010634 0.006846 -0.003449 0.064052 0.010907 -0.002842
# 5 -0.010389 0.006080 0.004442 0.010907 0.047291 0.000036
# 6 0.002647 0.009944 0.003177 -0.002842 0.000036 0.047702
#
#
# Mechanical properties :
#
#
# Convention : Reuss Voigt Hill
#
# Bulk Modulus (GPa) = 51.70348 81.08332 66.39340
# Shear Modulus (GPa) = 22.82974 32.84132 27.83553
#
# Velocity S-wave (km/s) = 3.22279 3.86538 3.55862
# Velocity P-wave (km/s) = 6.11318 7.53726 6.86226
#
# Compressibility (1/GPa) = 0.01934106
#
# Stress axis : x y z
#
# Youngs Moduli (GPa) = 91.38910 70.82847 87.94949
#
# Poissons Ratio (x) = 0.30166 0.30577
# Poissons Ratio (y) = 0.38923 0.07117
# Poissons Ratio (z) = 0.31773 0.05732
#
# Static dielectric constant tensor:
#      x y z
#    x 4.503730 -0.251980 0.283850 
#    y -0.251980 4.045430 -0.040800 
#    z 0.283850 -0.040800 4.230840 
# 
# 
# High freq. dielectric constant tensor:
#      x y z
#    x 1.855620 -0.019830 -0.001320 
#    y -0.019830 1.866250 -0.003710 
#    z -0.001320 -0.003710 1.876560 
# 
# From -- ./inp_files/295385.got.cif
#   From: 2010.06.25/outbox.cif.g09.slc.cpg/sg2_148_cif.got.tgz:295385.got - 2010.06.27 13:26:56.
