data_PCOD8015547
_publ_section_title
;
Structure prediction by ZEFSAII (Michael W. Deem and Ramdas Pophale) SiO2 
 PCOD8015547
Probable space group: P -1
;
_chemical_formula_sum "Si O2"
_cell_formula_units_Z 16
_cell_length_a 9.534821
_cell_length_b 10.820844
_cell_length_c 14.937774
_cell_angle_alpha 31.495325
_cell_angle_beta 93.986943
_cell_angle_gamma 108.939460
_cell_volume 691.375987
_symmetry_space_group_name_H-M "P -1"
_symmetry_group_IT_number 2
_symmetry_cell_setting 'triclinic'
loop_
_space_group_symop_operation_xyz
x,y,z
-x,-y,-z
loop_
_atom_site_type_symbol
_atom_site_label
_atom_site_fract_x
_atom_site_fract_y
_atom_site_fract_z
Si Si1 0.936204 0.055169 0.555083
Si Si2 0.152576 0.331230 0.057231
Si Si3 0.129399 0.489251 0.446353
Si Si4 0.396699 0.018947 0.406373
Si Si5 0.564769 0.645273 0.041161
Si Si6 0.805295 0.941123 0.207215
Si Si7 0.392304 0.900311 0.782059
Si Si8 0.657115 0.987042 0.988430
O O1 0.065603 0.300117 0.471566
O O2 0.876757 0.771496 0.778911
O O3 0.794358 0.131016 0.486207
O O4 0.000000 0.000000 0.500000
O O5 0.262358 0.218829 0.086693
O O6 0.246860 0.663319 0.859735
O O7 0.983644 0.204127 0.073438
O O8 0.207526 0.353223 0.598253
O O9 0.250384 0.787744 0.225941
O O10 0.000000 0.500000 0.500000
O O11 0.456948 0.335413 0.195538
O O12 0.446159 0.907262 0.390084
O O13 0.500000 0.000000 0.500000
O O14 0.452834 0.775230 0.937785
O O15 0.601757 0.693686 0.119344
O O16 0.672212 0.920582 0.284804
O O17 0.766577 0.000978 0.068583
O O18 0.500000 0.000000 0.000000
#
# Coordination Sequence:
#
# PCOD8015547 Si02
#       8
#     2   2   2   2   2   2   2   2
#     4  11  24  41  71 104 145 179 238 307 358 423
#     4  10  21  42  70  98 140 184 230 293 362 430
#     4  11  29  50  74 105 151 198 242 305 379 438
#     4  11  25  40  69 108 142 184 235 297 366 433
#     4  11  22  46  70  96 142 194 230 283 372 429
#     4  11  26  44  74 110 138 192 252 296 361 442
#     4  11  21  43  71 100 142 186 230 296 364 427
#     4  12  27  46  74 103 147 194 245 304 358 444
#
# _framework density 23.142256
#
# number of rings (size 3 to 8) (size 9 to 14) (size 15 to 20)
#    0.000    1.000    3.750    2.625    7.000    5.500 
#    0.000    0.000    0.000    0.000    0.000    0.000 
#    0.000    0.000    0.000    0.000    0.000    0.000 
#
# Total GULP energy -198249.250847 kJ/mol
# GULP energy per Si atom -12390.578178 kJ/mol
# Density = 2.308958 g / cm^3
# Si number density = 23.142256 Si / 1000 Ang^3
#
#
#
# Elastic Constant Matrix: (Units=GPa)
#
#
# Indices 1 2 3 4 5 6 
#
# 1 150.6349 45.4012 39.7600 18.9595 3.0928 -13.4879
# 2 45.4012 109.6026 13.9094 27.0920 -6.9735 -17.3072
# 3 39.7600 13.9094 76.6427 22.2079 6.4513 -7.4184
# 4 18.9595 27.0920 22.2079 26.8308 0.3221 5.3844
# 5 3.0928 -6.9735 6.4513 0.3221 40.8919 9.4343
# 6 -13.4879 -17.3072 -7.4184 5.3844 9.4343 50.0234
#
#
#
# Elastic Compliance Matrix: (Units=1/GPa)
#
#
# Indices 1 2 3 4 5 6 
#
# 1 0.008639 -0.002959 -0.003730 -0.000205 -0.000781 0.000922
# 2 -0.002959 0.015696 0.004951 -0.019336 0.000579 0.007339
# 3 -0.003730 0.004951 0.021204 -0.021239 -0.003625 0.006821
# 4 -0.000205 -0.019336 -0.021239 0.078296 0.003847 -0.019048
# 5 -0.000781 0.000579 -0.003625 0.003847 0.026530 -0.005965
# 6 0.000922 0.007339 0.006821 -0.019048 -0.005965 0.026965
#
#
# Mechanical properties :
#
#
# Convention : Reuss Voigt Hill
#
# Bulk Modulus (GPa) = 23.77393 59.44682 41.61037
# Shear Modulus (GPa) = 25.66353 39.40321 32.53337
#
# Velocity S-wave (km/s) = 3.33370 4.13080 3.75347
# Velocity P-wave (km/s) = 5.01132 6.96381 6.06663
#
# Compressibility (1/GPa) = 0.04206288
#
# Stress axis : x y z
#
# Youngs Moduli (GPa) = 115.74917 63.70857 47.16123
#
# Poissons Ratio (x) = 0.18849 0.17593
# Poissons Ratio (y) = 0.34246 -0.23348
# Poissons Ratio (z) = 0.43180 -0.31540
#
# Static dielectric constant tensor:
#      x y z
#    x 4.508440 0.039030 -0.060460 
#    y 0.039030 4.156860 -0.100430 
#    z -0.060460 -0.100430 3.317690 
# 
# 
# High freq. dielectric constant tensor:
#      x y z
#    x 1.933270 -0.003650 -0.000300 
#    y -0.003650 1.924860 0.013160 
#    z -0.000300 0.013160 1.893300 
# 
# From -- ./inp_files/499727.got.cif
#   From: 2010.06.25/outbox.cif.g09.slc.cpg/sg2_250_cif.got.tgz:499727.got - 2010.06.27 13:26:56.
