data_PCOD8015187
_publ_section_title
;
Structure prediction by ZEFSAII (Michael W. Deem and Ramdas Pophale) SiO2 
 PCOD8015187
Probable space group: P -1
;
_chemical_formula_sum "Si O2"
_cell_formula_units_Z 16
_cell_length_a 13.294580
_cell_length_b 7.996026
_cell_length_c 7.922606
_cell_angle_alpha 59.144855
_cell_angle_beta 91.086518
_cell_angle_gamma 107.816037
_cell_volume 678.454066
_symmetry_space_group_name_H-M "P -1"
_symmetry_group_IT_number 2
_symmetry_cell_setting 'triclinic'
loop_
_space_group_symop_operation_xyz
x,y,z
-x,-y,-z
loop_
_atom_site_type_symbol
_atom_site_label
_atom_site_fract_x
_atom_site_fract_y
_atom_site_fract_z
Si Si1 0.363435 0.450349 0.240332
Si Si2 0.728930 0.973923 0.013704
Si Si3 0.980754 0.769636 0.677691
Si Si4 0.802492 0.287065 0.355792
Si Si5 0.380860 0.074224 0.607152
Si Si6 0.515922 0.878998 0.902671
Si Si7 0.807768 0.684081 0.974323
Si Si8 0.804104 0.413244 0.670391
O O1 0.422591 0.301259 0.401928
O O2 0.270476 0.316061 0.182213
O O3 0.307015 0.539642 0.340604
O O4 0.450770 0.633982 0.045780
O O5 0.642180 0.917053 0.885076
O O6 0.808049 0.849319 0.034330
O O7 0.794069 0.219852 0.894702
O O8 0.673693 0.903508 0.228481
O O9 0.927945 0.742557 0.875845
O O10 0.905301 0.608932 0.624877
O O11 0.092256 0.732493 0.715974
O O12 0.000000 0.000000 0.500000
O O13 0.823901 0.348344 0.518547
O O14 0.705998 0.071823 0.446607
O O15 0.768005 0.456717 0.169072
O O16 0.477142 0.981301 0.686938
O O17 0.500000 0.000000 0.000000
#
# Coordination Sequence:
#
# PCOD8015187 Si02
#       8
#     2   2   2   2   2   2   2   2
#     4  11  21  42  66  93 138 175 218 276 320 384
#     4  11  23  43  67  94 137 173 219 276 324 388
#     4  11  24  44  69  94 129 172 217 272 336 395
#     4  12  23  43  67 100 131 176 216 270 333 392
#     4  11  22  42  68  98 134 178 221 270 330 382
#     4  10  21  42  66  94 135 176 226 266 329 382
#     4  11  24  42  63  98 132 172 219 273 327 389
#     4  11  22  42  66  97 134 169 218 272 325 392
#
# _framework density 23.583026
#
# number of rings (size 3 to 8) (size 9 to 14) (size 15 to 20)
#    0.000    1.000    3.750    5.250    0.000    2.500 
#    2.250    3.125    0.000    0.000    0.000    0.000 
#    0.000    0.000    0.000    0.000    0.000    0.000 
#
# Total GULP energy -198416.381982 kJ/mol
# GULP energy per Si atom -12401.023874 kJ/mol
# Density = 2.352935 g / cm^3
# Si number density = 23.583026 Si / 1000 Ang^3
#
#
#
# Elastic Constant Matrix: (Units=GPa)
#
#
# Indices 1 2 3 4 5 6 
#
# 1 57.7066 30.7583 -0.1523 -13.4164 18.7040 0.4435
# 2 30.7583 98.4362 22.4537 -22.5660 7.8640 -5.3408
# 3 -0.1523 22.4537 106.7802 -32.1466 30.2541 -3.4473
# 4 -13.4164 -22.5660 -32.1466 44.1576 -5.6263 1.0099
# 5 18.7040 7.8640 30.2541 -5.6263 29.6143 -5.8539
# 6 0.4435 -5.3408 -3.4473 1.0099 -5.8539 38.0117
#
#
#
# Elastic Compliance Matrix: (Units=1/GPa)
#
#
# Indices 1 2 3 4 5 6 
#
# 1 0.037807 -0.009787 0.016534 0.013983 -0.036770 -0.006351
# 2 -0.009787 0.014217 -0.004627 0.001885 0.008061 0.002883
# 3 0.016534 -0.004627 0.024039 0.016240 -0.031466 -0.003940
# 4 0.013983 0.001885 0.016240 0.037274 -0.019314 -0.002390
# 5 -0.036770 0.008061 -0.031466 -0.019314 0.085784 0.012432
# 6 -0.006351 0.002883 -0.003940 -0.002390 0.012432 0.028408
#
#
# Mechanical properties :
#
#
# Convention : Reuss Voigt Hill
#
# Bulk Modulus (GPa) = 12.45268 41.00471 26.72869
# Shear Modulus (GPa) = 19.99569 36.34761 28.17165
#
# Velocity S-wave (km/s) = 2.91501 3.93015 3.46001
# Velocity P-wave (km/s) = 4.07695 6.16603 5.22692
#
# Compressibility (1/GPa) = 0.08030401
#
# Stress axis : x y z
#
# Youngs Moduli (GPa) = 26.45038 70.33940 41.59960
#
# Poissons Ratio (x) = 0.68838 -0.68782
# Poissons Ratio (y) = 0.25886 0.19247
# Poissons Ratio (z) = -0.43734 0.32545
#
# Static dielectric constant tensor:
#      x y z
#    x 5.366230 -0.139810 -0.060110 
#    y -0.139810 4.313770 -0.054830 
#    z -0.060110 -0.054830 4.416920 
# 
# 
# High freq. dielectric constant tensor:
#      x y z
#    x 1.922920 -0.015090 -0.001490 
#    y -0.015090 1.946660 -0.007830 
#    z -0.001490 -0.007830 1.935210 
# 
# From -- ./inp_files/297420.got.cif
#   From: 2010.06.25/outbox.cif.g09.slc.cpg/sg2_149_cif.got.tgz:297420.got - 2010.06.27 13:26:56.
