data_PCOD8015747
_publ_section_title
;
Structure prediction by ZEFSAII (Michael W. Deem and Ramdas Pophale) SiO2 
 PCOD8015747
Probable space group: P -1
;
_chemical_formula_sum "Si O2"
_cell_formula_units_Z 16
_cell_length_a 8.577081
_cell_length_b 8.602646
_cell_length_c 12.152794
_cell_angle_alpha 89.332376
_cell_angle_beta 98.870253
_cell_angle_gamma 128.352695
_cell_volume 690.690494
_symmetry_space_group_name_H-M "P -1"
_symmetry_group_IT_number 2
_symmetry_cell_setting 'triclinic'
loop_
_space_group_symop_operation_xyz
x,y,z
-x,-y,-z
loop_
_atom_site_type_symbol
_atom_site_label
_atom_site_fract_x
_atom_site_fract_y
_atom_site_fract_z
Si Si1 0.719874 0.718850 0.531327
Si Si2 0.266096 0.739805 0.669441
Si Si3 0.019289 0.325772 0.762232
Si Si4 0.659900 0.002320 0.139075
Si Si5 0.413710 0.398609 0.874166
Si Si6 0.124081 0.861117 0.475021
Si Si7 0.244705 0.910351 0.083786
Si Si8 0.648340 0.770199 0.752334
O O1 0.500000 0.500000 0.500000
O O2 0.776535 0.780170 0.664992
O O3 0.889549 0.718986 0.491509
O O4 0.741861 0.905255 0.477273
O O5 0.102060 0.525958 0.707520
O O6 0.218414 0.763300 0.539346
O O7 0.482107 0.789923 0.688335
O O8 0.241923 0.884157 0.736706
O O9 0.186193 0.315589 0.832337
O O10 0.878044 0.150359 0.658664
O O11 0.884779 0.291778 0.855367
O O12 0.571809 0.776205 0.137313
O O13 0.480665 0.016327 0.104434
O O14 0.818075 0.115723 0.051823
O O15 0.548245 0.556188 0.793534
O O16 0.500000 0.500000 0.000000
O O17 0.215709 0.059083 0.142091
#
# Coordination Sequence:
#
# PCOD8015747 Si02
#       8
#     2   2   2   2   2   2   2   2
#     4  11  24  41  67 100 134 177 222 280 332 391
#     4  10  24  42  66  96 131 174 220 274 327 393
#     4  11  24  44  66  94 131 174 221 274 334 393
#     4  10  23  41  65  95 132 168 220 268 332 393
#     4  11  23  42  67  94 128 173 217 273 336 394
#     4  11  25  45  67  97 140 175 224 279 329 399
#     4  10  21  43  64  92 132 171 214 275 323 394
#     4  10  21  43  64  94 130 173 219 265 337 394
#
# _framework density 23.165222
#
# number of rings (size 3 to 8) (size 9 to 14) (size 15 to 20)
#    0.000    1.500    2.500    1.875    7.000    2.500 
#    4.500    0.000    0.000    0.000    0.000    0.000 
#    0.000    0.000    0.000    0.000    0.000    0.000 
#
# Total GULP energy -198292.481702 kJ/mol
# GULP energy per Si atom -12393.280106 kJ/mol
# Density = 2.311250 g / cm^3
# Si number density = 23.165222 Si / 1000 Ang^3
#
#
#
# Elastic Constant Matrix: (Units=GPa)
#
#
# Indices 1 2 3 4 5 6 
#
# 1 30.0748 17.5468 29.5206 -11.8285 -9.3718 -6.0770
# 2 17.5468 97.6511 8.1791 -0.2822 5.7104 -3.1313
# 3 29.5206 8.1791 115.8270 -9.3320 -6.7870 -6.1126
# 4 -11.8285 -0.2822 -9.3320 42.3081 1.4478 -8.1101
# 5 -9.3718 5.7104 -6.7870 1.4478 35.1839 -4.6511
# 6 -6.0770 -3.1313 -6.1126 -8.1101 -4.6511 36.1083
#
#
#
# Elastic Compliance Matrix: (Units=1/GPa)
#
#
# Indices 1 2 3 4 5 6 
#
# 1 0.069978 -0.012023 -0.013553 0.018736 0.019205 0.015122
# 2 -0.012023 0.012496 0.001522 -0.003161 -0.005077 -0.002046
# 3 -0.013553 0.001522 0.011750 -0.001257 -0.001625 -0.000652
# 4 0.018736 -0.003161 -0.001257 0.030343 0.005357 0.010172
# 5 0.019205 -0.005077 -0.001625 0.005357 0.034914 0.008217
# 6 0.015122 -0.002046 -0.000652 0.010172 0.008217 0.033295
#
#
# Mechanical properties :
#
#
# Convention : Reuss Voigt Hill
#
# Bulk Modulus (GPa) = 21.68543 39.33844 30.51193
# Shear Modulus (GPa) = 19.51189 35.27383 27.39286
#
# Velocity S-wave (km/s) = 2.90538 3.90642 3.44248
# Velocity P-wave (km/s) = 4.54274 6.11272 5.38525
#
# Compressibility (1/GPa) = 0.04611391
#
# Stress axis : x y z
#
# Youngs Moduli (GPa) = 14.29030 80.02790 85.10979
#
# Poissons Ratio (x) = 0.96217 1.15351
# Poissons Ratio (y) = 0.17181 -0.12951
# Poissons Ratio (z) = 0.19368 -0.12178
#
# Static dielectric constant tensor:
#      x y z
#    x 4.008900 -0.039160 -0.292670 
#    y -0.039160 4.257490 -0.017280 
#    z -0.292670 -0.017280 4.540080 
# 
# 
# High freq. dielectric constant tensor:
#      x y z
#    x 1.888230 -0.001980 -0.018310 
#    y -0.001980 1.926480 -0.013370 
#    z -0.018310 -0.013370 1.926840 
# 
# From -- ./inp_files/382388.got.cif
#   From: 2010.06.25/outbox.cif.g09.slc.cpg/sg2_192_cif.got.tgz:382388.got - 2010.06.27 13:26:56.
