data_PCOD8015075
_publ_section_title
;
Structure prediction by ZEFSAII (Michael W. Deem and Ramdas Pophale) SiO2 
 PCOD8015075
Probable space group: P -1
;
_chemical_formula_sum "Si O2"
_cell_formula_units_Z 16
_cell_length_a 18.244961
_cell_length_b 8.582396
_cell_length_c 6.770858
_cell_angle_alpha 55.608654
_cell_angle_beta 54.682368
_cell_angle_gamma 73.842592
_cell_volume 712.039330
_symmetry_space_group_name_H-M "P -1"
_symmetry_group_IT_number 2
_symmetry_cell_setting 'triclinic'
loop_
_space_group_symop_operation_xyz
x,y,z
-x,-y,-z
loop_
_atom_site_type_symbol
_atom_site_label
_atom_site_fract_x
_atom_site_fract_y
_atom_site_fract_z
Si Si1 0.582527 0.182723 0.064653
Si Si2 0.335070 0.534140 0.544477
Si Si3 0.073189 0.162524 0.031620
Si Si4 0.165178 0.548010 0.549948
Si Si5 0.879820 0.052875 0.518691
Si Si6 0.385205 0.178557 0.507418
Si Si7 0.705533 0.375492 0.040429
Si Si8 0.224199 0.011908 0.648807
O O1 0.474903 0.157743 0.255097
O O2 0.620813 0.337286 0.054224
O O3 0.625839 0.986432 0.191224
O O4 0.616396 0.260318 0.741776
O O5 0.232789 0.513253 0.646996
O O6 0.392127 0.373742 0.475065
O O7 0.331792 0.505189 0.806216
O O8 0.968679 0.095188 0.216026
O O9 0.106728 0.120428 0.231282
O O10 0.083394 0.388217 0.811644
O O11 0.130853 0.047513 0.873463
O O12 0.134285 0.760031 0.463141
O O13 0.212700 0.518050 0.285050
O O14 0.795023 0.989479 0.555806
O O15 0.301685 0.169527 0.488950
O O16 0.741755 0.188698 0.208661
#
# Coordination Sequence:
#
# PCOD8015075 Si02
#       8
#     2   2   2   2   2   2   2   2
#     4   9  22  42  64  92 134 163 203 273 303 364
#     4  11  21  40  65  92 127 172 205 258 315 369
#     4  11  24  43  65  96 123 166 215 261 319 379
#     4  11  22  42  64  94 127 167 211 263 310 378
#     4  11  24  43  67  90 132 162 209 269 319 368
#     4  10  21  42  65  95 130 162 217 253 311 381
#     4  10  22  40  65  92 131 167 209 255 319 368
#     4  11  21  42  64  92 130 167 205 261 315 378
#
# _framework density 22.470668
#
# number of rings (size 3 to 8) (size 9 to 14) (size 15 to 20)
#    0.000    1.500    3.750    1.125    0.000    1.500 
#    2.250    7.500    0.000    0.000    0.000    0.000 
#    0.000    0.000    0.000    0.000    0.000    0.000 
#
# Total GULP energy -198400.406485 kJ/mol
# GULP energy per Si atom -12400.025405 kJ/mol
# Density = 2.241952 g / cm^3
# Si number density = 22.470668 Si / 1000 Ang^3
#
#
#
# Elastic Constant Matrix: (Units=GPa)
#
#
# Indices 1 2 3 4 5 6 
#
# 1 79.3290 18.5032 37.5694 7.2081 1.9711 1.5761
# 2 18.5032 70.0294 30.8176 4.9520 -2.0202 0.9398
# 3 37.5694 30.8176 118.0785 -0.3904 3.1631 17.1274
# 4 7.2081 4.9520 -0.3904 28.2131 4.9896 -1.5811
# 5 1.9711 -2.0202 3.1631 4.9896 23.6136 5.0342
# 6 1.5761 0.9398 17.1274 -1.5811 5.0342 23.8133
#
#
#
# Elastic Compliance Matrix: (Units=1/GPa)
#
#
# Indices 1 2 3 4 5 6 
#
# 1 0.015602 -0.001793 -0.004842 -0.003500 -0.000582 0.002411
# 2 -0.001793 0.016827 -0.004147 -0.002876 0.002381 0.001743
# 3 -0.004842 -0.004147 0.012292 0.001713 -0.000211 -0.008199
# 4 -0.003500 -0.002876 0.001713 0.038684 -0.009127 0.003611
# 5 -0.000582 0.002381 -0.000211 -0.009127 0.046774 -0.010398
# 6 0.002411 0.001743 -0.008199 0.003611 -0.010398 0.050100
#
#
# Mechanical properties :
#
#
# Convention : Reuss Voigt Hill
#
# Bulk Modulus (GPa) = 43.18405 49.02415 46.10410
# Shear Modulus (GPa) = 23.85923 27.16446 25.51185
#
# Velocity S-wave (km/s) = 3.26205 3.48067 3.37314
# Velocity P-wave (km/s) = 5.78340 6.16586 5.97769
#
# Compressibility (1/GPa) = 0.02315670
#
# Stress axis : x y z
#
# Youngs Moduli (GPa) = 64.09613 59.42712 81.35099
#
# Poissons Ratio (x) = 0.10657 0.39388
# Poissons Ratio (y) = 0.11494 0.33740
# Poissons Ratio (z) = 0.31033 0.24647
#
# Static dielectric constant tensor:
#      x y z
#    x 3.929640 -0.044530 0.029620 
#    y -0.044530 3.976910 -0.037520 
#    z 0.029620 -0.037520 4.120710 
# 
# 
# High freq. dielectric constant tensor:
#      x y z
#    x 1.873770 -0.012060 -0.001940 
#    y -0.012060 1.878370 -0.003710 
#    z -0.001940 -0.003710 1.888670 
# 
# From -- ./inp_files/106209.got.cif
#   From: 2010.06.25/outbox.cif.g09.slc.cpg/sg2_54_cif.got.tgz:106209.got - 2010.06.27 13:26:56.
