data_PCOD8015264
_publ_section_title
;
Structure prediction by ZEFSAII (Michael W. Deem and Ramdas Pophale) SiO2 
 PCOD8015264
Probable space group: P -1
;
_chemical_formula_sum "Si O2"
_cell_formula_units_Z 14
_cell_length_a 8.582590
_cell_length_b 21.949828
_cell_length_c 22.774849
_cell_angle_alpha 18.383972
_cell_angle_beta 148.547000
_cell_angle_gamma 148.385962
_cell_volume 682.611241
_symmetry_space_group_name_H-M "P -1"
_symmetry_group_IT_number 2
_symmetry_cell_setting 'triclinic'
loop_
_space_group_symop_operation_xyz
x,y,z
-x,-y,-z
loop_
_atom_site_type_symbol
_atom_site_label
_atom_site_fract_x
_atom_site_fract_y
_atom_site_fract_z
Si Si1 0.343786 0.072630 0.022477
Si Si2 0.342194 0.248441 0.617725
Si Si3 0.556211 0.297316 0.770618
Si Si4 0.267810 0.297688 0.006176
Si Si5 0.637482 0.314331 0.001569
Si Si6 0.650612 0.036194 0.579025
Si Si7 0.703054 0.677345 0.760934
O O1 0.492859 0.885006 0.247166
O O2 0.359388 0.156164 0.885555
O O3 0.524721 0.255194 0.954165
O O4 0.000000 0.000000 0.000000
O O5 0.400394 0.205840 0.743492
O O6 0.484230 0.480218 0.436609
O O7 0.981763 0.191871 0.539185
O O8 0.912824 0.296717 0.887177
O O9 0.317489 0.171034 0.194238
O O10 0.378241 0.207558 0.063973
O O11 0.484681 0.523083 0.878118
O O12 0.703895 0.556896 0.809649
O O13 0.950803 0.246086 0.174046
O O14 0.434583 0.131089 0.465367
O O15 0.500000 0.000000 0.500000
#
# Coordination Sequence:
#
# PCOD8015264 Si02
#       7
#     2   2   2   2   2   2   2
#     4  12  25  40  66  97 129 164 217 265 317 380
#     4  11  24  44  65  97 128 163 220 262 318 378
#     4  11  24  43  70  93 126 173 210 266 321 372
#     4  10  21  42  67  91 125 172 204 261 322 364
#     4   9  21  44  61  92 133 169 206 257 323 377
#     4  12  24  37  67  98 122 165 219 259 311 379
#     4   9  21  42  61  91 129 168 202 259 314 377
#
# _framework density 20.509478000000001
#
# number of rings (size 3 to 8) (size 9 to 14) (size 15 to 20)
#    0.857    0.571    2.857    2.143    2.000    2.857 
#    2.571    0.000    0.000    0.000    0.000    0.000 
#    0.000    0.000    0.000    0.000    0.000    0.000 
#
# Total GULP energy -173570.345014 kJ/mol
# GULP energy per Si atom -12397.881787 kJ/mol
# Density = 2.046280 g / cm^3
# Si number density = 20.509478 Si / 1000 Ang^3
#
#
#
# Elastic Constant Matrix: (Units=GPa)
#
#
# Indices 1 2 3 4 5 6 
#
# 1 93.0942 45.7184 37.1263 10.4090 18.4201 16.2339
# 2 45.7184 109.5350 33.6080 18.1362 8.1446 -5.8554
# 3 37.1263 33.6080 91.1927 9.8863 16.1995 -5.0332
# 4 10.4090 18.1362 9.8863 27.1403 6.9073 2.8401
# 5 18.4201 8.1446 16.1995 6.9073 34.2552 -1.1369
# 6 16.2339 -5.8554 -5.0332 2.8401 -1.1369 36.9621
#
#
#
# Elastic Compliance Matrix: (Units=1/GPa)
#
#
# Indices 1 2 3 4 5 6 
#
# 1 0.018986 -0.006814 -0.004742 0.001891 -0.007074 -0.010427
# 2 -0.006814 0.013794 -0.001717 -0.007290 0.002852 0.005592
# 3 -0.004742 -0.001717 0.014550 -0.001864 -0.003420 0.003830
# 4 0.001891 -0.007290 -0.001864 0.044196 -0.007508 -0.005866
# 5 -0.007074 0.002852 -0.003420 -0.007508 0.035608 0.004765
# 6 -0.010427 0.005592 0.003830 -0.005866 0.004765 0.033639
#
#
# Mechanical properties :
#
#
# Convention : Reuss Voigt Hill
#
# Bulk Modulus (GPa) = 48.11460 58.52526 53.31993
# Shear Modulus (GPa) = 25.74038 31.49613 28.61825
#
# Velocity S-wave (km/s) = 3.54651 3.92303 3.73951
# Velocity P-wave (km/s) = 6.34673 7.00842 6.68576
#
# Compressibility (1/GPa) = 0.02078371
#
# Stress axis : x y z
#
# Youngs Moduli (GPa) = 52.67110 72.49344 68.72716
#
# Poissons Ratio (x) = 0.49396 0.32592
# Poissons Ratio (y) = 0.35889 0.11803
# Poissons Ratio (z) = 0.24977 0.12450
#
# Static dielectric constant tensor:
#      x y z
#    x 3.683130 -0.036640 0.202260 
#    y -0.036640 3.791580 0.024240 
#    z 0.202260 0.024240 3.692810 
# 
# 
# High freq. dielectric constant tensor:
#      x y z
#    x 1.794530 0.005610 0.023330 
#    y 0.005610 1.809630 0.000550 
#    z 0.023330 0.000550 1.795910 
# 
# From -- ./inp_files/591776.got.cif
#   From: 2010.06.25/outbox.cif.g09.slc.cpg/sg2_296_cif.got.tgz:591776.got - 2010.06.27 13:26:56.
