data_PCOD8015188
_publ_section_title
;
Structure prediction by ZEFSAII (Michael W. Deem and Ramdas Pophale) SiO2 
 PCOD8015188
Probable space group: P -1
;
_chemical_formula_sum "Si O2"
_cell_formula_units_Z 16
_cell_length_a 11.295995
_cell_length_b 8.360877
_cell_length_c 11.992852
_cell_angle_alpha 102.020320
_cell_angle_beta 126.848283
_cell_angle_gamma 52.923279
_cell_volume 701.985393
_symmetry_space_group_name_H-M "P -1"
_symmetry_group_IT_number 2
_symmetry_cell_setting 'triclinic'
loop_
_space_group_symop_operation_xyz
x,y,z
-x,-y,-z
loop_
_atom_site_type_symbol
_atom_site_label
_atom_site_fract_x
_atom_site_fract_y
_atom_site_fract_z
Si Si1 0.824501 0.305834 0.289817
Si Si2 0.783719 0.873687 0.430395
Si Si3 0.297943 0.292864 0.841456
Si Si4 0.551945 0.400707 0.763501
Si Si5 0.605500 0.773184 0.482528
Si Si6 0.172130 0.287681 0.013807
Si Si7 0.715060 0.129362 0.023100
Si Si8 0.579644 0.696481 0.689515
O O1 0.807260 0.479525 0.232416
O O2 0.656805 0.402939 0.296196
O O3 0.013357 0.183423 0.450510
O O4 0.817873 0.151696 0.184779
O O5 0.746919 0.835072 0.278620
O O6 0.766788 0.726664 0.482763
O O7 0.641017 0.116053 0.417808
O O8 0.520264 0.176840 0.958600
O O9 0.213791 0.321617 0.918953
O O10 0.543763 0.236678 0.668689
O O11 0.677835 0.287786 0.927816
O O12 0.636077 0.486666 0.747017
O O13 0.678354 0.627149 0.612364
O O14 0.500000 0.000000 0.500000
O O15 0.346577 0.204107 0.180315
O O16 0.145433 0.108938 0.972971
O O17 0.000000 0.500000 0.000000
#
# Coordination Sequence:
#
# PCOD8015188 Si02
#       8
#     2   2   2   2   2   2   2   2
#     4  11  24  39  71 107 134 174 234 293 336 400
#     4  11  23  43  70 102 138 185 232 281 338 411
#     4  11  22  45  74  98 137 188 231 281 346 414
#     4  11  22  43  70 101 136 181 234 279 347 413
#     4  10  21  42  66  94 137 182 224 272 344 409
#     4  12  27  45  70 103 136 181 236 289 344 415
#     4  11  22  47  72  98 139 182 231 287 347 411
#     4  11  24  44  68  99 141 186 225 280 353 413
#
# _framework density 22.792497000000001
#
# number of rings (size 3 to 8) (size 9 to 14) (size 15 to 20)
#    0.000    1.000    3.750    4.875    3.500    0.500 
#    6.750    1.250    0.000    0.000    0.000    0.000 
#    0.000    0.000    0.000    0.000    0.000    0.000 
#
# Total GULP energy -198403.001801 kJ/mol
# GULP energy per Si atom -12400.187613 kJ/mol
# Density = 2.274062 g / cm^3
# Si number density = 22.792497 Si / 1000 Ang^3
#
#
#
# Elastic Constant Matrix: (Units=GPa)
#
#
# Indices 1 2 3 4 5 6 
#
# 1 73.9974 14.3668 23.2074 -5.6126 -29.1701 2.9431
# 2 14.3668 99.3412 18.1957 9.0650 10.0287 -4.1923
# 3 23.2074 18.1957 118.7163 22.8637 7.5472 -10.8427
# 4 -5.6126 9.0650 22.8637 40.1860 2.2258 1.6114
# 5 -29.1701 10.0287 7.5472 2.2258 42.0574 5.6900
# 6 2.9431 -4.1923 -10.8427 1.6114 5.6900 31.3932
#
#
#
# Elastic Compliance Matrix: (Units=1/GPa)
#
#
# Indices 1 2 3 4 5 6 
#
# 1 0.027842 -0.006102 -0.008835 0.009446 0.023366 -0.011196
# 2 -0.006102 0.012070 0.000943 -0.003853 -0.007629 0.004090
# 3 -0.008835 0.000943 0.012938 -0.008598 -0.009239 0.007539
# 4 0.009446 -0.003853 -0.008598 0.031804 0.008347 -0.007515
# 5 0.023366 -0.007629 -0.009239 0.008347 0.045047 -0.014994
# 6 -0.011196 0.004090 0.007539 -0.007515 -0.014994 0.039157
#
#
# Mechanical properties :
#
#
# Convention : Reuss Voigt Hill
#
# Bulk Modulus (GPa) = 40.21867 44.84386 42.53127
# Shear Modulus (GPa) = 24.37445 38.47966 31.42706
#
# Velocity S-wave (km/s) = 3.27373 4.11330 3.71729
# Velocity P-wave (km/s) = 5.65452 6.50204 6.09303
#
# Compressibility (1/GPa) = 0.02486408
#
# Stress axis : x y z
#
# Youngs Moduli (GPa) = 35.91648 82.84773 77.29282
#
# Poissons Ratio (x) = 0.50551 0.68288
# Poissons Ratio (y) = 0.21915 -0.07292
# Poissons Ratio (z) = 0.31732 -0.07816
#
# Static dielectric constant tensor:
#      x y z
#    x 4.315890 0.139030 -0.428090 
#    y 0.139030 4.017100 0.111970 
#    z -0.428090 0.111970 4.521170 
# 
# 
# High freq. dielectric constant tensor:
#      x y z
#    x 1.887860 0.012730 -0.016050 
#    y 0.012730 1.896500 0.015180 
#    z -0.016050 0.015180 1.907340 
# 
# From -- ./inp_files/263368.got.cif
#   From: 2010.06.25/outbox.cif.g09.slc.cpg/sg2_132_cif.got.tgz:263368.got - 2010.06.27 13:26:56.
