data_PCOD8015697
_publ_section_title
;
Structure prediction by ZEFSAII (Michael W. Deem and Ramdas Pophale) SiO2 
 PCOD8015697
Probable space group: P -1
;
_chemical_formula_sum "Si O2"
_cell_formula_units_Z 16
_cell_length_a 18.182271
_cell_length_b 9.184352
_cell_length_c 8.637169
_cell_angle_alpha 58.975901
_cell_angle_beta 78.727266
_cell_angle_gamma 39.141407
_cell_volume 722.457286
_symmetry_space_group_name_H-M "P -1"
_symmetry_group_IT_number 2
_symmetry_cell_setting 'triclinic'
loop_
_space_group_symop_operation_xyz
x,y,z
-x,-y,-z
loop_
_atom_site_type_symbol
_atom_site_label
_atom_site_fract_x
_atom_site_fract_y
_atom_site_fract_z
Si Si1 0.592948 0.012096 0.452072
Si Si2 0.768759 0.153031 0.165824
Si Si3 0.214827 0.626614 0.222662
Si Si4 0.567835 0.430168 0.325750
Si Si5 0.630887 0.558957 0.484409
Si Si6 0.010480 0.075525 0.687489
Si Si7 0.345062 0.947638 0.914672
Si Si8 0.810761 0.464853 0.287572
O O1 0.606107 0.164602 0.457392
O O2 0.468437 0.158806 0.512750
O O3 0.717847 0.677477 0.612860
O O4 0.579325 0.086596 0.233698
O O5 0.676907 0.337802 0.247371
O O6 0.739664 0.042069 0.136282
O O7 0.751667 0.358115 0.964363
O O8 0.913792 0.891948 0.309991
O O9 0.256425 0.687805 0.306349
O O10 0.065467 0.867490 0.168838
O O11 0.567657 0.506021 0.461611
O O12 0.439075 0.693671 0.139207
O O13 0.687677 0.577547 0.320622
O O14 0.909960 0.306042 0.472261
O O15 0.115964 0.746598 0.771516
O O16 0.248305 0.243833 0.885933
#
# Coordination Sequence:
#
# PCOD8015697 Si02
#       8
#     2   2   2   2   2   2   2   2
#     4  11  22  40  61  93 128 161 201 255 309 367
#     4  11  23  40  65  90 126 165 204 257 308 360
#     4  11  23  41  64  93 125 163 209 255 303 368
#     4  11  24  40  61  95 130 162 201 255 312 373
#     4  11  21  38  63  89 125 165 200 246 318 361
#     4  10  21  43  63  88 125 163 213 249 304 367
#     4  11  23  42  60  95 128 159 208 257 307 365
#     4  10  22  40  64  93 122 165 204 260 301 370
#
# _framework density 22.146637999999999
#
# number of rings (size 3 to 8) (size 9 to 14) (size 15 to 20)
#    0.000    1.250    3.750    4.125    1.750    2.000 
#    0.000    0.625    0.000    0.000    0.000    0.000 
#    0.000    0.000    0.000    0.000    0.000    0.000 
#
# Total GULP energy -198267.629916 kJ/mol
# GULP energy per Si atom -12391.726870 kJ/mol
# Density = 2.209623 g / cm^3
# Si number density = 22.146638 Si / 1000 Ang^3
#
#
#
# Elastic Constant Matrix: (Units=GPa)
#
#
# Indices 1 2 3 4 5 6 
#
# 1 101.7939 49.2308 27.5607 -18.0364 21.3120 -11.3172
# 2 49.2308 133.9527 22.6980 -5.1384 -3.4752 -6.4733
# 3 27.5607 22.6980 61.0131 -3.1076 -1.6992 6.0688
# 4 -18.0364 -5.1384 -3.1076 22.8446 0.5211 -5.0166
# 5 21.3120 -3.4752 -1.6992 0.5211 29.3216 4.4545
# 6 -11.3172 -6.4733 6.0688 -5.0166 4.4545 36.0362
#
#
#
# Elastic Compliance Matrix: (Units=1/GPa)
#
#
# Indices 1 2 3 4 5 6 
#
# 1 0.026219 -0.006972 -0.010246 0.021459 -0.023068 0.014546
# 2 -0.006972 0.010045 -0.000435 -0.003817 0.006552 -0.001653
# 3 -0.010246 -0.000435 0.022010 -0.007470 0.010218 -0.009305
# 4 0.021459 -0.003817 -0.007470 0.063407 -0.020445 0.018666
# 5 -0.023068 0.006552 0.010218 -0.020445 0.055257 -0.017465
# 6 0.014546 -0.001653 -0.009305 0.018666 -0.017465 0.038345
#
#
# Mechanical properties :
#
#
# Convention : Reuss Voigt Hill
#
# Bulk Modulus (GPa) = 43.54032 55.08209 49.31121
# Shear Modulus (GPa) = 19.36144 30.79184 25.07664
#
# Velocity S-wave (km/s) = 2.95996 3.73280 3.36862
# Velocity P-wave (km/s) = 5.60219 6.59575 6.11917
#
# Compressibility (1/GPa) = 0.02296722
#
# Stress axis : x y z
#
# Youngs Moduli (GPa) = 38.14033 99.55017 45.43433
#
# Poissons Ratio (x) = 0.69409 0.46552
# Poissons Ratio (y) = 0.26593 0.01976
# Poissons Ratio (z) = 0.39079 0.04330
#
# Static dielectric constant tensor:
#      x y z
#    x 4.292560 -0.170890 -0.003270 
#    y -0.170890 4.255910 0.239340 
#    z -0.003270 0.239340 3.770030 
# 
# 
# High freq. dielectric constant tensor:
#      x y z
#    x 1.891840 -0.005620 0.005020 
#    y -0.005620 1.878520 0.017920 
#    z 0.005020 0.017920 1.847270 
# 
# From -- ./inp_files/328567.got.cif
#   From: 2010.06.25/outbox.cif.g09.slc.cpg/sg2_165_cif.got.tgz:328567.got - 2010.06.27 13:26:56.
