data_PCOD8015986
_publ_section_title
;
Structure prediction by ZEFSAII (Michael W. Deem and Ramdas Pophale) SiO2 
 PCOD8015986
Probable space group: P -1
;
_chemical_formula_sum "Si O2"
_cell_formula_units_Z 14
_cell_length_a 8.090778
_cell_length_b 11.467061
_cell_length_c 8.122183
_cell_angle_alpha 53.379534
_cell_angle_beta 111.803589
_cell_angle_gamma 105.807565
_cell_volume 560.231804
_symmetry_space_group_name_H-M "P -1"
_symmetry_group_IT_number 2
_symmetry_cell_setting 'triclinic'
loop_
_space_group_symop_operation_xyz
x,y,z
-x,-y,-z
loop_
_atom_site_type_symbol
_atom_site_label
_atom_site_fract_x
_atom_site_fract_y
_atom_site_fract_z
Si Si1 0.260209 0.516562 0.550215
Si Si2 0.391876 0.425185 0.178539
Si Si3 0.095181 0.200061 0.310736
Si Si4 0.764882 0.032973 0.642186
Si Si5 0.484685 0.796315 0.820587
Si Si6 0.780715 0.333928 0.938904
Si Si7 0.007634 0.716934 0.440714
O O1 0.463296 0.521794 0.675428
O O2 0.248001 0.607994 0.302249
O O3 0.137844 0.585167 0.586032
O O4 0.186421 0.345577 0.643939
O O5 0.297590 0.270385 0.330285
O O6 0.470491 0.375491 0.068135
O O7 0.234828 0.537332 0.037952
O O8 0.996426 0.228336 0.419538
O O9 0.119257 0.032935 0.408247
O O10 0.974597 0.271445 0.065985
O O11 0.625995 0.141485 0.423587
O O12 0.896718 0.133907 0.729330
O O13 0.664273 0.902389 0.821240
O O14 0.374491 0.789346 0.956664
#
# Coordination Sequence:
#
# PCOD8015986 Si02
#       7
#     2   2   2   2   2   2   2
#     4  11  25  42  66  96 135 173 206 262 339 386
#     4  11  22  43  66  97 132 170 211 267 330 385
#     4  11  23  39  72  97 124 168 222 271 309 377
#     4  10  21  43  68  93 124 174 226 253 320 382
#     4  10  22  40  71  92 126 171 224 269 306 379
#     4  12  23  40  63 106 129 160 220 275 319 369
#     4  11  22  43  68  89 131 177 210 259 322 398
#
# _framework density 24.989657000000001
#
# number of rings (size 3 to 8) (size 9 to 14) (size 15 to 20)
#    0.000    1.143    4.286    1.714    0.000    0.000 
#    7.714    1.429    0.000    0.000    0.000    0.000 
#    0.000    0.000    0.000    0.000    0.000    0.000 
#
# Total GULP energy -173474.140930 kJ/mol
# GULP energy per Si atom -12391.010066 kJ/mol
# Density = 2.493278 g / cm^3
# Si number density = 24.989657 Si / 1000 Ang^3
#
#
#
# Elastic Constant Matrix: (Units=GPa)
#
#
# Indices 1 2 3 4 5 6 
#
# 1 109.3365 58.0759 26.9275 3.9143 4.5446 9.1379
# 2 58.0759 182.2214 38.9672 -5.2867 11.7734 31.3661
# 3 26.9275 38.9672 61.4277 -2.4061 0.2265 9.1006
# 4 3.9143 -5.2867 -2.4061 18.7100 -6.2313 7.4220
# 5 4.5446 11.7734 0.2265 -6.2313 34.6901 -5.5947
# 6 9.1379 31.3661 9.1006 7.4220 -5.5947 57.0771
#
#
#
# Elastic Compliance Matrix: (Units=1/GPa)
#
#
# Indices 1 2 3 4 5 6 
#
# 1 0.011860 -0.003267 -0.003440 -0.004582 -0.001095 0.000934
# 2 -0.003267 0.008131 -0.002966 0.003461 -0.002360 -0.004154
# 3 -0.003440 -0.002966 0.019994 0.003552 0.001756 -0.001297
# 4 -0.004582 0.003461 0.003552 0.062450 0.009176 -0.008956
# 5 -0.001095 -0.002360 0.001756 0.009176 0.031912 0.003127
# 6 0.000934 -0.004154 -0.001297 -0.008956 0.003127 0.021331
#
#
# Mechanical properties :
#
#
# Convention : Reuss Voigt Hill
#
# Bulk Modulus (GPa) = 48.45434 66.76966 57.61200
# Shear Modulus (GPa) = 27.48676 37.36310 32.42493
#
# Velocity S-wave (km/s) = 3.32011 3.87090 3.60604
# Velocity P-wave (km/s) = 5.84203 6.83779 6.35943
#
# Compressibility (1/GPa) = 0.02063799
#
# Stress axis : x y z
#
# Youngs Moduli (GPa) = 84.31488 122.97960 50.01535
#
# Poissons Ratio (x) = 0.40180 0.17207
# Poissons Ratio (y) = 0.27548 0.14836
# Poissons Ratio (z) = 0.29007 0.36480
#
# Static dielectric constant tensor:
#      x y z
#    x 5.059140 0.215120 -0.119410 
#    y 0.215120 4.864450 -0.374090 
#    z -0.119410 -0.374090 3.878240 
# 
# 
# High freq. dielectric constant tensor:
#      x y z
#    x 2.029380 0.013410 -0.007700 
#    y 0.013410 2.009240 -0.027920 
#    z -0.007700 -0.027920 1.944360 
# 
# From -- ./inp_files/175568.got.cif
#   From: 2010.06.25/outbox.cif.g09.slc.cpg/sg2_88_cif.got.tgz:175568.got - 2010.06.27 13:26:56.
