data_PCOD8015444
_publ_section_title
;
Structure prediction by ZEFSAII (Michael W. Deem and Ramdas Pophale) SiO2 
 PCOD8015444
Probable space group: P -1
;
_chemical_formula_sum "Si O2"
_cell_formula_units_Z 14
_cell_length_a 8.779889
_cell_length_b 9.485654
_cell_length_c 18.902780
_cell_angle_alpha 53.694563
_cell_angle_beta 150.160581
_cell_angle_gamma 115.700632
_cell_volume 618.585871
_symmetry_space_group_name_H-M "P -1"
_symmetry_group_IT_number 2
_symmetry_cell_setting 'triclinic'
loop_
_space_group_symop_operation_xyz
x,y,z
-x,-y,-z
loop_
_atom_site_type_symbol
_atom_site_label
_atom_site_fract_x
_atom_site_fract_y
_atom_site_fract_z
Si Si1 0.638129 0.119294 0.239215
Si Si2 0.832622 0.818961 0.736150
Si Si3 0.337621 0.379946 0.153793
Si Si4 0.493364 0.841880 0.986981
Si Si5 0.720923 0.812953 0.472339
Si Si6 0.662947 0.219570 0.546177
Si Si7 0.896032 0.549268 0.315418
O O1 0.423478 0.300874 0.132866
O O2 0.519997 0.095279 0.118803
O O3 0.005228 0.129950 0.386356
O O4 0.605803 0.944367 0.321792
O O5 0.647484 0.800486 0.740140
O O6 0.669148 0.706083 0.648031
O O7 0.201870 0.743464 0.914729
O O8 0.805613 0.019768 0.636821
O O9 0.601036 0.489884 0.252036
O O10 0.000000 0.500000 0.000000
O O11 0.787547 0.682018 0.165715
O O12 0.500000 0.000000 0.000000
O O13 0.411676 0.795959 0.396391
O O14 0.847340 0.617525 0.552760
O O15 0.916499 0.337326 0.592147
#
# Coordination Sequence:
#
# PCOD8015444 Si02
#       7
#     2   2   2   2   2   2   2
#     4  10  23  43  72 100 141 188 232 281 351 424
#     4  11  23  41  71  94 138 188 228 278 353 416
#     4  11  23  43  69 103 139 179 230 290 355 411
#     4  12  24  46  69 103 140 187 234 288 347 415
#     4  10  21  42  69 103 140 179 234 286 351 412
#     4  11  22  42  68 101 137 182 231 282 345 422
#     4  11  25  40  69 103 141 173 234 297 342 404
#
# _framework density 22.632266000000001
#
# number of rings (size 3 to 8) (size 9 to 14) (size 15 to 20)
#    0.000    1.143    5.714    0.429    0.000    4.000 
#    2.571    2.857    0.000    0.000    0.000    0.000 
#    0.000    0.000    0.000    0.000    0.000    0.000 
#
# Total GULP energy -173435.899973 kJ/mol
# GULP energy per Si atom -12388.278569 kJ/mol
# Density = 2.258075 g / cm^3
# Si number density = 22.632266 Si / 1000 Ang^3
#
#
#
# Elastic Constant Matrix: (Units=GPa)
#
#
# Indices 1 2 3 4 5 6 
#
# 1 105.9235 45.4152 30.9249 12.9173 3.7611 -1.0984
# 2 45.4152 132.5108 55.7715 16.4333 3.3731 9.1752
# 3 30.9249 55.7715 92.1381 12.0950 3.7819 -5.3629
# 4 12.9173 16.4333 12.0950 41.9081 -0.4711 8.5898
# 5 3.7611 3.3731 3.7819 -0.4711 34.7979 5.7262
# 6 -1.0984 9.1752 -5.3629 8.5898 5.7262 30.8365
#
#
#
# Elastic Compliance Matrix: (Units=1/GPa)
#
#
# Indices 1 2 3 4 5 6 
#
# 1 0.011575 -0.003148 -0.001518 -0.002305 -0.001131 0.001937
# 2 -0.003148 0.011619 -0.006148 -0.000881 0.000612 -0.004507
# 3 -0.001518 -0.006148 0.015876 -0.002894 -0.001943 0.005703
# 4 -0.002305 -0.000881 -0.002894 0.027509 0.002409 -0.008433
# 5 -0.001131 0.000612 -0.001943 0.002409 0.030169 -0.006834
# 6 0.001937 -0.004507 0.005703 -0.008433 -0.006834 0.038449
#
#
# Mechanical properties :
#
#
# Convention : Reuss Voigt Hill
#
# Bulk Modulus (GPa) = 57.33299 66.08840 61.71069
# Shear Modulus (GPa) = 30.74328 34.73921 32.74124
#
# Velocity S-wave (km/s) = 3.68962 3.92208 3.80763
# Velocity P-wave (km/s) = 6.59837 7.05512 6.83056
#
# Compressibility (1/GPa) = 0.01744197
#
# Stress axis : x y z
#
# Youngs Moduli (GPa) = 86.39418 86.06809 62.98860
#
# Poissons Ratio (x) = 0.27091 0.09561
# Poissons Ratio (y) = 0.27194 0.38727
# Poissons Ratio (z) = 0.13114 0.52916
#
# Static dielectric constant tensor:
#      x y z
#    x 4.060360 0.319450 0.068840 
#    y 0.319450 4.132130 0.021420 
#    z 0.068840 0.021420 4.271810 
# 
# 
# High freq. dielectric constant tensor:
#      x y z
#    x 1.884940 0.016800 0.009740 
#    y 0.016800 1.888560 -0.008550 
#    z 0.009740 -0.008550 1.892180 
# 
# From -- ./inp_files/207960.got.cif
#   From: 2010.06.25/outbox.cif.g09.slc.cpg/sg2_104_cif.got.tgz:207960.got - 2010.06.27 13:26:56.
