data_PCOD8015524
_publ_section_title
;
Structure prediction by ZEFSAII (Michael W. Deem and Ramdas Pophale) SiO2 
 PCOD8015524
Probable space group: P -1
;
_chemical_formula_sum "Si O2"
_cell_formula_units_Z 16
_cell_length_a 21.240743
_cell_length_b 8.146123
_cell_length_c 11.795997
_cell_angle_alpha 96.726351
_cell_angle_beta 153.767487
_cell_angle_gamma 99.701148
_cell_volume 700.693875
_symmetry_space_group_name_H-M "P -1"
_symmetry_group_IT_number 2
_symmetry_cell_setting 'triclinic'
loop_
_space_group_symop_operation_xyz
x,y,z
-x,-y,-z
loop_
_atom_site_type_symbol
_atom_site_label
_atom_site_fract_x
_atom_site_fract_y
_atom_site_fract_z
Si Si1 0.345675 0.919802 0.085503
Si Si2 0.188558 0.690825 0.375670
Si Si3 0.503193 0.738634 0.801557
Si Si4 0.659832 0.400209 0.059338
Si Si5 0.271731 0.949519 0.210184
Si Si6 0.120471 0.332516 0.376481
Si Si7 0.320107 0.148940 0.660423
Si Si8 0.547942 0.588813 0.458428
O O1 0.342777 0.089680 0.024792
O O2 0.554335 0.018265 0.458021
O O3 0.258977 0.722537 0.844862
O O4 0.230616 0.854687 0.009211
O O5 0.363322 0.791235 0.586647
O O6 0.221804 0.571904 0.514603
O O7 0.201033 0.891174 0.453213
O O8 0.000000 0.500000 0.000000
O O9 0.393031 0.512274 0.542226
O O10 0.588550 0.749017 0.061134
O O11 0.471991 0.253392 0.816759
O O12 0.627742 0.454988 0.887687
O O13 0.814420 0.624298 0.384442
O O14 0.292084 0.161984 0.254925
O O15 0.096545 0.795788 0.995881
O O16 0.186655 0.206947 0.418068
O O17 0.500000 0.500000 0.500000
#
# Coordination Sequence:
#
# PCOD8015524 Si02
#       8
#     2   2   2   2   2   2   2   2
#     4  10  21  42  70  92 133 186 229 280 341 410
#     4  12  27  42  68 109 141 179 232 291 348 408
#     4  12  21  43  71  97 135 181 236 280 342 421
#     4  11  22  44  69  96 135 185 231 279 345 423
#     4  10  24  43  64 100 138 181 230 287 345 410
#     4  12  25  44  67 105 146 176 231 289 351 405
#     4  12  25  46  70 105 139 189 228 280 356 424
#     4  11  23  41  68  99 128 181 235 277 341 409
#
# _framework density 22.834506999999999
#
# number of rings (size 3 to 8) (size 9 to 14) (size 15 to 20)
#    0.000    0.750    5.000    3.000    3.500    1.000 
#    0.000    2.500    0.000    0.000    0.000    0.000 
#    0.000    0.000    0.000    0.000    0.000    0.000 
#
# Total GULP energy -198225.126549 kJ/mol
# GULP energy per Si atom -12389.070409 kJ/mol
# Density = 2.278253 g / cm^3
# Si number density = 22.834507 Si / 1000 Ang^3
#
#
#
# Elastic Constant Matrix: (Units=GPa)
#
#
# Indices 1 2 3 4 5 6 
#
# 1 93.9065 34.2274 7.2856 5.1284 -19.0826 -10.7503
# 2 34.2274 124.8247 7.2418 11.3486 -7.5319 -11.0665
# 3 7.2856 7.2418 60.4065 4.5256 -6.8348 -9.4334
# 4 5.1284 11.3486 4.5256 28.2828 -4.2673 -7.0855
# 5 -19.0826 -7.5319 -6.8348 -4.2673 31.5186 1.3318
# 6 -10.7503 -11.0665 -9.4334 -7.0855 1.3318 48.8654
#
#
#
# Elastic Compliance Matrix: (Units=1/GPa)
#
#
# Indices 1 2 3 4 5 6 
#
# 1 0.013507 -0.003106 -0.000127 0.000459 0.007381 0.002109
# 2 -0.003106 0.009216 -0.000394 -0.002871 -0.000191 0.000917
# 3 -0.000127 -0.000394 0.017562 -0.001380 0.003325 0.002983
# 4 0.000459 -0.002871 -0.001380 0.038459 0.004303 0.004644
# 5 0.007381 -0.000191 0.003325 0.004303 0.037377 0.001828
# 6 0.002109 0.000917 0.002983 0.004644 0.001828 0.022335
#
#
# Mechanical properties :
#
#
# Convention : Reuss Voigt Hill
#
# Bulk Modulus (GPa) = 30.27196 41.84970 36.06083
# Shear Modulus (GPa) = 31.90388 37.09222 34.49805
#
# Velocity S-wave (km/s) = 3.74194 4.03475 3.89110
# Velocity P-wave (km/s) = 5.65291 6.33031 6.00117
#
# Compressibility (1/GPa) = 0.03303387
#
# Stress axis : x y z
#
# Youngs Moduli (GPa) = 74.03594 108.50132 56.93993
#
# Poissons Ratio (x) = 0.33697 0.00721
# Poissons Ratio (y) = 0.22993 0.02241
# Poissons Ratio (z) = 0.00938 0.04271
#
# Static dielectric constant tensor:
#      x y z
#    x 4.257840 -0.089880 -0.311250 
#    y -0.089880 4.509320 0.074330 
#    z -0.311250 0.074330 3.793600 
# 
# 
# High freq. dielectric constant tensor:
#      x y z
#    x 1.904780 -0.001620 -0.026620 
#    y -0.001620 1.920560 0.003690 
#    z -0.026620 0.003690 1.866780 
# 
# From -- ./inp_files/381642.got.cif
#   From: 2010.06.25/outbox.cif.g09.slc.cpg/sg2_191_cif.got.tgz:381642.got - 2010.06.27 13:26:56.
