data_PCOD8015081
_publ_section_title
;
Structure prediction by ZEFSAII (Michael W. Deem and Ramdas Pophale) SiO2 
 PCOD8015081
Probable space group: P -1
;
_chemical_formula_sum "Si O2"
_cell_formula_units_Z 16
_cell_length_a 13.160258
_cell_length_b 9.776688
_cell_length_c 15.208753
_cell_angle_alpha 74.634558
_cell_angle_beta 151.358776
_cell_angle_gamma 121.006382
_cell_volume 715.689861
_symmetry_space_group_name_H-M "P -1"
_symmetry_group_IT_number 2
_symmetry_cell_setting 'triclinic'
loop_
_space_group_symop_operation_xyz
x,y,z
-x,-y,-z
loop_
_atom_site_type_symbol
_atom_site_label
_atom_site_fract_x
_atom_site_fract_y
_atom_site_fract_z
Si Si1 0.993886 0.484800 0.176374
Si Si2 0.335396 0.400527 0.034740
Si Si3 0.670144 0.201081 0.128364
Si Si4 0.827413 0.050046 0.406270
Si Si5 0.265022 0.290886 0.812661
Si Si6 0.070235 0.015095 0.949311
Si Si7 0.292027 0.799049 0.129558
Si Si8 0.504006 0.850557 0.478723
O O1 0.839505 0.572119 0.039717
O O2 0.886854 0.341034 0.197332
O O3 0.304929 0.651879 0.404917
O O4 0.949395 0.395939 0.060685
O O5 0.240190 0.379872 0.863932
O O6 0.299307 0.225020 0.067786
O O7 0.639979 0.582265 0.225133
O O8 0.831372 0.203591 0.333323
O O9 0.463017 0.239714 0.990653
O O10 0.500000 0.000000 0.000000
O O11 0.961486 0.122232 0.591496
O O12 0.526929 0.872200 0.223844
O O13 0.000000 0.000000 0.500000
O O14 0.809379 0.923886 0.704914
O O15 0.201453 0.922923 0.039012
O O16 0.000000 0.000000 0.000000
O O17 0.394543 0.806520 0.303457
O O18 0.500000 0.000000 0.500000
#
# Coordination Sequence:
#
# PCOD8015081 Si02
#       8
#     2   2   2   2   2   2   2   2
#     4  11  24  44  71 102 141 188 234 290 348 420
#     4  10  21  42  65  95 141 180 229 289 344 409
#     4  11  21  42  64 100 147 175 228 294 347 412
#     4  12  23  40  70 104 141 187 229 281 358 425
#     4  10  22  39  65  96 134 187 229 279 348 417
#     4  12  25  44  72 100 140 183 232 295 355 408
#     4  12  26  45  74 103 143 186 234 292 360 414
#     4  12  25  48  74 101 138 187 240 292 350 421
#
# _framework density 22.356051999999998
#
# number of rings (size 3 to 8) (size 9 to 14) (size 15 to 20)
#    0.000    0.750    5.000    2.625    0.000    2.500 
#    0.000    7.500    0.000    0.000    0.000    0.000 
#    0.000    0.000    0.000    0.000    0.000    0.000 
#
# Total GULP energy -198266.599283 kJ/mol
# GULP energy per Si atom -12391.662455 kJ/mol
# Density = 2.230517 g / cm^3
# Si number density = 22.356052 Si / 1000 Ang^3
#
#
#
# Elastic Constant Matrix: (Units=GPa)
#
#
# Indices 1 2 3 4 5 6 
#
# 1 74.1184 36.0217 10.5286 -6.1363 -1.5055 -5.5441
# 2 36.0217 132.6611 36.8816 2.5504 3.7900 -3.1275
# 3 10.5286 36.8816 87.7419 -10.8844 -2.4693 -2.6982
# 4 -6.1363 2.5504 -10.8844 30.6553 0.3509 -0.9962
# 5 -1.5055 3.7900 -2.4693 0.3509 32.3286 0.8578
# 6 -5.5441 -3.1275 -2.6982 -0.9962 0.8578 42.5364
#
#
#
# Elastic Compliance Matrix: (Units=1/GPa)
#
#
# Indices 1 2 3 4 5 6 
#
# 1 0.016134 -0.004605 0.000571 0.003862 0.001243 0.001866
# 2 -0.004605 0.010038 -0.004116 -0.003205 -0.001667 -0.000165
# 3 0.000571 -0.004116 0.013788 0.005360 0.001484 0.000742
# 4 0.003862 -0.003205 0.005360 0.035604 0.000540 0.001431
# 5 0.001243 -0.001667 0.001484 0.000540 0.031306 -0.000485
# 6 0.001866 -0.000165 0.000742 0.001431 -0.000485 0.023831
#
#
# Mechanical properties :
#
#
# Convention : Reuss Voigt Hill
#
# Bulk Modulus (GPa) = 42.26697 51.26500 46.76598
# Shear Modulus (GPa) = 32.28142 35.17668 33.72905
#
# Velocity S-wave (km/s) = 3.80408 3.97101 3.88844
# Velocity P-wave (km/s) = 6.18401 6.63371 6.41281
#
# Compressibility (1/GPa) = 0.02365914
#
# Stress axis : x y z
#
# Youngs Moduli (GPa) = 61.98267 99.61881 72.52545
#
# Poissons Ratio (x) = 0.45878 -0.04144
# Poissons Ratio (y) = 0.28545 0.29854
# Poissons Ratio (z) = -0.03541 0.41007
#
# Static dielectric constant tensor:
#      x y z
#    x 4.380210 0.361490 -0.410720 
#    y 0.361490 5.043930 -0.045830 
#    z -0.410720 -0.045830 4.992670 
# 
# 
# High freq. dielectric constant tensor:
#      x y z
#    x 1.887240 -0.000490 -0.001850 
#    y -0.000490 1.895300 0.016410 
#    z -0.001850 0.016410 1.868770 
# 
# From -- ./inp_files/515574.got.cif
#   From: 2010.06.25/outbox.cif.g09.slc.cpg/sg2_258_cif.got.tgz:515574.got - 2010.06.27 13:26:56.
