data_PCOD8015320
_publ_section_title
;
Structure prediction by ZEFSAII (Michael W. Deem and Ramdas Pophale) SiO2 
 PCOD8015320
Probable space group: P -1
;
_chemical_formula_sum "Si O2"
_cell_formula_units_Z 16
_cell_length_a 11.935448
_cell_length_b 8.695499
_cell_length_c 11.519517
_cell_angle_alpha 59.305510
_cell_angle_beta 57.497534
_cell_angle_gamma 47.139105
_cell_volume 718.478230
_symmetry_space_group_name_H-M "P -1"
_symmetry_group_IT_number 2
_symmetry_cell_setting 'triclinic'
loop_
_space_group_symop_operation_xyz
x,y,z
-x,-y,-z
loop_
_atom_site_type_symbol
_atom_site_label
_atom_site_fract_x
_atom_site_fract_y
_atom_site_fract_z
Si Si1 0.650488 0.912460 0.291685
Si Si2 0.862055 0.678824 0.586834
Si Si3 0.821165 0.423215 0.134408
Si Si4 0.590585 0.687829 0.611030
Si Si5 0.012860 0.447197 0.824585
Si Si6 0.895475 0.057386 0.379774
Si Si7 0.490117 0.127974 0.843511
Si Si8 0.754004 0.208881 0.639861
O O1 0.610254 0.767170 0.445405
O O2 0.842277 0.780052 0.221472
O O3 0.562260 0.958513 0.199847
O O4 0.587812 0.139312 0.304910
O O5 0.703222 0.687557 0.647318
O O6 0.000000 0.500000 0.500000
O O7 0.911457 0.625302 0.714082
O O8 0.830924 0.905195 0.478770
O O9 0.922467 0.450233 0.165373
O O10 0.828114 0.208050 0.245464
O O11 0.637646 0.619834 0.161052
O O12 0.896691 0.398453 0.975486
O O13 0.630131 0.450193 0.664025
O O14 0.820837 0.213436 0.474147
O O15 0.088931 0.920816 0.316893
O O16 0.662377 0.088118 0.737049
O O17 0.500000 0.000000 0.000000
#
# Coordination Sequence:
#
# PCOD8015320 Si02
#       8
#     2   2   2   2   2   2   2   2
#     4  10  22  40  65  96 131 176 216 271 336 380
#     4  12  22  41  68  99 134 173 220 262 338 396
#     4  10  24  40  69 100 131 169 227 276 326 379
#     4  11  23  41  67  98 132 173 218 280 324 395
#     4  10  21  42  67  97 133 175 220 272 326 400
#     4  11  23  40  70 102 127 173 220 284 317 388
#     4  11  26  44  66  98 134 180 220 270 332 399
#     4  11  23  41  67  99 133 165 232 270 327 382
#
# _framework density 22.269290000000002
#
# number of rings (size 3 to 8) (size 9 to 14) (size 15 to 20)
#    0.000    1.250    2.500    3.750    8.750    4.000 
#    0.000    1.250    2.750    0.000    0.000    0.000 
#    0.000    0.000    0.000    0.000    0.000    0.000 
#
# Total GULP energy -198431.943030 kJ/mol
# GULP energy per Si atom -12401.996439 kJ/mol
# Density = 2.221860 g / cm^3
# Si number density = 22.269290 Si / 1000 Ang^3
#
#
#
# Elastic Constant Matrix: (Units=GPa)
#
#
# Indices 1 2 3 4 5 6 
#
# 1 54.7713 0.6559 21.0157 -8.9216 5.4804 -4.5748
# 2 0.6559 136.4373 47.5662 0.3103 0.3802 3.4569
# 3 21.0157 47.5662 135.2577 -8.8235 8.7962 -7.4868
# 4 -8.9216 0.3103 -8.8235 42.6340 -7.0154 -1.8804
# 5 5.4804 0.3802 8.7962 -7.0154 31.4062 -1.4385
# 6 -4.5748 3.4569 -7.4868 -1.8804 -1.4385 20.2073
#
#
#
# Elastic Compliance Matrix: (Units=1/GPa)
#
#
# Indices 1 2 3 4 5 6 
#
# 1 0.020423 0.000824 -0.002916 0.003526 -0.001804 0.003602
# 2 0.000824 0.008557 -0.003347 -0.000623 0.000434 -0.002544
# 3 -0.002916 -0.003347 0.009399 0.001237 -0.001651 0.003392
# 4 0.003526 -0.000623 0.001237 0.025443 0.004916 0.004081
# 5 -0.001804 0.000434 -0.001651 0.004916 0.033792 0.001768
# 6 0.003602 -0.002544 0.003392 0.004081 0.001768 0.052500
#
#
# Mechanical properties :
#
#
# Convention : Reuss Voigt Hill
#
# Bulk Modulus (GPa) = 36.36264 51.66020 44.01142
# Shear Modulus (GPa) = 29.38426 35.99807 32.69116
#
# Velocity S-wave (km/s) = 3.63643 4.02492 3.83560
# Velocity P-wave (km/s) = 5.83057 6.69689 6.27869
#
# Compressibility (1/GPa) = 0.02750075
#
# Stress axis : x y z
#
# Youngs Moduli (GPa) = 48.96544 116.86375 106.39013
#
# Poissons Ratio (x) = -0.09633 0.31027
# Poissons Ratio (y) = -0.04036 0.35609
# Poissons Ratio (z) = 0.14280 0.39115
#
# Static dielectric constant tensor:
#      x y z
#    x 3.467380 -0.126810 -0.037860 
#    y -0.126810 4.217800 0.223380 
#    z -0.037860 0.223380 3.914640 
# 
# 
# High freq. dielectric constant tensor:
#      x y z
#    x 1.864030 -0.018010 0.008190 
#    y -0.018010 1.891350 0.008290 
#    z 0.008190 0.008290 1.866160 
# 
# From -- ./inp_files/416493.got.cif
#   From: 2010.06.25/outbox.cif.g09.slc.cpg/sg2_209_cif.got.tgz:416493.got - 2010.06.27 13:26:56.
