data_PCOD8015298
_publ_section_title
;
Structure prediction by ZEFSAII (Michael W. Deem and Ramdas Pophale) SiO2 
 PCOD8015298
Probable space group: P -1
;
_chemical_formula_sum "Si O2"
_cell_formula_units_Z 12
_cell_length_a 6.295442
_cell_length_b 11.390218
_cell_length_c 20.066950
_cell_angle_alpha 29.864720
_cell_angle_beta 117.680093
_cell_angle_gamma 99.753818
_cell_volume 538.322767
_symmetry_space_group_name_H-M "P -1"
_symmetry_group_IT_number 2
_symmetry_cell_setting 'triclinic'
loop_
_space_group_symop_operation_xyz
x,y,z
-x,-y,-z
loop_
_atom_site_type_symbol
_atom_site_label
_atom_site_fract_x
_atom_site_fract_y
_atom_site_fract_z
Si Si1 0.591991 0.210487 0.690777
Si Si2 0.126866 0.095543 0.643106
Si Si3 0.210094 0.158536 0.475598
Si Si4 0.586132 0.422161 0.243812
Si Si5 0.488899 0.509246 0.332506
Si Si6 0.091755 0.715061 0.925963
O O1 0.500000 0.500000 0.500000
O O2 0.336208 0.160164 0.680275
O O3 0.675526 0.225497 0.772818
O O4 0.858728 0.961420 0.815809
O O5 0.211592 0.028378 0.611534
O O6 0.815640 0.365149 0.470941
O O7 0.141280 0.828675 0.808768
O O8 0.395134 0.293119 0.440877
O O9 0.890921 0.387674 0.292491
O O10 0.355102 0.888459 0.581685
O O11 0.442140 0.596007 0.205230
O O12 0.384369 0.571122 0.079305
O O13 0.000000 0.500000 0.000000
#
# Coordination Sequence:
#
# PCOD8015298 Si02
#       6
#     2   2   2   2   2   2
#     4  12  24  42  70 100 130 175 223 268 327 391
#     4  11  22  41  72  96 130 172 226 269 321 387
#     4  10  21  42  67  95 129 177 222 263 327 391
#     4  10  24  40  63  97 134 174 214 272 326 390
#     4  11  22  41  68  95 130 176 221 266 324 392
#     4  12  27  44  66 102 135 169 220 275 329 387
#
# _framework density 22.291457000000001
#
# number of rings (size 3 to 8) (size 9 to 14) (size 15 to 20)
#    0.000    1.000    3.333    3.000    0.000    7.333 
#    0.000    1.667    0.000    0.000    0.000    0.000 
#    0.000    0.000    0.000    0.000    0.000    0.000 
#
# Total GULP energy -148808.667286 kJ/mol
# GULP energy per Si atom -12400.722274 kJ/mol
# Density = 2.224072 g / cm^3
# Si number density = 22.291457 Si / 1000 Ang^3
#
#
#
# Elastic Constant Matrix: (Units=GPa)
#
#
# Indices 1 2 3 4 5 6 
#
# 1 72.7485 7.3433 15.4703 0.6057 5.6694 11.6578
# 2 7.3433 97.3678 17.9302 -0.6713 13.4072 -5.0923
# 3 15.4703 17.9302 73.8179 8.1252 7.9324 -10.7981
# 4 0.6057 -0.6713 8.1252 43.4625 -2.3340 -1.3001
# 5 5.6694 13.4072 7.9324 -2.3340 31.0869 -1.9406
# 6 11.6578 -5.0923 -10.7981 -1.3001 -1.9406 37.4416
#
#
#
# Elastic Compliance Matrix: (Units=1/GPa)
#
#
# Indices 1 2 3 4 5 6 
#
# 1 0.015777 -0.000516 -0.003893 0.000205 -0.002033 -0.006203
# 2 -0.000516 0.011320 -0.002105 0.000378 -0.004167 0.000890
# 3 -0.003893 -0.002105 0.016250 -0.002985 -0.002417 0.005383
# 4 0.000205 0.000378 -0.002985 0.023697 0.002345 0.000071
# 5 -0.002033 -0.004167 -0.002417 0.002345 0.035208 0.001276
# 6 -0.006203 0.000890 0.005383 0.000071 0.001276 0.030382
#
#
# Mechanical properties :
#
#
# Convention : Reuss Voigt Hill
#
# Bulk Modulus (GPa) = 32.98287 36.15798 34.57043
# Shear Modulus (GPa) = 32.09922 35.94422 34.02172
#
# Velocity S-wave (km/s) = 3.79882 4.01991 3.91093
# Velocity P-wave (km/s) = 5.83693 6.14833 5.99465
#
# Compressibility (1/GPa) = 0.03031877
#
# Stress axis : x y z
#
# Youngs Moduli (GPa) = 63.38477 88.34051 61.53989
#
# Poissons Ratio (x) = 0.04559 0.23955
# Poissons Ratio (y) = 0.03271 0.12955
# Poissons Ratio (z) = 0.24673 0.18596
#
# Static dielectric constant tensor:
#      x y z
#    x 4.243050 -0.183190 0.294260 
#    y -0.183190 4.472270 -0.041530 
#    z 0.294260 -0.041530 3.903640 
# 
# 
# High freq. dielectric constant tensor:
#      x y z
#    x 1.886470 -0.001580 0.015020 
#    y -0.001580 1.900820 0.007000 
#    z 0.015020 0.007000 1.849700 
# 
# From -- ./inp_files/24157.got.cif
#   From: 2010.06.25/outbox.cif.g09.slc.cpg/sg2_13_cif.got.tgz:24157.got - 2010.06.27 13:26:56.
