data_PCOD8015717
_publ_section_title
;
Structure prediction by ZEFSAII (Michael W. Deem and Ramdas Pophale) SiO2 
 PCOD8015717
Probable space group: P -1
;
_chemical_formula_sum "Si O2"
_cell_formula_units_Z 16
_cell_length_a 25.597733
_cell_length_b 15.517888
_cell_length_c 6.896877
_cell_angle_alpha 105.764097
_cell_angle_beta 103.476418
_cell_angle_gamma 16.851240
_cell_volume 760.726608
_symmetry_space_group_name_H-M "P -1"
_symmetry_group_IT_number 2
_symmetry_cell_setting 'triclinic'
loop_
_space_group_symop_operation_xyz
x,y,z
-x,-y,-z
loop_
_atom_site_type_symbol
_atom_site_label
_atom_site_fract_x
_atom_site_fract_y
_atom_site_fract_z
Si Si1 0.833577 0.827031 0.492821
Si Si2 0.800494 0.213256 0.531848
Si Si3 0.545756 0.216810 0.189480
Si Si4 0.290844 0.333524 0.252745
Si Si5 0.184886 0.649467 0.639069
Si Si6 0.342272 0.824956 0.053969
Si Si7 0.613176 0.707266 0.036044
Si Si8 0.930112 0.818848 0.262372
O O1 0.904954 0.798862 0.419091
O O2 0.000000 0.500000 0.500000
O O3 0.706172 0.970723 0.332828
O O4 0.717153 0.049063 0.707734
O O5 0.638476 0.448136 0.680216
O O6 0.738971 0.384870 0.426773
O O7 0.849862 0.044707 0.361431
O O8 0.967549 0.989559 0.658748
O O9 0.586223 0.202642 0.015710
O O10 0.520481 0.152306 0.088936
O O11 0.266734 0.428277 0.485332
O O12 0.143961 0.487510 0.204819
O O13 0.491350 0.974030 0.204667
O O14 0.264299 0.442097 0.113848
O O15 0.248464 0.558379 0.858614
O O16 0.500000 0.500000 0.000000
O O17 0.165611 0.069362 0.940535
#
# Coordination Sequence:
#
# PCOD8015717 Si02
#       8
#     2   2   2   2   2   2   2   2
#     4  11  27  46  68  97 132 172 220 274 329 381
#     4  10  21  43  63  96 135 165 216 270 314 390
#     4  11  25  41  66  98 131 166 220 269 318 395
#     4  10  23  43  61  96 131 166 216 268 315 394
#     4  10  22  41  63  93 133 173 209 261 325 382
#     4  11  25  43  69  97 128 175 218 269 332 384
#     4  11  24  39  65  96 131 171 213 262 326 389
#     4  10  24  43  67  94 131 167 221 268 319 391
#
# _framework density 21.032523999999999
#
# number of rings (size 3 to 8) (size 9 to 14) (size 15 to 20)
#    0.000    1.500    1.250    1.875    7.000    6.500 
#    4.500    0.000    0.000    0.000    0.000    0.000 
#    0.000    0.000    0.000    0.000    0.000    0.000 
#
# Total GULP energy -198468.484491 kJ/mol
# GULP energy per Si atom -12404.280281 kJ/mol
# Density = 2.098465 g / cm^3
# Si number density = 21.032524 Si / 1000 Ang^3
#
#
#
# Elastic Constant Matrix: (Units=GPa)
#
#
# Indices 1 2 3 4 5 6 
#
# 1 107.6213 29.3382 44.2692 -13.9525 -17.0358 -21.0248
# 2 29.3382 79.6086 42.9707 -4.7505 -11.1799 -2.4892
# 3 44.2692 42.9707 109.1446 -14.8213 -19.6827 -8.1613
# 4 -13.9525 -4.7505 -14.8213 31.8261 2.1921 -1.9132
# 5 -17.0358 -11.1799 -19.6827 2.1921 27.3515 4.9152
# 6 -21.0248 -2.4892 -8.1613 -1.9132 4.9152 36.3529
#
#
#
# Elastic Compliance Matrix: (Units=1/GPa)
#
#
# Indices 1 2 3 4 5 6 
#
# 1 0.013625 -0.002530 -0.002707 0.004474 0.003923 0.006804
# 2 -0.002530 0.016570 -0.005532 -0.001439 0.001668 -0.001872
# 3 -0.002707 -0.005532 0.014092 0.004195 0.005738 0.000664
# 4 0.004474 -0.001439 0.004195 0.035326 0.001471 0.005091
# 5 0.003923 0.001668 0.005738 0.001471 0.044096 -0.002213
# 6 0.006804 -0.001872 0.000664 0.005091 -0.002213 0.032032
#
#
# Mechanical properties :
#
#
# Convention : Reuss Voigt Hill
#
# Bulk Modulus (GPa) = 43.95567 58.83675 51.39621
# Shear Modulus (GPa) = 27.04752 31.09252 29.07002
#
# Velocity S-wave (km/s) = 3.58995 3.84905 3.72176
# Velocity P-wave (km/s) = 6.17479 6.91292 6.55425
#
# Compressibility (1/GPa) = 0.02275019
#
# Stress axis : x y z
#
# Youngs Moduli (GPa) = 73.39394 60.35133 70.96151
#
# Poissons Ratio (x) = 0.15267 0.19206
# Poissons Ratio (y) = 0.18566 0.39257
# Poissons Ratio (z) = 0.19865 0.33387
#
# Static dielectric constant tensor:
#      x y z
#    x 3.956120 -0.142400 -0.073170 
#    y -0.142400 3.803030 0.032340 
#    z -0.073170 0.032340 3.759350 
# 
# 
# High freq. dielectric constant tensor:
#      x y z
#    x 1.836320 -0.004080 -0.001650 
#    y -0.004080 1.827730 0.003450 
#    z -0.001650 0.003450 1.826750 
# 
# From -- ./inp_files/85374.got.cif
#   From: 2010.06.25/outbox.cif.g09.slc.cpg/sg2_43_cif.got.tgz:85374.got - 2010.06.27 13:26:56.
