data_PCOD8015469
_publ_section_title
;
Structure prediction by ZEFSAII (Michael W. Deem and Ramdas Pophale) SiO2 
 PCOD8015469
Probable space group: P -1
;
_chemical_formula_sum "Si O2"
_cell_formula_units_Z 14
_cell_length_a 9.648828
_cell_length_b 18.133188
_cell_length_c 8.285004
_cell_angle_alpha 87.097183
_cell_angle_beta 118.094107
_cell_angle_gamma 41.913258
_cell_volume 625.850135
_symmetry_space_group_name_H-M "P -1"
_symmetry_group_IT_number 2
_symmetry_cell_setting 'triclinic'
loop_
_space_group_symop_operation_xyz
x,y,z
-x,-y,-z
loop_
_atom_site_type_symbol
_atom_site_label
_atom_site_fract_x
_atom_site_fract_y
_atom_site_fract_z
Si Si1 0.623739 0.811217 0.282123
Si Si2 0.212688 0.842367 0.591351
Si Si3 0.837443 0.806171 0.886029
Si Si4 0.744388 0.614759 0.486263
Si Si5 0.171197 0.337745 0.932261
Si Si6 0.871125 0.852014 0.557283
Si Si7 0.069905 0.851077 0.153632
O O1 0.735519 0.707367 0.493812
O O2 0.673946 0.760373 0.134385
O O3 0.826055 0.803493 0.411173
O O4 0.247616 0.976117 0.098082
O O5 0.163581 0.839548 0.381874
O O6 0.142547 0.798532 0.663397
O O7 0.579252 0.712370 0.835130
O O8 0.000000 0.000000 0.500000
O O9 0.980419 0.772916 0.796527
O O10 0.454598 0.967021 0.638727
O O11 0.938766 0.682290 0.005539
O O12 0.980587 0.801028 0.103522
O O13 0.381352 0.739026 0.223909
O O14 0.000000 0.500000 0.500000
O O15 0.862863 0.516439 0.711858
#
# Coordination Sequence:
#
# PCOD8015469 Si02
#       7
#     2   2   2   2   2   2   2
#     4  10  21  42  69  94 128 174 220 268 320 385
#     4  12  23  39  69 103 131 167 219 271 322 389
#     4  10  22  39  65  97 132 171 215 272 322 384
#     4  10  25  42  65  97 134 173 216 272 329 388
#     4  11  23  43  66  95 140 170 212 269 330 384
#     4  10  22  39  63 101 131 164 222 273 319 377
#     4  11  23  40  71  94 129 171 227 260 330 379
#
# _framework density 22.369571000000001
#
# number of rings (size 3 to 8) (size 9 to 14) (size 15 to 20)
#    0.000    1.429    2.857    1.286    6.000    4.571 
#    0.000    0.714    0.000    0.000    0.000    0.000 
#    0.000    0.000    0.000    0.000    0.000    0.000 
#
# Total GULP energy -173521.775456 kJ/mol
# GULP energy per Si atom -12394.412533 kJ/mol
# Density = 2.231866 g / cm^3
# Si number density = 22.369571 Si / 1000 Ang^3
#
#
#
# Elastic Constant Matrix: (Units=GPa)
#
#
# Indices 1 2 3 4 5 6 
#
# 1 167.1391 59.2866 61.5786 -12.7976 -10.2367 33.3253
# 2 59.2866 73.6231 58.2242 5.1932 3.6423 11.5388
# 3 61.5786 58.2242 103.6364 5.4544 -2.8348 25.3642
# 4 -12.7976 5.1932 5.4544 40.4405 5.8248 -0.6327
# 5 -10.2367 3.6423 -2.8348 5.8248 41.0103 -5.0368
# 6 33.3253 11.5388 25.3642 -0.6327 -5.0368 37.7941
#
#
#
# Elastic Compliance Matrix: (Units=1/GPa)
#
#
# Indices 1 2 3 4 5 6 
#
# 1 0.010497 -0.007192 -0.000844 0.003993 0.001875 -0.006177
# 2 -0.007192 0.029895 -0.013900 -0.003545 -0.004180 0.005927
# 3 -0.000844 -0.013900 0.020124 -0.001559 0.001614 -0.008329
# 4 0.003993 -0.003545 -0.001559 0.027039 -0.002798 -0.001312
# 5 0.001875 -0.004180 0.001614 -0.002798 0.025972 0.001954
# 6 -0.006177 0.005927 -0.008329 -0.001312 0.001954 0.035925
#
#
# Mechanical properties :
#
#
# Convention : Reuss Voigt Hill
#
# Bulk Modulus (GPa) = 60.07925 78.06415 69.07170
# Shear Modulus (GPa) = 25.14150 34.86958 30.00554
#
# Velocity S-wave (km/s) = 3.35612 3.95244 3.66642
# Velocity P-wave (km/s) = 6.47564 7.47009 6.99057
#
# Compressibility (1/GPa) = 0.01664468
#
# Stress axis : x y z
#
# Youngs Moduli (GPa) = 95.26302 33.44990 49.69075
#
# Poissons Ratio (x) = 0.24058 0.04191
# Poissons Ratio (y) = 0.68516 0.69072
# Poissons Ratio (z) = 0.08035 0.46497
#
# Static dielectric constant tensor:
#      x y z
#    x 4.277970 0.219420 -0.065040 
#    y 0.219420 4.118130 -0.137480 
#    z -0.065040 -0.137480 4.303930 
# 
# 
# High freq. dielectric constant tensor:
#      x y z
#    x 1.891720 0.016370 0.000030 
#    y 0.016370 1.872410 0.004610 
#    z 0.000030 0.004610 1.873500 
# 
# From -- ./inp_files/156601.got.cif
#   From: 2010.06.25/outbox.cif.g09.slc.cpg/sg2_79_cif.got.tgz:156601.got - 2010.06.27 13:26:56.
