data_PCOD8015177
_publ_section_title
;
Structure prediction by ZEFSAII (Michael W. Deem and Ramdas Pophale) SiO2 
 PCOD8015177
Probable space group: P -1
;
_chemical_formula_sum "Si O2"
_cell_formula_units_Z 16
_cell_length_a 9.535309
_cell_length_b 11.935217
_cell_length_c 9.460688
_cell_angle_alpha 121.432705
_cell_angle_beta 68.856258
_cell_angle_gamma 121.901937
_cell_volume 774.516838
_symmetry_space_group_name_H-M "P -1"
_symmetry_group_IT_number 2
_symmetry_cell_setting 'triclinic'
loop_
_space_group_symop_operation_xyz
x,y,z
-x,-y,-z
loop_
_atom_site_type_symbol
_atom_site_label
_atom_site_fract_x
_atom_site_fract_y
_atom_site_fract_z
Si Si1 0.757584 0.603174 0.955341
Si Si2 0.136064 0.150838 0.695290
Si Si3 0.517031 0.153784 0.154647
Si Si4 0.533526 0.861983 0.378293
Si Si5 0.531447 0.318654 0.978780
Si Si6 0.090857 0.355655 0.362013
Si Si7 0.172984 0.137560 0.359218
Si Si8 0.739122 0.319289 0.433250
O O1 0.701671 0.446650 0.945161
O O2 0.893096 0.622833 0.799414
O O3 0.833506 0.714847 0.128138
O O4 0.608832 0.621691 0.940047
O O5 0.277684 0.093691 0.617771
O O6 0.137649 0.195637 0.560159
O O7 0.961472 0.026066 0.724745
O O8 0.350983 0.133529 0.284817
O O9 0.670444 0.224070 0.253852
O O10 0.552258 0.272259 0.097469
O O11 0.500000 0.000000 0.000000
O O12 0.514325 0.821900 0.194363
O O13 0.406491 0.727303 0.427834
O O14 0.500000 0.000000 0.500000
O O15 0.157745 0.240115 0.310476
O O16 0.196906 0.508258 0.504140
O O17 0.893724 0.293640 0.423056
#
# Coordination Sequence:
#
# PCOD8015177 Si02
#       8
#     2   2   2   2   2   2   2   2
#     4  10  21  42  66  94 127 165 223 263 318 386
#     4  10  24  40  64  96 126 169 215 266 316 386
#     4  12  26  43  65 100 133 172 215 270 325 381
#     4  11  20  40  64  91 129 172 207 262 323 382
#     4  10  22  39  65  96 123 169 218 262 320 381
#     4  11  24  45  67  96 129 173 215 267 323 386
#     4  11  24  44  66  95 129 170 219 264 322 387
#     4  11  25  43  65  97 132 167 216 266 325 386
#
# _framework density 20.658041000000001
#
# number of rings (size 3 to 8) (size 9 to 14) (size 15 to 20)
#    0.000    1.250    3.750    1.500    3.500    2.000 
#    0.000    0.625    0.000    0.000    0.000    0.000 
#    0.000    0.000    0.000    0.000    0.000    0.000 
#
# Total GULP energy -198443.648085 kJ/mol
# GULP energy per Si atom -12402.728005 kJ/mol
# Density = 2.061102 g / cm^3
# Si number density = 20.658041 Si / 1000 Ang^3
#
#
#
# Elastic Constant Matrix: (Units=GPa)
#
#
# Indices 1 2 3 4 5 6 
#
# 1 71.6181 35.4408 21.3805 9.2141 5.3494 14.5167
# 2 35.4408 101.4605 30.1685 -4.2773 7.1606 2.0136
# 3 21.3805 30.1685 77.8021 0.1221 7.2889 3.1754
# 4 9.2141 -4.2773 0.1221 26.1952 -0.8934 -4.7988
# 5 5.3494 7.1606 7.2889 -0.8934 32.8088 2.1227
# 6 14.5167 2.0136 3.1754 -4.7988 2.1227 26.4664
#
#
#
# Elastic Compliance Matrix: (Units=1/GPa)
#
#
# Indices 1 2 3 4 5 6 
#
# 1 0.022723 -0.007272 -0.002762 -0.011695 -0.000941 -0.013624
# 2 -0.007272 0.013627 -0.003366 0.005576 -0.001177 0.004461
# 3 -0.002762 -0.003366 0.015113 0.000312 -0.002176 0.000189
# 4 -0.011695 0.005576 0.000312 0.045829 0.000951 0.014186
# 5 -0.000941 -0.001177 -0.002176 0.000951 0.031496 -0.001487
# 6 -0.013624 0.004461 0.000189 0.014186 -0.001487 0.047586
#
#
# Mechanical properties :
#
#
# Convention : Reuss Voigt Hill
#
# Bulk Modulus (GPa) = 40.54790 47.20669 43.87730
# Shear Modulus (GPa) = 23.65260 28.02014 25.83637
#
# Velocity S-wave (km/s) = 3.38739 3.68690 3.54032
# Velocity P-wave (km/s) = 5.91354 6.40511 6.16423
#
# Compressibility (1/GPa) = 0.02466219
#
# Stress axis : x y z
#
# Youngs Moduli (GPa) = 44.00917 73.38518 66.16818
#
# Poissons Ratio (x) = 0.53367 0.18275
# Poissons Ratio (y) = 0.32004 0.22272
# Poissons Ratio (z) = 0.12155 0.24701
#
# Static dielectric constant tensor:
#      x y z
#    x 3.692620 0.205650 0.008530 
#    y 0.205650 3.823160 -0.117800 
#    z 0.008530 -0.117800 3.763210 
# 
# 
# High freq. dielectric constant tensor:
#      x y z
#    x 1.796950 0.011060 0.000760 
#    y 0.011060 1.814430 -0.002600 
#    z 0.000760 -0.002600 1.819090 
# 
# From -- ./inp_files/189899.got.cif
#   From: 2010.06.25/outbox.cif.g09.slc.cpg/sg2_95_cif.got.tgz:189899.got - 2010.06.27 13:26:56.
