data_PCOD8015415
_publ_section_title
;
Structure prediction by ZEFSAII (Michael W. Deem and Ramdas Pophale) SiO2 
 PCOD8015415
Probable space group: P -1
;
_chemical_formula_sum "Si O2"
_cell_formula_units_Z 16
_cell_length_a 13.838426
_cell_length_b 11.448346
_cell_length_c 9.092076
_cell_angle_alpha 65.184133
_cell_angle_beta 99.327567
_cell_angle_gamma 144.677970
_cell_volume 709.866453
_symmetry_space_group_name_H-M "P -1"
_symmetry_group_IT_number 2
_symmetry_cell_setting 'triclinic'
loop_
_space_group_symop_operation_xyz
x,y,z
-x,-y,-z
loop_
_atom_site_type_symbol
_atom_site_label
_atom_site_fract_x
_atom_site_fract_y
_atom_site_fract_z
Si Si1 0.421737 0.577431 0.830643
Si Si2 0.230441 0.154967 0.347740
Si Si3 0.551155 0.178301 0.513864
Si Si4 0.168169 0.859867 0.677170
Si Si5 0.798124 0.384074 0.739202
Si Si6 0.139022 0.059920 0.070869
Si Si7 0.381644 0.592098 0.146194
Si Si8 0.769525 0.075308 0.018621
O O1 0.625354 0.772042 0.743705
O O2 0.357698 0.609563 0.674741
O O3 0.328153 0.335312 0.935770
O O4 0.399367 0.619792 0.960399
O O5 0.085636 0.002225 0.261677
O O6 0.291676 0.362507 0.304304
O O7 0.165216 0.007862 0.553095
O O8 0.702765 0.310892 0.600348
O O9 0.500000 0.000000 0.500000
O O10 0.364016 0.015781 0.624140
O O11 0.117232 0.792201 0.872629
O O12 0.015415 0.623991 0.664002
O O13 0.738752 0.420973 0.827710
O O14 0.738706 0.177676 0.880431
O O15 0.129446 0.908206 0.077815
O O16 0.000000 0.000000 0.000000
O O17 0.574967 0.808590 0.154188
#
# Coordination Sequence:
#
# PCOD8015415 Si02
#       8
#     2   2   2   2   2   2   2   2
#     4  10  21  42  68  98 132 173 234 281 334 401
#     4  10  22  45  67  96 135 178 227 291 336 392
#     4  11  26  45  72 100 133 188 228 281 346 408
#     4  11  28  45  65 104 141 178 233 282 342 403
#     4  12  28  45  69 101 143 185 223 282 343 411
#     4  11  24  40  69 102 130 180 229 281 343 397
#     4  11  21  43  74  97 133 185 227 276 345 411
#     4  12  24  46  67  98 143 182 231 280 338 414
#
# _framework density 22.539451
#
# number of rings (size 3 to 8) (size 9 to 14) (size 15 to 20)
#    0.000    1.000    3.750    2.250    8.750    3.500 
#    0.000    0.000    0.000    0.000    0.000    0.000 
#    0.000    0.000    0.000    0.000    0.000    0.000 
#
# Total GULP energy -198365.073942 kJ/mol
# GULP energy per Si atom -12397.817121 kJ/mol
# Density = 2.248815 g / cm^3
# Si number density = 22.539451 Si / 1000 Ang^3
#
#
#
# Elastic Constant Matrix: (Units=GPa)
#
#
# Indices 1 2 3 4 5 6 
#
# 1 105.6281 31.5823 36.1429 13.3416 22.0013 -23.8747
# 2 31.5823 115.9452 33.3294 25.4979 12.3314 2.3795
# 3 36.1429 33.3294 93.8283 23.6927 29.4700 -8.3817
# 4 13.3416 25.4979 23.6927 29.8960 5.9787 6.6283
# 5 22.0013 12.3314 29.4700 5.9787 37.4222 0.1211
# 6 -23.8747 2.3795 -8.3817 6.6283 0.1211 44.7766
#
#
#
# Elastic Compliance Matrix: (Units=1/GPa)
#
#
# Indices 1 2 3 4 5 6 
#
# 1 0.014084 -0.002136 -0.000909 -0.004300 -0.006199 0.008106
# 2 -0.002136 0.011245 -0.001326 -0.007342 -0.000230 -0.000897
# 3 -0.000909 -0.001326 0.018646 -0.011959 -0.011818 0.004878
# 4 -0.004300 -0.007342 -0.011959 0.052553 0.006008 -0.011937
# 5 -0.006199 -0.000230 -0.011818 0.006008 0.038810 -0.006500
# 6 0.008106 -0.000897 0.004878 -0.011937 -0.006500 0.029401
#
#
# Mechanical properties :
#
#
# Convention : Reuss Voigt Hill
#
# Bulk Modulus (GPa) = 28.38260 57.50118 42.94189
# Shear Modulus (GPa) = 26.99418 36.70875 31.85146
#
# Velocity S-wave (km/s) = 3.46445 4.04002 3.76326
# Velocity P-wave (km/s) = 5.35004 6.87962 6.16247
#
# Compressibility (1/GPa) = 0.03523286
#
# Stress axis : x y z
#
# Youngs Moduli (GPa) = 71.00497 88.92687 53.63009
#
# Poissons Ratio (x) = 0.18997 0.04876
# Poissons Ratio (y) = 0.15169 0.07109
# Poissons Ratio (z) = 0.06456 0.11788
#
# Static dielectric constant tensor:
#      x y z
#    x 4.082400 0.040550 0.230180 
#    y 0.040550 4.079630 0.064440 
#    z 0.230180 0.064440 4.214760 
# 
# 
# High freq. dielectric constant tensor:
#      x y z
#    x 1.893780 -0.000640 0.017380 
#    y -0.000640 1.891700 0.009930 
#    z 0.017380 0.009930 1.886050 
# 
# From -- ./inp_files/189241.got.cif
#   From: 2010.06.25/outbox.cif.g09.slc.cpg/sg2_95_cif.got.tgz:189241.got - 2010.06.27 13:26:56.
