data_PCOD8015609
_publ_section_title
;
Structure prediction by ZEFSAII (Michael W. Deem and Ramdas Pophale) SiO2 
 PCOD8015609
Probable space group: P -1
;
_chemical_formula_sum "Si O2"
_cell_formula_units_Z 14
_cell_length_a 11.680624
_cell_length_b 7.597117
_cell_length_c 8.825112
_cell_angle_alpha 104.419454
_cell_angle_beta 125.635019
_cell_angle_gamma 82.727092
_cell_volume 616.266414
_symmetry_space_group_name_H-M "P -1"
_symmetry_group_IT_number 2
_symmetry_cell_setting 'triclinic'
loop_
_space_group_symop_operation_xyz
x,y,z
-x,-y,-z
loop_
_atom_site_type_symbol
_atom_site_label
_atom_site_fract_x
_atom_site_fract_y
_atom_site_fract_z
Si Si1 0.635010 0.252132 0.177173
Si Si2 0.841627 0.188916 0.778549
Si Si3 0.198902 0.225254 0.394084
Si Si4 0.658877 0.839525 0.207294
Si Si5 0.354205 0.548892 0.466871
Si Si6 0.889387 0.233507 0.164431
Si Si7 0.069477 0.113815 0.718220
O O1 0.627830 0.400909 0.333123
O O2 0.761527 0.322622 0.178438
O O3 0.661081 0.056650 0.230032
O O4 0.487018 0.254239 0.974883
O O5 0.700240 0.283559 0.637133
O O6 0.954562 0.236017 0.740823
O O7 0.821405 0.972780 0.740050
O O8 0.884022 0.275612 0.990701
O O9 0.317917 0.206337 0.609794
O O10 0.252448 0.369659 0.340917
O O11 0.047227 0.292310 0.356207
O O12 0.795909 0.764162 0.206918
O O13 0.500000 0.500000 0.500000
O O14 0.871285 0.018774 0.135406
O O15 0.000000 0.000000 0.500000
#
# Coordination Sequence:
#
# PCOD8015609 Si02
#       7
#     2   2   2   2   2   2   2
#     4  10  23  44  66 100 137 177 222 276 331 398
#     4  11  23  45  68  99 140 172 221 286 323 392
#     4  11  23  43  73 100 130 183 220 270 344 392
#     4  10  20  39  75  99 131 181 223 267 340 393
#     4  12  29  45  66  99 137 173 230 278 332 403
#     4  10  22  40  72 102 134 177 225 269 337 399
#     4  10  16  36  70 101 129 170 222 269 320 399
#
# _framework density 22.717447
#
# number of rings (size 3 to 8) (size 9 to 14) (size 15 to 20)
#    0.000    1.429    4.286    2.571    2.000    6.857 
#    0.000    0.000    0.000    0.000    0.000    0.000 
#    0.000    0.000    0.000    0.000    0.000    0.000 
#
# Total GULP energy -173527.484901 kJ/mol
# GULP energy per Si atom -12394.820350 kJ/mol
# Density = 2.266574 g / cm^3
# Si number density = 22.717447 Si / 1000 Ang^3
#
#
#
# Elastic Constant Matrix: (Units=GPa)
#
#
# Indices 1 2 3 4 5 6 
#
# 1 177.7199 49.7032 55.7506 -3.9951 13.0015 -22.2765
# 2 49.7032 44.4037 23.2930 9.8664 6.4373 0.1719
# 3 55.7506 23.2930 120.3678 -20.2063 2.2441 -14.4731
# 4 -3.9951 9.8664 -20.2063 21.3738 1.7457 4.9331
# 5 13.0015 6.4373 2.2441 1.7457 47.0480 2.5461
# 6 -22.2765 0.1719 -14.4731 4.9331 2.5461 34.4650
#
#
#
# Elastic Compliance Matrix: (Units=1/GPa)
#
#
# Indices 1 2 3 4 5 6 
#
# 1 0.010177 -0.012029 -0.000738 0.005588 -0.001644 0.005649
# 2 -0.012029 0.048809 -0.010233 -0.032607 -0.001247 -0.007556
# 3 -0.000738 -0.010233 0.013829 0.016967 0.000156 0.002941
# 4 0.005588 -0.032607 0.016967 0.079072 -0.000807 -0.000358
# 5 -0.001644 -0.001247 0.000156 -0.000807 0.022038 -0.002504
# 6 0.005649 -0.007556 0.002941 -0.000358 -0.002504 0.034176
#
#
# Mechanical properties :
#
#
# Convention : Reuss Voigt Hill
#
# Bulk Modulus (GPa) = 37.29283 66.66500 51.97892
# Shear Modulus (GPa) = 19.00876 34.82700 26.91788
#
# Velocity S-wave (km/s) = 2.89580 3.91967 3.44597
# Velocity P-wave (km/s) = 5.25666 7.06357 6.22601
#
# Compressibility (1/GPa) = 0.02681481
#
# Stress axis : x y z
#
# Youngs Moduli (GPa) = 98.26542 20.48815 72.31294
#
# Poissons Ratio (x) = 0.24646 0.05333
# Poissons Ratio (y) = 1.18207 0.73996
# Poissons Ratio (z) = 0.07247 0.20965
#
# Static dielectric constant tensor:
#      x y z
#    x 4.356220 -0.005760 0.116820 
#    y -0.005760 3.904660 -0.199850 
#    z 0.116820 -0.199850 3.933970 
# 
# 
# High freq. dielectric constant tensor:
#      x y z
#    x 1.903570 -0.000220 0.007190 
#    y -0.000220 1.874630 -0.023850 
#    z 0.007190 -0.023850 1.890210 
# 
# From -- ./inp_files/240761.got.cif
#   From: 2010.06.25/outbox.cif.g09.slc.cpg/sg2_121_cif.got.tgz:240761.got - 2010.06.27 13:26:56.
