data_PCOD8015995
_publ_section_title
;
Structure prediction by ZEFSAII (Michael W. Deem and Ramdas Pophale) SiO2 
 PCOD8015995
Probable space group: P -1
;
_chemical_formula_sum "Si O2"
_cell_formula_units_Z 16
_cell_length_a 19.076529
_cell_length_b 7.973932
_cell_length_c 11.163209
_cell_angle_alpha 44.914915
_cell_angle_beta 137.929810
_cell_angle_gamma 136.430564
_cell_volume 728.926024
_symmetry_space_group_name_H-M "P -1"
_symmetry_group_IT_number 2
_symmetry_cell_setting 'triclinic'
loop_
_space_group_symop_operation_xyz
x,y,z
-x,-y,-z
loop_
_atom_site_type_symbol
_atom_site_label
_atom_site_fract_x
_atom_site_fract_y
_atom_site_fract_z
Si Si1 0.366153 0.350488 0.917667
Si Si2 0.003269 0.762074 0.551849
Si Si3 0.202255 0.985393 0.072176
Si Si4 0.363232 0.898417 0.003596
Si Si5 0.179336 0.781212 0.395770
Si Si6 0.976706 0.017010 0.786971
Si Si7 0.372190 0.858004 0.754919
Si Si8 0.858186 0.418433 0.002386
O O1 0.328252 0.144642 0.861588
O O2 0.326257 0.584649 0.758608
O O3 0.500000 0.500000 0.000000
O O4 0.324079 0.189150 0.069961
O O5 0.080727 0.634942 0.776821
O O6 0.873525 0.532845 0.492750
O O7 0.054261 0.872737 0.430376
O O8 0.000000 0.000000 0.500000
O O9 0.230219 0.855136 0.289566
O O10 0.133941 0.764918 0.000380
O O11 0.115452 0.121836 0.921956
O O12 0.351161 0.824471 0.886712
O O13 0.274245 0.651154 0.090819
O O14 0.491952 0.961926 0.184133
O O15 0.283033 0.957000 0.530604
O O16 0.073391 0.867076 0.229655
O O17 0.916656 0.705203 0.877727
#
# Coordination Sequence:
#
# PCOD8015995 Si02
#       8
#     2   2   2   2   2   2   2   2
#     4   9  20  40  69  94 122 177 228 276 342 399
#     4  12  24  41  67  94 134 179 223 273 338 408
#     4  11  22  41  64  91 139 177 215 284 341 402
#     4   9  21  41  70  95 127 183 225 285 341 401
#     4  12  26  40  63 103 136 177 228 278 343 411
#     4  12  24  41  63  98 137 178 223 273 340 411
#     4  10  21  43  68  94 135 171 235 283 337 400
#     4  11  23  43  66  97 135 178 230 273 342 406
#
# _framework density 21.950102000000001
#
# number of rings (size 3 to 8) (size 9 to 14) (size 15 to 20)
#    0.000    1.250    2.500    3.375    3.500    0.000 
#    2.250    6.250    2.750    0.000    0.000    0.000 
#    0.000    0.000    0.000    0.000    0.000    0.000 
#
# Total GULP energy -198238.122153 kJ/mol
# GULP energy per Si atom -12389.882635 kJ/mol
# Density = 2.190014 g / cm^3
# Si number density = 21.950102 Si / 1000 Ang^3
#
#
#
# Elastic Constant Matrix: (Units=GPa)
#
#
# Indices 1 2 3 4 5 6 
#
# 1 113.5976 43.2377 32.2437 4.9729 -2.0973 24.2675
# 2 43.2377 94.4681 45.0535 4.0550 1.1069 27.1765
# 3 32.2437 45.0535 98.9203 6.3351 -16.6482 21.1034
# 4 4.9729 4.0550 6.3351 33.3663 2.3124 -3.8224
# 5 -2.0973 1.1069 -16.6482 2.3124 32.6824 -8.0212
# 6 24.2675 27.1765 21.1034 -3.8224 -8.0212 39.5747
#
#
#
# Elastic Compliance Matrix: (Units=1/GPa)
#
#
# Indices 1 2 3 4 5 6 
#
# 1 0.011403 -0.003252 -0.001349 -0.001490 -0.000807 -0.004347
# 2 -0.003252 0.017363 -0.006056 -0.000988 -0.005767 -0.007965
# 3 -0.001349 -0.006056 0.015139 -0.002670 0.007575 -0.001809
# 4 -0.001490 -0.000988 -0.002670 0.031620 -0.002283 0.005608
# 5 -0.000807 -0.005767 0.007575 -0.002283 0.036631 0.007619
# 6 -0.004347 -0.007965 -0.001809 0.005608 0.007619 0.036455
#
#
# Mechanical properties :
#
#
# Convention : Reuss Voigt Hill
#
# Bulk Modulus (GPa) = 44.26408 60.89508 52.57958
# Shear Modulus (GPa) = 28.17617 33.55478 30.86547
#
# Velocity S-wave (km/s) = 3.58669 3.91408 3.75396
# Velocity P-wave (km/s) = 6.11245 6.94474 6.54184
#
# Compressibility (1/GPa) = 0.02259168
#
# Stress axis : x y z
#
# Youngs Moduli (GPa) = 87.69999 57.59218 66.05452
#
# Poissons Ratio (x) = 0.18727 0.08908
# Poissons Ratio (y) = 0.28517 0.40006
# Poissons Ratio (z) = 0.11827 0.34880
#
# Static dielectric constant tensor:
#      x y z
#    x 4.502880 -0.141870 0.127820 
#    y -0.141870 4.495510 -0.100760 
#    z 0.127820 -0.100760 3.907560 
# 
# 
# High freq. dielectric constant tensor:
#      x y z
#    x 1.886300 0.003520 -0.001750 
#    y 0.003520 1.870450 0.002450 
#    z -0.001750 0.002450 1.832920 
# 
# From -- ./inp_files/469160.got.cif
#   From: 2010.06.25/outbox.cif.g09.slc.cpg/sg2_235_cif.got.tgz:469160.got - 2010.06.27 13:26:56.
