data_PCOD8015907
_publ_section_title
;
Structure prediction by ZEFSAII (Michael W. Deem and Ramdas Pophale) SiO2 
 PCOD8015907
Probable space group: P -1
;
_chemical_formula_sum "Si O2"
_cell_formula_units_Z 16
_cell_length_a 9.143911
_cell_length_b 11.649045
_cell_length_c 15.300192
_cell_angle_alpha 142.765747
_cell_angle_beta 50.684897
_cell_angle_gamma 108.766451
_cell_volume 702.410488
_symmetry_space_group_name_H-M "P -1"
_symmetry_group_IT_number 2
_symmetry_cell_setting 'triclinic'
loop_
_space_group_symop_operation_xyz
x,y,z
-x,-y,-z
loop_
_atom_site_type_symbol
_atom_site_label
_atom_site_fract_x
_atom_site_fract_y
_atom_site_fract_z
Si Si1 0.004658 0.925001 0.551549
Si Si2 0.420127 0.784860 0.046920
Si Si3 0.486655 0.712360 0.784191
Si Si4 0.530651 0.309389 0.728281
Si Si5 0.499533 0.715669 0.466913
Si Si6 0.084302 0.781197 0.880338
Si Si7 0.670374 0.851085 0.144465
Si Si8 0.226540 0.353680 0.515725
O O1 0.961656 0.717298 0.453001
O O2 0.233978 0.858265 0.461500
O O3 0.828228 0.109120 0.783448
O O4 0.000000 0.000000 0.500000
O O5 0.525137 0.892663 0.138855
O O6 0.487475 0.814837 0.940455
O O7 0.507770 0.543524 0.890790
O O8 0.587221 0.463529 0.603213
O O9 0.251387 0.782037 0.887308
O O10 0.617083 0.773718 0.698270
O O11 0.430862 0.278083 0.656034
O O12 0.403351 0.268760 0.829506
O O13 0.686804 0.681538 0.440117
O O14 0.327130 0.933905 0.691362
O O15 0.172093 0.596198 0.663868
O O16 0.907826 0.722980 0.956960
O O17 0.000000 0.000000 0.000000
#
# Coordination Sequence:
#
# PCOD8015907 Si02
#       8
#     2   2   2   2   2   2   2   2
#     4  12  25  43  72 101 135 180 222 271 340 399
#     4  11  25  45  68 100 138 176 224 277 330 399
#     4  10  24  46  66  94 137 174 223 277 331 397
#     4  11  25  44  67  98 141 173 221 279 331 400
#     4  10  21  43  67  93 131 175 216 277 331 388
#     4  11  24  40  69  99 128 176 229 275 335 398
#     4  12  22  42  67  97 134 175 218 275 340 394
#     4  11  22  46  68  94 135 179 221 277 335 396
#
# _framework density 22.778703
#
# number of rings (size 3 to 8) (size 9 to 14) (size 15 to 20)
#    0.000    1.000    2.500    4.500    3.500    0.500 
#    0.000    5.000    0.000    0.000    0.000    0.000 
#    0.000    0.000    0.000    0.000    0.000    0.000 
#
# Total GULP energy -198323.217231 kJ/mol
# GULP energy per Si atom -12395.201077 kJ/mol
# Density = 2.272686 g / cm^3
# Si number density = 22.778703 Si / 1000 Ang^3
#
#
#
# Elastic Constant Matrix: (Units=GPa)
#
#
# Indices 1 2 3 4 5 6 
#
# 1 77.1743 58.4248 43.1219 -26.5530 10.5008 -11.3715
# 2 58.4248 109.0337 40.9010 -26.7184 4.3744 -18.6930
# 3 43.1219 40.9010 109.2791 -13.2308 7.7838 -14.6248
# 4 -26.5530 -26.7184 -13.2308 50.0672 0.9607 -4.2648
# 5 10.5008 4.3744 7.7838 0.9607 45.4306 -6.3603
# 6 -11.3715 -18.6930 -14.6248 -4.2648 -6.3603 28.8594
#
#
#
# Elastic Compliance Matrix: (Units=1/GPa)
#
#
# Indices 1 2 3 4 5 6 
#
# 1 0.027216 -0.010190 -0.005471 0.007765 -0.004320 0.001547
# 2 -0.010190 0.017287 -0.001050 0.004161 0.001857 0.007674
# 3 -0.005471 -0.001050 0.012164 0.000037 -0.000261 0.003276
# 4 0.007765 0.004161 0.000037 0.027156 -0.001451 0.009467
# 5 -0.004320 0.001857 -0.000261 -0.001451 0.023514 0.004337
# 6 0.001547 0.007674 0.003276 0.009467 0.004337 0.044246
#
#
# Mechanical properties :
#
#
# Convention : Reuss Voigt Hill
#
# Bulk Modulus (GPa) = 43.02133 64.48696 53.75415
# Shear Modulus (GPa) = 25.93984 35.07406 30.50695
#
# Velocity S-wave (km/s) = 3.37824 3.92825 3.66358
# Velocity P-wave (km/s) = 5.84331 6.99618 6.44557
#
# Compressibility (1/GPa) = 0.02324428
#
# Stress axis : x y z
#
# Youngs Moduli (GPa) = 36.74247 57.84823 82.20758
#
# Poissons Ratio (x) = 0.58948 0.44975
# Poissons Ratio (y) = 0.37441 0.08636
# Poissons Ratio (z) = 0.20101 0.06077
#
# Static dielectric constant tensor:
#      x y z
#    x 3.980120 -0.225460 0.073840 
#    y -0.225460 4.257240 0.112580 
#    z 0.073840 0.112580 4.572760 
# 
# 
# High freq. dielectric constant tensor:
#      x y z
#    x 1.878340 -0.008160 0.007050 
#    y -0.008160 1.911820 0.008380 
#    z 0.007050 0.008380 1.915190 
# 
# From -- ./inp_files/307862.got.cif
#   From: 2010.06.25/outbox.cif.g09.slc.cpg/sg2_154_cif.got.tgz:307862.got - 2010.06.27 13:26:56.
