data_PCOD8015745
_publ_section_title
;
Structure prediction by ZEFSAII (Michael W. Deem and Ramdas Pophale) SiO2 
 PCOD8015745
Probable space group: P -1
;
_chemical_formula_sum "Si O2"
_cell_formula_units_Z 16
_cell_length_a 13.777577
_cell_length_b 7.009985
_cell_length_c 9.106509
_cell_angle_alpha 123.304022
_cell_angle_beta 82.418586
_cell_angle_gamma 88.145172
_cell_volume 722.788612
_symmetry_space_group_name_H-M "P -1"
_symmetry_group_IT_number 2
_symmetry_cell_setting 'triclinic'
loop_
_space_group_symop_operation_xyz
x,y,z
-x,-y,-z
loop_
_atom_site_type_symbol
_atom_site_label
_atom_site_fract_x
_atom_site_fract_y
_atom_site_fract_z
Si Si1 0.319631 0.962497 0.015649
Si Si2 0.062908 0.578965 0.152967
Si Si3 0.440464 0.742340 0.154114
Si Si4 0.109402 0.221091 0.566425
Si Si5 0.369829 0.107242 0.752990
Si Si6 0.220898 0.537244 0.878754
Si Si7 0.733546 0.202536 0.569418
Si Si8 0.161957 0.360315 0.308246
O O1 0.410177 0.878219 0.068476
O O2 0.246660 0.149148 0.194986
O O3 0.262613 0.751314 0.885455
O O4 0.360537 0.076479 0.914675
O O5 0.093310 0.379075 0.183942
O O6 0.998883 0.793134 0.342226
O O7 0.163573 0.637500 0.081861
O O8 0.000000 0.500000 0.000000
O O9 0.513160 0.885458 0.295289
O O10 0.341855 0.709534 0.249325
O O11 0.500000 0.500000 0.000000
O O12 0.151562 0.427336 0.732498
O O13 0.095191 0.308949 0.439379
O O14 0.179668 0.983540 0.464923
O O15 0.311739 0.351608 0.825602
O O16 0.329299 0.900509 0.588436
O O17 0.786324 0.409362 0.581586
#
# Coordination Sequence:
#
# PCOD8015745 Si02
#       8
#     2   2   2   2   2   2   2   2
#     4  12  23  41  68  96 128 170 217 267 319 378
#     4  10  22  43  68  95 129 170 215 261 322 383
#     4  12  23  43  67  95 130 171 217 266 320 379
#     4  10  23  43  65  94 132 168 213 267 317 381
#     4  11  23  42  66  94 132 171 213 266 317 380
#     4  10  21  43  64  92 131 170 213 264 321 376
#     4  11  25  44  65  96 132 172 210 266 327 373
#     4  12  23  42  67  95 133 166 217 265 319 384
#
# _framework density 22.136483999999999
#
# number of rings (size 3 to 8) (size 9 to 14) (size 15 to 20)
#    0.000    1.000    3.750    3.375    0.000    0.500 
#    2.250    2.500    0.000    0.000    0.000    0.000 
#    0.000    0.000    0.000    0.000    0.000    0.000 
#
# Total GULP energy -198372.206480 kJ/mol
# GULP energy per Si atom -12398.262905 kJ/mol
# Density = 2.208610 g / cm^3
# Si number density = 22.136484 Si / 1000 Ang^3
#
#
#
# Elastic Constant Matrix: (Units=GPa)
#
#
# Indices 1 2 3 4 5 6 
#
# 1 62.1956 -2.4529 17.5190 8.3848 0.6842 -23.4243
# 2 -2.4529 76.9286 28.2693 10.3356 4.4424 -17.6123
# 3 17.5190 28.2693 83.9409 3.4175 -10.8606 -14.6947
# 4 8.3848 10.3356 3.4175 42.7359 -2.0172 3.3804
# 5 0.6842 4.4424 -10.8606 -2.0172 37.2932 -2.9495
# 6 -23.4243 -17.6123 -14.6947 3.3804 -2.9495 35.6581
#
#
#
# Elastic Compliance Matrix: (Units=1/GPa)
#
#
# Indices 1 2 3 4 5 6 
#
# 1 0.026608 0.008510 -0.004720 -0.008597 -0.001727 0.020410
# 2 0.008510 0.019776 -0.006326 -0.007159 -0.003704 0.013123
# 3 -0.004720 -0.006326 0.015799 0.001407 0.005566 0.000612
# 4 -0.008597 -0.007159 0.001407 0.027677 0.002043 -0.011059
# 5 -0.001727 -0.003704 0.005566 0.002043 0.029141 0.001546
# 6 0.020410 0.013123 0.000612 -0.011059 0.001546 0.049362
#
#
# Mechanical properties :
#
#
# Convention : Reuss Voigt Hill
#
# Bulk Modulus (GPa) = 17.50982 34.41511 25.96246
# Shear Modulus (GPa) = 25.97789 35.11941 30.54865
#
# Velocity S-wave (km/s) = 3.42940 3.98740 3.71888
# Velocity P-wave (km/s) = 4.85883 6.06463 5.49490
#
# Compressibility (1/GPa) = 0.05711082
#
# Stress axis : x y z
#
# Youngs Moduli (GPa) = 37.58223 50.56759 63.29574
#
# Poissons Ratio (x) = -0.43035 0.29875
# Poissons Ratio (y) = -0.31984 0.40044
# Poissons Ratio (z) = 0.17739 0.31991
#
# Static dielectric constant tensor:
#      x y z
#    x 4.481700 -0.069900 -0.140320 
#    y -0.069900 3.873790 -0.044750 
#    z -0.140320 -0.044750 4.131740 
# 
# 
# High freq. dielectric constant tensor:
#      x y z
#    x 1.888530 -0.007550 -0.002060 
#    y -0.007550 1.864970 -0.002560 
#    z -0.002060 -0.002560 1.879640 
# 
# From -- ./inp_files/37243.got.cif
#   From: 2010.06.25/outbox.cif.g09.slc.cpg/sg2_19_cif.got.tgz:37243.got - 2010.06.27 13:26:56.
