data_PCOD8015630
_publ_section_title
;
Structure prediction by ZEFSAII (Michael W. Deem and Ramdas Pophale) SiO2 
 PCOD8015630
Probable space group: P -1
;
_chemical_formula_sum "Si O2"
_cell_formula_units_Z 16
_cell_length_a 10.612997
_cell_length_b 7.780072
_cell_length_c 13.194749
_cell_angle_alpha 134.787038
_cell_angle_beta 56.604864
_cell_angle_gamma 101.029121
_cell_volume 609.068225
_symmetry_space_group_name_H-M "P -1"
_symmetry_group_IT_number 2
_symmetry_cell_setting 'triclinic'
loop_
_space_group_symop_operation_xyz
x,y,z
-x,-y,-z
loop_
_atom_site_type_symbol
_atom_site_label
_atom_site_fract_x
_atom_site_fract_y
_atom_site_fract_z
Si Si1 0.588510 0.581636 0.147934
Si Si2 0.837293 0.748006 0.446274
Si Si3 0.584598 0.136072 0.839835
Si Si4 0.819468 0.290423 0.149017
Si Si5 0.289162 0.834820 0.490438
Si Si6 0.114440 0.478352 0.348068
Si Si7 0.832585 0.877285 0.133713
Si Si8 0.640135 0.029977 0.020460
O O1 0.449160 0.674380 0.161551
O O2 0.484366 0.740082 0.355774
O O3 0.742661 0.666396 0.094355
O O4 0.627453 0.269373 0.981051
O O5 0.771237 0.521839 0.345358
O O6 0.021608 0.627188 0.350629
O O7 0.739105 0.888270 0.645933
O O8 0.816812 0.930712 0.434790
O O9 0.429597 0.041695 0.872906
O O10 0.822817 0.027095 0.093685
O O11 0.976915 0.279309 0.010031
O O12 0.676379 0.307744 0.135652
O O13 0.252997 0.582494 0.365977
O O14 0.233025 0.912759 0.662123
O O15 0.189331 0.179364 0.165303
O O16 0.000000 0.500000 0.500000
O O17 0.500000 0.000000 0.000000
#
# Coordination Sequence:
#
# PCOD8015630 Si02
#       8
#     2   2   2   2   2   2   2   2
#     4  10  21  42  72  99 143 190 240 294 358 423
#     4  11  26  43  71 108 147 188 241 300 365 426
#     4  10  22  43  66 104 136 187 237 292 354 426
#     4  11  25  45  69 106 144 192 237 297 372 429
#     4  11  24  43  69 112 145 192 242 297 363 436
#     4  12  24  46  73 105 146 190 243 301 361 431
#     4  11  23  44  75 102 146 192 240 300 366 432
#     4  12  25  45  73 101 140 188 242 295 358 432
#
# _framework density 26.269635000000001
#
# number of rings (size 3 to 8) (size 9 to 14) (size 15 to 20)
#    0.000    1.000    2.500    4.500    0.000    3.000 
#    4.500    0.000    0.000    0.000    0.000    0.000 
#    0.000    0.000    0.000    0.000    0.000    0.000 
#
# Total GULP energy -198251.900351 kJ/mol
# GULP energy per Si atom -12390.743772 kJ/mol
# Density = 2.620984 g / cm^3
# Si number density = 26.269635 Si / 1000 Ang^3
#
#
#
# Elastic Constant Matrix: (Units=GPa)
#
#
# Indices 1 2 3 4 5 6 
#
# 1 116.3585 32.3988 62.6256 3.3952 9.4567 29.3961
# 2 32.3988 95.0332 41.5822 -5.1115 -2.0888 43.9271
# 3 62.6256 41.5822 183.0392 -1.3223 7.2219 14.0355
# 4 3.3952 -5.1115 -1.3223 46.5785 6.3149 4.7500
# 5 9.4567 -2.0888 7.2219 6.3149 44.4705 9.9931
# 6 29.3961 43.9271 14.0355 4.7500 9.9931 44.8962
#
#
#
# Elastic Compliance Matrix: (Units=1/GPa)
#
#
# Indices 1 2 3 4 5 6 
#
# 1 0.012398 0.001172 -0.003888 -0.000049 -0.000142 -0.008012
# 2 0.001172 0.023540 -0.004105 0.003995 0.006432 -0.024371
# 3 -0.003888 -0.004105 0.007433 -0.000212 -0.001579 0.004613
# 4 -0.000049 0.003995 -0.000212 0.022729 -0.001683 -0.005840
# 5 -0.000142 0.006432 -0.001579 -0.001683 0.025850 -0.011282
# 6 -0.008012 -0.024371 0.004613 -0.005840 -0.011282 0.053051
#
#
# Mechanical properties :
#
#
# Convention : Reuss Voigt Hill
#
# Bulk Modulus (GPa) = 33.63728 74.18269 53.90999
# Shear Modulus (GPa) = 29.66429 44.37734 37.02082
#
# Velocity S-wave (km/s) = 3.36404 4.11457 3.75809
# Velocity P-wave (km/s) = 5.28407 7.13254 6.27673
#
# Compressibility (1/GPa) = 0.02972892
#
# Stress axis : x y z
#
# Youngs Moduli (GPa) = 80.66059 42.48058 134.52803
#
# Poissons Ratio (x) = -0.04981 0.52311
# Poissons Ratio (y) = -0.09457 0.55225
# Poissons Ratio (z) = 0.31365 0.17439
#
# Static dielectric constant tensor:
#      x y z
#    x 4.991580 -0.563670 0.202980 
#    y -0.563670 3.945930 0.153370 
#    z 0.202980 0.153370 4.771810 
# 
# 
# High freq. dielectric constant tensor:
#      x y z
#    x 2.069380 -0.006710 0.012760 
#    y -0.006710 2.068180 -0.003060 
#    z 0.012760 -0.003060 2.061410 
# 
# From -- ./inp_files/516350.got.cif
#   From: 2010.06.25/outbox.cif.g09.slc.cpg/sg2_259_cif.got.tgz:516350.got - 2010.06.27 13:26:56.
