data_PCOD8015344
_publ_section_title
;
Structure prediction by ZEFSAII (Michael W. Deem and Ramdas Pophale) SiO2 
 PCOD8015344
Probable space group: P -1
;
_chemical_formula_sum "Si O2"
_cell_formula_units_Z 16
_cell_length_a 13.977107
_cell_length_b 9.198273
_cell_length_c 8.914770
_cell_angle_alpha 37.218629
_cell_angle_beta 85.196132
_cell_angle_gamma 95.341607
_cell_volume 666.094553
_symmetry_space_group_name_H-M "P -1"
_symmetry_group_IT_number 2
_symmetry_cell_setting 'triclinic'
loop_
_space_group_symop_operation_xyz
x,y,z
-x,-y,-z
loop_
_atom_site_type_symbol
_atom_site_label
_atom_site_fract_x
_atom_site_fract_y
_atom_site_fract_z
Si Si1 0.215672 0.702327 0.329668
Si Si2 0.785324 0.499432 0.189700
Si Si3 0.635893 0.774599 0.093820
Si Si4 0.015582 0.226354 0.189420
Si Si5 0.090443 0.931370 0.966257
Si Si6 0.337928 0.936355 0.611355
Si Si7 0.292410 0.290625 0.563268
Si Si8 0.501568 0.752481 0.874847
O O1 0.173407 0.562592 0.604337
O O2 0.280492 0.568999 0.321308
O O3 0.290882 0.956215 0.163681
O O4 0.118630 0.713259 0.237435
O O5 0.760459 0.261814 0.274797
O O6 0.684019 0.579747 0.160668
O O7 0.870695 0.724903 0.921727
O O8 0.528041 0.741911 0.056811
O O9 0.620394 0.714573 0.323109
O O10 0.934564 0.131008 0.150762
O O11 0.000000 0.000000 0.500000
O O12 0.000000 0.500000 0.000000
O O13 0.190393 0.153528 0.774413
O O14 0.000000 0.000000 0.000000
O O15 0.394372 0.808669 0.831646
O O16 0.308496 0.169412 0.502750
O O17 0.411550 0.027894 0.388298
O O18 0.500000 0.500000 0.000000
#
# Coordination Sequence:
#
# PCOD8015344 Si02
#       8
#     2   2   2   2   2   2   2   2
#     4  10  22  43  73 100 138 191 236 296 365 437
#     4  11  23  44  74  99 140 193 246 299 365 443
#     4  10  21  42  68 100 134 182 240 290 361 433
#     4  12  30  47  70 109 150 192 245 312 373 434
#     4  11  25  47  72 103 141 189 250 297 362 438
#     4  11  24  43  70 106 137 186 237 300 362 436
#     4  10  24  41  66 104 143 181 234 297 366 426
#     4  11  23  42  71 102 139 181 241 292 366 439
#
# _framework density 24.020613000000001
#
# number of rings (size 3 to 8) (size 9 to 14) (size 15 to 20)
#    0.000    1.250    2.500    3.000    5.250    4.500 
#    0.000    1.250    0.000    0.000    0.000    0.000 
#    0.000    0.000    0.000    0.000    0.000    0.000 
#
# Total GULP energy -198316.681934 kJ/mol
# GULP energy per Si atom -12394.792621 kJ/mol
# Density = 2.396594 g / cm^3
# Si number density = 24.020613 Si / 1000 Ang^3
#
#
#
# Elastic Constant Matrix: (Units=GPa)
#
#
# Indices 1 2 3 4 5 6 
#
# 1 75.5806 33.5560 34.5796 14.7884 31.6199 17.1357
# 2 33.5560 144.6395 40.5010 3.2968 29.7088 13.4799
# 3 34.5796 40.5010 112.0980 7.5834 23.3761 10.0998
# 4 14.7884 3.2968 7.5834 34.7319 2.0231 8.5207
# 5 31.6199 29.7088 23.3761 2.0231 41.2772 4.5145
# 6 17.1357 13.4799 10.0998 8.5207 4.5145 45.9113
#
#
#
# Elastic Compliance Matrix: (Units=1/GPa)
#
#
# Indices 1 2 3 4 5 6 
#
# 1 0.023881 -0.000995 -0.002921 -0.007299 -0.015003 -0.005149
# 2 -0.000995 0.008665 -0.001836 0.000611 -0.004305 -0.001459
# 3 -0.002921 -0.001836 0.011129 -0.000754 -0.002661 -0.000417
# 4 -0.007299 0.000611 -0.000754 0.032680 0.004391 -0.003786
# 5 -0.015003 -0.004305 -0.002661 0.004391 0.039812 0.002719
# 6 -0.005149 -0.001459 -0.000417 -0.003786 0.002719 0.024658
#
#
# Mechanical properties :
#
#
# Convention : Reuss Voigt Hill
#
# Bulk Modulus (GPa) = 31.08367 61.06570 46.07469
# Shear Modulus (GPa) = 30.66521 39.29619 34.98070
#
# Velocity S-wave (km/s) = 3.57686 4.04906 3.82026
# Velocity P-wave (km/s) = 5.47970 6.88021 6.21950
#
# Compressibility (1/GPa) = 0.03217123
#
# Stress axis : x y z
#
# Youngs Moduli (GPa) = 41.87432 115.40813 89.85818
#
# Poissons Ratio (x) = 0.11479 0.26249
# Poissons Ratio (y) = 0.04165 0.16497
# Poissons Ratio (z) = 0.12232 0.21188
#
# Static dielectric constant tensor:
#      x y z
#    x 4.729730 1.439260 0.359780 
#    y 1.439260 8.625280 -0.046350 
#    z 0.359780 -0.046350 4.530350 
# 
# 
# High freq. dielectric constant tensor:
#      x y z
#    x 1.945350 0.012030 0.014320 
#    y 0.012030 1.965840 -0.006400 
#    z 0.014320 -0.006400 1.951850 
# 
# From -- ./inp_files/53810.got.cif
#   From: 2010.06.25/outbox.cif.g09.slc.cpg/sg2_27_cif.got.tgz:53810.got - 2010.06.27 13:26:56.
