data_PCOD8015313
_publ_section_title
;
Structure prediction by ZEFSAII (Michael W. Deem and Ramdas Pophale) SiO2 
 PCOD8015313
Probable space group: P -1
;
_chemical_formula_sum "Si O2"
_cell_formula_units_Z 16
_cell_length_a 11.740837
_cell_length_b 11.320775
_cell_length_c 8.686988
_cell_angle_alpha 50.571525
_cell_angle_beta 105.214683
_cell_angle_gamma 125.405885
_cell_volume 716.642769
_symmetry_space_group_name_H-M "P -1"
_symmetry_group_IT_number 2
_symmetry_cell_setting 'triclinic'
loop_
_space_group_symop_operation_xyz
x,y,z
-x,-y,-z
loop_
_atom_site_type_symbol
_atom_site_label
_atom_site_fract_x
_atom_site_fract_y
_atom_site_fract_z
Si Si1 0.583996 0.521383 0.751906
Si Si2 0.621070 0.233727 0.171556
Si Si3 0.326690 0.889045 0.406920
Si Si4 0.922769 0.041270 0.229413
Si Si5 0.144123 0.555001 0.430731
Si Si6 0.880584 0.347084 0.976996
Si Si7 0.288127 0.355307 0.637299
Si Si8 0.798423 0.914528 0.623482
O O1 0.414878 0.416071 0.753473
O O2 0.653136 0.547907 0.587363
O O3 0.654280 0.716976 0.700699
O O4 0.614963 0.404287 0.974839
O O5 0.659334 0.241442 0.358910
O O6 0.733623 0.222578 0.118308
O O7 0.472339 0.044573 0.253131
O O8 0.250758 0.767213 0.333123
O O9 0.243271 0.968301 0.389951
O O10 0.812529 0.864798 0.233658
O O11 0.873241 0.017196 0.407986
O O12 0.925041 0.216952 0.025324
O O13 0.083469 0.093525 0.230287
O O14 0.194395 0.425375 0.614930
O O15 0.000000 0.500000 0.500000
O O16 0.132674 0.537929 0.257147
O O17 0.000000 0.500000 0.000000
#
# Coordination Sequence:
#
# PCOD8015313 Si02
#       8
#     2   2   2   2   2   2   2   2
#     4  10  22  42  69  99 133 182 231 282 338 412
#     4  11  24  44  69  98 139 182 234 273 344 415
#     4  11  26  43  67 103 142 180 226 289 348 399
#     4  10  22  40  71  96 130 180 233 280 334 414
#     4  12  27  46  68 100 144 177 223 295 345 405
#     4  12  25  45  74 100 132 184 241 275 340 426
#     4  10  23  42  68 101 136 174 230 287 344 401
#     4  10  21  42  67  96 137 179 227 283 342 403
#
# _framework density 22.326325000000001
#
# number of rings (size 3 to 8) (size 9 to 14) (size 15 to 20)
#    0.000    1.250    2.500    2.250    8.750    2.000 
#    2.250    1.250    0.000    0.000    0.000    0.000 
#    0.000    0.000    0.000    0.000    0.000    0.000 
#
# Total GULP energy -198405.662852 kJ/mol
# GULP energy per Si atom -12400.353928 kJ/mol
# Density = 2.227551 g / cm^3
# Si number density = 22.326325 Si / 1000 Ang^3
#
#
#
# Elastic Constant Matrix: (Units=GPa)
#
#
# Indices 1 2 3 4 5 6 
#
# 1 126.1034 61.7631 10.5005 -17.0024 18.9333 10.3511
# 2 61.7631 151.3387 22.3506 -7.5171 12.7796 7.3490
# 3 10.5005 22.3506 59.8887 -15.5814 15.0563 1.4529
# 4 -17.0024 -7.5171 -15.5814 20.9201 -1.6345 5.0949
# 5 18.9333 12.7796 15.0563 -1.6345 41.1700 -5.2441
# 6 10.3511 7.3490 1.4529 5.0949 -5.2441 36.8435
#
#
#
# Elastic Compliance Matrix: (Units=1/GPa)
#
#
# Indices 1 2 3 4 5 6 
#
# 1 0.012966 -0.004494 0.004606 0.013231 -0.006450 -0.005676
# 2 -0.004494 0.008744 -0.003391 -0.003032 0.000490 0.000141
# 3 0.004606 -0.003391 0.025744 0.022400 -0.010382 -0.006208
# 4 0.013231 -0.003032 0.022400 0.077183 -0.012364 -0.016429
# 5 -0.006450 0.000490 -0.010382 -0.012364 0.031468 0.008312
# 6 -0.005676 0.000141 -0.006208 -0.016429 0.008312 0.032408
#
#
# Mechanical properties :
#
#
# Convention : Reuss Voigt Hill
#
# Bulk Modulus (GPa) = 24.45319 58.50656 41.47988
# Shear Modulus (GPa) = 23.95741 35.96783 29.96262
#
# Velocity S-wave (km/s) = 3.27931 4.01809 3.66735
# Velocity P-wave (km/s) = 5.03139 6.91294 6.04581
#
# Compressibility (1/GPa) = 0.04089446
#
# Stress axis : x y z
#
# Youngs Moduli (GPa) = 77.12522 114.36755 38.84399
#
# Poissons Ratio (x) = 0.51400 -0.17890
# Poissons Ratio (y) = 0.34662 0.13171
# Poissons Ratio (z) = -0.35520 0.38780
#
# Static dielectric constant tensor:
#      x y z
#    x 4.160850 0.169890 0.076940 
#    y 0.169890 3.957820 -0.056630 
#    z 0.076940 -0.056630 3.929470 
# 
# 
# High freq. dielectric constant tensor:
#      x y z
#    x 1.890490 0.011070 0.010340 
#    y 0.011070 1.883890 -0.004290 
#    z 0.010340 -0.004290 1.871830 
# 
# From -- ./inp_files/205079.got.cif
#   From: 2010.06.25/outbox.cif.g09.slc.cpg/sg2_103_cif.got.tgz:205079.got - 2010.06.27 13:26:56.
