data_PCOD8015656
_publ_section_title
;
Structure prediction by ZEFSAII (Michael W. Deem and Ramdas Pophale) SiO2 
 PCOD8015656
Probable space group: P -1
;
_chemical_formula_sum "Si O2"
_cell_formula_units_Z 16
_cell_length_a 8.516758
_cell_length_b 11.489253
_cell_length_c 8.245513
_cell_angle_alpha 118.148622
_cell_angle_beta 71.081159
_cell_angle_gamma 117.205523
_cell_volume 626.614514
_symmetry_space_group_name_H-M "P -1"
_symmetry_group_IT_number 2
_symmetry_cell_setting 'triclinic'
loop_
_space_group_symop_operation_xyz
x,y,z
-x,-y,-z
loop_
_atom_site_type_symbol
_atom_site_label
_atom_site_fract_x
_atom_site_fract_y
_atom_site_fract_z
Si Si1 0.999198 0.239519 0.936318
Si Si2 0.412001 0.341408 0.864006
Si Si3 0.570087 0.171325 0.210378
Si Si4 0.441076 0.879831 0.182210
Si Si5 0.151861 0.093159 0.275724
Si Si6 0.600282 0.430940 0.542763
Si Si7 0.084884 0.783055 0.392291
Si Si8 0.944867 0.681562 0.695577
O O1 0.206456 0.289641 0.931238
O O2 0.966401 0.306340 0.819448
O O3 0.938867 0.299914 0.163140
O O4 0.912039 0.071293 0.844996
O O5 0.477654 0.234282 0.870444
O O6 0.454769 0.337853 0.658324
O O7 0.500000 0.500000 0.000000
O O8 0.362598 0.152372 0.270227
O O9 0.675113 0.324040 0.353979
O O10 0.588678 0.039714 0.221375
O O11 0.646239 0.166232 0.999808
O O12 0.292055 0.883647 0.364864
O O13 0.111569 0.179706 0.196012
O O14 0.042825 0.125203 0.486972
O O15 0.500000 0.500000 0.500000
O O16 0.767342 0.542423 0.654145
O O17 0.062499 0.682868 0.493590
#
# Coordination Sequence:
#
# PCOD8015656 Si02
#       8
#     2   2   2   2   2   2   2   2
#     4  12  21  43  74 106 139 197 249 296 360 440
#     4  12  26  45  73 106 145 189 247 301 364 447
#     4  11  23  45  77 103 148 196 241 301 368 440
#     4  11  26  48  69 112 147 185 248 308 372 425
#     4  10  21  42  74 104 141 195 248 290 358 445
#     4  12  22  44  71 103 145 196 244 296 357 438
#     4  10  24  44  72 105 145 192 245 299 366 434
#     4  10  23  39  69 106 142 191 252 292 353 436
#
# _framework density 25.534040999999998
#
# number of rings (size 3 to 8) (size 9 to 14) (size 15 to 20)
#    0.750    0.250    3.750    3.750    1.750    0.500 
#    2.250    3.125    0.000    0.000    0.000    0.000 
#    0.000    0.000    0.000    0.000    0.000    0.000 
#
# Total GULP energy -198251.328332 kJ/mol
# GULP energy per Si atom -12390.708021 kJ/mol
# Density = 2.547592 g / cm^3
# Si number density = 25.534041 Si / 1000 Ang^3
#
#
#
# Elastic Constant Matrix: (Units=GPa)
#
#
# Indices 1 2 3 4 5 6 
#
# 1 21.2892 15.3242 26.4931 -5.1311 2.1956 -11.9854
# 2 15.3242 83.1503 54.3031 -14.7004 8.2283 -20.0359
# 3 26.4931 54.3031 159.9778 -15.8967 14.1830 -0.5973
# 4 -5.1311 -14.7004 -15.8967 48.7082 5.8733 -2.5138
# 5 2.1956 8.2283 14.1830 5.8733 54.1593 -6.6250
# 6 -11.9854 -20.0359 -0.5973 -2.5138 -6.6250 35.7914
#
#
#
# Elastic Compliance Matrix: (Units=1/GPa)
#
#
# Indices 1 2 3 4 5 6 
#
# 1 0.079186 0.001505 -0.013217 0.005587 0.002849 0.028058
# 2 0.001505 0.019545 -0.006339 0.004641 -0.000457 0.011581
# 3 -0.013217 -0.006339 0.010774 0.000068 -0.002336 -0.008222
# 4 0.005587 0.004641 0.000068 0.023165 -0.002779 0.005583
# 5 0.002849 -0.000457 -0.002336 -0.002779 0.019837 0.004136
# 6 0.028058 0.011581 -0.008222 0.005583 0.004136 0.044839
#
#
# Mechanical properties :
#
#
# Convention : Reuss Voigt Hill
#
# Bulk Modulus (GPa) = 13.62332 50.73977 32.18155
# Shear Modulus (GPa) = 19.38622 38.95157 29.16890
#
# Velocity S-wave (km/s) = 2.75840 3.90997 3.38354
# Velocity P-wave (km/s) = 3.93599 6.34810 5.28159
#
# Compressibility (1/GPa) = 0.07340357
#
# Stress axis : x y z
#
# Youngs Moduli (GPa) = 12.62857 51.16418 92.81234
#
# Poissons Ratio (x) = -0.07700 1.22670
# Poissons Ratio (y) = -0.01900 0.58830
# Poissons Ratio (z) = 0.16691 0.32431
#
# Static dielectric constant tensor:
#      x y z
#    x 4.619700 0.109140 -0.088180 
#    y 0.109140 4.627790 -0.512340 
#    z -0.088180 -0.512340 4.777600 
# 
# 
# High freq. dielectric constant tensor:
#      x y z
#    x 2.018130 0.010860 -0.008890 
#    y 0.010860 2.019360 -0.021380 
#    z -0.008890 -0.021380 2.033590 
# 
# From -- ./inp_files/189907.got.cif
#   From: 2010.06.25/outbox.cif.g09.slc.cpg/sg2_95_cif.got.tgz:189907.got - 2010.06.27 13:26:56.
