data_PCOD8015416
_publ_section_title
;
Structure prediction by ZEFSAII (Michael W. Deem and Ramdas Pophale) SiO2 
 PCOD8015416
Probable space group: P -1
;
_chemical_formula_sum "Si O2"
_cell_formula_units_Z 16
_cell_length_a 17.795955
_cell_length_b 11.836140
_cell_length_c 20.372086
_cell_angle_alpha 29.614968
_cell_angle_beta 20.606782
_cell_angle_gamma 40.068418
_cell_volume 716.760265
_symmetry_space_group_name_H-M "P -1"
_symmetry_group_IT_number 2
_symmetry_cell_setting 'triclinic'
loop_
_space_group_symop_operation_xyz
x,y,z
-x,-y,-z
loop_
_atom_site_type_symbol
_atom_site_label
_atom_site_fract_x
_atom_site_fract_y
_atom_site_fract_z
Si Si1 0.190115 0.086519 0.396333
Si Si2 0.460349 0.241676 0.226733
Si Si3 0.214947 0.555410 0.339051
Si Si4 0.082203 0.575046 0.796009
Si Si5 0.680512 0.258718 0.350470
Si Si6 0.702796 0.537206 0.447085
Si Si7 0.031074 0.536125 0.288819
Si Si8 0.511721 0.020949 0.901709
O O1 0.380305 0.209467 0.232734
O O2 0.031655 0.258313 0.429598
O O3 0.051492 0.828105 0.668239
O O4 0.284080 0.050525 0.265407
O O5 0.406573 0.466196 0.192208
O O6 0.334799 0.017154 0.487216
O O7 0.725417 0.286596 0.988190
O O8 0.000000 0.500000 0.500000
O O9 0.141252 0.426612 0.534001
O O10 0.292772 0.839945 0.141664
O O11 0.223036 0.596477 0.736290
O O12 0.226326 0.468628 0.682552
O O13 0.843098 0.380227 0.096904
O O14 0.430325 0.267029 0.535249
O O15 0.524243 0.289576 0.737857
O O16 0.929172 0.596797 0.273876
O O17 0.500000 0.000000 0.000000
#
# Coordination Sequence:
#
# PCOD8015416 Si02
#       8
#     2   2   2   2   2   2   2   2
#     4  10  21  42  68  98 134 172 221 283 338 393
#     4  11  24  45  66  97 135 180 225 275 332 402
#     4  12  24  41  69  99 133 174 224 275 335 402
#     4   9  22  42  68  95 124 174 226 281 326 388
#     4  10  23  43  69  92 129 177 229 269 325 399
#     4  11  25  40  64  99 134 174 220 277 331 397
#     4  12  24  40  65 100 135 175 215 275 343 399
#     4  11  23  41  65 100 137 168 218 279 337 401
#
# _framework density 22.322665000000001
#
# number of rings (size 3 to 8) (size 9 to 14) (size 15 to 20)
#    0.000    1.250    3.750    1.500    1.750    6.500 
#    0.000    1.250    0.000    0.000    0.000    0.000 
#    0.000    0.000    0.000    0.000    0.000    0.000 
#
# Total GULP energy -198377.495776 kJ/mol
# GULP energy per Si atom -12398.593486 kJ/mol
# Density = 2.227186 g / cm^3
# Si number density = 22.322665 Si / 1000 Ang^3
#
#
#
# Elastic Constant Matrix: (Units=GPa)
#
#
# Indices 1 2 3 4 5 6 
#
# 1 91.8656 33.8259 39.6479 1.0826 9.1622 3.8515
# 2 33.8259 68.6827 18.8241 4.3456 4.5264 -0.7917
# 3 39.6479 18.8241 101.8573 6.3719 13.7829 8.4344
# 4 1.0826 4.3456 6.3719 25.5686 3.3524 -4.2169
# 5 9.1622 4.5264 13.7829 3.3524 42.6067 7.5539
# 6 3.8515 -0.7917 8.4344 -4.2169 7.5539 35.4444
#
#
#
# Elastic Compliance Matrix: (Units=1/GPa)
#
#
# Indices 1 2 3 4 5 6 
#
# 1 0.015359 -0.006297 -0.004742 0.001722 -0.001196 -0.000221
# 2 -0.006297 0.018059 -0.000782 -0.002393 -0.000310 0.001055
# 3 -0.004742 -0.000782 0.012491 -0.002861 -0.002301 -0.002325
# 4 0.001722 -0.002393 -0.002861 0.041638 -0.003558 0.006152
# 5 -0.001196 -0.000310 -0.002301 -0.003558 0.025712 -0.005233
# 6 -0.000221 0.001055 -0.002325 0.006152 -0.005233 0.030661
#
#
# Mechanical properties :
#
#
# Convention : Reuss Voigt Hill
#
# Bulk Modulus (GPa) = 44.91098 49.66685 47.28891
# Shear Modulus (GPa) = 28.57361 32.06446 30.31904
#
# Velocity S-wave (km/s) = 3.58163 3.79411 3.68940
# Velocity P-wave (km/s) = 6.10465 6.44139 6.27528
#
# Compressibility (1/GPa) = 0.02226627
#
# Stress axis : x y z
#
# Youngs Moduli (GPa) = 65.10767 55.37274 80.05836
#
# Poissons Ratio (x) = 0.34870 0.37966
# Poissons Ratio (y) = 0.41000 0.06261
# Poissons Ratio (z) = 0.30876 0.04330
#
# Static dielectric constant tensor:
#      x y z
#    x 6.444230 2.759720 1.109840 
#    y 2.759720 6.714140 0.951180 
#    z 1.109840 0.951180 4.620120 
# 
# 
# High freq. dielectric constant tensor:
#      x y z
#    x 1.877430 0.012790 0.010410 
#    y 0.012790 1.860420 0.001450 
#    z 0.010410 0.001450 1.893440 
# 
# From -- ./inp_files/427620.got.cif
#   From: 2010.06.25/outbox.cif.g09.slc.cpg/sg2_214_cif.got.tgz:427620.got - 2010.06.27 13:26:56.
