data_PCOD8015480
_publ_section_title
;
Structure prediction by ZEFSAII (Michael W. Deem and Ramdas Pophale) SiO2 
 PCOD8015480
Probable space group: P -1
;
_chemical_formula_sum "Si O2"
_cell_formula_units_Z 16
_cell_length_a 8.958267
_cell_length_b 18.528172
_cell_length_c 12.125253
_cell_angle_alpha 140.856823
_cell_angle_beta 48.813924
_cell_angle_gamma 102.128086
_cell_volume 740.333661
_symmetry_space_group_name_H-M "P -1"
_symmetry_group_IT_number 2
_symmetry_cell_setting 'triclinic'
loop_
_space_group_symop_operation_xyz
x,y,z
-x,-y,-z
loop_
_atom_site_type_symbol
_atom_site_label
_atom_site_fract_x
_atom_site_fract_y
_atom_site_fract_z
Si Si1 0.835598 0.602564 0.847548
Si Si2 0.855949 0.718963 0.754217
Si Si3 0.769588 0.430650 0.228386
Si Si4 0.998380 0.761209 0.313874
Si Si5 0.637974 0.339381 0.785925
Si Si6 0.397776 0.290521 0.484097
Si Si7 0.576639 0.068652 0.957844
Si Si8 0.856996 0.170834 0.270472
O O1 0.762913 0.676525 0.850608
O O2 0.951131 0.431876 0.587306
O O3 0.026551 0.619668 0.834818
O O4 0.564237 0.691099 0.144816
O O5 0.990780 0.784431 0.814520
O O6 0.623006 0.843089 0.938766
O O7 0.500000 0.500000 0.500000
O O8 0.752065 0.544525 0.290049
O O9 0.885655 0.287651 0.924797
O O10 0.240702 0.672016 0.170176
O O11 0.807638 0.726487 0.394008
O O12 0.846157 0.936805 0.613109
O O13 0.854596 0.216689 0.451719
O O14 0.500000 0.500000 0.000000
O O15 0.574568 0.260648 0.465198
O O16 0.580425 0.181661 0.164872
O O17 0.500000 0.000000 0.000000
O O18 0.000000 0.000000 0.000000
#
# Coordination Sequence:
#
# PCOD8015480 Si02
#       8
#     2   2   2   2   2   2   2   2
#     4  11  25  43  69  95 137 177 225 277 333 396
#     4  11  23  44  68  97 136 180 220 273 341 400
#     4  12  25  42  64  96 130 172 224 270 331 392
#     4  11  24  41  65  98 131 169 223 278 328 391
#     4  12  23  41  68 100 134 178 230 271 330 402
#     4  11  21  40  65  94 131 170 219 277 326 386
#     4  10  21  42  69  96 132 174 216 271 335 400
#     4  12  23  40  67 102 135 173 225 280 336 396
#
# _framework density 21.611877
#
# number of rings (size 3 to 8) (size 9 to 14) (size 15 to 20)
#    0.000    0.750    2.500    7.125    3.500    0.000 
#    0.000    6.250    0.000    0.000    0.000    0.000 
#    0.000    0.000    0.000    0.000    0.000    0.000 
#
# Total GULP energy -198393.785036 kJ/mol
# GULP energy per Si atom -12399.611565 kJ/mol
# Density = 2.156269 g / cm^3
# Si number density = 21.611877 Si / 1000 Ang^3
#
#
#
# Elastic Constant Matrix: (Units=GPa)
#
#
# Indices 1 2 3 4 5 6 
#
# 1 127.8715 31.6632 26.7023 -1.7686 -7.3512 -10.2227
# 2 31.6632 64.6265 38.1871 -0.1591 -10.3000 -9.0823
# 3 26.7023 38.1871 123.0339 -3.9809 16.0448 -6.7244
# 4 -1.7686 -0.1591 -3.9809 35.5368 -1.9238 -7.3518
# 5 -7.3512 -10.3000 16.0448 -1.9238 41.9284 2.5940
# 6 -10.2227 -9.0823 -6.7244 -7.3518 2.5940 37.4053
#
#
#
# Elastic Compliance Matrix: (Units=1/GPa)
#
#
# Indices 1 2 3 4 5 6 
#
# 1 0.009073 -0.003541 -0.000894 0.000706 0.001001 0.001529
# 2 -0.003541 0.023107 -0.007244 0.000116 0.007658 0.002833
# 3 -0.000894 -0.007244 0.011465 0.001009 -0.006320 0.000694
# 4 0.000706 0.000116 0.001009 0.029605 0.000743 0.006170
# 5 0.001001 0.007658 -0.006320 0.000743 0.028411 -0.000828
# 6 0.001529 0.002833 0.000694 0.006170 -0.000828 0.029235
#
#
# Mechanical properties :
#
#
# Convention : Reuss Voigt Hill
#
# Bulk Modulus (GPa) = 49.28999 56.51523 52.90261
# Shear Modulus (GPa) = 31.05270 37.57271 34.31271
#
# Velocity S-wave (km/s) = 3.79467 4.17408 3.98889
# Velocity P-wave (km/s) = 6.48504 7.03118 6.76363
#
# Compressibility (1/GPa) = 0.02028809
#
# Stress axis : x y z
#
# Youngs Moduli (GPa) = 110.21218 43.27627 87.22171
#
# Poissons Ratio (x) = 0.15324 0.07801
# Poissons Ratio (y) = 0.39025 0.63180
# Poissons Ratio (z) = 0.09857 0.31348
#
# Static dielectric constant tensor:
#      x y z
#    x 0.844110 1.400490 -2.649900 
#    y 1.400490 3.107770 1.361370 
#    z -2.649900 1.361370 1.678770 
# 
# 
# High freq. dielectric constant tensor:
#      x y z
#    x 1.858580 -0.006450 0.001660 
#    y -0.006450 1.839610 0.003400 
#    z 0.001660 0.003400 1.850810 
# 
# From -- ./inp_files/190182.got.cif
#   From: 2010.06.25/outbox.cif.g09.slc.cpg/sg2_96_cif.got.tgz:190182.got - 2010.06.27 13:26:56.
