data_PCOD8015723
_publ_section_title
;
Structure prediction by ZEFSAII (Michael W. Deem and Ramdas Pophale) SiO2 
 PCOD8015723
Probable space group: P -1
;
_chemical_formula_sum "Si O2"
_cell_formula_units_Z 16
_cell_length_a 13.085010
_cell_length_b 14.597702
_cell_length_c 8.850442
_cell_angle_alpha 27.678368
_cell_angle_beta 102.302247
_cell_angle_gamma 111.356026
_cell_volume 707.565028
_symmetry_space_group_name_H-M "P -1"
_symmetry_group_IT_number 2
_symmetry_cell_setting 'triclinic'
loop_
_space_group_symop_operation_xyz
x,y,z
-x,-y,-z
loop_
_atom_site_type_symbol
_atom_site_label
_atom_site_fract_x
_atom_site_fract_y
_atom_site_fract_z
Si Si1 0.672808 0.561698 0.545100
Si Si2 0.858307 0.681180 0.829685
Si Si3 0.917847 0.787666 0.362289
Si Si4 0.526488 0.325319 0.592596
Si Si5 0.697290 0.262555 0.230635
Si Si6 0.038994 0.595237 0.208598
Si Si7 0.753252 0.009332 0.392401
Si Si8 0.500892 0.908435 0.363120
O O1 0.793833 0.756879 0.304870
O O2 0.633846 0.512323 0.430469
O O3 0.581984 0.613083 0.540413
O O4 0.684087 0.357338 0.925554
O O5 0.921804 0.811075 0.510907
O O6 0.786281 0.803536 0.704713
O O7 0.778388 0.439352 0.111541
O O8 0.947917 0.675573 0.989233
O O9 0.949163 0.586562 0.627456
O O10 0.000000 0.000000 0.000000
O O11 0.557766 0.284008 0.493887
O O12 0.490525 0.118282 0.988295
O O13 0.750050 0.089189 0.449128
O O14 0.572035 0.148879 0.424334
O O15 0.000000 0.500000 0.500000
O O16 0.157585 0.799057 0.959493
O O17 0.629282 0.935388 0.388210
#
# Coordination Sequence:
#
# PCOD8015723 Si02
#       8
#     2   2   2   2   2   2   2   2
#     4  10  21  43  63  97 139 179 225 285 341 405
#     4  11  26  47  71 102 138 187 237 289 352 418
#     4  11  23  44  72 100 141 185 232 292 351 412
#     4  10  22  39  66  96 141 175 231 279 335 416
#     4  11  24  45  70  99 140 184 229 285 344 418
#     4  12  26  48  73 102 141 182 236 299 353 418
#     4  12  24  46  72  99 146 179 235 290 344 421
#     4  11  23  42  67 101 137 186 225 280 348 408
#
# _framework density 22.612762
#
# number of rings (size 3 to 8) (size 9 to 14) (size 15 to 20)
#    0.000    1.000    3.750    3.375    0.000    6.000 
#    4.500    0.000    0.000    0.000    0.000    0.000 
#    0.000    0.000    0.000    0.000    0.000    0.000 
#
# Total GULP energy -198417.559770 kJ/mol
# GULP energy per Si atom -12401.097486 kJ/mol
# Density = 2.256129 g / cm^3
# Si number density = 22.612762 Si / 1000 Ang^3
#
#
#
# Elastic Constant Matrix: (Units=GPa)
#
#
# Indices 1 2 3 4 5 6 
#
# 1 125.5086 64.7006 45.9525 15.5359 -2.4669 0.8194
# 2 64.7006 119.2895 51.4733 -1.1043 -8.0342 -5.8130
# 3 45.9525 51.4733 68.3459 5.3090 -9.0647 7.4092
# 4 15.5359 -1.1043 5.3090 20.5808 -6.2855 9.3673
# 5 -2.4669 -8.0342 -9.0647 -6.2855 40.1762 -8.6473
# 6 0.8194 -5.8130 7.4092 9.3673 -8.6473 37.7520
#
#
#
# Elastic Compliance Matrix: (Units=1/GPa)
#
#
# Indices 1 2 3 4 5 6 
#
# 1 0.014019 -0.005724 -0.004805 -0.011373 -0.002726 0.001955
# 2 -0.005724 0.015453 -0.008300 0.006682 0.002571 0.003064
# 3 -0.004805 -0.008300 0.025044 -0.000003 0.002508 -0.005513
# 4 -0.011373 0.006682 -0.000003 0.066044 0.008117 -0.013252
# 5 -0.002726 0.002571 0.002508 0.008117 0.028012 0.004365
# 6 0.001955 0.003064 -0.005513 -0.013252 0.004365 0.032288
#
#
# Mechanical properties :
#
#
# Convention : Reuss Voigt Hill
#
# Bulk Modulus (GPa) = 59.31842 70.82186 65.07014
# Shear Modulus (GPa) = 22.30780 29.76964 26.03872
#
# Velocity S-wave (km/s) = 3.14429 3.63229 3.39707
# Velocity P-wave (km/s) = 6.28262 6.99849 6.65019
#
# Compressibility (1/GPa) = 0.01685817
#
# Stress axis : x y z
#
# Youngs Moduli (GPa) = 71.33224 64.71131 39.93042
#
# Poissons Ratio (x) = 0.37041 0.19186
# Poissons Ratio (y) = 0.40830 0.33142
# Poissons Ratio (z) = 0.34274 0.53710
#
# Static dielectric constant tensor:
#      x y z
#    x 4.273450 -0.043980 0.035390 
#    y -0.043980 4.314530 -0.197280 
#    z 0.035390 -0.197280 3.973300 
# 
# 
# High freq. dielectric constant tensor:
#      x y z
#    x 1.905360 -0.006270 0.004730 
#    y -0.006270 1.901900 -0.014880 
#    z 0.004730 -0.014880 1.877260 
# 
# From -- ./inp_files/271393.got.cif
#   From: 2010.06.25/outbox.cif.g09.slc.cpg/sg2_136_cif.got.tgz:271393.got - 2010.06.27 13:26:56.
