data_PCOD8015229
_publ_section_title
;
Structure prediction by ZEFSAII (Michael W. Deem and Ramdas Pophale) SiO2 
 PCOD8015229
Probable space group: P -1
;
_chemical_formula_sum "Si O2"
_cell_formula_units_Z 16
_cell_length_a 10.720836
_cell_length_b 8.784428
_cell_length_c 13.896890
_cell_angle_alpha 136.035386
_cell_angle_beta 51.190306
_cell_angle_gamma 104.655972
_cell_volume 658.802947
_symmetry_space_group_name_H-M "P -1"
_symmetry_group_IT_number 2
_symmetry_cell_setting 'triclinic'
loop_
_space_group_symop_operation_xyz
x,y,z
-x,-y,-z
loop_
_atom_site_type_symbol
_atom_site_label
_atom_site_fract_x
_atom_site_fract_y
_atom_site_fract_z
Si Si1 0.790216 0.388723 0.435309
Si Si2 0.201224 0.953507 0.875959
Si Si3 0.835723 0.275501 0.733191
Si Si4 0.163545 0.018292 0.131138
Si Si5 0.020983 0.278743 0.822255
Si Si6 0.414359 0.243349 0.875421
Si Si7 0.711141 0.195296 0.566410
Si Si8 0.701619 0.918253 0.716253
O O1 0.715976 0.277834 0.333877
O O2 0.679322 0.383960 0.581944
O O3 0.758741 0.649457 0.533014
O O4 0.992402 0.246807 0.295043
O O5 0.251310 0.162610 0.897290
O O6 0.269684 0.919665 0.937175
O O7 0.000000 0.000000 0.000000
O O8 0.846320 0.247901 0.599285
O O9 0.977892 0.339126 0.755776
O O10 0.838327 0.020870 0.651178
O O11 0.652477 0.483882 0.937153
O O12 0.289738 0.083201 0.172300
O O13 0.122402 0.808304 0.104410
O O14 0.206559 0.067633 0.639866
O O15 0.000000 0.500000 0.000000
O O16 0.533366 0.213466 0.710466
O O17 0.515194 0.076112 0.838052
#
# Coordination Sequence:
#
# PCOD8015229 Si02
#       8
#     2   2   2   2   2   2   2   2
#     4  10  22  41  68  98 137 175 226 279 341 402
#     4  10  24  45  66  94 135 181 226 274 349 407
#     4  10  23  44  67  99 141 181 230 275 338 404
#     4   9  21  41  64  99 132 178 228 278 335 398
#     4  10  22  41  70 103 135 181 230 277 341 408
#     4  11  25  45  70  98 140 182 226 284 343 399
#     4  10  22  43  67 105 134 174 230 282 342 394
#     4  10  21  42  66  99 133 172 232 275 332 403
#
# _framework density 24.286473000000001
#
# number of rings (size 3 to 8) (size 9 to 14) (size 15 to 20)
#    0.000    2.000    0.000    2.250    7.000    4.500 
#   13.500    0.000    0.000    0.000    0.000    0.000 
#    0.000    0.000    0.000    0.000    0.000    0.000 
#
# Total GULP energy -198222.588785 kJ/mol
# GULP energy per Si atom -12388.911799 kJ/mol
# Density = 2.423120 g / cm^3
# Si number density = 24.286473 Si / 1000 Ang^3
#
#
#
# Elastic Constant Matrix: (Units=GPa)
#
#
# Indices 1 2 3 4 5 6 
#
# 1 40.7909 16.3052 20.5101 -4.1465 7.9719 -7.2323
# 2 16.3052 91.7976 45.5667 -2.1532 10.5447 -8.8163
# 3 20.5101 45.5667 121.1346 13.0971 27.3359 -11.0504
# 4 -4.1465 -2.1532 13.0971 48.9710 -5.9062 -0.8731
# 5 7.9719 10.5447 27.3359 -5.9062 44.0568 -3.4707
# 6 -7.2323 -8.8163 -11.0504 -0.8731 -3.4707 34.0553
#
#
#
# Elastic Compliance Matrix: (Units=1/GPa)
#
#
# Indices 1 2 3 4 5 6 
#
# 1 0.028708 -0.002742 -0.003401 0.003092 -0.001683 0.004191
# 2 -0.002742 0.013976 -0.004988 0.001817 0.000610 0.001526
# 3 -0.003401 -0.004988 0.012852 -0.004728 -0.006692 0.001354
# 4 0.003092 0.001817 -0.004728 0.022645 0.005029 0.000686
# 5 -0.001683 0.000610 -0.006692 0.005029 0.027729 0.000584
# 6 0.004191 0.001526 0.001354 0.000686 0.000584 0.031165
#
#
# Mechanical properties :
#
#
# Convention : Reuss Voigt Hill
#
# Bulk Modulus (GPa) = 30.05438 46.49858 38.27648
# Shear Modulus (GPa) = 29.33778 36.83936 33.08857
#
# Velocity S-wave (km/s) = 3.47938 3.89892 3.69511
# Velocity P-wave (km/s) = 5.34259 6.28142 5.83093
#
# Compressibility (1/GPa) = 0.03327302
#
# Stress axis : x y z
#
# Youngs Moduli (GPa) = 34.83363 71.55351 77.80778
#
# Poissons Ratio (x) = 0.19623 0.26464
# Poissons Ratio (y) = 0.09553 0.38808
# Poissons Ratio (z) = 0.11848 0.35688
#
# Static dielectric constant tensor:
#      x y z
#    x 4.620060 -0.200570 0.449590 
#    y -0.200570 4.330790 -0.062070 
#    z 0.449590 -0.062070 4.397890 
# 
# 
# High freq. dielectric constant tensor:
#      x y z
#    x 1.956540 -0.009200 0.021540 
#    y -0.009200 1.956370 0.001160 
#    z 0.021540 0.001160 1.964740 
# 
# From -- ./inp_files/516352.got.cif
#   From: 2010.06.25/outbox.cif.g09.slc.cpg/sg2_259_cif.got.tgz:516352.got - 2010.06.27 13:26:56.
