data_PCOD8015958
_publ_section_title
;
Structure prediction by ZEFSAII (Michael W. Deem and Ramdas Pophale) SiO2 
 PCOD8015958
Probable space group: P -1
;
_chemical_formula_sum "Si O2"
_cell_formula_units_Z 16
_cell_length_a 6.754518
_cell_length_b 11.395088
_cell_length_c 11.461545
_cell_angle_alpha 57.770854
_cell_angle_beta 106.152730
_cell_angle_gamma 113.027302
_cell_volume 684.040671
_symmetry_space_group_name_H-M "P -1"
_symmetry_group_IT_number 2
_symmetry_cell_setting 'triclinic'
loop_
_space_group_symop_operation_xyz
x,y,z
-x,-y,-z
loop_
_atom_site_type_symbol
_atom_site_label
_atom_site_fract_x
_atom_site_fract_y
_atom_site_fract_z
Si Si1 0.416160 0.685621 0.295134
Si Si2 0.744267 0.591864 0.011468
Si Si3 0.699397 0.025361 0.603292
Si Si4 0.206156 0.239951 0.302821
Si Si5 0.990813 0.549957 0.734502
Si Si6 0.275710 0.958854 0.148351
Si Si7 0.331357 0.672634 0.551344
Si Si8 0.786097 0.792844 0.134776
O O1 0.236092 0.573091 0.249299
O O2 0.404119 0.847904 0.193369
O O3 0.397560 0.631822 0.455252
O O4 0.647760 0.697020 0.269063
O O5 0.780193 0.689922 0.079786
O O6 0.889338 0.483141 0.112625
O O7 0.500000 0.500000 0.000000
O O8 0.830402 0.693135 0.861657
O O9 0.632294 0.960619 0.756925
O O10 0.784056 0.198956 0.541595
O O11 0.500000 0.000000 0.500000
O O12 0.859961 0.937619 0.623865
O O13 0.054460 0.293053 0.340642
O O14 0.457906 0.293945 0.351087
O O15 0.141259 0.545920 0.648529
O O16 0.027059 0.866410 0.179492
O O17 0.310570 0.078259 0.989853
#
# Coordination Sequence:
#
# PCOD8015958 Si02
#       8
#     2   2   2   2   2   2   2   2
#     4  11  24  42  67 100 134 174 232 273 339 413
#     4  12  23  44  68  97 142 176 225 287 341 408
#     4   9  20  42  70  97 133 176 223 281 333 398
#     4  11  23  43  66  97 134 176 228 279 343 406
#     4  12  25  42  66 101 134 183 228 277 344 404
#     4  10  21  43  68 100 138 168 228 281 336 404
#     4  10  24  44  66  96 137 179 226 282 335 398
#     4  11  23  41  70  99 133 182 220 283 343 390
#
# _framework density 23.390422000000001
#
# number of rings (size 3 to 8) (size 9 to 14) (size 15 to 20)
#    0.000    1.250    3.750    1.875    0.000    3.000 
#    0.000    6.250    0.000    0.000    0.000    0.000 
#    0.000    0.000    0.000    0.000    0.000    0.000 
#
# Total GULP energy -198288.714056 kJ/mol
# GULP energy per Si atom -12393.044629 kJ/mol
# Density = 2.333718 g / cm^3
# Si number density = 23.390422 Si / 1000 Ang^3
#
#
#
# Elastic Constant Matrix: (Units=GPa)
#
#
# Indices 1 2 3 4 5 6 
#
# 1 91.1200 17.9165 44.2628 9.3148 -13.7975 -8.4159
# 2 17.9165 69.8525 14.0893 18.3798 11.3057 -12.3815
# 3 44.2628 14.0893 109.0186 21.4157 -2.9851 0.2809
# 4 9.3148 18.3798 21.4157 25.9075 -6.9440 0.9087
# 5 -13.7975 11.3057 -2.9851 -6.9440 41.2576 -4.7354
# 6 -8.4159 -12.3815 0.2809 0.9087 -4.7354 38.4639
#
#
#
# Elastic Compliance Matrix: (Units=1/GPa)
#
#
# Indices 1 2 3 4 5 6 
#
# 1 0.016015 -0.004774 -0.006677 0.005020 0.007347 0.002802
# 2 -0.004774 0.022802 0.002527 -0.019506 -0.010318 0.005468
# 3 -0.006677 0.002527 0.013772 -0.011822 -0.004030 -0.000965
# 4 0.005020 -0.019506 -0.011822 0.065011 0.016584 -0.004589
# 5 0.007347 -0.010318 -0.004030 0.016584 0.032239 0.001893
# 6 0.002802 0.005468 -0.000965 -0.004589 0.001893 0.028720
#
#
# Mechanical properties :
#
#
# Convention : Reuss Voigt Hill
#
# Bulk Modulus (GPa) = 28.78570 46.94759 37.86664
# Shear Modulus (GPa) = 24.03969 34.04062 29.04016
#
# Velocity S-wave (km/s) = 3.20934 3.81901 3.52737
# Velocity P-wave (km/s) = 5.10554 6.28978 5.72834
#
# Compressibility (1/GPa) = 0.03473947
#
# Stress axis : x y z
#
# Youngs Moduli (GPa) = 62.44094 43.85497 72.61219
#
# Poissons Ratio (x) = 0.20937 0.48486
# Poissons Ratio (y) = 0.29811 -0.18347
# Poissons Ratio (z) = 0.41694 -0.11081
#
# Static dielectric constant tensor:
#      x y z
#    x 3.957580 -0.326910 0.278690 
#    y -0.326910 4.456300 -0.123560 
#    z 0.278690 -0.123560 4.515490 
# 
# 
# High freq. dielectric constant tensor:
#      x y z
#    x 1.905050 -0.020150 0.014670 
#    y -0.020150 1.928060 -0.000900 
#    z 0.014670 -0.000900 1.942300 
# 
# From -- ./inp_files/363931.got.cif
#   From: 2010.06.25/outbox.cif.g09.slc.cpg/sg2_182_cif.got.tgz:363931.got - 2010.06.27 13:26:56.
