data_PCOD8015691
_publ_section_title
;
Structure prediction by ZEFSAII (Michael W. Deem and Ramdas Pophale) SiO2 
 PCOD8015691
Probable space group: P -1
;
_chemical_formula_sum "Si O2"
_cell_formula_units_Z 16
_cell_length_a 5.192410
_cell_length_b 21.118848
_cell_length_c 11.792615
_cell_angle_alpha 137.352780
_cell_angle_beta 61.766039
_cell_angle_gamma 125.224789
_cell_volume 712.881139
_symmetry_space_group_name_H-M "P -1"
_symmetry_group_IT_number 2
_symmetry_cell_setting 'triclinic'
loop_
_space_group_symop_operation_xyz
x,y,z
-x,-y,-z
loop_
_atom_site_type_symbol
_atom_site_label
_atom_site_fract_x
_atom_site_fract_y
_atom_site_fract_z
Si Si1 0.969853 0.059337 0.478343
Si Si2 0.789492 0.407312 0.580789
Si Si3 0.817347 0.058531 0.181867
Si Si4 0.733726 0.317952 0.085010
Si Si5 0.594882 0.826684 0.637408
Si Si6 0.778039 0.587771 0.701227
Si Si7 0.512315 0.908701 0.227068
Si Si8 0.859809 0.516846 0.933371
O O1 0.722440 0.106395 0.636916
O O2 0.288032 0.149156 0.486568
O O3 0.858990 0.973897 0.290478
O O4 0.000000 0.000000 0.500000
O O5 0.559100 0.291998 0.468153
O O6 0.626586 0.481844 0.662706
O O7 0.892970 0.438379 0.729814
O O8 0.100603 0.429220 0.469366
O O9 0.659650 0.120355 0.216391
O O10 0.091254 0.138373 0.305660
O O11 0.514111 0.979944 0.212388
O O12 0.000000 0.000000 0.000000
O O13 0.488370 0.371190 0.217561
O O14 0.938053 0.333006 0.177361
O O15 0.957412 0.367856 0.996452
O O16 0.530226 0.200213 0.953327
O O17 0.500000 0.500000 0.000000
O O18 0.000000 0.500000 0.000000
#
# Coordination Sequence:
#
# PCOD8015691 Si02
#       8
#     2   2   2   2   2   2   2   2
#     4  10  21  43  62  94 131 175 228 269 327 390
#     4  10  25  46  71  98 137 174 226 279 331 404
#     4  11  25  43  63 101 136 168 221 276 321 393
#     4  11  25  43  70  99 131 182 220 270 346 390
#     4  11  25  41  70  96 128 183 216 266 342 384
#     4  10  25  45  69 100 132 174 228 278 327 403
#     4  10  24  40  66  93 133 175 220 276 323 399
#     4  11  25  44  65 100 135 168 218 275 330 394
#
# _framework density 22.444132
#
# number of rings (size 3 to 8) (size 9 to 14) (size 15 to 20)
#    0.000    1.500    1.250    1.875    7.000    9.500 
#    0.000    0.000    0.000    0.000    0.000    0.000 
#    0.000    0.000    0.000    0.000    0.000    0.000 
#
# Total GULP energy -198255.743726 kJ/mol
# GULP energy per Si atom -12390.983983 kJ/mol
# Density = 2.239305 g / cm^3
# Si number density = 22.444132 Si / 1000 Ang^3
#
#
#
# Elastic Constant Matrix: (Units=GPa)
#
#
# Indices 1 2 3 4 5 6 
#
# 1 93.3900 21.3700 20.4875 -5.0043 -5.2232 5.1080
# 2 21.3700 115.8778 55.5924 16.5882 7.1672 5.7201
# 3 20.4875 55.5924 110.6917 7.3431 3.7044 2.7458
# 4 -5.0043 16.5882 7.3431 49.3965 -7.2202 2.2765
# 5 -5.2232 7.1672 3.7044 -7.2202 21.4470 -7.6192
# 6 5.1080 5.7201 2.7458 2.2765 -7.6192 23.8513
#
#
#
# Elastic Compliance Matrix: (Units=1/GPa)
#
#
# Indices 1 2 3 4 5 6 
#
# 1 0.011972 -0.002174 -0.001452 0.002865 0.004618 -0.000674
# 2 -0.002174 0.012903 -0.005457 -0.004558 -0.006756 -0.003724
# 3 -0.001452 -0.005457 0.012079 -0.000210 -0.000675 0.000033
# 4 0.002865 -0.004558 -0.000210 0.023598 0.010807 0.001704
# 5 0.004618 -0.006756 -0.000675 0.010807 0.060517 0.019009
# 6 -0.000674 -0.003724 0.000033 0.001704 0.019009 0.048870
#
#
# Mechanical properties :
#
#
# Convention : Reuss Voigt Hill
#
# Bulk Modulus (GPa) = 53.22327 57.20660 55.21493
# Shear Modulus (GPa) = 25.72445 33.77292 29.74869
#
# Velocity S-wave (km/s) = 3.38916 3.88333 3.64463
# Velocity P-wave (km/s) = 6.25143 6.75653 6.50888
#
# Compressibility (1/GPa) = 0.01878878
#
# Stress axis : x y z
#
# Youngs Moduli (GPa) = 83.52537 77.50236 82.78665
#
# Poissons Ratio (x) = 0.16847 0.12021
# Poissons Ratio (y) = 0.18157 0.45177
# Poissons Ratio (z) = 0.12129 0.42293
#
# Static dielectric constant tensor:
#      x y z
#    x 3.844830 -0.024680 0.171380 
#    y -0.024680 4.032630 0.115030 
#    z 0.171380 0.115030 3.824710 
# 
# 
# High freq. dielectric constant tensor:
#      x y z
#    x 1.882110 0.002510 0.001830 
#    y 0.002510 1.896450 -0.007900 
#    z 0.001830 -0.007900 1.881020 
# 
# From -- ./inp_files/370437.got.cif
#   From: 2010.06.25/outbox.cif.g09.slc.cpg/sg2_186_cif.got.tgz:370437.got - 2010.06.27 13:26:56.
