data_PCOD8015174
_publ_section_title
;
Structure prediction by ZEFSAII (Michael W. Deem and Ramdas Pophale) SiO2 
 PCOD8015174
Probable space group: P -1
;
_chemical_formula_sum "Si O2"
_cell_formula_units_Z 14
_cell_length_a 15.768086
_cell_length_b 8.896439
_cell_length_c 24.143146
_cell_angle_alpha 140.462047
_cell_angle_beta 162.332578
_cell_angle_gamma 40.754828
_cell_volume 649.801912
_symmetry_space_group_name_H-M "P -1"
_symmetry_group_IT_number 2
_symmetry_cell_setting 'triclinic'
loop_
_space_group_symop_operation_xyz
x,y,z
-x,-y,-z
loop_
_atom_site_type_symbol
_atom_site_label
_atom_site_fract_x
_atom_site_fract_y
_atom_site_fract_z
Si Si1 0.396830 0.702271 0.035077
Si Si2 0.615973 0.140088 0.662044
Si Si3 0.517228 0.699067 0.645018
Si Si4 0.220315 0.221057 0.049246
Si Si5 0.174716 0.320395 0.278576
Si Si6 0.759828 0.784345 0.381878
Si Si7 0.633511 0.470441 0.311697
O O1 0.666307 0.750409 0.251556
O O2 0.273503 0.937880 0.992222
O O3 0.500000 0.500000 0.000000
O O4 0.158486 0.621147 0.904224
O O5 0.360699 0.324747 0.579280
O O6 0.500000 0.000000 0.500000
O O7 0.727474 0.955506 0.726520
O O8 0.879800 0.290915 0.854044
O O9 0.648139 0.712581 0.791072
O O10 0.324917 0.485156 0.461676
O O11 0.762894 0.636884 0.734883
O O12 0.326893 0.942055 0.577431
O O13 0.360641 0.337763 0.117189
O O14 0.611537 0.603158 0.276900
O O15 0.095665 0.724462 0.574246
#
# Coordination Sequence:
#
# PCOD8015174 Si02
#       7
#     2   2   2   2   2   2   2
#     4  10  24  40  63  91 122 164 208 259 303 357
#     4  11  23  40  63  93 127 161 203 261 306 371
#     4  10  21  42  66  94 116 163 213 256 304 359
#     4  10  24  39  68  89 119 167 209 254 304 367
#     4  10  22  39  67  91 124 157 212 261 301 358
#     4  10  24  41  64  88 128 169 198 258 307 373
#     4  11  23  42  61  92 127 165 204 245 321 371
#
# _framework density 21.545027000000001
#
# number of rings (size 3 to 8) (size 9 to 14) (size 15 to 20)
#    0.000    1.714    1.429    1.286   10.000    2.857 
#    2.571    0.714    0.000    0.000    0.000    0.000 
#    0.000    0.000    0.000    0.000    0.000    0.000 
#
# Total GULP energy -173595.666645 kJ/mol
# GULP energy per Si atom -12399.690475 kJ/mol
# Density = 2.149599 g / cm^3
# Si number density = 21.545027 Si / 1000 Ang^3
#
#
#
# Elastic Constant Matrix: (Units=GPa)
#
#
# Indices 1 2 3 4 5 6 
#
# 1 68.2973 29.4165 17.9698 -0.9673 18.7786 -8.1141
# 2 29.4165 95.4237 19.5626 -7.4149 17.3559 -18.3519
# 3 17.9698 19.5626 77.7507 5.4786 15.7989 -1.3177
# 4 -0.9673 -7.4149 5.4786 33.4136 -0.5648 1.3580
# 5 18.7786 17.3559 15.7989 -0.5648 31.7422 8.0346
# 6 -8.1141 -18.3519 -1.3177 1.3580 8.0346 38.8433
#
#
#
# Elastic Compliance Matrix: (Units=1/GPa)
#
#
# Indices 1 2 3 4 5 6 
#
# 1 0.019807 -0.002932 -0.001598 -0.000193 -0.010560 0.004889
# 2 -0.002932 0.014800 -0.001610 0.003022 -0.007468 0.007764
# 3 -0.001598 -0.001610 0.015062 -0.003003 -0.005913 0.000745
# 4 -0.000193 0.003022 -0.003003 0.031090 0.000485 0.000098
# 5 -0.010560 -0.007468 -0.005913 0.000485 0.048850 -0.016056
# 6 0.004889 0.007764 0.000745 0.000098 -0.016056 0.033777
#
#
# Mechanical properties :
#
#
# Convention : Reuss Voigt Hill
#
# Bulk Modulus (GPa) = 26.74633 41.70772 34.22702
# Shear Modulus (GPa) = 26.57765 32.43467 29.50616
#
# Velocity S-wave (km/s) = 3.51606 3.88420 3.70471
# Velocity P-wave (km/s) = 5.37816 6.28621 5.84983
#
# Compressibility (1/GPa) = 0.03738831
#
# Stress axis : x y z
#
# Youngs Moduli (GPa) = 50.48747 67.56830 66.39344
#
# Poissons Ratio (x) = 0.19814 0.10608
# Poissons Ratio (y) = 0.14805 0.10689
# Poissons Ratio (z) = 0.08067 0.10878
#
# Static dielectric constant tensor:
#      x y z
#    x 3.778950 0.050010 0.238420 
#    y 0.050010 4.215910 0.099870 
#    z 0.238420 0.099870 3.752430 
# 
# 
# High freq. dielectric constant tensor:
#      x y z
#    x 1.841100 -0.000120 0.015340 
#    y -0.000120 1.867190 0.004130 
#    z 0.015340 0.004130 1.832310 
# 
# From -- ./inp_files/175485.got.cif
#   From: 2010.06.25/outbox.cif.g09.slc.cpg/sg2_88_cif.got.tgz:175485.got - 2010.06.27 13:26:56.
