data_PCOD8015358
_publ_section_title
;
Structure prediction by ZEFSAII (Michael W. Deem and Ramdas Pophale) SiO2 
 PCOD8015358
Probable space group: P -1
;
_chemical_formula_sum "Si O2"
_cell_formula_units_Z 16
_cell_length_a 15.454200
_cell_length_b 15.102286
_cell_length_c 12.407106
_cell_angle_alpha 143.125515
_cell_angle_beta 27.153381
_cell_angle_gamma 136.069264
_cell_volume 792.636974
_symmetry_space_group_name_H-M "P -1"
_symmetry_group_IT_number 2
_symmetry_cell_setting 'triclinic'
loop_
_space_group_symop_operation_xyz
x,y,z
-x,-y,-z
loop_
_atom_site_type_symbol
_atom_site_label
_atom_site_fract_x
_atom_site_fract_y
_atom_site_fract_z
Si Si1 0.631171 0.814115 0.388260
Si Si2 0.558280 0.705384 0.134963
Si Si3 0.818275 0.450030 0.582144
Si Si4 0.409734 0.807916 0.845150
Si Si5 0.641718 0.957285 0.135782
Si Si6 0.704040 0.863552 0.748874
Si Si7 0.970261 0.328286 0.886974
Si Si8 0.048112 0.775464 0.951588
O O1 0.573210 0.701929 0.245952
O O2 0.529640 0.765506 0.565098
O O3 0.563377 0.975973 0.590853
O O4 0.855480 0.831617 0.168820
O O5 0.342752 0.660299 0.291282
O O6 0.626125 0.866587 0.175308
O O7 0.706039 0.593624 0.811657
O O8 0.890202 0.370342 0.319204
O O9 0.000000 0.500000 0.500000
O O10 0.535855 0.789468 0.793419
O O11 0.244705 0.688372 0.930260
O O12 0.301420 0.962806 0.105651
O O13 0.798018 0.090754 0.098909
O O14 0.678091 0.845759 0.888501
O O15 0.897135 0.781144 0.432117
O O16 0.990497 0.277541 0.937403
O O17 0.000000 0.500000 0.000000
#
# Coordination Sequence:
#
# PCOD8015358 Si02
#       8
#     2   2   2   2   2   2   2   2
#     4  11  21  41  69  92 123 169 214 266 316 376
#     4  11  24  43  67  95 132 172 214 261 324 377
#     4  11  24  44  65  94 131 173 210 264 319 385
#     4  10  21  42  68  89 124 167 216 261 320 379
#     4  11  25  42  67  96 132 166 220 271 310 384
#     4  10  22  41  65  93 122 169 212 264 320 372
#     4  12  25  41  64  95 131 168 211 267 323 391
#     4  12  24  43  67  94 127 172 219 262 328 378
#
# _framework density 20.185786
#
# number of rings (size 3 to 8) (size 9 to 14) (size 15 to 20)
#    0.000    1.000    6.250    0.750    1.750    2.000 
#    2.250    0.000    0.000    0.000    0.000    0.000 
#    0.000    0.000    0.000    0.000    0.000    0.000 
#
# Total GULP energy -198285.413251 kJ/mol
# GULP energy per Si atom -12392.838328 kJ/mol
# Density = 2.013984 g / cm^3
# Si number density = 20.185786 Si / 1000 Ang^3
#
#
#
# Elastic Constant Matrix: (Units=GPa)
#
#
# Indices 1 2 3 4 5 6 
#
# 1 113.4757 45.7672 44.8924 -9.9314 5.4549 30.4183
# 2 45.7672 104.4522 28.8435 -3.3661 -1.8230 11.3557
# 3 44.8924 28.8435 145.6684 1.3818 6.8093 14.6335
# 4 -9.9314 -3.3661 1.3818 17.3284 10.4482 -5.1586
# 5 5.4549 -1.8230 6.8093 10.4482 33.8152 0.4433
# 6 30.4183 11.3557 14.6335 -5.1586 0.4433 17.2333
#
#
#
# Elastic Compliance Matrix: (Units=1/GPa)
#
#
# Indices 1 2 3 4 5 6 
#
# 1 0.019922 -0.004952 -0.002137 0.004574 -0.004088 -0.028611
# 2 -0.004952 0.011878 -0.001046 -0.001256 0.002020 0.001375
# 3 -0.002137 -0.001046 0.008103 -0.002769 -0.000445 -0.003237
# 4 0.004574 -0.001256 -0.002769 0.081919 -0.025825 0.020293
# 5 -0.004088 0.002020 -0.000445 -0.025825 0.038442 -0.002456
# 6 -0.028611 0.001375 -0.003237 0.020293 -0.002456 0.116509
#
#
# Mechanical properties :
#
#
# Convention : Reuss Voigt Hill
#
# Bulk Modulus (GPa) = 42.31683 66.95584 54.63633
# Shear Modulus (GPa) = 16.61568 29.94826 23.28197
#
# Velocity S-wave (km/s) = 2.87215 3.85597 3.39984
# Velocity P-wave (km/s) = 5.65758 7.28468 6.52207
#
# Compressibility (1/GPa) = 0.02363126
#
# Stress axis : x y z
#
# Youngs Moduli (GPa) = 50.19687 84.18997 123.41283
#
# Poissons Ratio (x) = 0.41693 0.26372
# Poissons Ratio (y) = 0.24859 0.12913
# Poissons Ratio (z) = 0.10727 0.08809
#
# Static dielectric constant tensor:
#      x y z
#    x 3.796390 0.217660 0.064770 
#    y 0.217660 3.460430 -0.056960 
#    z 0.064770 -0.056960 4.004740 
# 
# 
# High freq. dielectric constant tensor:
#      x y z
#    x 1.791330 0.018710 0.003740 
#    y 0.018710 1.765990 -0.001740 
#    z 0.003740 -0.001740 1.814180 
# 
# From -- ./inp_files/455028.got.cif
#   From: 2010.06.25/outbox.cif.g09.slc.cpg/sg2_228_cif.got.tgz:455028.got - 2010.06.27 13:26:56.
