data_PCOD8015921
_publ_section_title
;
Structure prediction by ZEFSAII (Michael W. Deem and Ramdas Pophale) SiO2 
 PCOD8015921
Probable space group: P -1
;
_chemical_formula_sum "Si O2"
_cell_formula_units_Z 16
_cell_length_a 14.408685
_cell_length_b 9.123762
_cell_length_c 7.889930
_cell_angle_alpha 48.746231
_cell_angle_beta 72.308501
_cell_angle_gamma 91.913939
_cell_volume 702.212812
_symmetry_space_group_name_H-M "P -1"
_symmetry_group_IT_number 2
_symmetry_cell_setting 'triclinic'
loop_
_space_group_symop_operation_xyz
x,y,z
-x,-y,-z
loop_
_atom_site_type_symbol
_atom_site_label
_atom_site_fract_x
_atom_site_fract_y
_atom_site_fract_z
Si Si1 0.407800 0.577043 0.440899
Si Si2 0.026360 0.081053 0.696028
Si Si3 0.892154 0.729385 0.836202
Si Si4 0.714223 0.810539 0.022315
Si Si5 0.401845 0.982972 0.299789
Si Si6 0.247956 0.691180 0.852361
Si Si7 0.845657 0.071028 0.028634
Si Si8 0.429477 0.631626 0.999288
O O1 0.500000 0.500000 0.500000
O O2 0.430633 0.808351 0.315697
O O3 0.386636 0.562557 0.263515
O O4 0.312134 0.422694 0.714241
O O5 0.054742 0.229775 0.406735
O O6 0.129731 0.092053 0.732552
O O7 0.974796 0.837977 0.853900
O O8 0.949668 0.163717 0.788297
O O9 0.806186 0.843702 0.811317
O O10 0.838146 0.483295 0.074952
O O11 0.621545 0.860827 0.941857
O O12 0.748342 0.961353 0.048548
O O13 0.305122 0.884740 0.552960
O O14 0.502452 0.125557 0.234516
O O15 0.186017 0.755351 0.987923
O O16 0.332426 0.595491 0.955321
O O17 0.500000 0.500000 0.000000
#
# Coordination Sequence:
#
# PCOD8015921 Si02
#       8
#     2   2   2   2   2   2   2   2
#     4  12  25  43  68  94 133 185 226 271 331 396
#     4   9  21  44  68  89 133 175 208 280 347 393
#     4  10  21  43  67  95 129 176 219 266 339 405
#     4  11  23  43  68  97 133 178 227 267 330 399
#     4  12  25  46  66  96 142 181 223 269 330 395
#     4  12  25  40  67 103 132 173 228 274 321 399
#     4  10  23  40  65  99 127 170 217 279 337 389
#     4  12  27  44  67  99 139 182 221 279 331 381
#
# _framework density 22.785114
#
# number of rings (size 3 to 8) (size 9 to 14) (size 15 to 20)
#    0.000    1.000    2.500    3.750    5.250    1.000 
#    0.000    0.000    0.000    0.000    0.000    0.000 
#    0.000    0.000    0.000    0.000    0.000    0.000 
#
# Total GULP energy -198383.996598 kJ/mol
# GULP energy per Si atom -12398.999787 kJ/mol
# Density = 2.273325 g / cm^3
# Si number density = 22.785114 Si / 1000 Ang^3
#
#
#
# Elastic Constant Matrix: (Units=GPa)
#
#
# Indices 1 2 3 4 5 6 
#
# 1 58.3903 10.4313 14.2687 0.0698 -0.6538 0.3810
# 2 10.4313 119.7178 32.5143 4.6000 -5.1126 -14.1875
# 3 14.2687 32.5143 113.5672 5.3444 -5.8148 2.1384
# 4 0.0698 4.6000 5.3444 38.6758 1.5939 -2.6027
# 5 -0.6538 -5.1126 -5.8148 1.5939 28.0525 -3.0284
# 6 0.3810 -14.1875 2.1384 -2.6027 -3.0284 38.1215
#
#
#
# Elastic Compliance Matrix: (Units=1/GPa)
#
#
# Indices 1 2 3 4 5 6 
#
# 1 0.017797 -0.001105 -0.001940 0.000346 -0.000260 -0.000477
# 2 -0.001105 0.009707 -0.002600 -0.000602 0.001655 0.003860
# 3 -0.001940 -0.002600 0.009953 -0.001222 0.001454 -0.001474
# 4 0.000346 -0.000602 -0.001222 0.026266 -0.001685 0.001501
# 5 -0.000260 0.001655 0.001454 -0.001685 0.036701 0.003337
# 6 -0.000477 0.003860 -0.001474 0.001501 0.003337 0.028123
#
#
# Mechanical properties :
#
#
# Convention : Reuss Voigt Hill
#
# Bulk Modulus (GPa) = 38.21552 45.12266 41.66909
# Shear Modulus (GPa) = 33.65650 36.60068 35.12859
#
# Velocity S-wave (km/s) = 3.84751 4.01227 3.93075
# Velocity P-wave (km/s) = 6.04536 6.42736 6.23928
#
# Compressibility (1/GPa) = 0.02616738
#
# Stress axis : x y z
#
# Youngs Moduli (GPa) = 56.18781 103.02345 100.47012
#
# Poissons Ratio (x) = 0.11381 0.19495
# Poissons Ratio (y) = 0.06207 0.26120
# Poissons Ratio (z) = 0.10903 0.26784
#
# Static dielectric constant tensor:
#      x y z
#    x 4.109820 0.148700 -0.235440 
#    y 0.148700 4.184770 0.164050 
#    z -0.235440 0.164050 4.312530 
# 
# 
# High freq. dielectric constant tensor:
#      x y z
#    x 1.896330 0.001900 -0.012300 
#    y 0.001900 1.914280 0.016360 
#    z -0.012300 0.016360 1.888750 
# 
# From -- ./inp_files/297248.got.cif
#   From: 2010.06.25/outbox.cif.g09.slc.cpg/sg2_149_cif.got.tgz:297248.got - 2010.06.27 13:26:56.
