data_PCOD8015669
_publ_section_title
;
Structure prediction by ZEFSAII (Michael W. Deem and Ramdas Pophale) SiO2 
 PCOD8015669
Probable space group: P -1
;
_chemical_formula_sum "Si O2"
_cell_formula_units_Z 16
_cell_length_a 9.384945
_cell_length_b 11.759880
_cell_length_c 23.103880
_cell_angle_alpha 146.266093
_cell_angle_beta 35.758752
_cell_angle_gamma 141.513158
_cell_volume 780.419441
_symmetry_space_group_name_H-M "P -1"
_symmetry_group_IT_number 2
_symmetry_cell_setting 'triclinic'
loop_
_space_group_symop_operation_xyz
x,y,z
-x,-y,-z
loop_
_atom_site_type_symbol
_atom_site_label
_atom_site_fract_x
_atom_site_fract_y
_atom_site_fract_z
Si Si1 0.119609 0.610588 0.761047
Si Si2 0.945607 0.335348 0.804599
Si Si3 0.590112 0.569466 0.226295
Si Si4 0.170476 0.170920 0.561629
Si Si5 0.605171 0.035741 0.415661
Si Si6 0.493948 0.000515 0.862657
Si Si7 0.834563 0.781762 0.727345
Si Si8 0.756545 0.777331 0.876329
O O1 0.224299 0.416540 0.623208
O O2 0.356389 0.830897 0.786376
O O3 0.968053 0.540638 0.842781
O O4 0.930274 0.649032 0.792439
O O5 0.136154 0.414799 0.829891
O O6 0.025139 0.153825 0.664370
O O7 0.651597 0.228624 0.877085
O O8 0.361031 0.469323 0.308357
O O9 0.524056 0.400808 0.122757
O O10 0.594250 0.799233 0.297282
O O11 0.437073 0.127131 0.466492
O O12 0.000000 0.000000 0.500000
O O13 0.898910 0.202917 0.385910
O O14 0.500000 0.000000 0.500000
O O15 0.696132 0.920361 0.796307
O O16 0.280632 0.039604 0.992104
O O17 0.893606 0.885061 0.816635
#
# Coordination Sequence:
#
# PCOD8015669 Si02
#       8
#     2   2   2   2   2   2   2   2
#     4  10  22  45  58  93 133 158 219 253 303 391
#     4  10  22  41  63  93 123 167 212 260 299 385
#     4  10  21  43  59  94 130 156 217 262 299 376
#     4  10  22  42  64  88 127 164 201 262 312 362
#     4  12  21  41  65  90 122 167 207 256 316 363
#     4  12  21  43  66  90 129 170 205 260 321 359
#     4  10  23  40  61  96 125 155 218 256 301 383
#     4  10  24  41  64  92 129 170 203 262 316 367
#
# _framework density 20.501795999999999
#
# number of rings (size 3 to 8) (size 9 to 14) (size 15 to 20)
#    1.500    0.000    3.750    1.500    0.000    2.500 
#    4.500    1.250    0.000    0.000    0.000    0.000 
#    0.000    0.000    0.000    0.000    0.000    0.000 
#
# Total GULP energy -198271.458058 kJ/mol
# GULP energy per Si atom -12391.966129 kJ/mol
# Density = 2.045513 g / cm^3
# Si number density = 20.501796 Si / 1000 Ang^3
#
#
#
# Elastic Constant Matrix: (Units=GPa)
#
#
# Indices 1 2 3 4 5 6 
#
# 1 108.9010 21.5539 12.6480 6.9241 -7.7281 11.2333
# 2 21.5539 100.6300 4.0236 -9.7959 2.4250 21.4725
# 3 12.6480 4.0236 37.3606 -1.5615 3.8782 12.6351
# 4 6.9241 -9.7959 -1.5615 30.5141 5.5582 7.2677
# 5 -7.7281 2.4250 3.8782 5.5582 23.5573 5.1988
# 6 11.2333 21.4725 12.6351 7.2677 5.1988 18.5494
#
#
#
# Elastic Compliance Matrix: (Units=1/GPa)
#
#
# Indices 1 2 3 4 5 6 
#
# 1 0.010910 -0.002536 -0.003872 -0.004301 0.005701 -0.000947
# 2 -0.002536 0.018566 0.010709 0.015073 -0.000794 -0.032934
# 3 -0.003872 0.010709 0.043547 0.018124 -0.003716 -0.045775
# 4 -0.004301 0.015073 0.018124 0.051765 -0.008190 -0.045175
# 5 0.005701 -0.000794 -0.003716 -0.008190 0.049287 -0.010606
# 6 -0.000947 -0.032934 -0.045775 -0.045175 -0.010606 0.144460
#
#
# Mechanical properties :
#
#
# Convention : Reuss Voigt Hill
#
# Bulk Modulus (GPa) = 12.25081 35.92694 24.08887
# Shear Modulus (GPa) = 14.83060 28.43524 21.63292
#
# Velocity S-wave (km/s) = 2.69249 3.72824 3.25187
# Velocity P-wave (km/s) = 3.95657 6.00790 5.08671
#
# Compressibility (1/GPa) = 0.08162728
#
# Stress axis : x y z
#
# Youngs Moduli (GPa) = 91.65948 53.86132 22.96344
#
# Poissons Ratio (x) = 0.13659 0.08891
# Poissons Ratio (y) = 0.23245 -0.24593
# Poissons Ratio (z) = 0.35487 -0.57682
#
# Static dielectric constant tensor:
#      x y z
#    x 3.664000 -0.016640 -0.034150 
#    y -0.016640 3.713620 0.050630 
#    z -0.034150 0.050630 3.418250 
# 
# 
# High freq. dielectric constant tensor:
#      x y z
#    x 1.808690 0.001460 -0.004330 
#    y 0.001460 1.795440 0.009480 
#    z -0.004330 0.009480 1.773080 
# 
# From -- ./inp_files/607587.got.cif
#   From: 2010.06.25/outbox.cif.g09.slc.cpg/sg2_304_cif.got.tgz:607587.got - 2010.06.27 13:26:56.
