data_PCOD8015625
_publ_section_title
;
Structure prediction by ZEFSAII (Michael W. Deem and Ramdas Pophale) SiO2 
 PCOD8015625
Probable space group: P -1
;
_chemical_formula_sum "Si O2"
_cell_formula_units_Z 16
_cell_length_a 9.216687
_cell_length_b 11.163466
_cell_length_c 25.217871
_cell_angle_alpha 22.160819
_cell_angle_beta 127.407422
_cell_angle_gamma 130.587164
_cell_volume 743.153593
_symmetry_space_group_name_H-M "P -1"
_symmetry_group_IT_number 2
_symmetry_cell_setting 'triclinic'
loop_
_space_group_symop_operation_xyz
x,y,z
-x,-y,-z
loop_
_atom_site_type_symbol
_atom_site_label
_atom_site_fract_x
_atom_site_fract_y
_atom_site_fract_z
Si Si1 0.052316 0.835423 0.904402
Si Si2 0.242334 0.837798 0.258342
Si Si3 0.327013 0.139387 0.043777
Si Si4 0.680591 0.122980 0.248472
Si Si5 0.033843 0.087905 0.531519
Si Si6 0.311583 0.809118 0.067550
Si Si7 0.653716 0.876230 0.232708
Si Si8 0.619500 0.745424 0.621007
O O1 0.197907 0.114309 0.785752
O O2 0.134146 0.766297 0.007240
O O3 0.856911 0.920849 0.833684
O O4 0.000000 0.500000 0.000000
O O5 0.125793 0.476741 0.400070
O O6 0.230436 0.873545 0.177247
O O7 0.459775 0.924832 0.291651
O O8 0.251409 0.001793 0.025272
O O9 0.552494 0.167323 0.081517
O O10 0.297031 0.487156 0.910566
O O11 0.817820 0.092650 0.338792
O O12 0.748811 0.962356 0.276689
O O13 0.000000 0.000000 0.500000
O O14 0.828808 0.969181 0.561381
O O15 0.350211 0.465501 0.234568
O O16 0.500000 0.000000 0.000000
O O17 0.491904 0.515177 0.342368
O O18 0.500000 0.000000 0.500000
#
# Coordination Sequence:
#
# PCOD8015625 Si02
#       8
#     2   2   2   2   2   2   2   2
#     4  12  24  41  69 106 138 170 230 282 345 405
#     4  11  25  44  68 102 141 179 224 282 339 406
#     4  10  21  42  72  98 133 178 226 277 342 393
#     4  11  24  45  72  98 139 180 226 282 348 398
#     4  12  27  45  67 101 136 182 229 275 337 413
#     4  11  24  43  72 102 136 179 228 286 339 400
#     4  10  21  46  66 100 138 175 223 286 333 406
#     4  11  25  47  69  96 139 183 229 277 337 406
#
# _framework density 21.529869000000001
#
# number of rings (size 3 to 8) (size 9 to 14) (size 15 to 20)
#    0.000    1.000    2.500    6.375    5.250    0.500 
#    2.250    1.250    0.000    0.000    0.000    0.000 
#    0.000    0.000    0.000    0.000    0.000    0.000 
#
# Total GULP energy -198324.776735 kJ/mol
# GULP energy per Si atom -12395.298546 kJ/mol
# Density = 2.148087 g / cm^3
# Si number density = 21.529869 Si / 1000 Ang^3
#
#
#
# Elastic Constant Matrix: (Units=GPa)
#
#
# Indices 1 2 3 4 5 6 
#
# 1 140.3489 43.7464 56.2570 5.2785 0.4401 8.5340
# 2 43.7464 121.1535 50.0109 12.9738 5.7911 -0.0045
# 3 56.2570 50.0109 118.8451 -5.9618 3.4827 8.4392
# 4 5.2785 12.9738 -5.9618 37.8494 2.1602 -3.5032
# 5 0.4401 5.7911 3.4827 2.1602 37.6427 -6.6682
# 6 8.5340 -0.0045 8.4392 -3.5032 -6.6682 35.4779
#
#
#
# Elastic Compliance Matrix: (Units=1/GPa)
#
#
# Indices 1 2 3 4 5 6 
#
# 1 0.009257 -0.001699 -0.003646 -0.001434 0.000317 -0.001442
# 2 -0.001699 0.011026 -0.004069 -0.004056 -0.000925 0.000804
# 3 -0.003646 -0.004069 0.012199 0.003711 -0.001000 -0.001847
# 4 -0.001434 -0.004056 0.003711 0.028848 -0.000981 0.002126
# 5 0.000317 -0.000925 -0.001000 -0.000981 0.027790 0.005288
# 6 -0.001442 0.000804 -0.001847 0.002126 0.005288 0.030177
#
#
# Mechanical properties :
#
#
# Convention : Reuss Voigt Hill
#
# Bulk Modulus (GPa) = 73.23892 75.59735 74.41813
# Shear Modulus (GPa) = 35.04494 37.54954 36.29724
#
# Velocity S-wave (km/s) = 4.03890 4.18073 4.11043
# Velocity P-wave (km/s) = 7.47271 7.64812 7.56093
#
# Compressibility (1/GPa) = 0.01365394
#
# Stress axis : x y z
#
# Youngs Moduli (GPa) = 108.03067 90.69742 81.97519
#
# Poissons Ratio (x) = 0.15411 0.29885
# Poissons Ratio (y) = 0.18356 0.33354
# Poissons Ratio (z) = 0.39384 0.36903
#
# Static dielectric constant tensor:
#      x y z
#    x 5.379210 -0.461320 -0.414080 
#    y -0.461320 4.658470 0.249070 
#    z -0.414080 0.249070 3.955150 
# 
# 
# High freq. dielectric constant tensor:
#      x y z
#    x 1.855880 0.003190 -0.000560 
#    y 0.003190 1.850380 -0.004440 
#    z -0.000560 -0.004440 1.841090 
# 
# From -- ./inp_files/617021.got.cif
#   From: 2010.06.25/outbox.cif.g09.slc.cpg/sg2_309_cif.got.tgz:617021.got - 2010.06.27 13:26:56.
