data_PCOD8015375
_publ_section_title
;
Structure prediction by ZEFSAII (Michael W. Deem and Ramdas Pophale) SiO2 
 PCOD8015375
Probable space group: P -1
;
_chemical_formula_sum "Si O2"
_cell_formula_units_Z 14
_cell_length_a 16.246263
_cell_length_b 8.629507
_cell_length_c 9.522031
_cell_angle_alpha 45.949570
_cell_angle_beta 137.391385
_cell_angle_gamma 123.937986
_cell_volume 646.570554
_symmetry_space_group_name_H-M "P -1"
_symmetry_group_IT_number 2
_symmetry_cell_setting 'triclinic'
loop_
_space_group_symop_operation_xyz
x,y,z
-x,-y,-z
loop_
_atom_site_type_symbol
_atom_site_label
_atom_site_fract_x
_atom_site_fract_y
_atom_site_fract_z
Si Si1 0.485667 0.191023 0.964293
Si Si2 0.328802 0.457648 0.038340
Si Si3 0.277120 0.444220 0.524915
Si Si4 0.813069 0.726929 0.763325
Si Si5 0.975913 0.478867 0.710788
Si Si6 0.476075 0.784471 0.689564
Si Si7 0.130694 0.764936 0.524395
O O1 0.550370 0.163650 0.213906
O O2 0.559209 0.391103 0.846584
O O3 0.344566 0.232150 0.785318
O O4 0.500000 0.000000 0.000000
O O5 0.260183 0.297054 0.166202
O O6 0.397609 0.331815 0.082832
O O7 0.240857 0.612413 0.753714
O O8 0.261071 0.426052 0.347496
O O9 0.143860 0.435636 0.428795
O O10 0.359689 0.656125 0.548387
O O11 0.826183 0.979510 0.575575
O O12 0.945129 0.635595 0.001911
O O13 0.948472 0.290849 0.678817
O O14 0.049955 0.694906 0.604123
O O15 0.500000 0.000000 0.500000
#
# Coordination Sequence:
#
# PCOD8015375 Si02
#       7
#     2   2   2   2   2   2   2
#     4  11  24  43  69  97 131 176 221 272 340 390
#     4  10  23  41  67  95 138 167 225 266 334 393
#     4  11  24  42  65  92 143 170 221 278 330 390
#     4  11  24  40  67 102 130 181 220 275 323 399
#     4  10  22  42  64  95 135 173 224 272 325 394
#     4  11  26  43  68 101 130 176 224 272 335 400
#     4  10  21  42  68  93 132 176 221 277 327 388
#
# _framework density 21.652704
#
# number of rings (size 3 to 8) (size 9 to 14) (size 15 to 20)
#    0.000    1.429    0.000    5.143    8.000    1.714 
#    2.571    0.000    0.000    0.000    0.000    0.000 
#    0.000    0.000    0.000    0.000    0.000    0.000 
#
# Total GULP energy -173497.918217 kJ/mol
# GULP energy per Si atom -12392.708444 kJ/mol
# Density = 2.160342 g / cm^3
# Si number density = 21.652704 Si / 1000 Ang^3
#
#
#
# Elastic Constant Matrix: (Units=GPa)
#
#
# Indices 1 2 3 4 5 6 
#
# 1 107.1601 60.3106 36.1220 -3.7926 7.7662 10.1363
# 2 60.3106 138.0946 66.9025 -2.9086 -9.2241 -11.9393
# 3 36.1220 66.9025 117.0625 5.8148 2.4980 1.6190
# 4 -3.7926 -2.9086 5.8148 40.3188 -0.6019 -6.7987
# 5 7.7662 -9.2241 2.4980 -0.6019 34.5885 4.8554
# 6 10.1363 -11.9393 1.6190 -6.7987 4.8554 32.4329
#
#
#
# Elastic Compliance Matrix: (Units=1/GPa)
#
#
# Indices 1 2 3 4 5 6 
#
# 1 0.014205 -0.006926 -0.000235 -0.000273 -0.004124 -0.006418
# 2 -0.006926 0.014433 -0.006454 0.002680 0.004845 0.007637
# 3 -0.000235 -0.006454 0.012536 -0.002868 -0.002174 -0.003204
# 4 -0.000273 0.002680 -0.002868 0.026521 0.000504 0.006699
# 5 -0.004124 0.004845 -0.002174 0.000504 0.031496 -0.001429
# 6 -0.006418 0.007637 -0.003204 0.006699 -0.001429 0.037428
#
#
# Mechanical properties :
#
#
# Convention : Reuss Voigt Hill
#
# Bulk Modulus (GPa) = 71.70590 76.55414 74.13002
# Shear Modulus (GPa) = 29.67412 34.73354 32.20383
#
# Velocity S-wave (km/s) = 3.70599 4.00949 3.86072
# Velocity P-wave (km/s) = 7.17640 7.54102 7.36097
#
# Compressibility (1/GPa) = 0.01394585
#
# Stress axis : x y z
#
# Youngs Moduli (GPa) = 70.39615 69.28412 79.76811
#
# Poissons Ratio (x) = 0.47989 0.01871
# Poissons Ratio (y) = 0.48759 0.51480
# Poissons Ratio (z) = 0.01651 0.44714
#
# Static dielectric constant tensor:
#      x y z
#    x 4.156540 0.018400 0.247080 
#    y 0.018400 3.951680 0.101760 
#    z 0.247080 0.101760 4.003640 
# 
# 
# High freq. dielectric constant tensor:
#      x y z
#    x 1.859890 0.002790 0.012590 
#    y 0.002790 1.845700 0.009190 
#    z 0.012590 0.009190 1.853680 
# 
# From -- ./inp_files/294339.got.cif
#   From: 2010.06.25/outbox.cif.g09.slc.cpg/sg2_148_cif.got.tgz:294339.got - 2010.06.27 13:26:56.
