data_PCOD8015719
_publ_section_title
;
Structure prediction by ZEFSAII (Michael W. Deem and Ramdas Pophale) SiO2 
 PCOD8015719
Probable space group: P -1
;
_chemical_formula_sum "Si O2"
_cell_formula_units_Z 16
_cell_length_a 14.476290
_cell_length_b 10.213777
_cell_length_c 11.711756
_cell_angle_alpha 63.521973
_cell_angle_beta 31.151388
_cell_angle_gamma 55.749575
_cell_volume 737.852035
_symmetry_space_group_name_H-M "P -1"
_symmetry_group_IT_number 2
_symmetry_cell_setting 'triclinic'
loop_
_space_group_symop_operation_xyz
x,y,z
-x,-y,-z
loop_
_atom_site_type_symbol
_atom_site_label
_atom_site_fract_x
_atom_site_fract_y
_atom_site_fract_z
Si Si1 0.832442 0.387744 0.942562
Si Si2 0.583740 0.532664 0.572684
Si Si3 0.872920 0.950147 0.833707
Si Si4 0.958330 0.795354 0.431426
Si Si5 0.559398 0.249957 0.566053
Si Si6 0.954271 0.132335 0.089991
Si Si7 0.023474 0.628280 0.654732
Si Si8 0.520697 0.981238 0.850729
O O1 0.945216 0.276680 0.762328
O O2 0.862324 0.551834 0.855652
O O3 0.605623 0.415409 0.165190
O O4 0.914996 0.301271 0.008849
O O5 0.601644 0.375294 0.550199
O O6 0.570656 0.666824 0.439801
O O7 0.773515 0.498133 0.462207
O O8 0.876277 0.903973 0.981771
O O9 0.946419 0.792295 0.740954
O O10 0.653132 0.067614 0.989298
O O11 0.007419 0.047428 0.631126
O O12 0.054212 0.661588 0.477504
O O13 0.726117 0.845504 0.651827
O O14 0.767494 0.126278 0.353515
O O15 0.468690 0.151800 0.777389
O O16 0.000000 0.000000 0.000000
O O17 0.500000 0.000000 0.000000
#
# Coordination Sequence:
#
# PCOD8015719 Si02
#       8
#     2   2   2   2   2   2   2   2
#     4  11  26  44  68  99 142 178 220 287 343 390
#     4  10  23  41  67  96 132 181 219 274 337 402
#     4  12  25  42  74 100 131 188 227 275 347 403
#     4  12  26  48  65 100 144 177 225 289 336 404
#     4  10  21  43  63  96 141 167 221 284 329 398
#     4  11  21  45  71  98 141 177 223 288 341 396
#     4  12  25  42  71 100 135 180 233 272 334 414
#     4  12  25  41  70 102 133 175 233 282 333 403
#
# _framework density 21.684564999999999
#
# number of rings (size 3 to 8) (size 9 to 14) (size 15 to 20)
#    0.000    0.750    5.000    1.500    3.500    2.000 
#    0.000    1.250    0.000    0.000    0.000    0.000 
#    0.000    0.000    0.000    0.000    0.000    0.000 
#
# Total GULP energy -198402.590294 kJ/mol
# GULP energy per Si atom -12400.161893 kJ/mol
# Density = 2.163521 g / cm^3
# Si number density = 21.684565 Si / 1000 Ang^3
#
#
#
# Elastic Constant Matrix: (Units=GPa)
#
#
# Indices 1 2 3 4 5 6 
#
# 1 105.8042 25.8080 46.4176 4.7597 -5.7079 -30.5377
# 2 25.8080 78.1738 33.7464 -9.2680 -2.0517 -12.7402
# 3 46.4176 33.7464 114.3690 12.5194 6.7911 -12.8268
# 4 4.7597 -9.2680 12.5194 45.8204 -5.5018 5.2859
# 5 -5.7079 -2.0517 6.7911 -5.5018 34.1075 3.0709
# 6 -30.5377 -12.7402 -12.8268 5.2859 3.0709 46.6312
#
#
#
# Elastic Compliance Matrix: (Units=1/GPa)
#
#
# Indices 1 2 3 4 5 6 
#
# 1 0.014153 -0.001606 -0.004423 -0.001190 0.002277 0.007598
# 2 -0.001606 0.016179 -0.004627 0.004815 0.002276 0.001400
# 3 -0.004423 -0.004627 0.012658 -0.004460 -0.004268 0.000108
# 4 -0.001190 0.004815 -0.004460 0.025240 0.005402 -0.003907
# 5 0.002277 0.002276 -0.004268 0.005402 0.031717 -0.001762
# 6 0.007598 0.001400 0.000108 -0.003907 -0.001762 0.027392
#
#
# Mechanical properties :
#
#
# Convention : Reuss Voigt Hill
#
# Bulk Modulus (GPa) = 46.13266 56.69900 51.41583
# Shear Modulus (GPa) = 32.07693 38.13682 35.10687
#
# Velocity S-wave (km/s) = 3.85028 4.19824 4.02802
# Velocity P-wave (km/s) = 6.40990 7.05013 6.73762
#
# Compressibility (1/GPa) = 0.02167662
#
# Stress axis : x y z
#
# Youngs Moduli (GPa) = 70.65703 61.81043 79.00311
#
# Poissons Ratio (x) = 0.09927 0.34943
# Poissons Ratio (y) = 0.11348 0.36556
# Poissons Ratio (z) = 0.31251 0.28601
#
# Static dielectric constant tensor:
#      x y z
#    x 3.955650 -0.407050 0.254080 
#    y -0.407050 4.064800 -0.130860 
#    z 0.254080 -0.130860 3.785310 
# 
# 
# High freq. dielectric constant tensor:
#      x y z
#    x 1.850840 -0.020710 0.007700 
#    y -0.020710 1.855010 -0.002140 
#    z 0.007700 -0.002140 1.858020 
# 
# From -- ./inp_files/451214.got.cif
#   From: 2010.06.25/outbox.cif.g09.slc.cpg/sg2_226_cif.got.tgz:451214.got - 2010.06.27 13:26:56.
