data_PCOD8015968
_publ_section_title
;
Structure prediction by ZEFSAII (Michael W. Deem and Ramdas Pophale) SiO2 
 PCOD8015968
Probable space group: P -1
;
_chemical_formula_sum "Si O2"
_cell_formula_units_Z 16
_cell_length_a 7.899560
_cell_length_b 10.642009
_cell_length_c 14.953424
_cell_angle_alpha 81.148477
_cell_angle_beta 35.797084
_cell_angle_gamma 86.328966
_cell_volume 722.508239
_symmetry_space_group_name_H-M "P -1"
_symmetry_group_IT_number 2
_symmetry_cell_setting 'triclinic'
loop_
_space_group_symop_operation_xyz
x,y,z
-x,-y,-z
loop_
_atom_site_type_symbol
_atom_site_label
_atom_site_fract_x
_atom_site_fract_y
_atom_site_fract_z
Si Si1 0.580873 0.254236 0.114668
Si Si2 0.789134 0.089832 0.469380
Si Si3 0.311962 0.682473 0.643764
Si Si4 0.869364 0.566365 0.422771
Si Si5 0.954196 0.688806 0.560095
Si Si6 0.818930 0.463039 0.876622
Si Si7 0.724917 0.116804 0.231645
Si Si8 0.246652 0.077775 0.138083
O O1 0.719551 0.141027 0.123690
O O2 0.408831 0.200886 0.105015
O O3 0.366993 0.330154 0.258382
O O4 0.837039 0.360032 0.960357
O O5 0.713700 0.207770 0.429228
O O6 0.928464 0.160345 0.491351
O O7 0.020745 0.014768 0.319850
O O8 0.497884 0.003668 0.630537
O O9 0.551112 0.591367 0.523519
O O10 0.397425 0.755810 0.691585
O O11 0.016589 0.593437 0.797281
O O12 0.857975 0.413487 0.460712
O O13 0.967153 0.656301 0.454162
O O14 0.093919 0.606913 0.243395
O O15 0.500000 0.500000 0.000000
O O16 0.048868 0.107004 0.133346
O O17 0.500000 0.000000 0.000000
#
# Coordination Sequence:
#
# PCOD8015968 Si02
#       8
#     2   2   2   2   2   2   2   2
#     4  11  24  46  70 100 146 185 225 287 352 412
#     4  10  22  44  73  97 137 178 231 292 339 405
#     4  11  22  42  70 103 130 179 235 285 347 403
#     4  11  22  41  71 100 140 173 235 290 331 420
#     4  10  21  43  68 104 135 176 236 282 345 403
#     4  12  23  41  68  99 144 182 221 286 353 407
#     4  11  24  46  71  99 139 184 235 286 339 416
#     4  10  23  45  68  99 139 184 231 284 352 411
#
# _framework density 22.145074999999999
#
# number of rings (size 3 to 8) (size 9 to 14) (size 15 to 20)
#    0.000    1.250    3.750    3.375    0.000    5.000 
#    4.500    1.250    0.000    0.000    0.000    0.000 
#    0.000    0.000    0.000    0.000    0.000    0.000 
#
# Total GULP energy -198221.179726 kJ/mol
# GULP energy per Si atom -12388.823733 kJ/mol
# Density = 2.209467 g / cm^3
# Si number density = 22.145075 Si / 1000 Ang^3
#
#
#
# Elastic Constant Matrix: (Units=GPa)
#
#
# Indices 1 2 3 4 5 6 
#
# 1 83.6401 53.8053 65.7896 -15.2059 -4.5795 0.6376
# 2 53.8053 107.8932 81.1274 -0.8378 0.6820 5.7481
# 3 65.7896 81.1274 132.4922 -10.6806 0.1543 -2.8835
# 4 -15.2059 -0.8378 -10.6806 54.5067 -6.4665 -0.1929
# 5 -4.5795 0.6820 0.1543 -6.4665 28.0619 8.1409
# 6 0.6376 5.7481 -2.8835 -0.1929 8.1409 37.3441
#
#
#
# Elastic Compliance Matrix: (Units=1/GPa)
#
#
# Indices 1 2 3 4 5 6 
#
# 1 0.022749 -0.005712 -0.007392 0.005460 0.005514 -0.001254
# 2 -0.005712 0.019268 -0.009297 -0.003265 -0.001128 -0.003357
# 3 -0.007392 -0.009297 0.017059 0.000935 -0.001808 0.003274
# 4 0.005460 -0.003265 0.000935 0.020705 0.005941 -0.000707
# 5 0.005514 -0.001128 -0.001808 0.005941 0.040512 -0.008861
# 6 -0.001254 -0.003357 0.003274 -0.000707 -0.008861 0.029497
#
#
# Mechanical properties :
#
#
# Convention : Reuss Voigt Hill
#
# Bulk Modulus (GPa) = 70.05402 80.60778 75.33090
# Shear Modulus (GPa) = 25.08136 32.20274 28.64205
#
# Velocity S-wave (km/s) = 3.36905 3.81750 3.60026
# Velocity P-wave (km/s) = 6.84374 7.47729 7.16752
#
# Compressibility (1/GPa) = 0.01427470
#
# Stress axis : x y z
#
# Youngs Moduli (GPa) = 43.95773 51.89930 58.61845
#
# Poissons Ratio (x) = 0.29646 0.43331
# Poissons Ratio (y) = 0.25109 0.54496
# Poissons Ratio (z) = 0.32494 0.48249
#
# Static dielectric constant tensor:
#      x y z
#    x 4.296560 0.131580 0.105680 
#    y 0.131580 4.189250 0.121100 
#    z 0.105680 0.121100 4.118290 
# 
# 
# High freq. dielectric constant tensor:
#      x y z
#    x 1.885300 0.005330 0.003100 
#    y 0.005330 1.869660 0.008720 
#    z 0.003100 0.008720 1.858270 
# 
# From -- ./inp_files/500348.got.cif
#   From: 2010.06.25/outbox.cif.g09.slc.cpg/sg2_251_cif.got.tgz:500348.got - 2010.06.27 13:26:56.
