data_PCOD8015573
_publ_section_title
;
Structure prediction by ZEFSAII (Michael W. Deem and Ramdas Pophale) SiO2 
 PCOD8015573
Probable space group: P -1
;
_chemical_formula_sum "Si O2"
_cell_formula_units_Z 16
_cell_length_a 32.621165
_cell_length_b 30.804241
_cell_length_c 6.230725
_cell_angle_alpha 52.458097
_cell_angle_beta 52.980925
_cell_angle_gamma 8.379664
_cell_volume 723.463548
_symmetry_space_group_name_H-M "P -1"
_symmetry_group_IT_number 2
_symmetry_cell_setting 'triclinic'
loop_
_space_group_symop_operation_xyz
x,y,z
-x,-y,-z
loop_
_atom_site_type_symbol
_atom_site_label
_atom_site_fract_x
_atom_site_fract_y
_atom_site_fract_z
Si Si1 0.982908 0.316513 0.033457
Si Si2 0.340235 0.775738 0.432361
Si Si3 0.138863 0.431463 0.397726
Si Si4 0.674420 0.840087 0.732951
Si Si5 0.489987 0.258147 0.610721
Si Si6 0.059751 0.788809 0.237153
Si Si7 0.070589 0.864559 0.627964
Si Si8 0.154889 0.068752 0.866046
O O1 0.717207 0.577065 0.230715
O O2 0.278864 0.987278 0.192012
O O3 0.942240 0.327070 0.904435
O O4 0.987179 0.376531 0.808685
O O5 0.660951 0.419973 0.518234
O O6 0.211915 0.914224 0.656934
O O7 0.188596 0.889712 0.420142
O O8 0.334135 0.840430 0.138522
O O9 0.169121 0.373229 0.241748
O O10 0.923587 0.622471 0.654100
O O11 0.450198 0.107403 0.489183
O O12 0.500000 0.000000 0.000000
O O13 0.311608 0.502444 0.460662
O O14 0.638125 0.104182 0.375535
O O15 0.007779 0.794156 0.216944
O O16 0.141935 0.757656 0.946287
O O17 0.000000 0.000000 0.500000
#
# Coordination Sequence:
#
# PCOD8015573 Si02
#       8
#     2   2   2   2   2   2   2   2
#     4  12  27  40  66  98 140 165 220 272 325 377
#     4  11  24  41  69  89 130 167 208 268 325 388
#     4  10  23  42  62 100 128 170 216 276 313 385
#     4  10  21  42  71  89 130 174 223 259 332 374
#     4  12  24  41  62  94 129 175 212 261 322 398
#     4  11  25  43  69  94 130 174 220 256 333 400
#     4  11  26  44  67  99 127 164 219 276 324 383
#     4  11  24  41  65  93 130 171 217 258 324 396
#
# _framework density 22.115836000000002
#
# number of rings (size 3 to 8) (size 9 to 14) (size 15 to 20)
#    0.000    1.000    3.750    1.500    5.250    3.000 
#    0.000    0.000    0.000    0.000    0.000    0.000 
#    0.000    0.000    0.000    0.000    0.000    0.000 
#
# Total GULP energy -198412.459167 kJ/mol
# GULP energy per Si atom -12400.778698 kJ/mol
# Density = 2.206550 g / cm^3
# Si number density = 22.115836 Si / 1000 Ang^3
#
#
#
# Elastic Constant Matrix: (Units=GPa)
#
#
# Indices 1 2 3 4 5 6 
#
# 1 98.3643 42.4022 53.2768 -1.5015 -22.5532 15.5996
# 2 42.4022 112.6797 47.4829 8.2512 -11.4982 7.0072
# 3 53.2768 47.4829 104.9305 13.2160 -18.3615 18.0359
# 4 -1.5015 8.2512 13.2160 34.2995 -0.9786 -4.2210
# 5 -22.5532 -11.4982 -18.3615 -0.9786 29.9890 1.9638
# 6 15.5996 7.0072 18.0359 -4.2210 1.9638 37.2088
#
#
#
# Elastic Compliance Matrix: (Units=1/GPa)
#
#
# Indices 1 2 3 4 5 6 
#
# 1 0.017242 -0.003289 -0.005475 0.003409 0.008728 -0.004029
# 2 -0.003289 0.011661 -0.003611 -0.001471 -0.000313 0.000783
# 3 -0.005475 -0.003611 0.016648 -0.006394 0.004880 -0.006077
# 4 0.003409 -0.001471 -0.006394 0.032792 -0.001220 0.005732
# 5 0.008728 -0.000313 0.004880 -0.001220 0.043287 -0.008389
# 6 -0.004029 0.000783 -0.006077 0.005732 -0.008389 0.032456
#
#
# Mechanical properties :
#
#
# Convention : Reuss Voigt Hill
#
# Bulk Modulus (GPa) = 48.07679 66.92204 57.49941
# Shear Modulus (GPa) = 26.91476 31.82029 29.36753
#
# Velocity S-wave (km/s) = 3.49232 3.79727 3.64798
# Velocity P-wave (km/s) = 6.16827 7.03926 6.61811
#
# Compressibility (1/GPa) = 0.02080006
#
# Stress axis : x y z
#
# Youngs Moduli (GPa) = 57.99724 85.75417 60.06703
#
# Poissons Ratio (x) = 0.28209 0.32889
# Poissons Ratio (y) = 0.19078 0.21689
# Poissons Ratio (z) = 0.31756 0.30965
#
# Static dielectric constant tensor:
#      x y z
#    x 3.826770 -0.099420 -0.020620 
#    y -0.099420 4.112640 0.163930 
#    z -0.020620 0.163930 4.084640 
# 
# 
# High freq. dielectric constant tensor:
#      x y z
#    x 1.855640 -0.009180 -0.003750 
#    y -0.009180 1.881450 0.012490 
#    z -0.003750 0.012490 1.870710 
# 
# From -- ./inp_files/14736.got.cif
#   From: 2010.06.25/outbox.cif.g09.slc.cpg/sg2_8_cif.got.tgz:14736.got - 2010.06.27 13:26:56.
