data_PCOD8015410
_publ_section_title
;
Structure prediction by ZEFSAII (Michael W. Deem and Ramdas Pophale) SiO2 
 PCOD8015410
Probable space group: P -1
;
_chemical_formula_sum "Si O2"
_cell_formula_units_Z 16
_cell_length_a 16.454236
_cell_length_b 8.903154
_cell_length_c 10.537520
_cell_angle_alpha 43.530139
_cell_angle_beta 55.947949
_cell_angle_gamma 88.486577
_cell_volume 657.772346
_symmetry_space_group_name_H-M "P -1"
_symmetry_group_IT_number 2
_symmetry_cell_setting 'triclinic'
loop_
_space_group_symop_operation_xyz
x,y,z
-x,-y,-z
loop_
_atom_site_type_symbol
_atom_site_label
_atom_site_fract_x
_atom_site_fract_y
_atom_site_fract_z
Si Si1 0.968430 0.760505 0.446270
Si Si2 0.166425 0.409967 0.932901
Si Si3 0.896799 0.657186 0.306262
Si Si4 0.772177 0.735384 0.774480
Si Si5 0.562223 0.055185 0.606801
Si Si6 0.483591 0.316418 0.339009
Si Si7 0.967449 0.375047 0.268767
Si Si8 0.408206 0.692548 0.193619
O O1 0.933363 0.585961 0.450973
O O2 0.844139 0.739224 0.587413
O O3 0.979537 0.615203 0.643929
O O4 0.099038 0.107554 0.103523
O O5 0.306729 0.693057 0.578517
O O6 0.199617 0.383144 0.061923
O O7 0.070212 0.477176 0.001718
O O8 0.744977 0.494902 0.533724
O O9 0.927170 0.568698 0.203333
O O10 0.000000 0.000000 0.000000
O O11 0.619218 0.548213 0.001071
O O12 0.831091 0.057093 0.556277
O O13 0.501981 0.190308 0.522146
O O14 0.605847 0.947257 0.523706
O O15 0.447217 0.781402 0.958920
O O16 0.430675 0.469435 0.342782
O O17 0.500000 0.000000 0.000000
#
# Coordination Sequence:
#
# PCOD8015410 Si02
#       8
#     2   2   2   2   2   2   2   2
#     4   9  18  37  64  89 120 159 205 259 313 372
#     4   8  17  34  66  97 115 151 207 268 314 370
#     4  12  27  41  55  89 131 166 209 248 307 380
#     4   8  15  35  64  94 119 147 209 262 316 369
#     4  10  22  41  71  98 124 168 220 269 327 378
#     4  10  21  42  68  98 127 165 219 275 316 381
#     4   9  18  38  63  89 120 160 202 257 315 373
#     4  12  28  46  64  94 138 177 212 262 323 391
#
# _framework density 24.324525999999999
#
# number of rings (size 3 to 8) (size 9 to 14) (size 15 to 20)
#    0.000    2.250    0.000    3.750    3.500    1.500 
#    2.250    1.250    0.000    0.000    0.000    0.000 
#    0.000    0.000    0.000    0.000    0.000    0.000 
#
# Total GULP energy -198269.503517 kJ/mol
# GULP energy per Si atom -12391.843970 kJ/mol
# Density = 2.426916 g / cm^3
# Si number density = 24.324526 Si / 1000 Ang^3
#
#
#
# Elastic Constant Matrix: (Units=GPa)
#
#
# Indices 1 2 3 4 5 6 
#
# 1 52.9624 15.9777 19.7385 -1.8133 -10.9469 -8.7572
# 2 15.9777 119.9129 14.5241 -6.2862 -5.2905 -9.3080
# 3 19.7385 14.5241 101.8462 -0.9275 -21.4332 -12.0235
# 4 -1.8133 -6.2862 -0.9275 31.2756 -1.4242 5.0231
# 5 -10.9469 -5.2905 -21.4332 -1.4242 38.4377 -5.0178
# 6 -8.7572 -9.3080 -12.0235 5.0231 -5.0178 37.8539
#
#
#
# Elastic Compliance Matrix: (Units=1/GPa)
#
#
# Indices 1 2 3 4 5 6 
#
# 1 0.022253 -0.002074 -0.002350 0.000315 0.005348 0.004559
# 2 -0.002074 0.008894 -0.000571 0.001450 0.000553 0.001407
# 3 -0.002350 -0.000571 0.012226 -0.000248 0.006597 0.004107
# 4 0.000315 0.001450 -0.000248 0.032943 0.000862 -0.003906
# 5 0.005348 0.000553 0.006597 0.000862 0.032323 0.007639
# 6 0.004559 0.001407 0.004107 -0.003906 0.007639 0.030653
#
#
# Mechanical properties :
#
#
# Convention : Reuss Voigt Hill
#
# Bulk Modulus (GPa) = 29.95530 41.68914 35.82222
# Shear Modulus (GPa) = 31.16993 36.47886 33.82439
#
# Velocity S-wave (km/s) = 3.58358 3.87676 3.73305
# Velocity P-wave (km/s) = 5.42810 6.10041 5.77405
#
# Compressibility (1/GPa) = 0.03338308
#
# Stress axis : x y z
#
# Youngs Moduli (GPa) = 44.93778 112.42936 81.78995
#
# Poissons Ratio (x) = 0.23319 0.19224
# Poissons Ratio (y) = 0.09320 0.04669
# Poissons Ratio (z) = 0.10562 0.06418
#
# Static dielectric constant tensor:
#      x y z
#    x 4.726290 0.161280 -0.305180 
#    y 0.161280 4.576910 0.166270 
#    z -0.305180 0.166270 4.872210 
# 
# 
# High freq. dielectric constant tensor:
#      x y z
#    x 1.975330 0.014250 0.004680 
#    y 0.014250 1.965280 -0.004630 
#    z 0.004680 -0.004630 1.968400 
# 
# From -- ./inp_files/346491.got.cif
#   From: 2010.06.25/outbox.cif.g09.slc.cpg/sg2_174_cif.got.tgz:346491.got - 2010.06.27 13:26:56.
