data_PCOD8015399
_publ_section_title
;
Structure prediction by ZEFSAII (Michael W. Deem and Ramdas Pophale) SiO2 
 PCOD8015399
Probable space group: P -1
;
_chemical_formula_sum "Si O2"
_cell_formula_units_Z 16
_cell_length_a 9.369625
_cell_length_b 20.391418
_cell_length_c 11.240415
_cell_angle_alpha 45.537209
_cell_angle_beta 53.511792
_cell_angle_gamma 30.687028
_cell_volume 782.060719
_symmetry_space_group_name_H-M "P -1"
_symmetry_group_IT_number 2
_symmetry_cell_setting 'triclinic'
loop_
_space_group_symop_operation_xyz
x,y,z
-x,-y,-z
loop_
_atom_site_type_symbol
_atom_site_label
_atom_site_fract_x
_atom_site_fract_y
_atom_site_fract_z
Si Si1 0.261479 0.128180 0.542475
Si Si2 0.575006 0.625543 0.326129
Si Si3 0.007442 0.947229 0.187645
Si Si4 0.887582 0.626820 0.319558
Si Si5 0.436942 0.867505 0.421853
Si Si6 0.873440 0.128111 0.246606
Si Si7 0.312523 0.566572 0.663859
Si Si8 0.644654 0.412765 0.921067
O O1 0.375357 0.145597 0.568771
O O2 0.161827 0.077308 0.722256
O O3 0.007891 0.277119 0.404541
O O4 0.500000 0.000000 0.500000
O O5 0.320598 0.795601 0.251443
O O6 0.824002 0.597178 0.266566
O O7 0.535201 0.553691 0.524708
O O8 0.624608 0.560398 0.256739
O O9 0.891352 0.047180 0.233586
O O10 0.000000 0.000000 0.000000
O O11 0.612969 0.771262 0.340962
O O12 0.000000 0.500000 0.500000
O O13 0.100627 0.623759 0.196125
O O14 0.343729 0.818002 0.612134
O O15 0.165625 0.027912 0.298735
O O16 0.770257 0.261358 0.065174
O O17 0.381399 0.524883 0.820127
O O18 0.500000 0.500000 0.000000
#
# Coordination Sequence:
#
# PCOD8015399 Si02
#       8
#     2   2   2   2   2   2   2   2
#     4  11  24  43  70  96 129 181 227 276 329 398
#     4  10  21  42  68  97 125 179 222 270 325 392
#     4  11  23  41  67  97 140 172 216 275 339 395
#     4  12  23  42  71  98 130 171 229 270 331 409
#     4  11  25  44  71 101 131 180 232 274 328 405
#     4  11  25  45  67  99 142 177 221 282 339 390
#     4  10  23  43  67  97 134 170 227 274 333 399
#     4  12  28  44  67 100 141 176 214 286 345 394
#
# _framework density 20.458767999999999
#
# number of rings (size 3 to 8) (size 9 to 14) (size 15 to 20)
#    0.000    1.000    3.750    2.250    7.000    1.500 
#    0.000    1.250    0.000    0.000    0.000    0.000 
#    0.000    0.000    0.000    0.000    0.000    0.000 
#
# Total GULP energy -198251.274660 kJ/mol
# GULP energy per Si atom -12390.704666 kJ/mol
# Density = 2.041220 g / cm^3
# Si number density = 20.458768 Si / 1000 Ang^3
#
#
#
# Elastic Constant Matrix: (Units=GPa)
#
#
# Indices 1 2 3 4 5 6 
#
# 1 155.4506 48.3395 59.6430 -6.7990 6.5189 -6.0718
# 2 48.3395 104.6932 41.2616 4.0061 -4.8844 4.6875
# 3 59.6430 41.2616 123.5432 -4.6008 -0.6238 -6.9166
# 4 -6.7990 4.0061 -4.6008 26.9687 10.7668 -0.6157
# 5 6.5189 -4.8844 -0.6238 10.7668 30.6450 4.1917
# 6 -6.0718 4.6875 -6.9166 -0.6157 4.1917 37.2339
#
#
#
# Elastic Compliance Matrix: (Units=1/GPa)
#
#
# Indices 1 2 3 4 5 6 
#
# 1 0.009082 -0.003447 -0.002999 0.004015 -0.004213 0.001898
# 2 -0.003447 0.012933 -0.003023 -0.005422 0.005105 -0.003416
# 3 -0.002999 -0.003023 0.010726 0.001775 -0.000519 0.001972
# 4 0.004015 -0.005422 0.001775 0.046787 -0.018743 0.004551
# 5 -0.004213 0.005105 -0.000519 -0.018743 0.041797 -0.006441
# 6 0.001898 -0.003416 0.001972 0.004551 -0.006441 0.028764
#
#
# Mechanical properties :
#
#
# Convention : Reuss Voigt Hill
#
# Bulk Modulus (GPa) = 72.44384 75.79727 74.12055
# Shear Modulus (GPa) = 28.79759 34.59903 31.69831
#
# Velocity S-wave (km/s) = 3.75586 4.11683 3.94048
# Velocity P-wave (km/s) = 7.36853 7.72832 7.55057
#
# Compressibility (1/GPa) = 0.01380380
#
# Stress axis : x y z
#
# Youngs Moduli (GPa) = 110.11257 77.32113 93.23560
#
# Poissons Ratio (x) = 0.26649 0.27959
# Poissons Ratio (y) = 0.37951 0.28185
# Poissons Ratio (z) = 0.33020 0.23374
#
# Static dielectric constant tensor:
#      x y z
#    x 3.718840 0.049310 0.056640 
#    y 0.049310 4.295680 -0.731470 
#    z 0.056640 -0.731470 4.177280 
# 
# 
# High freq. dielectric constant tensor:
#      x y z
#    x 1.820320 0.002010 0.001220 
#    y 0.002010 1.807920 -0.007650 
#    z 0.001220 -0.007650 1.793940 
# 
# From -- ./inp_files/319216.got.cif
#   From: 2010.06.25/outbox.cif.g09.slc.cpg/sg2_160_cif.got.tgz:319216.got - 2010.06.27 13:26:56.
