data_PCOD8015213
_publ_section_title
;
Structure prediction by ZEFSAII (Michael W. Deem and Ramdas Pophale) SiO2 
 PCOD8015213
Probable space group: P -1
;
_chemical_formula_sum "Si O2"
_cell_formula_units_Z 16
_cell_length_a 10.480457
_cell_length_b 9.033806
_cell_length_c 14.706242
_cell_angle_alpha 42.207394
_cell_angle_beta 128.914089
_cell_angle_gamma 110.809072
_cell_volume 711.527413
_symmetry_space_group_name_H-M "P -1"
_symmetry_group_IT_number 2
_symmetry_cell_setting 'triclinic'
loop_
_space_group_symop_operation_xyz
x,y,z
-x,-y,-z
loop_
_atom_site_type_symbol
_atom_site_label
_atom_site_fract_x
_atom_site_fract_y
_atom_site_fract_z
Si Si1 0.246912 0.712723 0.092095
Si Si2 0.040486 0.404143 0.661778
Si Si3 0.600676 0.872505 0.732272
Si Si4 0.296955 0.225768 0.379749
Si Si5 0.650355 0.370641 0.026718
Si Si6 0.392938 0.111275 0.985928
Si Si7 0.022336 0.749213 0.657462
Si Si8 0.925774 0.989058 0.874091
O O1 0.335232 0.476232 0.284004
O O2 0.275665 0.723313 0.993175
O O3 0.320333 0.906272 0.090772
O O4 0.044315 0.766658 0.984058
O O5 0.238995 0.306292 0.796362
O O6 0.988577 0.595195 0.628459
O O7 0.000000 0.500000 0.500000
O O8 0.932639 0.213503 0.717618
O O9 0.684227 0.865840 0.672713
O O10 0.428239 0.057626 0.578008
O O11 0.738592 0.950798 0.821132
O O12 0.564759 0.634849 0.857843
O O13 0.109486 0.247656 0.321809
O O14 0.790670 0.339121 0.181029
O O15 0.506747 0.228259 0.052245
O O16 0.500000 0.000000 0.000000
O O17 0.000000 0.000000 0.500000
O O18 0.000000 0.000000 0.000000
#
# Coordination Sequence:
#
# PCOD8015213 Si02
#       8
#     2   2   2   2   2   2   2   2
#     4   9  19  39  69  93 130 174 219 277 338 414
#     4  11  27  44  67  98 142 187 228 286 348 415
#     4  10  22  39  74  97 132 177 219 294 337 408
#     4  10  22  43  65 104 133 169 232 279 349 399
#     4  10  21  42  66  97 131 175 228 277 344 402
#     4   9  21  40  69  99 131 180 227 275 338 413
#     4  12  28  44  66  98 142 182 231 284 340 413
#     4  11  22  41  65  93 128 175 232 274 345 408
#
# _framework density 22.486837000000001
#
# number of rings (size 3 to 8) (size 9 to 14) (size 15 to 20)
#    0.000    1.750    0.000    3.000    8.750    5.500 
#    4.500    1.250    0.000    0.000    0.000    0.000 
#    0.000    0.000    0.000    0.000    0.000    0.000 
#
# Total GULP energy -198351.492581 kJ/mol
# GULP energy per Si atom -12396.968286 kJ/mol
# Density = 2.243566 g / cm^3
# Si number density = 22.486837 Si / 1000 Ang^3
#
#
#
# Elastic Constant Matrix: (Units=GPa)
#
#
# Indices 1 2 3 4 5 6 
#
# 1 42.0678 21.2404 7.8049 -3.6551 12.1683 4.1223
# 2 21.2404 109.4081 50.7365 -3.7267 4.3675 15.3273
# 3 7.8049 50.7365 126.8327 -14.4888 6.7691 7.4009
# 4 -3.6551 -3.7267 -14.4888 38.6852 1.6556 4.8295
# 5 12.1683 4.3675 6.7691 1.6556 37.1695 -1.2956
# 6 4.1223 15.3273 7.4009 4.8295 -1.2956 40.3133
#
#
#
# Elastic Compliance Matrix: (Units=1/GPa)
#
#
# Indices 1 2 3 4 5 6 
#
# 1 0.029589 -0.005661 0.001451 0.003432 -0.009503 -0.001856
# 2 -0.005661 0.012828 -0.004730 -0.000706 0.001124 -0.003309
# 3 0.001451 -0.004730 0.010259 0.003701 -0.001978 -0.000740
# 4 0.003432 -0.000706 0.003701 0.028154 -0.003116 -0.004235
# 5 -0.009503 0.001124 -0.001978 -0.003116 0.030461 0.002260
# 6 -0.001856 -0.003309 -0.000740 -0.004235 0.002260 0.026970
#
#
# Mechanical properties :
#
#
# Convention : Reuss Voigt Hill
#
# Bulk Modulus (GPa) = 28.73955 48.65249 38.69602
# Shear Modulus (GPa) = 29.80819 36.46872 33.13846
#
# Velocity S-wave (km/s) = 3.64481 4.03150 3.84302
# Velocity P-wave (km/s) = 5.52460 6.58435 6.07762
#
# Compressibility (1/GPa) = 0.03479525
#
# Stress axis : x y z
#
# Youngs Moduli (GPa) = 33.79600 77.95738 97.47593
#
# Poissons Ratio (x) = 0.44133 -0.14148
# Poissons Ratio (y) = 0.19132 0.46111
# Poissons Ratio (z) = -0.04905 0.36878
#
# Static dielectric constant tensor:
#      x y z
#    x 4.988290 0.607800 -0.011430 
#    y 0.607800 4.596830 -0.252130 
#    z -0.011430 -0.252130 4.052670 
# 
# 
# High freq. dielectric constant tensor:
#      x y z
#    x 1.899150 -0.002900 0.003120 
#    y -0.002900 1.891630 -0.016760 
#    z 0.003120 -0.016760 1.880840 
# 
# From -- ./inp_files/226161.got.cif
#   From: 2010.06.25/outbox.cif.g09.slc.cpg/sg2_114_cif.got.tgz:226161.got - 2010.06.27 13:26:56.
