data_PCOD8015798
_publ_section_title
;
Structure prediction by ZEFSAII (Michael W. Deem and Ramdas Pophale) SiO2 
 PCOD8015798
Probable space group: P -1
;
_chemical_formula_sum "Si O2"
_cell_formula_units_Z 16
_cell_length_a 12.980097
_cell_length_b 18.395608
_cell_length_c 22.133255
_cell_angle_alpha 16.140275
_cell_angle_beta 29.388273
_cell_angle_gamma 30.938709
_cell_volume 712.563053
_symmetry_space_group_name_H-M "P -1"
_symmetry_group_IT_number 2
_symmetry_cell_setting 'triclinic'
loop_
_space_group_symop_operation_xyz
x,y,z
-x,-y,-z
loop_
_atom_site_type_symbol
_atom_site_label
_atom_site_fract_x
_atom_site_fract_y
_atom_site_fract_z
Si Si1 0.754939 0.589075 0.630835
Si Si2 0.327099 0.710546 0.452310
Si Si3 0.721046 0.528151 0.836284
Si Si4 0.103019 0.217649 0.095090
Si Si5 0.795164 0.274073 0.744120
Si Si6 0.081921 0.253101 0.942089
Si Si7 0.323906 0.894787 0.560389
Si Si8 0.405059 0.647147 0.595917
O O1 0.744742 0.480709 0.790347
O O2 0.765021 0.345662 0.772949
O O3 0.537162 0.790474 0.571779
O O4 0.964547 0.723445 0.404859
O O5 0.500000 0.500000 0.500000
O O6 0.131943 0.549145 0.685583
O O7 0.401856 0.780399 0.425405
O O8 0.260490 0.979060 0.235843
O O9 0.868423 0.285566 0.986433
O O10 0.773444 0.815643 0.598034
O O11 0.500000 0.500000 0.000000
O O12 0.867062 0.279437 0.194862
O O13 0.063646 0.136389 0.111274
O O14 0.214943 0.475732 0.837239
O O15 0.632944 0.467681 0.631502
O O16 0.751457 0.970547 0.999680
O O17 0.377613 0.882872 0.470973
#
# Coordination Sequence:
#
# PCOD8015798 Si02
#       8
#     2   2   2   2   2   2   2   2
#     4  10  23  41  69  91 128 173 216 275 321 374
#     4  11  23  40  63  96 127 169 209 261 320 384
#     4  12  24  41  62  97 128 173 219 263 321 386
#     4  11  22  43  65  96 132 170 210 262 323 388
#     4  10  21  43  65  97 128 167 219 268 326 380
#     4  11  23  39  64  95 126 166 212 259 318 383
#     4  11  22  44  65  93 130 171 213 267 318 382
#     4  10  24  41  66  98 129 167 213 263 321 388
#
# _framework density 22.454153000000002
#
# number of rings (size 3 to 8) (size 9 to 14) (size 15 to 20)
#    0.000    1.250    1.250    4.500    1.750    3.000 
#    9.000    0.000    0.000    0.000    0.000    0.000 
#    0.000    0.000    0.000    0.000    0.000    0.000 
#
# Total GULP energy -198339.466603 kJ/mol
# GULP energy per Si atom -12396.216663 kJ/mol
# Density = 2.240305 g / cm^3
# Si number density = 22.454153 Si / 1000 Ang^3
#
#
#
# Elastic Constant Matrix: (Units=GPa)
#
#
# Indices 1 2 3 4 5 6 
#
# 1 177.7826 56.6061 34.9378 -5.0382 40.1118 5.3343
# 2 56.6061 101.9961 10.9654 7.3895 18.2630 -6.3032
# 3 34.9378 10.9654 42.3128 1.6574 20.8426 0.9403
# 4 -5.0382 7.3895 1.6574 36.0925 -2.6185 -7.3140
# 5 40.1118 18.2630 20.8426 -2.6185 36.1688 3.5881
# 6 5.3343 -6.3032 0.9403 -7.3140 3.5881 44.8808
#
#
#
# Elastic Compliance Matrix: (Units=1/GPa)
#
#
# Indices 1 2 3 4 5 6 
#
# 1 0.008855 -0.003669 -0.003596 0.001581 -0.005704 -0.000779
# 2 -0.003669 0.012668 0.001639 -0.003048 -0.003689 0.001979
# 3 -0.003596 0.001639 0.034777 -0.003535 -0.017209 0.000729
# 4 0.001581 -0.003048 -0.003535 0.029789 0.003580 0.004027
# 5 -0.005704 -0.003689 -0.017209 0.003580 0.046270 -0.002595
# 6 -0.000779 0.001979 0.000729 0.004027 -0.002595 0.023500
#
#
# Mechanical properties :
#
#
# Convention : Reuss Voigt Hill
#
# Bulk Modulus (GPa) = 22.19833 58.56780 40.38307
# Shear Modulus (GPa) = 27.45360 38.06723 32.76041
#
# Velocity S-wave (km/s) = 3.50044 4.12191 3.82382
# Velocity P-wave (km/s) = 5.12298 6.98523 6.12529
#
# Compressibility (1/GPa) = 0.04504843
#
# Stress axis : x y z
#
# Youngs Moduli (GPa) = 112.93400 78.93921 28.75499
#
# Poissons Ratio (x) = 0.28963 0.10339
# Poissons Ratio (y) = 0.41436 -0.04714
# Poissons Ratio (z) = 0.40606 -0.12940
#
# Static dielectric constant tensor:
#      x y z
#    x 5.596840 0.787610 -1.531620 
#    y 0.787610 4.591660 -0.911370 
#    z -1.531620 -0.911370 5.826470 
# 
# 
# High freq. dielectric constant tensor:
#      x y z
#    x 1.905620 -0.002460 -0.006010 
#    y -0.002460 1.894890 0.005560 
#    z -0.006010 0.005560 1.866920 
# 
# From -- ./inp_files/70325.got.cif
#   From: 2010.06.25/outbox.cif.g09.slc.cpg/sg2_36_cif.got.tgz:70325.got - 2010.06.27 13:26:56.
