data_PCOD8015972
_publ_section_title
;
Structure prediction by ZEFSAII (Michael W. Deem and Ramdas Pophale) SiO2 
 PCOD8015972
Probable space group: P -1
;
_chemical_formula_sum "Si O2"
_cell_formula_units_Z 16
_cell_length_a 7.818412
_cell_length_b 25.287479
_cell_length_c 8.810673
_cell_angle_alpha 39.395191
_cell_angle_beta 106.733044
_cell_angle_gamma 133.011308
_cell_volume 692.703341
_symmetry_space_group_name_H-M "P -1"
_symmetry_group_IT_number 2
_symmetry_cell_setting 'triclinic'
loop_
_space_group_symop_operation_xyz
x,y,z
-x,-y,-z
loop_
_atom_site_type_symbol
_atom_site_label
_atom_site_fract_x
_atom_site_fract_y
_atom_site_fract_z
Si Si1 0.752222 0.063396 0.127583
Si Si2 0.267149 0.574092 0.496546
Si Si3 0.278474 0.404849 0.026898
Si Si4 0.451664 0.754726 0.397988
Si Si5 0.702291 0.823238 0.877087
Si Si6 0.389009 0.056213 0.217495
Si Si7 0.213264 0.209041 0.349305
Si Si8 0.784060 0.198369 0.572703
O O1 0.642085 0.080162 0.207466
O O2 0.507482 0.925780 0.297720
O O3 0.876374 0.164951 0.800116
O O4 0.981488 0.079717 0.209194
O O5 0.274029 0.629304 0.530108
O O6 0.531055 0.689720 0.208392
O O7 0.000000 0.500000 0.500000
O O8 0.258635 0.474097 0.753683
O O9 0.338448 0.346440 0.064569
O O10 0.998663 0.281546 0.309988
O O11 0.500000 0.500000 0.000000
O O12 0.692361 0.793098 0.461124
O O13 0.235716 0.718226 0.539626
O O14 0.606765 0.880874 0.064300
O O15 0.596220 0.878740 0.773608
O O16 0.669260 0.803806 0.731366
O O17 0.114220 0.905926 0.479062
#
# Coordination Sequence:
#
# PCOD8015972 Si02
#       8
#     2   2   2   2   2   2   2   2
#     4  10  21  43  68 108 143 180 227 293 364 427
#     4  11  27  49  71  99 144 193 238 292 356 426
#     4  12  25  44  71 101 142 184 242 296 343 420
#     4  10  23  43  71  98 136 187 233 290 354 422
#     4  11  26  44  71 103 144 183 236 295 361 418
#     4  10  22  43  71 103 147 180 231 292 364 422
#     4  12  24  42  70 106 136 186 235 295 353 425
#     4  10  22  39  72 103 136 181 236 289 351 420
#
# _framework density 23.097912000000001
#
# number of rings (size 3 to 8) (size 9 to 14) (size 15 to 20)
#    0.000    1.250    2.500    2.250    3.500    5.500 
#    2.250    0.000    0.000    0.000    0.000    0.000 
#    0.000    0.000    0.000    0.000    0.000    0.000 
#
# Total GULP energy -198422.021252 kJ/mol
# GULP energy per Si atom -12401.376328 kJ/mol
# Density = 2.304534 g / cm^3
# Si number density = 23.097912 Si / 1000 Ang^3
#
#
#
# Elastic Constant Matrix: (Units=GPa)
#
#
# Indices 1 2 3 4 5 6 
#
# 1 99.8233 37.0925 9.8588 -5.4625 5.5968 -22.8984
# 2 37.0925 119.2565 15.1764 -4.9098 0.4755 -11.6234
# 3 9.8588 15.1764 44.5884 -23.8525 -0.9478 -14.3143
# 4 -5.4625 -4.9098 -23.8525 20.5787 -6.0786 0.7024
# 5 5.5968 0.4755 -0.9478 -6.0786 35.7010 -0.6533
# 6 -22.8984 -11.6234 -14.3143 0.7024 -0.6533 38.5642
#
#
#
# Elastic Compliance Matrix: (Units=1/GPa)
#
#
# Indices 1 2 3 4 5 6 
#
# 1 0.013368 -0.003695 0.006484 0.009865 -0.000029 0.009050
# 2 -0.003695 0.009950 -0.006326 -0.006123 -0.000790 -0.001445
# 3 0.006484 -0.006326 0.102978 0.125306 0.023837 0.038288
# 4 0.009865 -0.006123 0.125306 0.204462 0.037542 0.047435
# 5 -0.000029 -0.000790 0.023837 0.037542 0.035206 0.008505
# 6 0.009050 -0.001445 0.038288 0.047435 0.008505 0.044361
#
#
# Mechanical properties :
#
#
# Convention : Reuss Voigt Hill
#
# Bulk Modulus (GPa) = 8.38774 43.10261 25.74517
# Shear Modulus (GPa) = 10.93760 32.40483 21.67121
#
# Velocity S-wave (km/s) = 2.17844 3.74964 3.06638
# Velocity P-wave (km/s) = 3.15701 6.11945 4.86901
#
# Compressibility (1/GPa) = 0.11922167
#
# Stress axis : x y z
#
# Youngs Moduli (GPa) = 74.80742 100.50593 9.71084
#
# Poissons Ratio (x) = 0.37132 -0.06296
# Poissons Ratio (y) = 0.27638 0.06143
# Poissons Ratio (z) = -0.48503 0.63578
#
# Static dielectric constant tensor:
#      x y z
#    x 4.486820 -0.366780 -0.005430 
#    y -0.366780 4.192820 0.103000 
#    z -0.005430 0.103000 4.277760 
# 
# 
# High freq. dielectric constant tensor:
#      x y z
#    x 1.916890 -0.014250 0.009690 
#    y -0.014250 1.914890 0.006750 
#    z 0.009690 0.006750 1.918390 
# 
# From -- ./inp_files/227729.got.cif
#   From: 2010.06.25/outbox.cif.g09.slc.cpg/sg2_114_cif.got.tgz:227729.got - 2010.06.27 13:26:56.
