data_PCOD8015661
_publ_section_title
;
Structure prediction by ZEFSAII (Michael W. Deem and Ramdas Pophale) SiO2 
 PCOD8015661
Probable space group: P -1
;
_chemical_formula_sum "Si O2"
_cell_formula_units_Z 14
_cell_length_a 11.806165
_cell_length_b 11.843134
_cell_length_c 5.363056
_cell_angle_alpha 64.957696
_cell_angle_beta 79.231482
_cell_angle_gamma 117.644154
_cell_volume 528.781159
_symmetry_space_group_name_H-M "P -1"
_symmetry_group_IT_number 2
_symmetry_cell_setting 'triclinic'
loop_
_space_group_symop_operation_xyz
x,y,z
-x,-y,-z
loop_
_atom_site_type_symbol
_atom_site_label
_atom_site_fract_x
_atom_site_fract_y
_atom_site_fract_z
Si Si1 0.696915 0.532409 0.896345
Si Si2 0.121957 0.068759 0.173621
Si Si3 0.433761 0.049576 0.680914
Si Si4 0.180876 0.713977 0.102583
Si Si5 0.396514 0.251547 0.176933
Si Si6 0.721755 0.338593 0.415091
Si Si7 0.048013 0.246023 0.751427
O O1 0.658222 0.650933 0.801500
O O2 0.853020 0.622744 0.619911
O O3 0.570865 0.375723 0.931408
O O4 0.705783 0.475457 0.223792
O O5 0.286904 0.135721 0.113169
O O6 0.072198 0.930112 0.135438
O O7 0.000000 0.000000 0.500000
O O8 0.143050 0.223841 0.918515
O O9 0.371364 0.135611 0.511369
O O10 0.563361 0.173893 0.702022
O O11 0.500000 0.000000 0.500000
O O12 0.298530 0.888532 0.006194
O O13 0.171828 0.609157 0.438012
O O14 0.032433 0.692095 0.139323
O O15 0.218040 0.678988 0.854310
#
# Coordination Sequence:
#
# PCOD8015661 Si02
#       7
#     2   2   2   2   2   2   2
#     4  10  23  45  65 104 138 184 234 283 346 433
#     4  11  23  42  67 101 137 180 229 295 343 417
#     4   9  20  40  68 103 135 176 233 291 341 416
#     4  11  24  42  71 102 137 190 227 298 346 413
#     4  10  21  42  74  95 144 181 231 287 358 406
#     4  10  24  44  68 101 142 183 239 281 351 418
#     4  11  26  40  67 104 138 178 239 285 349 420
#
# _framework density 26.47598
#
# number of rings (size 3 to 8) (size 9 to 14) (size 15 to 20)
#    0.000    1.714    1.429    1.286    8.000    2.857 
#    2.571    0.000    0.000    0.000    0.000    0.000 
#    0.000    0.000    0.000    0.000    0.000    0.000 
#
# Total GULP energy -173454.787943 kJ/mol
# GULP energy per Si atom -12389.627710 kJ/mol
# Density = 2.641572 g / cm^3
# Si number density = 26.475980 Si / 1000 Ang^3
#
#
#
# Elastic Constant Matrix: (Units=GPa)
#
#
# Indices 1 2 3 4 5 6 
#
# 1 112.6135 6.4927 10.8096 -2.7509 21.3781 5.4844
# 2 6.4927 57.4293 6.9245 -12.0353 10.7359 -5.5788
# 3 10.8096 6.9245 79.6760 -14.5944 5.7021 8.3559
# 4 -2.7509 -12.0353 -14.5944 34.8187 8.1043 8.5188
# 5 21.3781 10.7359 5.7021 8.1043 38.9214 -1.1385
# 6 5.4844 -5.5788 8.3559 8.5188 -1.1385 30.6927
#
#
#
# Elastic Compliance Matrix: (Units=1/GPa)
#
#
# Indices 1 2 3 4 5 6 
#
# 1 0.010315 0.000444 -0.000098 0.003140 -0.006511 -0.002849
# 2 0.000444 0.020752 0.000241 0.008923 -0.007836 0.000860
# 3 -0.000098 0.000241 0.015239 0.009134 -0.004346 -0.006784
# 4 0.003140 0.008923 0.009134 0.042715 -0.014823 -0.013832
# 5 -0.006511 -0.007836 -0.004346 -0.014823 0.035339 0.006347
# 6 -0.002849 0.000860 -0.006784 -0.013832 0.006347 0.039168
#
#
# Mechanical properties :
#
#
# Convention : Reuss Voigt Hill
#
# Bulk Modulus (GPa) = 21.06148 33.13024 27.09586
# Shear Modulus (GPa) = 28.06150 35.91935 31.99043
#
# Velocity S-wave (km/s) = 3.25912 3.68731 3.47980
# Velocity P-wave (km/s) = 4.70475 5.53794 5.13826
#
# Compressibility (1/GPa) = 0.04748003
#
# Stress axis : x y z
#
# Youngs Moduli (GPa) = 96.94429 48.18877 65.62222
#
# Poissons Ratio (x) = -0.02140 0.00645
# Poissons Ratio (y) = -0.04305 -0.01584
# Poissons Ratio (z) = 0.00952 -0.01163
#
# Static dielectric constant tensor:
#      x y z
#    x 5.203730 0.265020 0.222750 
#    y 0.265020 4.939770 -0.641140 
#    z 0.222750 -0.641140 4.801520 
# 
# 
# High freq. dielectric constant tensor:
#      x y z
#    x 2.077260 0.001200 0.012790 
#    y 0.001200 2.062020 -0.035810 
#    z 0.012790 -0.035810 2.054310 
# 
# From -- ./inp_files/75307.got.cif
#   From: 2010.06.25/outbox.cif.g09.slc.cpg/sg2_38_cif.got.tgz:75307.got - 2010.06.27 13:26:56.
