data_PCOD8015171
_publ_section_title
;
Structure prediction by ZEFSAII (Michael W. Deem and Ramdas Pophale) SiO2 
 PCOD8015171
Probable space group: P -1
;
_chemical_formula_sum "Si O2"
_cell_formula_units_Z 14
_cell_length_a 20.863716
_cell_length_b 21.797839
_cell_length_c 6.571423
_cell_angle_alpha 47.601848
_cell_angle_beta 123.671186
_cell_angle_gamma 161.290482
_cell_volume 661.681939
_symmetry_space_group_name_H-M "P -1"
_symmetry_group_IT_number 2
_symmetry_cell_setting 'triclinic'
loop_
_space_group_symop_operation_xyz
x,y,z
-x,-y,-z
loop_
_atom_site_type_symbol
_atom_site_label
_atom_site_fract_x
_atom_site_fract_y
_atom_site_fract_z
Si Si1 0.624691 0.877985 0.678366
Si Si2 0.876777 0.983069 0.748844
Si Si3 0.895719 0.849827 0.841015
Si Si4 0.400688 0.008059 0.944783
Si Si5 0.189794 0.368432 0.123117
Si Si6 0.107073 0.792956 0.220659
Si Si7 0.837433 0.372705 0.836979
O O1 0.709479 0.889764 0.655285
O O2 0.560346 0.891977 0.399903
O O3 0.816973 0.095677 0.678893
O O4 0.414938 0.637902 0.971524
O O5 0.769701 0.793816 0.874843
O O6 0.099213 0.228569 0.473126
O O7 0.928020 0.013673 0.005009
O O8 0.758567 0.638220 0.968564
O O9 0.000000 0.000000 0.500000
O O10 0.626310 0.192821 0.985545
O O11 0.317833 0.974572 0.067978
O O12 0.226468 0.763075 0.130313
O O13 0.008465 0.252233 0.008734
O O14 0.942594 0.552711 0.495060
O O15 0.000000 0.500000 0.000000
#
# Coordination Sequence:
#
# PCOD8015171 Si02
#       7
#     2   2   2   2   2   2   2
#     4  12  24  39  66  98 124 171 222 251 320 384
#     4  10  21  42  66  93 131 169 211 265 314 374
#     4   9  20  41  67  93 132 169 208 263 317 372
#     4  11  25  43  65  95 127 169 214 261 321 380
#     4  11  23  40  65  95 130 169 211 265 316 373
#     4  12  24  41  65  94 131 168 211 267 316 375
#     4  11  24  45  67  92 130 168 212 265 320 381
#
# _framework density 21.158200000000001
#
# number of rings (size 3 to 8) (size 9 to 14) (size 15 to 20)
#    0.000    1.143    5.714    0.429    0.000    4.571 
#    0.000    6.429    0.000    0.000    0.000    0.000 
#    0.000    0.000    0.000    0.000    0.000    0.000 
#
# Total GULP energy -173584.759436 kJ/mol
# GULP energy per Si atom -12398.911388 kJ/mol
# Density = 2.111004 g / cm^3
# Si number density = 21.158200 Si / 1000 Ang^3
#
#
#
# Elastic Constant Matrix: (Units=GPa)
#
#
# Indices 1 2 3 4 5 6 
#
# 1 119.7185 36.3050 27.6704 -2.7977 7.5411 4.9689
# 2 36.3050 93.0513 37.6892 -0.8234 3.9596 7.2606
# 3 27.6704 37.6892 90.9980 1.1737 5.8445 -6.1313
# 4 -2.7977 -0.8234 1.1737 31.3525 1.8302 -1.7141
# 5 7.5411 3.9596 5.8445 1.8302 33.1945 -0.0142
# 6 4.9689 7.2606 -6.1313 -1.7141 -0.0142 20.3655
#
#
#
# Elastic Compliance Matrix: (Units=1/GPa)
#
#
# Indices 1 2 3 4 5 6 
#
# 1 0.009849 -0.002878 -0.001835 0.000865 -0.001620 -0.001858
# 2 -0.002878 0.014622 -0.005592 0.000004 -0.000109 -0.006194
# 3 -0.001835 -0.005592 0.014415 -0.000398 -0.001429 0.006746
# 4 0.000865 0.000004 -0.000398 0.032229 -0.001903 0.002379
# 5 -0.001620 -0.000109 -0.001429 -0.001903 0.030863 -0.000135
# 6 -0.001858 -0.006194 0.006746 0.002379 -0.000135 0.053995
#
#
# Mechanical properties :
#
#
# Convention : Reuss Voigt Hill
#
# Bulk Modulus (GPa) = 54.71407 56.34412 55.52909
# Shear Modulus (GPa) = 27.37104 30.45607 28.91356
#
# Velocity S-wave (km/s) = 3.60062 3.79812 3.70069
# Velocity P-wave (km/s) = 6.57279 6.77658 6.67546
#
# Compressibility (1/GPa) = 0.01827684
#
# Stress axis : x y z
#
# Youngs Moduli (GPa) = 101.53135 68.38851 69.37363
#
# Poissons Ratio (x) = 0.19681 0.12732
# Poissons Ratio (y) = 0.29219 0.38791
# Poissons Ratio (z) = 0.18634 0.38240
#
# Static dielectric constant tensor:
#      x y z
#    x 4.238200 -0.224530 0.321530 
#    y -0.224530 3.611840 -0.088940 
#    z 0.321530 -0.088940 3.866360 
# 
# 
# High freq. dielectric constant tensor:
#      x y z
#    x 1.846950 -0.005240 0.018800 
#    y -0.005240 1.810490 0.001870 
#    z 0.018800 0.001870 1.833300 
# 
# From -- ./inp_files/7701.got.cif
#   From: 2010.06.25/outbox.cif.g09.slc.cpg/sg2_4_cif.got.tgz:7701.got - 2010.06.27 13:26:56.
