data_PCOD8015668
_publ_section_title
;
Structure prediction by ZEFSAII (Michael W. Deem and Ramdas Pophale) SiO2 
 PCOD8015668
Probable space group: P -1
;
_chemical_formula_sum "Si O2"
_cell_formula_units_Z 16
_cell_length_a 5.204945
_cell_length_b 17.059263
_cell_length_c 13.526612
_cell_angle_alpha 151.668225
_cell_angle_beta 81.245420
_cell_angle_gamma 105.676187
_cell_volume 539.070674
_symmetry_space_group_name_H-M "P -1"
_symmetry_group_IT_number 2
_symmetry_cell_setting 'triclinic'
loop_
_space_group_symop_operation_xyz
x,y,z
-x,-y,-z
loop_
_atom_site_type_symbol
_atom_site_label
_atom_site_fract_x
_atom_site_fract_y
_atom_site_fract_z
Si Si1 0.117030 0.842393 0.265242
Si Si2 0.080695 0.248090 0.212680
Si Si3 0.711600 0.084402 0.310482
Si Si4 0.742708 0.893357 0.776204
Si Si5 0.511519 0.800436 0.360500
Si Si6 0.600255 0.280160 0.051155
Si Si7 0.921925 0.485116 0.629714
Si Si8 0.354462 0.464148 0.111139
O O1 0.323571 0.774465 0.245501
O O2 0.183498 0.056517 0.513493
O O3 0.196781 0.819526 0.121314
O O4 0.805974 0.706030 0.136817
O O5 0.294861 0.183326 0.194992
O O6 0.898826 0.321602 0.381780
O O7 0.238062 0.391749 0.280951
O O8 0.848468 0.098390 0.006646
O O9 0.530931 0.166549 0.338597
O O10 0.648521 0.108879 0.454641
O O11 0.027969 0.175190 0.369733
O O12 0.653459 0.875443 0.063928
O O13 0.521094 0.615335 0.196324
O O14 0.761526 0.400697 0.263207
O O15 0.545986 0.403780 0.106835
O O16 0.832053 0.452001 0.713856
#
# Coordination Sequence:
#
# PCOD8015668 Si02
#       8
#     2   2   2   2   2   2   2   2
#     4   9  22  45  64  98 146 169 236 289 350 413
#     4  10  22  40  66  89 132 177 237 285 352 417
#     4  11  24  44  68  97 143 183 235 291 359 420
#     4  11  24  44  65  98 134 186 232 298 353 418
#     4  10  22  43  69 103 132 186 233 284 348 432
#     4  10  22  39  65  94 136 182 223 289 357 413
#     4  10  21  43  58  96 132 178 226 295 345 417
#     4  11  22  41  70  96 137 185 227 288 357 422
#
# _framework density 29.680712
#
# number of rings (size 3 to 8) (size 9 to 14) (size 15 to 20)
#    0.000    1.750    1.250    1.875    5.250    2.500 
#    6.750    3.750    0.000    0.000    0.000    0.000 
#    0.000    0.000    0.000    0.000    0.000    0.000 
#
# Total GULP energy -198353.890699 kJ/mol
# GULP energy per Si atom -12397.118169 kJ/mol
# Density = 2.961316 g / cm^3
# Si number density = 29.680712 Si / 1000 Ang^3
#
#
#
# Elastic Constant Matrix: (Units=GPa)
#
#
# Indices 1 2 3 4 5 6 
#
# 1 104.0522 36.7271 28.1152 4.4979 28.3424 0.7149
# 2 36.7271 152.5853 23.2656 19.7736 7.3948 12.8845
# 3 28.1152 23.2656 115.1283 -20.7796 2.4267 22.1594
# 4 4.4979 19.7736 -20.7796 54.0305 -3.4772 1.5880
# 5 28.3424 7.3948 2.4267 -3.4772 29.7879 2.7139
# 6 0.7149 12.8845 22.1594 1.5880 2.7139 42.7525
#
#
#
# Elastic Compliance Matrix: (Units=1/GPa)
#
#
# Indices 1 2 3 4 5 6 
#
# 1 0.015739 -0.002309 -0.004367 -0.003205 -0.014762 0.003752
# 2 -0.002309 0.007833 -0.001286 -0.003115 0.000134 -0.001548
# 3 -0.004367 -0.001286 0.012234 0.006034 0.004765 -0.006407
# 4 -0.003205 -0.003115 0.006034 0.022740 0.006294 -0.003379
# 5 -0.014762 0.000134 0.004765 0.006294 0.048437 -0.005572
# 6 0.003752 -0.001548 -0.006407 -0.003379 -0.005572 0.027595
#
#
# Mechanical properties :
#
#
# Convention : Reuss Voigt Hill
#
# Bulk Modulus (GPa) = 50.29231 60.88687 55.58959
# Shear Modulus (GPa) = 31.82082 44.22471 38.02276
#
# Velocity S-wave (km/s) = 3.27785 3.86426 3.58307
# Velocity P-wave (km/s) = 5.59526 6.36148 5.99064
#
# Compressibility (1/GPa) = 0.01988375
#
# Stress axis : x y z
#
# Youngs Moduli (GPa) = 63.53585 127.65741 81.73819
#
# Poissons Ratio (x) = 0.29472 0.35691
# Poissons Ratio (y) = 0.14668 0.10514
# Poissons Ratio (z) = 0.27743 0.16421
#
# Static dielectric constant tensor:
#      x y z
#    x 5.092310 0.294700 -0.193330 
#    y 0.294700 5.654920 -0.051340 
#    z -0.193330 -0.051340 6.017450 
# 
# 
# High freq. dielectric constant tensor:
#      x y z
#    x 2.198600 0.020160 -0.024380 
#    y 0.020160 2.229030 -0.005740 
#    z -0.024380 -0.005740 2.246330 
# 
# From -- ./inp_files/485334.got.cif
#   From: 2010.06.25/outbox.cif.g09.slc.cpg/sg2_243_cif.got.tgz:485334.got - 2010.06.27 13:26:56.
