data_PCOD8015362
_publ_section_title
;
Structure prediction by ZEFSAII (Michael W. Deem and Ramdas Pophale) SiO2 
 PCOD8015362
Probable space group: P -1
;
_chemical_formula_sum "Si O2"
_cell_formula_units_Z 16
_cell_length_a 7.806125
_cell_length_b 8.070266
_cell_length_c 13.651156
_cell_angle_alpha 71.286851
_cell_angle_beta 72.845948
_cell_angle_gamma 68.319179
_cell_volume 741.543286
_symmetry_space_group_name_H-M "P -1"
_symmetry_group_IT_number 2
_symmetry_cell_setting 'triclinic'
loop_
_space_group_symop_operation_xyz
x,y,z
-x,-y,-z
loop_
_atom_site_type_symbol
_atom_site_label
_atom_site_fract_x
_atom_site_fract_y
_atom_site_fract_z
Si Si1 0.584876 0.296117 0.058888
Si Si2 0.430774 0.141115 0.742160
Si Si3 0.611378 0.466022 0.386819
Si Si4 0.124378 0.951480 0.833093
Si Si5 0.250450 0.088600 0.395466
Si Si6 0.696246 0.180984 0.860979
Si Si7 0.365442 0.408015 0.261860
Si Si8 0.873070 0.094607 0.382118
O O1 0.801430 0.232862 0.076377
O O2 0.459356 0.275775 0.177650
O O3 0.500000 0.500000 0.000000
O O4 0.583043 0.180665 0.981956
O O5 0.339294 0.352882 0.688125
O O6 0.255652 0.076241 0.820570
O O7 0.541428 0.029751 0.651438
O O8 0.581285 0.116271 0.809335
O O9 0.500000 0.500000 0.500000
O O10 0.504659 0.400162 0.329453
O O11 0.800028 0.297955 0.403691
O O12 0.176877 0.898010 0.723464
O O13 0.904046 0.042144 0.867390
O O14 0.217259 0.307803 0.345676
O O15 0.097751 0.023261 0.371577
O O16 0.223412 0.043804 0.522347
O O17 0.724221 0.380812 0.795972
#
# Coordination Sequence:
#
# PCOD8015362 Si02
#       8
#     2   2   2   2   2   2   2   2
#     4  10  21  42  68  91 125 169 211 267 324 369
#     4  11  23  39  63  93 129 163 217 263 311 372
#     4  11  22  38  60  91 124 164 210 265 308 375
#     4  12  23  42  68  95 124 177 209 258 324 382
#     4  11  22  41  61  95 131 173 209 261 317 381
#     4  10  24  43  63  95 131 161 219 272 307 375
#     4  10  22  41  64  88 128 170 209 259 322 374
#     4  11  24  39  64  93 134 171 210 259 320 381
#
# _framework density 21.576622
#
# number of rings (size 3 to 8) (size 9 to 14) (size 15 to 20)
#    0.000    1.250    5.000    0.375    3.500    1.500 
#    0.000    1.250    0.000    5.250    0.000    0.000 
#    0.000    0.000    0.000    0.000    0.000    0.000 
#
# Total GULP energy -198242.351945 kJ/mol
# GULP energy per Si atom -12390.146997 kJ/mol
# Density = 2.152751 g / cm^3
# Si number density = 21.576622 Si / 1000 Ang^3
#
#
#
# Elastic Constant Matrix: (Units=GPa)
#
#
# Indices 1 2 3 4 5 6 
#
# 1 66.3364 27.8045 18.3259 -3.1904 -0.1810 -6.4876
# 2 27.8045 84.0215 36.0081 -1.8772 -0.0358 -11.1488
# 3 18.3259 36.0081 97.5622 2.9312 13.6321 1.8140
# 4 -3.1904 -1.8772 2.9312 37.5291 -0.8074 5.2413
# 5 -0.1810 -0.0358 13.6321 -0.8074 31.7112 -3.6840
# 6 -6.4876 -11.1488 1.8140 5.2413 -3.6840 32.8279
#
#
#
# Elastic Compliance Matrix: (Units=1/GPa)
#
#
# Indices 1 2 3 4 5 6 
#
# 1 0.017852 -0.004862 -0.001786 0.001171 0.001116 0.001914
# 2 -0.004862 0.016709 -0.005793 0.000194 0.003108 0.005352
# 3 -0.001786 -0.005793 0.013714 -0.001145 -0.006360 -0.003609
# 4 0.001171 0.000194 -0.001145 0.027410 0.000740 -0.003932
# 5 0.001116 0.003108 -0.006360 0.000740 0.034928 0.005429
# 6 0.001914 0.005352 -0.003609 -0.003932 0.005429 0.034094
#
#
# Mechanical properties :
#
#
# Convention : Reuss Voigt Hill
#
# Bulk Modulus (GPa) = 42.74707 45.79968 44.27338
# Shear Modulus (GPa) = 28.18690 31.46575 29.82633
#
# Velocity S-wave (km/s) = 3.61829 3.82295 3.72202
# Velocity P-wave (km/s) = 6.10825 6.38429 6.24780
#
# Compressibility (1/GPa) = 0.02339341
#
# Stress axis : x y z
#
# Youngs Moduli (GPa) = 56.01507 59.84727 72.91953
#
# Poissons Ratio (x) = 0.29097 0.13021
# Poissons Ratio (y) = 0.27234 0.42245
# Poissons Ratio (z) = 0.10002 0.34672
#
# Static dielectric constant tensor:
#      x y z
#    x 3.654880 -0.110280 0.270170 
#    y -0.110280 4.106920 -0.019510 
#    z 0.270170 -0.019510 4.436730 
# 
# 
# High freq. dielectric constant tensor:
#      x y z
#    x 1.824020 -0.011370 0.021470 
#    y -0.011370 1.852080 -0.003480 
#    z 0.021470 -0.003480 1.863270 
# 
# From -- ./inp_files/494455.got.cif
#   From: 2010.06.25/outbox.cif.g09.slc.cpg/sg2_248_cif.got.tgz:494455.got - 2010.06.27 13:26:56.
