data_PCOD8015168
_publ_section_title
;
Structure prediction by ZEFSAII (Michael W. Deem and Ramdas Pophale) SiO2 
 PCOD8015168
Probable space group: P -1
;
_chemical_formula_sum "Si O2"
_cell_formula_units_Z 16
_cell_length_a 5.412088
_cell_length_b 9.116306
_cell_length_c 20.534670
_cell_angle_alpha 47.406895
_cell_angle_beta 63.446038
_cell_angle_gamma 78.481627
_cell_volume 658.987267
_symmetry_space_group_name_H-M "P -1"
_symmetry_group_IT_number 2
_symmetry_cell_setting 'triclinic'
loop_
_space_group_symop_operation_xyz
x,y,z
-x,-y,-z
loop_
_atom_site_type_symbol
_atom_site_label
_atom_site_fract_x
_atom_site_fract_y
_atom_site_fract_z
Si Si1 0.260011 0.962217 0.872317
Si Si2 0.275058 0.614580 0.067974
Si Si3 0.953684 0.647617 0.222134
Si Si4 0.219831 0.051138 0.610184
Si Si5 0.830263 0.189075 0.717237
Si Si6 0.863945 0.678305 0.934399
Si Si7 0.386553 0.417286 0.381772
Si Si8 0.794419 0.876196 0.611525
O O1 0.079583 0.890297 0.848977
O O2 0.203568 0.176062 0.842079
O O3 0.590637 0.988929 0.807051
O O4 0.151639 0.787772 0.989747
O O5 0.220510 0.390786 0.108783
O O6 0.163562 0.585749 0.162530
O O7 0.603139 0.696815 0.006035
O O8 0.723166 0.456319 0.324834
O O9 0.117181 0.742209 0.236326
O O10 0.313845 0.234549 0.494957
O O11 0.101981 0.141123 0.662167
O O12 0.490983 0.951980 0.627732
O O13 0.961863 0.895307 0.654868
O O14 0.721994 0.382714 0.637906
O O15 0.000000 0.500000 0.000000
O O16 0.262213 0.351901 0.343205
O O17 0.000000 0.000000 0.500000
#
# Coordination Sequence:
#
# PCOD8015168 Si02
#       8
#     2   2   2   2   2   2   2   2
#     4  10  22  42  63  91 131 169 220 275 334 411
#     4  10  21  42  66  93 124 174 214 282 333 403
#     4  11  25  40  64  96 133 171 225 271 342 406
#     4  11  25  45  75 100 140 185 230 285 344 405
#     4  11  26  41  64 102 134 179 227 278 341 413
#     4   9  20  39  66  91 123 163 224 268 340 395
#     4  10  24  44  66  98 137 177 225 283 339 411
#     4  10  23  45  74 102 133 184 235 283 346 406
#
# _framework density 24.279679000000002
#
# number of rings (size 3 to 8) (size 9 to 14) (size 15 to 20)
#    0.000    1.750    0.000    3.000    8.750    7.500 
#    6.750    0.000    0.000    0.000    0.000    0.000 
#    0.000    0.000    0.000    0.000    0.000    0.000 
#
# Total GULP energy -198296.602869 kJ/mol
# GULP energy per Si atom -12393.537679 kJ/mol
# Density = 2.422442 g / cm^3
# Si number density = 24.279679 Si / 1000 Ang^3
#
#
#
# Elastic Constant Matrix: (Units=GPa)
#
#
# Indices 1 2 3 4 5 6 
#
# 1 128.1530 45.9607 28.7714 16.6383 -40.4444 15.6122
# 2 45.9607 129.8900 56.3518 20.9302 -30.8826 4.4680
# 3 28.7714 56.3518 89.9775 16.2593 -26.1205 14.5855
# 4 16.6383 20.9302 16.2593 41.6990 -2.1767 -12.0655
# 5 -40.4444 -30.8826 -26.1205 -2.1767 37.6865 -6.8758
# 6 15.6122 4.4680 14.5855 -12.0655 -6.8758 40.7379
#
#
#
# Elastic Compliance Matrix: (Units=1/GPa)
#
#
# Indices 1 2 3 4 5 6 
#
# 1 0.013676 -0.001413 0.002701 -0.006717 0.013966 -0.005686
# 2 -0.001413 0.012078 -0.005433 -0.002815 0.004657 0.001114
# 3 0.002701 -0.005433 0.019162 -0.007590 0.009852 -0.007885
# 4 -0.006717 -0.002815 -0.007590 0.034588 -0.010202 0.014123
# 5 0.013966 0.004657 0.009852 -0.010202 0.050880 -0.003824
# 6 -0.005686 0.001114 -0.007885 0.014123 -0.003824 0.032965
#
#
# Mechanical properties :
#
#
# Convention : Reuss Voigt Hill
#
# Bulk Modulus (GPa) = 27.30117 67.79869 47.54993
# Shear Modulus (GPa) = 27.19677 38.48710 32.84194
#
# Velocity S-wave (km/s) = 3.35049 3.98572 3.68183
# Velocity P-wave (km/s) = 5.12216 7.01185 6.14014
#
# Compressibility (1/GPa) = 0.03662847
#
# Stress axis : x y z
#
# Youngs Moduli (GPa) = 73.12304 82.79465 52.18607
#
# Poissons Ratio (x) = 0.11695 -0.14098
# Poissons Ratio (y) = 0.10329 0.28351
# Poissons Ratio (z) = -0.19754 0.44980
#
# Static dielectric constant tensor:
#      x y z
#    x 4.591860 0.192950 -0.266970 
#    y 0.192950 5.111280 -0.484210 
#    z -0.266970 -0.484210 4.146290 
# 
# 
# High freq. dielectric constant tensor:
#      x y z
#    x 1.976220 -0.003500 -0.009600 
#    y -0.003500 1.972780 -0.019360 
#    z -0.009600 -0.019360 1.949620 
# 
# From -- ./inp_files/582243.got.cif
#   From: 2010.06.25/outbox.cif.g09.slc.cpg/sg2_292_cif.got.tgz:582243.got - 2010.06.27 13:26:56.
