data_PCOD8015309
_publ_section_title
;
Structure prediction by ZEFSAII (Michael W. Deem and Ramdas Pophale) SiO2 
 PCOD8015309
Probable space group: P -1
;
_chemical_formula_sum "Si O2"
_cell_formula_units_Z 14
_cell_length_a 9.855647
_cell_length_b 15.635172
_cell_length_c 16.260167
_cell_angle_alpha 153.251487
_cell_angle_beta 42.391507
_cell_angle_gamma 121.337742
_cell_volume 675.262165
_symmetry_space_group_name_H-M "P -1"
_symmetry_group_IT_number 2
_symmetry_cell_setting 'triclinic'
loop_
_space_group_symop_operation_xyz
x,y,z
-x,-y,-z
loop_
_atom_site_type_symbol
_atom_site_label
_atom_site_fract_x
_atom_site_fract_y
_atom_site_fract_z
Si Si1 0.073099 0.584502 0.961561
Si Si2 0.101485 0.953882 0.504936
Si Si3 0.272134 0.547972 0.597117
Si Si4 0.593581 0.715628 0.016387
Si Si5 0.417883 0.562500 0.365385
Si Si6 0.024342 0.594482 0.308100
Si Si7 0.873859 0.964791 0.102657
O O1 0.344565 0.459658 0.727255
O O2 0.957680 0.543992 0.899158
O O3 0.000000 0.500000 0.000000
O O4 0.978920 0.836475 0.224851
O O5 0.370908 0.840382 0.277742
O O6 0.002046 0.820003 0.484391
O O7 0.000000 0.000000 0.500000
O O8 0.500000 0.500000 0.500000
O O9 0.291080 0.534156 0.478073
O O10 0.194333 0.373171 0.512257
O O11 0.072500 0.786508 0.917696
O O12 0.700304 0.871238 0.075685
O O13 0.541402 0.621865 0.876256
O O14 0.754314 0.523174 0.836933
O O15 0.272986 0.797217 0.589080
O O16 0.000000 0.000000 0.000000
#
# Coordination Sequence:
#
# PCOD8015309 Si02
#       7
#     2   2   2   2   2   2   2
#     4  12  23  40  68  94 127 173 220 266 324 383
#     4  12  24  41  68  98 127 172 221 268 329 381
#     4  10  21  42  67  96 133 167 215 271 317 386
#     4  11  24  43  65  98 135 166 217 273 316 389
#     4  11  22  42  68  93 133 175 213 261 330 380
#     4  11  25  42  65  96 133 168 217 275 320 389
#     4   9  22  38  66  93 127 173 211 256 322 381
#
# _framework density 20.732689000000001
#
# number of rings (size 3 to 8) (size 9 to 14) (size 15 to 20)
#    0.000    1.143    4.286    1.286    0.000    8.000 
#    0.000    2.143    0.000    0.000    0.000    0.000 
#    0.000    0.000    0.000    0.000    0.000    0.000 
#
# Total GULP energy -173573.035116 kJ/mol
# GULP energy per Si atom -12398.073937 kJ/mol
# Density = 2.068550 g / cm^3
# Si number density = 20.732689 Si / 1000 Ang^3
#
#
#
# Elastic Constant Matrix: (Units=GPa)
#
#
# Indices 1 2 3 4 5 6 
#
# 1 80.0217 25.7967 22.7617 5.3050 -3.8260 0.9481
# 2 25.7967 165.3267 42.7438 11.7765 -1.2254 15.6846
# 3 22.7617 42.7438 110.8413 9.1465 -0.1327 13.3715
# 4 5.3050 11.7765 9.1465 32.7253 6.3898 2.7125
# 5 -3.8260 -1.2254 -0.1327 6.3898 40.6145 -5.2454
# 6 0.9481 15.6846 13.3715 2.7125 -5.2454 35.7620
#
#
#
# Elastic Compliance Matrix: (Units=1/GPa)
#
#
# Indices 1 2 3 4 5 6 
#
# 1 0.013821 -0.001594 -0.002285 -0.001484 0.001680 0.001546
# 2 -0.001594 0.007144 -0.002032 -0.001565 0.000020 -0.002210
# 3 -0.002285 -0.002032 0.010768 -0.001584 -0.000381 -0.003010
# 4 -0.001484 -0.001565 -0.001584 0.033076 -0.005657 -0.002020
# 5 0.001680 0.000020 -0.000381 -0.005657 0.026233 0.004366
# 6 0.001546 -0.002210 -0.003010 -0.002020 0.004366 0.030810
#
#
# Mechanical properties :
#
#
# Convention : Reuss Voigt Hill
#
# Bulk Modulus (GPa) = 50.22559 59.86601 55.04580
# Shear Modulus (GPa) = 35.63488 39.47953 37.55721
#
# Velocity S-wave (km/s) = 4.15031 4.36847 4.26079
# Velocity P-wave (km/s) = 6.87348 7.37445 7.12837
#
# Compressibility (1/GPa) = 0.01991017
#
# Stress axis : x y z
#
# Youngs Moduli (GPa) = 72.35367 139.97859 92.86625
#
# Poissons Ratio (x) = 0.22315 0.21224
# Poissons Ratio (y) = 0.11535 0.18869
# Poissons Ratio (z) = 0.16536 0.28441
#
# Static dielectric constant tensor:
#      x y z
#    x 3.831900 0.034480 -0.167610 
#    y 0.034480 4.171330 0.000070 
#    z -0.167610 0.000070 4.091770 
# 
# 
# High freq. dielectric constant tensor:
#      x y z
#    x 1.805440 0.007160 -0.016050 
#    y 0.007160 1.832670 0.000430 
#    z -0.016050 0.000430 1.811870 
# 
# From -- ./inp_files/226749.got.cif
#   From: 2010.06.25/outbox.cif.g09.slc.cpg/sg2_114_cif.got.tgz:226749.got - 2010.06.27 13:26:56.
