data_PCOD8015858
_publ_section_title
;
Structure prediction by ZEFSAII (Michael W. Deem and Ramdas Pophale) SiO2 
 PCOD8015858
Probable space group: P -1
;
_chemical_formula_sum "Si O2"
_cell_formula_units_Z 16
_cell_length_a 8.688130
_cell_length_b 21.420194
_cell_length_c 21.082735
_cell_angle_alpha 20.562633
_cell_angle_beta 37.246885
_cell_angle_gamma 49.808718
_cell_volume 736.077691
_symmetry_space_group_name_H-M "P -1"
_symmetry_group_IT_number 2
_symmetry_cell_setting 'triclinic'
loop_
_space_group_symop_operation_xyz
x,y,z
-x,-y,-z
loop_
_atom_site_type_symbol
_atom_site_label
_atom_site_fract_x
_atom_site_fract_y
_atom_site_fract_z
Si Si1 0.856865 0.404376 0.704039
Si Si2 0.708230 0.006433 0.712949
Si Si3 0.773780 0.264574 0.561375
Si Si4 0.884614 0.788119 0.396775
Si Si5 0.175591 0.886550 0.689574
Si Si6 0.938927 0.294619 0.972765
Si Si7 0.194288 0.215898 0.848351
Si Si8 0.582023 0.099810 0.528129
O O1 0.836858 0.578751 0.583896
O O2 0.000000 0.500000 0.500000
O O3 0.055685 0.325011 0.748161
O O4 0.534970 0.222214 0.977990
O O5 0.712909 0.090797 0.561155
O O6 0.024970 0.029232 0.598872
O O7 0.655642 0.146643 0.646809
O O8 0.523772 0.296851 0.645712
O O9 0.887909 0.146407 0.681986
O O10 0.037731 0.486624 0.252393
O O11 0.582467 0.766377 0.541527
O O12 0.017510 0.972780 0.126905
O O13 0.500000 0.000000 0.500000
O O14 0.171988 0.798358 0.703936
O O15 0.001800 0.718156 0.959758
O O16 0.175816 0.264505 0.882348
O O17 0.626702 0.129369 0.207711
#
# Coordination Sequence:
#
# PCOD8015858 Si02
#       8
#     2   2   2   2   2   2   2   2
#     4  12  27  42  68 103 143 184 218 276 339 402
#     4  12  24  43  68 102 137 176 227 277 339 404
#     4  12  24  38  68 101 135 185 224 272 334 404
#     4  11  23  45  68  94 139 182 227 273 334 397
#     4  10  23  44  71  96 131 175 227 290 341 390
#     4  10  21  43  66  95 134 177 222 279 329 400
#     4  11  23  43  67  96 143 177 230 269 330 401
#     4  10  22  46  68  93 136 176 225 287 338 396
#
# _framework density 21.736834999999999
#
# number of rings (size 3 to 8) (size 9 to 14) (size 15 to 20)
#    0.000    1.000    3.750    4.125    3.500    1.000 
#    0.000    9.375    0.000    0.000    0.000    0.000 
#    0.000    0.000    0.000    0.000    0.000    0.000 
#
# Total GULP energy -198370.128365 kJ/mol
# GULP energy per Si atom -12398.133023 kJ/mol
# Density = 2.168736 g / cm^3
# Si number density = 21.736835 Si / 1000 Ang^3
#
#
#
# Elastic Constant Matrix: (Units=GPa)
#
#
# Indices 1 2 3 4 5 6 
#
# 1 113.1716 77.1942 64.0386 9.9907 17.8080 2.1114
# 2 77.1942 121.1035 62.1690 14.4688 22.0603 3.8524
# 3 64.0386 62.1690 82.3445 -16.1513 22.0442 7.8685
# 4 9.9907 14.4688 -16.1513 40.5185 4.8901 4.8491
# 5 17.8080 22.0603 22.0442 4.8901 31.3311 1.6093
# 6 2.1114 3.8524 7.8685 4.8491 1.6093 49.2376
#
#
#
# Elastic Compliance Matrix: (Units=1/GPa)
#
#
# Indices 1 2 3 4 5 6 
#
# 1 0.022277 -0.004658 -0.017722 -0.011859 0.004771 0.003253
# 2 -0.004658 0.019455 -0.013545 -0.011453 0.000165 0.001965
# 3 -0.017722 -0.013545 0.048213 0.031701 -0.018829 -0.008392
# 4 -0.011859 -0.011453 0.031701 0.047009 -0.014436 -0.007819
# 5 0.004771 0.000165 -0.018829 -0.014436 0.044449 0.002760
# 6 0.003253 0.001965 -0.008392 -0.007819 0.002760 0.022037
#
#
# Mechanical properties :
#
#
# Convention : Reuss Voigt Hill
#
# Bulk Modulus (GPa) = 55.25941 80.38033 67.81987
# Shear Modulus (GPa) = 17.77336 31.76531 24.76933
#
# Velocity S-wave (km/s) = 2.86258 3.82692 3.37932
# Velocity P-wave (km/s) = 6.03349 7.52238 6.81870
#
# Compressibility (1/GPa) = 0.01809646
#
# Stress axis : x y z
#
# Youngs Moduli (GPa) = 44.88994 51.40006 20.74134
#
# Poissons Ratio (x) = 0.23941 0.36758
# Poissons Ratio (y) = 0.20909 0.28093
# Poissons Ratio (z) = 0.79553 0.69619
#
# Static dielectric constant tensor:
#      x y z
#    x 4.050070 0.224470 0.349690 
#    y 0.224470 4.213050 0.273470 
#    z 0.349690 0.273470 4.055280 
# 
# 
# High freq. dielectric constant tensor:
#      x y z
#    x 1.857130 0.003450 0.019420 
#    y 0.003450 1.863570 0.004080 
#    z 0.019420 0.004080 1.844380 
# 
# From -- ./inp_files/206216.got.cif
#   From: 2010.06.25/outbox.cif.g09.slc.cpg/sg2_104_cif.got.tgz:206216.got - 2010.06.27 13:26:56.
