data_PCOD8015102
_publ_section_title
;
Structure prediction by ZEFSAII (Michael W. Deem and Ramdas Pophale) SiO2 
 PCOD8015102
Probable space group: P -1
;
_chemical_formula_sum "Si O2"
_cell_formula_units_Z 14
_cell_length_a 17.878642
_cell_length_b 14.807532
_cell_length_c 7.837484
_cell_angle_alpha 53.463293
_cell_angle_beta 51.484142
_cell_angle_gamma 23.893301
_cell_volume 655.346967
_symmetry_space_group_name_H-M "P -1"
_symmetry_group_IT_number 2
_symmetry_cell_setting 'triclinic'
loop_
_space_group_symop_operation_xyz
x,y,z
-x,-y,-z
loop_
_atom_site_type_symbol
_atom_site_label
_atom_site_fract_x
_atom_site_fract_y
_atom_site_fract_z
Si Si1 0.964522 0.788583 0.402489
Si Si2 0.668217 0.707121 0.456263
Si Si3 0.092292 0.129810 0.976693
Si Si4 0.226518 0.655094 0.632865
Si Si5 0.406086 0.964640 0.857465
Si Si6 0.449386 0.828651 0.306546
Si Si7 0.951854 0.071750 0.743930
O O1 0.940720 0.767140 0.267584
O O2 0.017554 0.868904 0.215157
O O3 0.122911 0.558734 0.539022
O O4 0.772052 0.968898 0.578847
O O5 0.574780 0.775025 0.695680
O O6 0.542243 0.787726 0.389607
O O7 0.692856 0.814927 0.276538
O O8 0.254563 0.020389 0.981332
O O9 0.900573 0.321979 0.145918
O O10 0.153623 0.938618 0.051985
O O11 0.446575 0.396262 0.630267
O O12 0.181676 0.722552 0.424627
O O13 0.161768 0.831190 0.634400
O O14 0.480026 0.878884 0.043340
#
# Coordination Sequence:
#
# PCOD8015102 Si02
#       7
#     2   2   2   2   2   2   2
#     4  12  23  42  69  98 135 170 222 269 327 388
#     4  11  26  48  66  98 132 172 222 280 315 397
#     4  10  21  42  65  99 129 176 217 265 330 387
#     4   9  20  40  65  90 139 165 216 268 318 389
#     4  11  25  47  68  95 135 172 222 270 337 380
#     4  12  24  44  69 101 129 175 221 267 331 392
#     4   9  20  40  65  95 134 171 216 267 322 392
#
# _framework density 21.362731
#
# number of rings (size 3 to 8) (size 9 to 14) (size 15 to 20)
#    0.857    0.571    2.857    2.571    0.000    1.714 
#    2.571    1.429    0.000    0.000    0.000    0.000 
#    0.000    0.000    0.000    0.000    0.000    0.000 
#
# Total GULP energy -173486.813562 kJ/mol
# GULP energy per Si atom -12391.915254 kJ/mol
# Density = 2.131411 g / cm^3
# Si number density = 21.362731 Si / 1000 Ang^3
#
#
#
# Elastic Constant Matrix: (Units=GPa)
#
#
# Indices 1 2 3 4 5 6 
#
# 1 71.9453 38.7121 38.8545 -9.7972 4.6308 -2.5619
# 2 38.7121 146.2021 36.1718 -11.1261 -16.7607 -8.2910
# 3 38.8545 36.1718 90.6544 -6.6170 2.6756 -9.6380
# 4 -9.7972 -11.1261 -6.6170 17.6496 -1.5361 -4.2549
# 5 4.6308 -16.7607 2.6756 -1.5361 21.4396 -1.6246
# 6 -2.5619 -8.2910 -9.6380 -4.2549 -1.6246 17.5302
#
#
#
# Elastic Compliance Matrix: (Units=1/GPa)
#
#
# Indices 1 2 3 4 5 6 
#
# 1 0.021080 -0.004385 -0.006933 0.005211 -0.006908 -0.002180
# 2 -0.004385 0.010279 -0.001490 0.005737 0.010013 0.005722
# 3 -0.006933 -0.001490 0.015620 0.002795 -0.000851 0.007469
# 4 0.005211 0.005737 0.002795 0.070631 0.009819 0.023065
# 5 -0.006908 0.010013 -0.000851 0.009819 0.057604 0.010980
# 6 -0.002180 0.005722 0.007469 0.023065 0.010980 0.070154
#
#
# Mechanical properties :
#
#
# Convention : Reuss Voigt Hill
#
# Bulk Modulus (GPa) = 46.81159 59.58652 53.19906
# Shear Modulus (GPa) = 17.97881 24.32812 21.15347
#
# Velocity S-wave (km/s) = 2.90418 3.37829 3.15016
# Velocity P-wave (km/s) = 5.76246 6.57042 6.17966
#
# Compressibility (1/GPa) = 0.02136223
#
# Stress axis : x y z
#
# Youngs Moduli (GPa) = 47.43903 97.28792 64.02048
#
# Poissons Ratio (x) = 0.42665 0.44382
# Poissons Ratio (y) = 0.20804 0.09540
# Poissons Ratio (z) = 0.32887 0.14497
#
# Static dielectric constant tensor:
#      x y z
#    x 3.793600 0.127920 0.118200 
#    y 0.127920 3.656510 -0.073930 
#    z 0.118200 -0.073930 3.764960 
# 
# 
# High freq. dielectric constant tensor:
#      x y z
#    x 1.834590 0.004060 0.016820 
#    y 0.004060 1.825060 -0.010070 
#    z 0.016820 -0.010070 1.840370 
# 
# From -- ./inp_files/348797.got.cif
#   From: 2010.06.25/outbox.cif.g09.slc.cpg/sg2_175_cif.got.tgz:348797.got - 2010.06.27 13:26:56.
