data_PCOD8015191
_publ_section_title
;
Structure prediction by ZEFSAII (Michael W. Deem and Ramdas Pophale) SiO2 
 PCOD8015191
Probable space group: P -1
;
_chemical_formula_sum "Si O2"
_cell_formula_units_Z 16
_cell_length_a 10.882229
_cell_length_b 12.052308
_cell_length_c 11.596823
_cell_angle_alpha 33.767382
_cell_angle_beta 64.459481
_cell_angle_gamma 75.355501
_cell_volume 745.689814
_symmetry_space_group_name_H-M "P -1"
_symmetry_group_IT_number 2
_symmetry_cell_setting 'triclinic'
loop_
_space_group_symop_operation_xyz
x,y,z
-x,-y,-z
loop_
_atom_site_type_symbol
_atom_site_label
_atom_site_fract_x
_atom_site_fract_y
_atom_site_fract_z
Si Si1 0.679273 0.098550 0.136318
Si Si2 0.059880 0.038989 0.319518
Si Si3 0.213063 0.165934 0.500570
Si Si4 0.711142 0.631239 0.122575
Si Si5 0.351066 0.008561 0.010096
Si Si6 0.081541 0.518034 0.330559
Si Si7 0.186541 0.688240 0.500928
Si Si8 0.567061 0.674531 0.910677
O O1 0.544355 0.187457 0.142394
O O2 0.689766 0.944541 0.367597
O O3 0.652626 0.962089 0.150285
O O4 0.825252 0.260079 0.923474
O O5 0.171113 0.893298 0.395529
O O6 0.938302 0.981138 0.324494
O O7 0.000000 0.000000 0.500000
O O8 0.135429 0.275411 0.071021
O O9 0.188249 0.365487 0.406445
O O10 0.289087 0.210100 0.307260
O O11 0.711782 0.419303 0.370655
O O12 0.601639 0.591707 0.094662
O O13 0.688876 0.795177 0.085267
O O14 0.256669 0.782357 0.271360
O O15 0.500000 0.000000 0.000000
O O16 0.000000 0.500000 0.500000
O O17 0.961036 0.466439 0.326563
O O18 0.500000 0.500000 0.000000
#
# Coordination Sequence:
#
# PCOD8015191 Si02
#       8
#     2   2   2   2   2   2   2   2
#     4  12  25  43  69  96 134 177 217 270 329 387
#     4  10  21  42  66  95 128 166 220 268 321 393
#     4  11  25  43  68  97 132 175 216 272 332 383
#     4  11  24  44  66  94 133 170 215 273 327 386
#     4  11  24  43  64  96 131 171 222 265 318 396
#     4  11  23  44  65  98 136 165 221 273 319 397
#     4  10  24  41  65  95 128 170 213 269 330 378
#     4  12  25  46  67  97 135 173 223 267 323 402
#
# _framework density 21.456643
#
# number of rings (size 3 to 8) (size 9 to 14) (size 15 to 20)
#    0.000    1.000    5.000    1.125    1.750    3.500 
#    0.000    0.000    0.000    0.000    0.000    0.000 
#    0.000    0.000    0.000    0.000    0.000    0.000 
#
# Total GULP energy -198333.008564 kJ/mol
# GULP energy per Si atom -12395.813035 kJ/mol
# Density = 2.140781 g / cm^3
# Si number density = 21.456643 Si / 1000 Ang^3
#
#
#
# Elastic Constant Matrix: (Units=GPa)
#
#
# Indices 1 2 3 4 5 6 
#
# 1 103.0079 33.3008 25.9733 -9.8100 24.0380 -4.0338
# 2 33.3008 106.2083 27.7181 12.2640 15.1635 0.1314
# 3 25.9733 27.7181 59.1993 0.9711 18.3931 -8.0052
# 4 -9.8100 12.2640 0.9711 26.2992 0.6273 -7.7226
# 5 24.0380 15.1635 18.3931 0.6273 49.2996 2.5044
# 6 -4.0338 0.1314 -8.0052 -7.7226 2.5044 38.5223
#
#
#
# Elastic Compliance Matrix: (Units=1/GPa)
#
#
# Indices 1 2 3 4 5 6 
#
# 1 0.013528 -0.003847 -0.002403 0.007870 -0.004760 0.002817
# 2 -0.003847 0.012756 -0.004526 -0.008096 -0.000104 -0.003003
# 3 -0.002403 -0.004526 0.022671 0.002079 -0.006190 0.005294
# 4 0.007870 -0.008096 0.002079 0.048003 -0.003299 0.011121
# 5 -0.004760 -0.000104 -0.006190 -0.003299 0.025195 -0.004084
# 6 0.002817 -0.003003 0.005294 0.011121 -0.004084 0.029859
#
#
# Mechanical properties :
#
#
# Convention : Reuss Voigt Hill
#
# Bulk Modulus (GPa) = 36.49366 49.15557 42.82461
# Shear Modulus (GPa) = 27.36737 34.91909 31.14323
#
# Velocity S-wave (km/s) = 3.57525 4.03851 3.81392
# Velocity P-wave (km/s) = 5.83851 6.68619 6.27668
#
# Compressibility (1/GPa) = 0.02740202
#
# Stress axis : x y z
#
# Youngs Moduli (GPa) = 73.91943 78.39324 44.11004
#
# Poissons Ratio (x) = 0.30159 0.10602
# Poissons Ratio (y) = 0.28438 0.19964
# Poissons Ratio (z) = 0.17766 0.35480
#
# Static dielectric constant tensor:
#      x y z
#    x 3.310350 0.306160 0.218880 
#    y 0.306160 3.950140 -0.164350 
#    z 0.218880 -0.164350 3.597170 
# 
# 
# High freq. dielectric constant tensor:
#      x y z
#    x 1.850960 0.000460 -0.009780 
#    y 0.000460 1.849790 0.008940 
#    z -0.009780 0.008940 1.835760 
# 
# From -- ./inp_files/70366.got.cif
#   From: 2010.06.25/outbox.cif.g09.slc.cpg/sg2_36_cif.got.tgz:70366.got - 2010.06.27 13:26:56.
