data_PCOD8015149
_publ_section_title
;
Structure prediction by ZEFSAII (Michael W. Deem and Ramdas Pophale) SiO2 
 PCOD8015149
Probable space group: P -1
;
_chemical_formula_sum "Si O2"
_cell_formula_units_Z 12
_cell_length_a 12.684287
_cell_length_b 11.341803
_cell_length_c 8.492318
_cell_angle_alpha 127.328355
_cell_angle_beta 98.165178
_cell_angle_gamma 125.497131
_cell_volume 511.003535
_symmetry_space_group_name_H-M "P -1"
_symmetry_group_IT_number 2
_symmetry_cell_setting 'triclinic'
loop_
_space_group_symop_operation_xyz
x,y,z
-x,-y,-z
loop_
_atom_site_type_symbol
_atom_site_label
_atom_site_fract_x
_atom_site_fract_y
_atom_site_fract_z
Si Si1 0.751514 0.542324 0.776813
Si Si2 0.995707 0.432644 0.118371
Si Si3 0.274269 0.271910 0.805552
Si Si4 0.075675 0.813563 0.629641
Si Si5 0.332805 0.129601 0.239498
Si Si6 0.138078 0.164999 0.345882
O O1 0.805769 0.433070 0.708085
O O2 0.557383 0.334772 0.458986
O O3 0.717016 0.565033 0.962549
O O4 0.930908 0.847017 0.977702
O O5 0.993569 0.560395 0.349280
O O6 0.797687 0.099800 0.833964
O O7 0.000000 0.500000 0.000000
O O8 0.143882 0.141701 0.516082
O O9 0.177820 0.023383 0.680075
O O10 0.500000 0.500000 0.000000
O O11 0.886081 0.684892 0.557667
O O12 0.243452 0.981949 0.932761
O O13 0.324063 0.299890 0.408403
#
# Coordination Sequence:
#
# PCOD8015149 Si02
#       6
#     2   2   2   2   2   2
#     4  10  22  40  66  90 127 159 208 255 308 365
#     4  11  24  44  64  89 127 165 208 254 307 373
#     4  11  21  41  66  93 121 162 213 256 300 364
#     4  11  23  41  64  93 129 163 204 259 308 364
#     4  11  23  42  63  94 127 163 206 252 314 370
#     4  10  21  42  66  91 126 161 208 259 304 361
#
# _framework density 23.483204000000001
#
# number of rings (size 3 to 8) (size 9 to 14) (size 15 to 20)
#    0.000    1.333    1.667    6.000    0.000    4.000 
#    9.000    0.000    0.000    0.000    0.000    0.000 
#    0.000    0.000    0.000    0.000    0.000    0.000 
#
# Total GULP energy -148822.363677 kJ/mol
# GULP energy per Si atom -12401.863640 kJ/mol
# Density = 2.342975 g / cm^3
# Si number density = 23.483204 Si / 1000 Ang^3
#
#
#
# Elastic Constant Matrix: (Units=GPa)
#
#
# Indices 1 2 3 4 5 6 
#
# 1 206.1245 22.2402 57.5191 7.9543 3.5378 -20.8869
# 2 22.2402 48.8912 12.5227 -8.4186 11.5493 -12.9403
# 3 57.5191 12.5227 107.5629 -11.8706 13.0326 -15.8286
# 4 7.9543 -8.4186 -11.8706 26.6832 1.1467 -0.3921
# 5 3.5378 11.5493 13.0326 1.1467 53.7481 -0.8481
# 6 -20.8869 -12.9403 -15.8286 -0.3921 -0.8481 28.7691
#
#
#
# Elastic Compliance Matrix: (Units=1/GPa)
#
#
# Indices 1 2 3 4 5 6 
#
# 1 0.006417 -0.002625 -0.003515 -0.004330 0.001110 0.001518
# 2 -0.002625 0.027526 0.001820 0.010712 -0.006231 0.011439
# 3 -0.003515 0.001820 0.013019 0.007639 -0.003394 0.005433
# 4 -0.004330 0.010712 0.007639 0.045843 -0.004747 0.006362
# 5 0.001110 -0.006231 -0.003394 -0.004747 0.020743 -0.003317
# 6 0.001518 0.011439 0.005433 0.006362 -0.003317 0.043985
#
#
# Mechanical properties :
#
#
# Convention : Reuss Voigt Hill
#
# Bulk Modulus (GPa) = 26.09581 60.79362 43.44472
# Shear Modulus (GPa) = 27.94118 39.85987 33.90052
#
# Velocity S-wave (km/s) = 3.45314 4.12439 3.80360
# Velocity P-wave (km/s) = 5.19958 6.97317 6.15064
#
# Compressibility (1/GPa) = 0.03832033
#
# Stress axis : x y z
#
# Youngs Moduli (GPa) = 155.82489 36.32988 76.81364
#
# Poissons Ratio (x) = 0.09537 0.27001
# Poissons Ratio (y) = 0.40904 -0.13977
# Poissons Ratio (z) = 0.54775 -0.06610
#
# Static dielectric constant tensor:
#      x y z
#    x 4.628320 0.005760 -0.000150 
#    y 0.005760 4.181220 -0.262350 
#    z -0.000150 -0.262350 4.268390 
# 
# 
# High freq. dielectric constant tensor:
#      x y z
#    x 1.948150 0.006600 0.004020 
#    y 0.006600 1.924890 -0.030750 
#    z 0.004020 -0.030750 1.928310 
# 
# From -- ./inp_files/243261.got.cif
#   From: 2010.06.25/outbox.cif.g09.slc.cpg/sg2_122_cif.got.tgz:243261.got - 2010.06.27 13:26:56.
