data_PCOD8015871
_publ_section_title
;
Structure prediction by ZEFSAII (Michael W. Deem and Ramdas Pophale) SiO2 
 PCOD8015871
Probable space group: P -1
;
_chemical_formula_sum "Si O2"
_cell_formula_units_Z 14
_cell_length_a 9.386094
_cell_length_b 27.389620
_cell_length_c 29.746604
_cell_angle_alpha 9.201061
_cell_angle_beta 32.636154
_cell_angle_gamma 32.311525
_cell_volume 650.863626
_symmetry_space_group_name_H-M "P -1"
_symmetry_group_IT_number 2
_symmetry_cell_setting 'triclinic'
loop_
_space_group_symop_operation_xyz
x,y,z
-x,-y,-z
loop_
_atom_site_type_symbol
_atom_site_label
_atom_site_fract_x
_atom_site_fract_y
_atom_site_fract_z
Si Si1 0.320208 0.793938 0.760027
Si Si2 0.612159 0.712312 0.099154
Si Si3 0.087484 0.759230 0.490558
Si Si4 0.473474 0.697342 0.585454
Si Si5 0.542934 0.936631 0.098067
Si Si6 0.060828 0.604706 0.543342
Si Si7 0.866789 0.652273 0.942085
O O1 0.097968 0.688655 0.882679
O O2 0.500000 0.000000 0.500000
O O3 0.500000 0.500000 0.000000
O O4 0.184560 0.001437 0.648264
O O5 0.858289 0.455250 0.284600
O O6 0.470764 0.550414 0.244481
O O7 0.684203 0.026867 0.772892
O O8 0.421454 0.791025 0.123271
O O9 0.050441 0.528474 0.668711
O O10 0.768400 0.755725 0.467510
O O11 0.305036 0.017384 0.323332
O O12 0.325193 0.565751 0.786450
O O13 0.262026 0.849450 0.267172
O O14 0.811044 0.682083 0.261512
O O15 0.500000 0.000000 0.000000
O O16 0.000000 0.500000 0.000000
#
# Coordination Sequence:
#
# PCOD8015871 Si02
#       7
#     2   2   2   2   2   2   2
#     4  12  25  42  69  97 126 171 226 267 327 390
#     4  11  21  42  68  89 133 174 205 273 323 383
#     4  11  22  42  64  94 128 172 218 264 320 387
#     4  12  25  46  67 100 135 174 221 264 341 393
#     4  10  21  43  66  97 136 167 225 270 324 385
#     4  10  25  39  69  99 130 177 219 271 325 397
#     4  12  28  47  66  97 140 173 215 282 330 385
#
# _framework density 21.509881
#
# number of rings (size 3 to 8) (size 9 to 14) (size 15 to 20)
#    0.000    0.857    4.286    2.143    6.000    0.571 
#    0.000    0.714    0.000    0.000    0.000    0.000 
#    0.000    0.000    0.000    0.000    0.000    0.000 
#
# Total GULP energy -173486.016134 kJ/mol
# GULP energy per Si atom -12391.858295 kJ/mol
# Density = 2.146092 g / cm^3
# Si number density = 21.509881 Si / 1000 Ang^3
#
#
#
# Elastic Constant Matrix: (Units=GPa)
#
#
# Indices 1 2 3 4 5 6 
#
# 1 100.9406 53.7177 28.1734 -2.3667 0.5859 -2.8943
# 2 53.7177 121.1641 35.1543 -6.7491 -11.6996 3.7602
# 3 28.1734 35.1543 84.0717 -13.2171 18.3070 -8.8404
# 4 -2.3667 -6.7491 -13.2171 27.8483 9.4518 -3.3889
# 5 0.5859 -11.6996 18.3070 9.4518 34.4558 -5.6776
# 6 -2.8943 3.7602 -8.8404 -3.3889 -5.6776 47.4221
#
#
#
# Elastic Compliance Matrix: (Units=1/GPa)
#
#
# Indices 1 2 3 4 5 6 
#
# 1 0.013411 -0.005443 -0.002171 -0.000937 -0.000548 0.000713
# 2 -0.005443 0.013168 -0.006244 -0.003336 0.008507 -0.001760
# 3 -0.002171 -0.006244 0.021631 0.014776 -0.017068 0.003408
# 4 -0.000937 -0.003336 0.014776 0.049987 -0.022038 0.003896
# 5 -0.000548 0.008507 -0.017068 -0.022038 0.047063 0.000170
# 6 0.000713 -0.001760 0.003408 0.003896 0.000170 0.022204
#
#
# Mechanical properties :
#
#
# Convention : Reuss Voigt Hill
#
# Bulk Modulus (GPa) = 48.79567 60.02971 54.41269
# Shear Modulus (GPa) = 24.75083 34.55396 29.65240
#
# Velocity S-wave (km/s) = 3.39584 4.01237 3.71691
# Velocity P-wave (km/s) = 6.17334 7.03093 6.61605
#
# Compressibility (1/GPa) = 0.02049362
#
# Stress axis : x y z
#
# Youngs Moduli (GPa) = 74.56494 75.93977 46.22944
#
# Poissons Ratio (x) = 0.41335 0.10038
# Poissons Ratio (y) = 0.40586 0.28867
# Poissons Ratio (z) = 0.16190 0.47419
#
# Static dielectric constant tensor:
#      x y z
#    x 5.850090 3.097290 -0.343090 
#    y 3.097290 8.379340 -0.745180 
#    z -0.343090 -0.745180 3.999650 
# 
# 
# High freq. dielectric constant tensor:
#      x y z
#    x 1.846220 0.022280 0.008100 
#    y 0.022280 1.854230 -0.017090 
#    z 0.008100 -0.017090 1.844160 
# 
# From -- ./inp_files/37189.got.cif
#   From: 2010.06.25/outbox.cif.g09.slc.cpg/sg2_19_cif.got.tgz:37189.got - 2010.06.27 13:26:56.
