data_PCOD8015930
_publ_section_title
;
Structure prediction by ZEFSAII (Michael W. Deem and Ramdas Pophale) SiO2 
 PCOD8015930
Probable space group: P -1
;
_chemical_formula_sum "Si O2"
_cell_formula_units_Z 10
_cell_length_a 12.418924
_cell_length_b 8.242022
_cell_length_c 7.627221
_cell_angle_alpha 125.444117
_cell_angle_beta 66.406656
_cell_angle_gamma 140.530908
_cell_volume 402.595622
_symmetry_space_group_name_H-M "P -1"
_symmetry_group_IT_number 2
_symmetry_cell_setting 'triclinic'
loop_
_space_group_symop_operation_xyz
x,y,z
-x,-y,-z
loop_
_atom_site_type_symbol
_atom_site_label
_atom_site_fract_x
_atom_site_fract_y
_atom_site_fract_z
Si Si1 0.120702 0.260562 0.332967
Si Si2 0.241510 0.869112 0.175671
Si Si3 0.662266 0.804028 0.009204
Si Si4 0.685611 0.133886 0.496958
Si Si5 0.111359 0.327397 0.763513
O O1 0.204935 0.205120 0.116694
O O2 0.155512 0.515259 0.377839
O O3 0.200535 0.382053 0.554018
O O4 0.928756 0.934959 0.277540
O O5 0.322615 0.990366 0.390753
O O6 0.064358 0.769859 0.222436
O O7 0.371185 0.119415 0.103684
O O8 0.225970 0.612866 0.984531
O O9 0.500000 0.500000 0.000000
O O10 0.737786 0.047789 0.255233
O O11 0.500000 0.000000 0.500000
#
# Coordination Sequence:
#
# PCOD8015930 Si02
#       5
#     2   2   2   2   2
#     4  10  21  43  67  96 132 165 219 265 320 391
#     4  10  23  43  71  94 133 171 213 274 320 384
#     4  11  23  45  63  97 133 170 223 263 320 392
#     4  12  25  44  65  98 133 174 217 265 324 385
#     4   9  20  45  67  96 131 170 215 265 329 381
#
# _framework density 24.838819999999998
#
# number of rings (size 3 to 8) (size 9 to 14) (size 15 to 20)
#    0.000    1.600    4.000    0.000    0.000    3.200 
#   10.800    0.000    0.000    0.000    0.000    0.000 
#    0.000    0.000    0.000    0.000    0.000    0.000 
#
# Total GULP energy -123888.485843 kJ/mol
# GULP energy per Si atom -12388.848584 kJ/mol
# Density = 2.478229 g / cm^3
# Si number density = 24.838820 Si / 1000 Ang^3
#
#
#
# Elastic Constant Matrix: (Units=GPa)
#
#
# Indices 1 2 3 4 5 6 
#
# 1 44.0307 21.6145 43.6610 -3.6412 2.9333 -11.0355
# 2 21.6145 152.1788 40.3648 -14.3980 4.5876 -42.4887
# 3 43.6610 40.3648 170.8338 -25.8397 -22.2137 -25.0140
# 4 -3.6412 -14.3980 -25.8397 45.6614 -16.4156 -4.9352
# 5 2.9333 4.5876 -22.2137 -16.4156 46.1775 -5.4597
# 6 -11.0355 -42.4887 -25.0140 -4.9352 -5.4597 32.9463
#
#
#
# Elastic Compliance Matrix: (Units=1/GPa)
#
#
# Indices 1 2 3 4 5 6 
#
# 1 0.035033 -0.004154 -0.012007 -0.010300 -0.011991 -0.006270
# 2 -0.004154 0.012630 0.003422 0.010149 0.006641 0.020115
# 3 -0.012007 0.003422 0.014907 0.015806 0.015174 0.016591
# 4 -0.010300 0.010149 0.015806 0.046823 0.027827 0.033264
# 5 -0.011991 0.006641 0.015174 0.027827 0.042168 0.027225
# 6 -0.006270 0.020115 0.016591 0.033264 0.027225 0.076284
#
#
# Mechanical properties :
#
#
# Convention : Reuss Voigt Hill
#
# Bulk Modulus (GPa) = 26.96160 64.25819 45.60989
# Shear Modulus (GPa) = 18.81906 42.38393 30.60150
#
# Velocity S-wave (km/s) = 2.75553 4.13529 3.51380
# Velocity P-wave (km/s) = 4.58280 6.98048 5.90462
#
# Compressibility (1/GPa) = 0.03708979
#
# Stress axis : x y z
#
# Youngs Moduli (GPa) = 28.54465 79.17709 67.08274
#
# Poissons Ratio (x) = 0.32894 0.80547
# Poissons Ratio (y) = 0.11859 -0.22953
# Poissons Ratio (z) = 0.34274 -0.27091
#
# Static dielectric constant tensor:
#      x y z
#    x 3.867750 -0.645470 -0.288310 
#    y -0.645470 4.405140 0.446960 
#    z -0.288310 0.446960 4.493700 
# 
# 
# High freq. dielectric constant tensor:
#      x y z
#    x 1.934220 -0.032470 -0.029400 
#    y -0.032470 2.001520 -0.012370 
#    z -0.029400 -0.012370 2.017580 
# 
# From -- ./inp_files/18201.got.cif
#   From: 2010.06.25/outbox.cif.g09.slc.cpg/sg2_10_cif.got.tgz:18201.got - 2010.06.27 13:26:56.
