data_PCOD8015755
_publ_section_title
;
Structure prediction by ZEFSAII (Michael W. Deem and Ramdas Pophale) SiO2 
 PCOD8015755
Probable space group: P -1
;
_chemical_formula_sum "Si O2"
_cell_formula_units_Z 14
_cell_length_a 6.382384
_cell_length_b 11.381996
_cell_length_c 15.002302
_cell_angle_alpha 52.463028
_cell_angle_beta 90.409634
_cell_angle_gamma 123.495699
_cell_volume 625.089753
_symmetry_space_group_name_H-M "P -1"
_symmetry_group_IT_number 2
_symmetry_cell_setting 'triclinic'
loop_
_space_group_symop_operation_xyz
x,y,z
-x,-y,-z
loop_
_atom_site_type_symbol
_atom_site_label
_atom_site_fract_x
_atom_site_fract_y
_atom_site_fract_z
Si Si1 0.664947 0.722553 0.430396
Si Si2 0.830370 0.480080 0.770397
Si Si3 0.243619 0.034526 0.385901
Si Si4 0.449066 0.444690 0.129151
Si Si5 0.040213 0.784311 0.075656
Si Si6 0.427960 0.816412 0.515727
Si Si7 0.728124 0.821718 0.192302
O O1 0.500000 0.500000 0.500000
O O2 0.417282 0.698322 0.488697
O O3 0.783904 0.862043 0.278850
O O4 0.926492 0.823634 0.453378
O O5 0.779741 0.554020 0.825454
O O6 0.588733 0.398116 0.732490
O O7 0.791786 0.287771 0.881874
O O8 0.146079 0.664706 0.646923
O O9 0.340841 0.222824 0.241639
O O10 0.282816 0.083001 0.470573
O O11 0.455061 0.994566 0.392080
O O12 0.750383 0.613129 0.100113
O O13 0.500000 0.500000 0.000000
O O14 0.965623 0.824119 0.151973
O O15 0.244061 0.997719 0.925853
#
# Coordination Sequence:
#
# PCOD8015755 Si02
#       7
#     2   2   2   2   2   2   2
#     4  12  26  42  68  99 136 172 222 278 327 394
#     4  11  23  41  69  95 131 177 220 271 332 394
#     4  11  26  45  68  95 136 176 222 272 333 394
#     4  11  25  42  68  97 129 173 222 277 328 392
#     4  10  21  43  64  95 135 173 223 268 334 393
#     4  11  26  44  69  99 131 181 221 270 332 396
#     4  10  23  40  66  97 133 178 215 276 332 386
#
# _framework density 22.396782999999999
#
# number of rings (size 3 to 8) (size 9 to 14) (size 15 to 20)
#    0.000    1.143    1.429    3.429    8.000    5.143 
#    0.000    0.000    0.000    0.000    0.000    0.000 
#    0.000    0.000    0.000    0.000    0.000    0.000 
#
# Total GULP energy -173541.404337 kJ/mol
# GULP energy per Si atom -12395.814595 kJ/mol
# Density = 2.234581 g / cm^3
# Si number density = 22.396783 Si / 1000 Ang^3
#
#
#
# Elastic Constant Matrix: (Units=GPa)
#
#
# Indices 1 2 3 4 5 6 
#
# 1 105.3447 55.6470 64.3641 7.0827 12.2195 -20.4928
# 2 55.6470 122.9352 55.1647 -6.6956 -4.4416 -16.2129
# 3 64.3641 55.1647 109.6606 -0.6173 8.2181 -21.2080
# 4 7.0827 -6.6956 -0.6173 39.6862 -5.7709 -2.9683
# 5 12.2195 -4.4416 8.2181 -5.7709 34.3777 -7.2140
# 6 -20.4928 -16.2129 -21.2080 -2.9683 -7.2140 45.0246
#
#
#
# Elastic Compliance Matrix: (Units=1/GPa)
#
#
# Indices 1 2 3 4 5 6 
#
# 1 0.017942 -0.005139 -0.007217 -0.004899 -0.005789 0.001666
# 2 -0.005139 0.012597 -0.003362 0.003885 0.005270 0.001714
# 3 -0.007217 -0.003362 0.015660 0.001052 -0.000845 0.002815
# 4 -0.004899 0.003885 0.001052 0.027998 0.007252 0.002673
# 5 -0.005789 0.005270 -0.000845 0.007252 0.034261 0.004832
# 6 0.001666 0.001714 0.002815 0.002673 0.004832 0.025862
#
#
# Mechanical properties :
#
#
# Convention : Reuss Voigt Hill
#
# Bulk Modulus (GPa) = 67.74122 76.47690 72.10906
# Shear Modulus (GPa) = 29.29502 34.66867 31.98184
#
# Velocity S-wave (km/s) = 3.62055 3.93864 3.78294
# Velocity P-wave (km/s) = 6.91299 7.40975 7.16568
#
# Compressibility (1/GPa) = 0.01476206
#
# Stress axis : x y z
#
# Youngs Moduli (GPa) = 55.73607 79.38154 63.85646
#
# Poissons Ratio (x) = 0.40795 0.46086
# Poissons Ratio (y) = 0.28643 0.21471
# Poissons Ratio (z) = 0.40225 0.26691
#
# Static dielectric constant tensor:
#      x y z
#    x 4.199670 -0.143230 0.223310 
#    y -0.143230 4.356730 0.146310 
#    z 0.223310 0.146310 4.284390 
# 
# 
# High freq. dielectric constant tensor:
#      x y z
#    x 1.885310 -0.005810 0.008230 
#    y -0.005810 1.897750 -0.012570 
#    z 0.008230 -0.012570 1.877650 
# 
# From -- ./inp_files/109614.got.cif
#   From: 2010.06.25/outbox.cif.g09.slc.cpg/sg2_55_cif.got.tgz:109614.got - 2010.06.27 13:26:56.
