data_PCOD8015602
_publ_section_title
;
Structure prediction by ZEFSAII (Michael W. Deem and Ramdas Pophale) SiO2 
 PCOD8015602
Probable space group: P -1
;
_chemical_formula_sum "Si O2"
_cell_formula_units_Z 16
_cell_length_a 16.159874
_cell_length_b 10.906916
_cell_length_c 9.029477
_cell_angle_alpha 53.786927
_cell_angle_beta 48.335160
_cell_angle_gamma 32.064719
_cell_volume 629.654909
_symmetry_space_group_name_H-M "P -1"
_symmetry_group_IT_number 2
_symmetry_cell_setting 'triclinic'
loop_
_space_group_symop_operation_xyz
x,y,z
-x,-y,-z
loop_
_atom_site_type_symbol
_atom_site_label
_atom_site_fract_x
_atom_site_fract_y
_atom_site_fract_z
Si Si1 0.821146 0.719822 0.122107
Si Si2 0.179011 0.965609 0.236391
Si Si3 0.274381 0.653443 0.118482
Si Si4 0.915601 0.060787 0.333511
Si Si5 0.527859 0.826918 0.274066
Si Si6 0.044297 0.335423 0.690626
Si Si7 0.330676 0.321095 0.103567
Si Si8 0.315590 0.810353 0.691770
O O1 0.692557 0.719329 0.236996
O O2 0.841192 0.711961 0.280458
O O3 0.750067 0.946933 0.966295
O O4 0.000000 0.500000 0.000000
O O5 0.158447 0.981342 0.425655
O O6 0.300072 0.700379 0.219966
O O7 0.988565 0.137914 0.269891
O O8 0.368185 0.402127 0.136085
O O9 0.073471 0.826912 0.218760
O O10 0.343410 0.720566 0.886670
O O11 0.753501 0.260020 0.277853
O O12 0.479542 0.723742 0.493558
O O13 0.377168 0.106941 0.264921
O O14 0.554008 0.759512 0.118242
O O15 0.000000 0.500000 0.500000
O O16 0.862618 0.467883 0.873362
O O17 0.154226 0.086844 0.670661
#
# Coordination Sequence:
#
# PCOD8015602 Si02
#       8
#     2   2   2   2   2   2   2   2
#     4  12  26  44  75 100 146 191 238 295 359 439
#     4   9  21  41  66 107 138 179 240 297 350 416
#     4  10  21  42  72 103 139 193 242 294 347 435
#     4   9  20  37  70 102 139 180 237 294 350 415
#     4  11  28  46  66 108 153 186 237 305 368 423
#     4  12  23  43  72 107 133 191 245 281 359 436
#     4  11  24  45  72 103 143 192 244 295 359 427
#     4  12  23  41  75 105 145 187 244 300 352 424
#
# _framework density 25.410744999999999
#
# number of rings (size 3 to 8) (size 9 to 14) (size 15 to 20)
#    0.750    0.500    5.000    0.375    7.000    1.000 
#    0.000    0.625    0.000    0.000    0.000    0.000 
#    0.000    0.000    0.000    0.000    0.000    0.000 
#
# Total GULP energy -198236.875590 kJ/mol
# GULP energy per Si atom -12389.804724 kJ/mol
# Density = 2.535291 g / cm^3
# Si number density = 25.410745 Si / 1000 Ang^3
#
#
#
# Elastic Constant Matrix: (Units=GPa)
#
#
# Indices 1 2 3 4 5 6 
#
# 1 71.6549 0.3125 20.4312 20.2824 -4.1975 1.4894
# 2 0.3125 57.8587 7.5542 14.6655 -4.6522 13.5626
# 3 20.4312 7.5542 139.3571 5.7852 -3.0987 10.5309
# 4 20.2824 14.6655 5.7852 25.6252 1.4562 -0.0930
# 5 -4.1975 -4.6522 -3.0987 1.4562 29.8963 3.5201
# 6 1.4894 13.5626 10.5309 -0.0930 3.5201 32.0664
#
#
#
# Elastic Compliance Matrix: (Units=1/GPa)
#
#
# Indices 1 2 3 4 5 6 
#
# 1 0.020482 0.006399 -0.002152 -0.019687 0.005027 -0.003560
# 2 0.006399 0.025801 -0.000437 -0.020188 0.007255 -0.011921
# 3 -0.002152 -0.000437 0.007699 0.000167 0.000693 -0.002319
# 4 -0.019687 -0.020188 0.000167 0.066752 -0.010403 0.010734
# 5 0.005027 0.007255 0.000693 -0.010403 0.036756 -0.007595
# 6 -0.003560 -0.011921 -0.002319 0.010734 -0.007595 0.038019
#
#
# Mechanical properties :
#
#
# Convention : Reuss Voigt Hill
#
# Bulk Modulus (GPa) = 16.23294 36.16298 26.19796
# Shear Modulus (GPa) = 23.98973 33.55576 28.77274
#
# Velocity S-wave (km/s) = 3.07592 3.63786 3.36863
# Velocity P-wave (km/s) = 4.36086 5.64868 5.04603
#
# Compressibility (1/GPa) = 0.06160313
#
# Stress axis : x y z
#
# Youngs Moduli (GPa) = 48.82266 38.75864 129.89246
#
# Poissons Ratio (x) = -0.24802 0.27949
# Poissons Ratio (y) = -0.31241 0.05670
# Poissons Ratio (z) = 0.10505 0.01692
#
# Static dielectric constant tensor:
#      x y z
#    x 3.816220 0.896560 -1.173270 
#    y 0.896560 3.618930 1.381480 
#    z -1.173270 1.381480 2.798380 
# 
# 
# High freq. dielectric constant tensor:
#      x y z
#    x 2.019930 0.007970 -0.001820 
#    y 0.007970 1.987810 0.019310 
#    z -0.001820 0.019310 2.017180 
# 
# From -- ./inp_files/333023.got.cif
#   From: 2010.06.25/outbox.cif.g09.slc.cpg/sg2_167_cif.got.tgz:333023.got - 2010.06.27 13:26:56.
