data_PCOD8015831
_publ_section_title
;
Structure prediction by ZEFSAII (Michael W. Deem and Ramdas Pophale) SiO2 
 PCOD8015831
Probable space group: P -1
;
_chemical_formula_sum "Si O2"
_cell_formula_units_Z 16
_cell_length_a 9.339356
_cell_length_b 18.635307
_cell_length_c 10.365152
_cell_angle_alpha 145.985320
_cell_angle_beta 78.302987
_cell_angle_gamma 77.799680
_cell_volume 712.841934
_symmetry_space_group_name_H-M "P -1"
_symmetry_group_IT_number 2
_symmetry_cell_setting 'triclinic'
loop_
_space_group_symop_operation_xyz
x,y,z
-x,-y,-z
loop_
_atom_site_type_symbol
_atom_site_label
_atom_site_fract_x
_atom_site_fract_y
_atom_site_fract_z
Si Si1 0.111489 0.587621 0.827481
Si Si2 0.372476 0.034397 0.883628
Si Si3 0.324698 0.195045 0.879654
Si Si4 0.288709 0.769430 0.704391
Si Si5 0.643902 0.751766 0.589927
Si Si6 0.189955 0.810103 0.233098
Si Si7 0.847849 0.078785 0.314281
Si Si8 0.616529 0.567371 0.705765
O O1 0.146793 0.449957 0.718316
O O2 0.275072 0.485795 0.530462
O O3 0.135880 0.694412 0.073097
O O4 0.890028 0.724457 0.009831
O O5 0.584858 0.824962 0.560169
O O6 0.199108 0.042746 0.881643
O O7 0.370262 0.151407 0.957904
O O8 0.326325 0.128964 0.168799
O O9 0.500000 0.000000 0.500000
O O10 0.326836 0.347045 0.082518
O O11 0.466495 0.763602 0.692598
O O12 0.247061 0.781601 0.576727
O O13 0.337028 0.596638 0.482412
O O14 0.090805 0.944344 0.074094
O O15 0.248238 0.817057 0.377954
O O16 0.372930 0.723903 0.970304
O O17 0.000000 0.000000 0.500000
#
# Coordination Sequence:
#
# PCOD8015831 Si02
#       8
#     2   2   2   2   2   2   2   2
#     4  12  25  43  67  99 130 174 227 272 324 393
#     4  10  21  43  66  92 129 173 213 267 329 389
#     4  12  26  44  66  96 136 175 218 272 338 395
#     4  10  22  42  66 100 126 176 218 267 326 397
#     4  10  22  40  68  96 126 167 221 274 316 387
#     4  12  25  41  65  97 137 170 216 277 331 382
#     4  10  23  42  67  95 134 172 219 263 333 394
#     4  12  24  41  69  95 131 173 223 271 323 396
#
# _framework density 22.445367000000001
#
# number of rings (size 3 to 8) (size 9 to 14) (size 15 to 20)
#    0.000    1.000    2.500    4.500    3.500    1.500 
#    2.250    0.625    0.000    0.000    0.000    0.000 
#    0.000    0.000    0.000    0.000    0.000    0.000 
#
# Total GULP energy -198221.900292 kJ/mol
# GULP energy per Si atom -12388.868768 kJ/mol
# Density = 2.239428 g / cm^3
# Si number density = 22.445367 Si / 1000 Ang^3
#
#
#
# Elastic Constant Matrix: (Units=GPa)
#
#
# Indices 1 2 3 4 5 6 
#
# 1 114.8930 35.1922 47.4837 6.0729 19.2248 -12.6372
# 2 35.1922 71.5445 29.0086 22.6953 -10.4848 -11.0777
# 3 47.4837 29.0086 97.3369 14.4035 -2.8868 -8.4911
# 4 6.0729 22.6953 14.4035 26.7186 -2.5797 4.2847
# 5 19.2248 -10.4848 -2.8868 -2.5797 50.2511 7.1969
# 6 -12.6372 -11.0777 -8.4911 4.2847 7.1969 27.8169
#
#
#
# Elastic Compliance Matrix: (Units=1/GPa)
#
#
# Indices 1 2 3 4 5 6 
#
# 1 0.014526 -0.006761 -0.005606 0.004168 -0.007579 0.003514
# 2 -0.006761 0.026683 -0.000442 -0.021836 0.005673 0.009315
# 3 -0.005606 -0.000442 0.014293 -0.006157 0.002271 0.002001
# 4 0.004168 -0.021836 -0.006157 0.061139 -0.000803 -0.017891
# 5 -0.007579 0.005673 0.002271 -0.000803 0.025054 -0.006849
# 6 0.003514 0.009315 0.002001 -0.017891 -0.006849 0.046394
#
#
# Mechanical properties :
#
#
# Convention : Reuss Voigt Hill
#
# Bulk Modulus (GPa) = 33.46286 56.34926 44.90606
# Shear Modulus (GPa) = 22.35457 32.42997 27.39227
#
# Velocity S-wave (km/s) = 3.15930 3.80523 3.49721
# Velocity P-wave (km/s) = 5.31500 6.66828 6.02972
#
# Compressibility (1/GPa) = 0.02988387
#
# Stress axis : x y z
#
# Youngs Moduli (GPa) = 68.84124 37.47745 69.96308
#
# Poissons Ratio (x) = 0.25338 0.39224
# Poissons Ratio (y) = 0.46543 0.03091
# Poissons Ratio (z) = 0.38595 0.01656
#
# Static dielectric constant tensor:
#      x y z
#    x 4.057220 0.128770 -0.026760 
#    y 0.128770 3.931010 0.250600 
#    z -0.026760 0.250600 3.938400 
# 
# 
# High freq. dielectric constant tensor:
#      x y z
#    x 1.895560 -0.011630 0.013820 
#    y -0.011630 1.886830 0.029410 
#    z 0.013820 0.029410 1.874750 
# 
# From -- ./inp_files/405702.got.cif
#   From: 2010.06.25/outbox.cif.g09.slc.cpg/sg2_203_cif.got.tgz:405702.got - 2010.06.27 13:26:56.
