data_PCOD8015761
_publ_section_title
;
Structure prediction by ZEFSAII (Michael W. Deem and Ramdas Pophale) SiO2 
 PCOD8015761
Probable space group: P -1
;
_chemical_formula_sum "Si O2"
_cell_formula_units_Z 16
_cell_length_a 8.501228
_cell_length_b 16.158096
_cell_length_c 9.017329
_cell_angle_alpha 45.938789
_cell_angle_beta 52.335920
_cell_angle_gamma 65.828920
_cell_volume 704.343111
_symmetry_space_group_name_H-M "P -1"
_symmetry_group_IT_number 2
_symmetry_cell_setting 'triclinic'
loop_
_space_group_symop_operation_xyz
x,y,z
-x,-y,-z
loop_
_atom_site_type_symbol
_atom_site_label
_atom_site_fract_x
_atom_site_fract_y
_atom_site_fract_z
Si Si1 0.722657 0.855286 0.670467
Si Si2 0.662159 0.910242 0.974727
Si Si3 0.506976 0.659986 0.871256
Si Si4 0.976132 0.676679 0.873541
Si Si5 0.922685 0.294146 0.898765
Si Si6 0.316096 0.509234 0.806985
Si Si7 0.647918 0.668928 0.446030
Si Si8 0.052483 0.957108 0.861806
O O1 0.552751 0.778823 0.783149
O O2 0.918226 0.776102 0.667844
O O3 0.652586 0.894462 0.823390
O O4 0.767696 0.965640 0.404760
O O5 0.618962 0.788525 0.230516
O O6 0.870641 0.964175 0.843329
O O7 0.500000 0.000000 0.000000
O O8 0.543959 0.678496 0.653836
O O9 0.273483 0.629473 0.080453
O O10 0.636231 0.553391 0.985455
O O11 0.164793 0.611872 0.786311
O O12 0.016297 0.738837 0.927783
O O13 0.786607 0.586865 0.120614
O O14 0.117672 0.360085 0.633921
O O15 0.878078 0.173477 0.992943
O O16 0.523607 0.567320 0.555166
O O17 0.000000 0.000000 0.000000
#
# Coordination Sequence:
#
# PCOD8015761 Si02
#       8
#     2   2   2   2   2   2   2   2
#     4  11  23  44  67  97 135 178 222 277 338 401
#     4  11  26  41  65 103 133 173 229 274 336 404
#     4  11  25  44  68  98 136 179 227 274 340 396
#     4  10  21  43  65 100 130 176 221 281 334 398
#     4  11  24  42  67  97 138 172 226 273 335 400
#     4  10  23  42  70  95 135 175 229 276 338 394
#     4  11  23  44  67 100 135 176 225 281 330 403
#     4  11  25  44  68 100 133 176 224 275 340 404
#
# _framework density 22.716203
#
# number of rings (size 3 to 8) (size 9 to 14) (size 15 to 20)
#    0.000    1.250    3.750    2.250    5.250    1.500 
#    0.000    0.000    0.000    0.000    0.000    0.000 
#    0.000    0.000    0.000    0.000    0.000    0.000 
#
# Total GULP energy -198344.408761 kJ/mol
# GULP energy per Si atom -12396.525548 kJ/mol
# Density = 2.266450 g / cm^3
# Si number density = 22.716203 Si / 1000 Ang^3
#
#
#
# Elastic Constant Matrix: (Units=GPa)
#
#
# Indices 1 2 3 4 5 6 
#
# 1 61.8576 -0.9001 7.4499 3.4577 -22.8948 -1.2623
# 2 -0.9001 49.9321 3.2798 4.7893 -9.4978 -2.3478
# 3 7.4499 3.2798 94.1273 -4.0434 -21.1254 0.7579
# 4 3.4577 4.7893 -4.0434 32.0794 4.5623 -6.2621
# 5 -22.8948 -9.4978 -21.1254 4.5623 37.6553 5.9256
# 6 -1.2623 -2.3478 0.7579 -6.2621 5.9256 40.6200
#
#
#
# Elastic Compliance Matrix: (Units=1/GPa)
#
#
# Indices 1 2 3 4 5 6 
#
# 1 0.022426 0.003876 0.001584 -0.005618 0.016558 -0.002390
# 2 0.003876 0.022235 0.000752 -0.005080 0.009116 -0.000721
# 3 0.001584 0.000752 0.012342 -0.000179 0.008316 -0.001378
# 4 -0.005618 -0.005080 -0.000179 0.035202 -0.010075 0.006432
# 5 0.016558 0.009116 0.008316 -0.010075 0.045970 -0.007373
# 6 -0.002390 -0.000721 -0.001378 0.006432 -0.007373 0.026595
#
#
# Mechanical properties :
#
#
# Convention : Reuss Voigt Hill
#
# Bulk Modulus (GPa) = 14.40351 25.06400 19.73376
# Shear Modulus (GPa) = 28.49208 35.14344 31.81776
#
# Velocity S-wave (km/s) = 3.54540 3.93754 3.74660
# Velocity P-wave (km/s) = 4.80772 5.63292 5.23660
#
# Compressibility (1/GPa) = 0.06942751
#
# Stress axis : x y z
#
# Youngs Moduli (GPa) = 44.59199 44.97406 81.02394
#
# Poissons Ratio (x) = -0.17433 -0.12836
# Poissons Ratio (y) = -0.17285 -0.06093
# Poissons Ratio (z) = -0.07064 -0.03382
#
# Static dielectric constant tensor:
#      x y z
#    x 4.397600 0.171900 -0.390150 
#    y 0.171900 4.184560 -0.129180 
#    z -0.390150 -0.129180 4.056500 
# 
# 
# High freq. dielectric constant tensor:
#      x y z
#    x 1.905430 0.008810 -0.014580 
#    y 0.008810 1.906120 -0.007530 
#    z -0.014580 -0.007530 1.880160 
# 
# From -- ./inp_files/214270.got.cif
#   From: 2010.06.25/outbox.cif.g09.slc.cpg/sg2_108_cif.got.tgz:214270.got - 2010.06.27 13:26:56.
