data_PCOD8015911
_publ_section_title
;
Structure prediction by ZEFSAII (Michael W. Deem and Ramdas Pophale) SiO2 
 PCOD8015911
Probable space group: P -1
;
_chemical_formula_sum "Si O2"
_cell_formula_units_Z 14
_cell_length_a 11.998437
_cell_length_b 10.339622
_cell_length_c 15.084997
_cell_angle_alpha 45.453589
_cell_angle_beta 25.160355
_cell_angle_gamma 54.160242
_cell_volume 559.452748
_symmetry_space_group_name_H-M "P -1"
_symmetry_group_IT_number 2
_symmetry_cell_setting 'triclinic'
loop_
_space_group_symop_operation_xyz
x,y,z
-x,-y,-z
loop_
_atom_site_type_symbol
_atom_site_label
_atom_site_fract_x
_atom_site_fract_y
_atom_site_fract_z
Si Si1 0.865910 0.836400 0.554262
Si Si2 0.975763 0.145148 0.769710
Si Si3 0.792803 0.189338 0.515833
Si Si4 0.661181 0.601452 0.500972
Si Si5 0.831899 0.498991 0.989104
Si Si6 0.227386 0.555028 0.132215
Si Si7 0.740265 0.741052 0.185333
O O1 0.675957 0.628535 0.803236
O O2 0.996079 0.855149 0.355515
O O3 0.114424 0.861726 0.429565
O O4 0.697107 0.997610 0.621694
O O5 0.753943 0.271740 0.898324
O O6 0.257499 0.230772 0.568647
O O7 0.890204 0.945757 0.967343
O O8 0.533493 0.294284 0.659037
O O9 0.034984 0.296224 0.232123
O O10 0.384377 0.484037 0.788281
O O11 0.630503 0.699145 0.383057
O O12 0.903302 0.479689 0.383368
O O13 0.680196 0.399220 0.057865
O O14 0.050548 0.390610 0.927381
#
# Coordination Sequence:
#
# PCOD8015911 Si02
#       7
#     2   2   2   2   2   2   2
#     4  10  21  46  64  89 133 167 215 260 306 378
#     4  10  22  41  65  98 127 164 208 260 326 372
#     4  10  24  43  63  96 126 169 222 249 310 382
#     4   9  22  40  69  96 127 159 212 259 326 372
#     4  10  21  43  67  94 128 168 205 266 315 371
#     4   8  20  42  65  96 126 157 212 262 314 375
#     4  11  23  42  64  98 131 164 208 265 313 379
#
# _framework density 25.024455
#
# number of rings (size 3 to 8) (size 9 to 14) (size 15 to 20)
#    0.857    1.429    0.000    1.286    2.000    2.857 
#   15.429    3.571    0.000    0.000    0.000    0.000 
#    0.000    0.000    0.000    0.000    0.000    0.000 
#
# Total GULP energy -173546.145010 kJ/mol
# GULP energy per Si atom -12396.153215 kJ/mol
# Density = 2.496750 g / cm^3
# Si number density = 25.024455 Si / 1000 Ang^3
#
#
#
# Elastic Constant Matrix: (Units=GPa)
#
#
# Indices 1 2 3 4 5 6 
#
# 1 71.3540 25.5760 20.2435 14.5224 13.7458 -9.5020
# 2 25.5760 108.8383 34.7935 0.6303 26.0914 -7.5771
# 3 20.2435 34.7935 123.5120 -2.6346 23.2222 -7.7248
# 4 14.5224 0.6303 -2.6346 31.0464 4.0410 -5.2920
# 5 13.7458 26.0914 23.2222 4.0410 34.8182 3.9528
# 6 -9.5020 -7.5771 -7.7248 -5.2920 3.9528 34.6790
#
#
#
# Elastic Compliance Matrix: (Units=1/GPa)
#
#
# Indices 1 2 3 4 5 6 
#
# 1 0.018043 -0.002606 -0.001479 -0.007464 -0.003694 0.003327
# 2 -0.002606 0.012315 -0.001314 0.002394 -0.007936 0.002954
# 3 -0.001479 -0.001314 0.010007 0.002757 -0.005722 0.002610
# 4 -0.007464 0.002394 0.002757 0.037557 -0.005666 0.005469
# 5 -0.003694 -0.007936 -0.005722 -0.005666 0.041694 -0.009638
# 6 0.003327 0.002954 0.002610 0.005469 -0.009638 0.032907
#
#
# Mechanical properties :
#
#
# Convention : Reuss Voigt Hill
#
# Bulk Modulus (GPa) = 33.82461 51.65892 42.74177
# Shear Modulus (GPa) = 28.87237 34.98147 31.92692
#
# Velocity S-wave (km/s) = 3.40040 3.74289 3.57575
# Velocity P-wave (km/s) = 5.38172 6.27433 5.84509
#
# Compressibility (1/GPa) = 0.02956428
#
# Stress axis : x y z
#
# Youngs Moduli (GPa) = 55.42465 81.20368 99.93211
#
# Poissons Ratio (x) = 0.21165 0.14785
# Poissons Ratio (y) = 0.14446 0.13131
# Poissons Ratio (z) = 0.08200 0.10670
#
# Static dielectric constant tensor:
#      x y z
#    x 4.614090 0.067130 -0.232080 
#    y 0.067130 4.712940 -0.079170 
#    z -0.232080 -0.079170 4.361410 
# 
# 
# High freq. dielectric constant tensor:
#      x y z
#    x 2.013120 0.008840 -0.008580 
#    y 0.008840 2.009000 -0.003180 
#    z -0.008580 -0.003180 1.995890 
# 
# From -- ./inp_files/573368.got.cif
#   From: 2010.06.25/outbox.cif.g09.slc.cpg/sg2_287_cif.got.tgz:573368.got - 2010.06.27 13:26:56.
