data_PCOD8015070
_publ_section_title
;
Structure prediction by ZEFSAII (Michael W. Deem and Ramdas Pophale) SiO2 
 PCOD8015070
Probable space group: P -1
;
_chemical_formula_sum "Si O2"
_cell_formula_units_Z 14
_cell_length_a 14.669931
_cell_length_b 16.347931
_cell_length_c 9.682748
_cell_angle_alpha 37.731700
_cell_angle_beta 37.323311
_cell_angle_gamma 27.663901
_cell_volume 622.012618
_symmetry_space_group_name_H-M "P -1"
_symmetry_group_IT_number 2
_symmetry_cell_setting 'triclinic'
loop_
_space_group_symop_operation_xyz
x,y,z
-x,-y,-z
loop_
_atom_site_type_symbol
_atom_site_label
_atom_site_fract_x
_atom_site_fract_y
_atom_site_fract_z
Si Si1 0.861250 0.532076 0.283251
Si Si2 0.131425 0.831680 0.869651
Si Si3 0.238795 0.782099 0.324240
Si Si4 0.412067 0.668024 0.983911
Si Si5 0.077892 0.235741 0.197778
Si Si6 0.596033 0.192249 0.643121
Si Si7 0.162669 0.513898 0.321402
O O1 0.045480 0.339679 0.239463
O O2 0.648684 0.668783 0.269357
O O3 0.831129 0.472679 0.539713
O O4 0.924726 0.650056 0.072641
O O5 0.206513 0.844590 0.912471
O O6 0.305700 0.760572 0.641611
O O7 0.093662 0.696281 0.095494
O O8 0.912497 0.025038 0.831117
O O9 0.115894 0.746519 0.608151
O O10 0.379573 0.775795 0.270234
O O11 0.368966 0.639464 0.229675
O O12 0.597618 0.665354 0.775529
O O13 0.500000 0.500000 0.000000
O O14 0.292295 0.020422 0.229750
O O15 0.000000 0.500000 0.500000
#
# Coordination Sequence:
#
# PCOD8015070 Si02
#       7
#     2   2   2   2   2   2   2
#     4  11  24  44  67  97 137 181 216 276 339 397
#     4  10  21  43  67  93 134 173 216 276 329 393
#     4  11  24  41  70 102 129 169 226 279 327 390
#     4  10  21  42  65  94 129 173 217 261 328 399
#     4  10  23  42  67  98 134 174 217 276 338 387
#     4  11  24  43  69 101 134 173 227 278 330 394
#     4  11  25  41  66  95 131 176 223 270 331 397
#
# _framework density 22.507581999999999
#
# number of rings (size 3 to 8) (size 9 to 14) (size 15 to 20)
#    0.000    1.429    1.429    4.286    6.000    4.000 
#    2.571    0.714    0.000    0.000    0.000    0.000 
#    0.000    0.000    0.000    0.000    0.000    0.000 
#
# Total GULP energy -173485.760998 kJ/mol
# GULP energy per Si atom -12391.840071 kJ/mol
# Density = 2.245635 g / cm^3
# Si number density = 22.507582 Si / 1000 Ang^3
#
#
#
# Elastic Constant Matrix: (Units=GPa)
#
#
# Indices 1 2 3 4 5 6 
#
# 1 119.1046 34.5008 20.2652 -0.1821 -7.1529 -2.0031
# 2 34.5008 85.5820 22.4564 -7.8237 -0.0753 10.9291
# 3 20.2652 22.4564 100.5211 -11.9865 -5.8571 9.8102
# 4 -0.1821 -7.8237 -11.9865 38.2675 7.0640 -0.9188
# 5 -7.1529 -0.0753 -5.8571 7.0640 37.9533 7.8122
# 6 -2.0031 10.9291 9.8102 -0.9188 7.8122 23.3622
#
#
#
# Elastic Compliance Matrix: (Units=1/GPa)
#
#
# Indices 1 2 3 4 5 6 
#
# 1 0.009968 -0.004136 -0.001464 -0.001429 0.001312 0.002909
# 2 -0.004136 0.014809 -0.001562 0.002380 -0.000096 -0.006501
# 3 -0.001464 -0.001562 0.011506 0.002802 0.001957 -0.004771
# 4 -0.001429 0.002380 0.002802 0.028464 -0.005223 0.000454
# 5 0.001312 -0.000096 0.001957 -0.005223 0.030122 -0.010942
# 6 0.002909 -0.006501 -0.004771 0.000454 -0.010942 0.051775
#
#
# Mechanical properties :
#
#
# Convention : Reuss Voigt Hill
#
# Bulk Modulus (GPa) = 45.53421 51.07250 48.30336
# Shear Modulus (GPa) = 29.71101 35.11561 32.41331
#
# Velocity S-wave (km/s) = 3.63718 3.95418 3.79899
# Velocity P-wave (km/s) = 6.15738 6.60211 6.38362
#
# Compressibility (1/GPa) = 0.02196151
#
# Stress axis : x y z
#
# Youngs Moduli (GPa) = 100.31642 67.52446 86.91200
#
# Poissons Ratio (x) = 0.27925 0.12721
# Poissons Ratio (y) = 0.41486 0.13576
# Poissons Ratio (z) = 0.14683 0.10547
#
# Static dielectric constant tensor:
#      x y z
#    x 4.220820 -0.257710 -0.006890 
#    y -0.257710 4.191310 0.103670 
#    z -0.006890 0.103670 4.468230 
# 
# 
# High freq. dielectric constant tensor:
#      x y z
#    x 1.875390 -0.009170 0.002560 
#    y -0.009170 1.882480 0.007740 
#    z 0.002560 0.007740 1.902840 
# 
# From -- ./inp_files/279236.got.cif
#   From: 2010.06.25/outbox.cif.g09.slc.cpg/sg2_140_cif.got.tgz:279236.got - 2010.06.27 13:26:56.
