data_PCOD8015530
_publ_section_title
;
Structure prediction by ZEFSAII (Michael W. Deem and Ramdas Pophale) SiO2 
 PCOD8015530
Probable space group: P -1
;
_chemical_formula_sum "Si O2"
_cell_formula_units_Z 14
_cell_length_a 18.868640
_cell_length_b 15.490234
_cell_length_c 9.265006
_cell_angle_alpha 43.430703
_cell_angle_beta 42.600802
_cell_angle_gamma 20.076990
_cell_volume 622.116308
_symmetry_space_group_name_H-M "P -1"
_symmetry_group_IT_number 2
_symmetry_cell_setting 'triclinic'
loop_
_space_group_symop_operation_xyz
x,y,z
-x,-y,-z
loop_
_atom_site_type_symbol
_atom_site_label
_atom_site_fract_x
_atom_site_fract_y
_atom_site_fract_z
Si Si1 0.919422 0.284417 0.703676
Si Si2 0.274163 0.331071 0.690428
Si Si3 0.320708 0.007603 0.356953
Si Si4 0.295507 0.699516 0.162378
Si Si5 0.037602 0.537253 0.064354
Si Si6 0.598950 0.510863 0.425910
Si Si7 0.046230 0.753661 0.977236
O O1 0.767727 0.542818 0.540912
O O2 0.887114 0.186954 0.787572
O O3 0.164258 0.073408 0.592058
O O4 0.850815 0.342481 0.902243
O O5 0.202669 0.261755 0.847697
O O6 0.521257 0.088732 0.650578
O O7 0.127756 0.528473 0.807501
O O8 0.188987 0.256635 0.179723
O O9 0.448953 0.791629 0.308053
O O10 0.358968 0.566206 0.377039
O O11 0.500000 0.500000 0.000000
O O12 0.192345 0.943353 0.046008
O O13 0.038258 0.614855 0.116110
O O14 0.500000 0.500000 0.500000
O O15 0.817433 0.311618 0.262027
#
# Coordination Sequence:
#
# PCOD8015530 Si02
#       7
#     2   2   2   2   2   2   2
#     4  11  24  44  68  99 136 182 224 278 343 404
#     4  10  21  42  70  94 139 183 222 270 343 404
#     4  11  22  44  74  95 142 179 225 272 348 408
#     4  12  25  47  71  96 139 185 221 281 354 398
#     4  10  23  42  69 104 131 182 228 282 332 400
#     4  12  25  43  71 106 132 176 231 283 335 402
#     4  12  25  43  67 104 140 169 237 285 322 411
#
# _framework density 22.503831999999999
#
# number of rings (size 3 to 8) (size 9 to 14) (size 15 to 20)
#    0.000    0.857    2.857    3.857    0.000    5.714 
#    2.571    1.429    0.000    0.000    0.000    0.000 
#    0.000    0.000    0.000    0.000    0.000    0.000 
#
# Total GULP energy -173578.822958 kJ/mol
# GULP energy per Si atom -12398.487354 kJ/mol
# Density = 2.245261 g / cm^3
# Si number density = 22.503832 Si / 1000 Ang^3
#
#
#
# Elastic Constant Matrix: (Units=GPa)
#
#
# Indices 1 2 3 4 5 6 
#
# 1 170.9734 58.5382 45.9481 3.0630 1.2053 -6.6775
# 2 58.5382 110.9378 49.9480 6.2685 -8.0434 3.7169
# 3 45.9481 49.9480 117.6341 11.6554 15.6428 2.3738
# 4 3.0630 6.2685 11.6554 34.0222 -0.1022 -12.7377
# 5 1.2053 -8.0434 15.6428 -0.1022 38.6187 6.2602
# 6 -6.6775 3.7169 2.3738 -12.7377 6.2602 46.9082
#
#
#
# Elastic Compliance Matrix: (Units=1/GPa)
#
#
# Indices 1 2 3 4 5 6 
#
# 1 0.007492 -0.003431 -0.001539 0.001162 -0.000616 0.001814
# 2 -0.003431 0.013603 -0.004960 -0.001382 0.005335 -0.002403
# 3 -0.001539 -0.004960 0.012343 -0.003415 -0.005898 -0.000591
# 4 0.001162 -0.001382 -0.003415 0.034398 -0.000446 0.009848
# 5 -0.000616 0.005335 -0.005898 -0.000446 0.030118 -0.004353
# 6 0.001814 -0.002403 -0.000591 0.009848 -0.004353 0.025052
#
#
# Mechanical properties :
#
#
# Convention : Reuss Voigt Hill
#
# Bulk Modulus (GPa) = 73.65396 78.71266 76.18331
# Shear Modulus (GPa) = 33.92337 40.25055 37.08696
#
# Velocity S-wave (km/s) = 3.88680 4.23378 4.06400
# Velocity P-wave (km/s) = 7.27623 7.67810 7.47987
#
# Compressibility (1/GPa) = 0.01357700
#
# Stress axis : x y z
#
# Youngs Moduli (GPa) = 133.48155 73.51306 81.02013
#
# Poissons Ratio (x) = 0.25224 0.12471
# Poissons Ratio (y) = 0.45800 0.40184
# Poissons Ratio (z) = 0.20546 0.36460
#
# Static dielectric constant tensor:
#      x y z
#    x 4.386460 -0.122080 -0.182140 
#    y -0.122080 3.892020 0.094250 
#    z -0.182140 0.094250 4.116360 
# 
# 
# High freq. dielectric constant tensor:
#      x y z
#    x 1.901750 -0.013210 -0.007070 
#    y -0.013210 1.870460 0.001610 
#    z -0.007070 0.001610 1.893640 
# 
# From -- ./inp_files/172012.got.cif
#   From: 2010.06.25/outbox.cif.g09.slc.cpg/sg2_87_cif.got.tgz:172012.got - 2010.06.27 13:26:56.
