data_PCOD8015578
_publ_section_title
;
Structure prediction by ZEFSAII (Michael W. Deem and Ramdas Pophale) SiO2 
 PCOD8015578
Probable space group: P -1
;
_chemical_formula_sum "Si O2"
_cell_formula_units_Z 16
_cell_length_a 14.634938
_cell_length_b 14.114687
_cell_length_c 14.423653
_cell_angle_alpha 42.863765
_cell_angle_beta 138.062374
_cell_angle_gamma 160.019225
_cell_volume 672.887001
_symmetry_space_group_name_H-M "P -1"
_symmetry_group_IT_number 2
_symmetry_cell_setting 'triclinic'
loop_
_space_group_symop_operation_xyz
x,y,z
-x,-y,-z
loop_
_atom_site_type_symbol
_atom_site_label
_atom_site_fract_x
_atom_site_fract_y
_atom_site_fract_z
Si Si1 0.515317 0.744630 0.262114
Si Si2 0.575343 0.415571 0.005845
Si Si3 0.061871 0.712381 0.910138
Si Si4 0.256114 0.145349 0.126221
Si Si5 0.977766 0.386071 0.845518
Si Si6 0.230492 0.058543 0.369014
Si Si7 0.607010 0.004920 0.318524
Si Si8 0.335438 0.325406 0.718384
O O1 0.559936 0.828983 0.342133
O O2 0.663989 0.734610 0.344237
O O3 0.192295 0.430540 0.225993
O O4 0.645498 0.986346 0.127640
O O5 0.390020 0.179006 0.116630
O O6 0.872699 0.603215 0.109894
O O7 0.550615 0.559090 0.902484
O O8 0.458603 0.307879 0.889432
O O9 0.000000 0.500000 0.000000
O O10 0.073421 0.742770 0.006506
O O11 0.198729 0.996943 0.278800
O O12 0.000000 0.000000 0.000000
O O13 0.680797 0.177602 0.737112
O O14 0.190038 0.703726 0.784999
O O15 0.250081 0.927541 0.529235
O O16 0.504026 0.387794 0.361668
O O17 0.976888 0.926154 0.307461
#
# Coordination Sequence:
#
# PCOD8015578 Si02
#       8
#     2   2   2   2   2   2   2   2
#     4  12  23  37  62  96 128 168 217 261 313 360
#     4  10  23  39  66 104 121 151 212 276 329 361
#     4  12  21  36  59  92 127 168 216 259 304 360
#     4  10  21  42  71  95 120 157 207 279 328 364
#     4  12  25  40  66  94 133 169 212 261 311 379
#     4  11  25  44  64  92 131 170 214 257 320 386
#     4  12  26  43  60  91 138 183 206 244 314 388
#     4  11  23  39  67  96 124 165 215 275 311 362
#
# _framework density 23.778137999999998
#
# number of rings (size 3 to 8) (size 9 to 14) (size 15 to 20)
#    0.000    0.750    5.000    2.625    3.500    1.000 
#    0.000    1.250    0.000    0.000    0.000    0.000 
#    0.000    0.000    0.000    0.000    0.000    0.000 
#
# Total GULP energy -198235.184594 kJ/mol
# GULP energy per Si atom -12389.699037 kJ/mol
# Density = 2.372402 g / cm^3
# Si number density = 23.778138 Si / 1000 Ang^3
#
#
#
# Elastic Constant Matrix: (Units=GPa)
#
#
# Indices 1 2 3 4 5 6 
#
# 1 74.2220 -4.3308 18.1487 7.4974 -5.8193 35.1888
# 2 -4.3308 71.9942 19.4847 5.8290 2.4632 20.0627
# 3 18.1487 19.4847 100.8944 16.3042 -18.9988 13.9271
# 4 7.4974 5.8290 16.3042 29.2408 0.0308 10.9080
# 5 -5.8193 2.4632 -18.9988 0.0308 28.2543 -1.9962
# 6 35.1888 20.0627 13.9271 10.9080 -1.9962 33.4984
#
#
#
# Elastic Compliance Matrix: (Units=1/GPa)
#
#
# Indices 1 2 3 4 5 6 
#
# 1 0.040657 0.018241 -0.004814 0.008983 -0.000319 -0.054576
# 2 0.018241 0.025730 -0.005300 0.006065 -0.004502 -0.034611
# 3 -0.004814 -0.005300 0.014025 -0.007559 0.009292 0.005416
# 4 0.008983 0.006065 -0.007559 0.044089 -0.005549 -0.024614
# 5 -0.000319 -0.004502 0.009292 -0.005549 0.042220 0.003491
# 6 -0.054576 -0.034611 0.005416 -0.024614 0.003491 0.113882
#
#
# Mechanical properties :
#
#
# Convention : Reuss Voigt Hill
#
# Bulk Modulus (GPa) = 10.34516 34.85734 22.60125
# Shear Modulus (GPa) = 16.85935 32.45256 24.65595
#
# Velocity S-wave (km/s) = 2.66565 3.69834 3.22361
# Velocity P-wave (km/s) = 3.71946 5.73831 4.83542
#
# Compressibility (1/GPa) = 0.09666355
#
# Stress axis : x y z
#
# Youngs Moduli (GPa) = 24.59621 38.86532 71.30357
#
# Poissons Ratio (x) = -0.70894 0.34327
# Poissons Ratio (y) = -0.44866 0.37794
# Poissons Ratio (z) = 0.11841 0.20600
#
# Static dielectric constant tensor:
#      x y z
#    x 3.483760 0.927100 -0.301920 
#    y 0.927100 4.002000 -0.074000 
#    z -0.301920 -0.074000 4.034000 
# 
# 
# High freq. dielectric constant tensor:
#      x y z
#    x 1.945410 0.014630 -0.007910 
#    y 0.014630 1.951820 -0.003690 
#    z -0.007910 -0.003690 1.910220 
# 
# From -- ./inp_files/483878.got.cif
#   From: 2010.06.25/outbox.cif.g09.slc.cpg/sg2_242_cif.got.tgz:483878.got - 2010.06.27 13:26:56.
