data_PCOD8015643
_publ_section_title
;
Structure prediction by ZEFSAII (Michael W. Deem and Ramdas Pophale) SiO2 
 PCOD8015643
Probable space group: P -1
;
_chemical_formula_sum "Si O2"
_cell_formula_units_Z 14
_cell_length_a 8.219738
_cell_length_b 8.288451
_cell_length_c 10.894805
_cell_angle_alpha 60.208894
_cell_angle_beta 71.569117
_cell_angle_gamma 55.872631
_cell_volume 532.504604
_symmetry_space_group_name_H-M "P -1"
_symmetry_group_IT_number 2
_symmetry_cell_setting 'triclinic'
loop_
_space_group_symop_operation_xyz
x,y,z
-x,-y,-z
loop_
_atom_site_type_symbol
_atom_site_label
_atom_site_fract_x
_atom_site_fract_y
_atom_site_fract_z
Si Si1 0.642544 0.568418 0.381081
Si Si2 0.932777 0.821171 0.572976
Si Si3 0.949814 0.826164 0.927661
Si Si4 0.354130 0.300476 0.203161
Si Si5 0.280239 0.101832 0.657605
Si Si6 0.886051 0.246760 0.830297
Si Si7 0.728623 0.579666 0.094903
O O1 0.500000 0.500000 0.500000
O O2 0.594210 0.781675 0.385657
O O3 0.589709 0.608163 0.232730
O O4 0.871413 0.400752 0.411548
O O5 0.799192 0.796365 0.723655
O O6 0.783129 0.877641 0.474984
O O7 0.000000 0.000000 0.500000
O O8 0.089440 0.666391 0.847748
O O9 0.837865 0.081319 0.826094
O O10 0.802237 0.749070 0.039926
O O11 0.099458 0.803570 0.009439
O O12 0.275575 0.503656 0.237996
O O13 0.574190 0.146402 0.254557
O O14 0.375880 0.364579 0.033638
O O15 0.093705 0.210204 0.748484
#
# Coordination Sequence:
#
# PCOD8015643 Si02
#       7
#     2   2   2   2   2   2   2
#     4  12  26  50  79 116 155 206 261 317 392 463
#     4  12  27  50  78 108 156 211 258 323 387 453
#     4   9  18  40  73 110 149 200 249 312 388 454
#     4  11  25  48  78 112 158 201 255 321 382 461
#     4  12  26  49  75 114 159 204 258 316 386 465
#     4  10  21  42  73 108 152 202 252 312 387 446
#     4  10  21  44  78 112 155 194 260 319 381 461
#
# _framework density 26.290849999999999
#
# number of rings (size 3 to 8) (size 9 to 14) (size 15 to 20)
#    0.000    1.143    2.857    3.429    4.000    0.571 
#    0.000    7.857    0.000    0.000    0.000    0.000 
#    0.000    0.000    0.000    0.000    0.000    0.000 
#
# Total GULP energy -173505.382821 kJ/mol
# GULP energy per Si atom -12393.241630 kJ/mol
# Density = 2.623101 g / cm^3
# Si number density = 26.290850 Si / 1000 Ang^3
#
#
#
# Elastic Constant Matrix: (Units=GPa)
#
#
# Indices 1 2 3 4 5 6 
#
# 1 69.3000 50.5148 55.9331 4.4023 -2.6856 11.3386
# 2 50.5148 156.0908 55.8942 -23.2095 1.0610 9.4750
# 3 55.9331 55.8942 136.1088 13.0589 -10.8582 -5.0130
# 4 4.4023 -23.2095 13.0589 40.2423 -2.5206 -3.6201
# 5 -2.6856 1.0610 -10.8582 -2.5206 39.8459 -19.2519
# 6 11.3386 9.4750 -5.0130 -3.6201 -19.2519 50.3707
#
#
#
# Elastic Compliance Matrix: (Units=1/GPa)
#
#
# Indices 1 2 3 4 5 6 
#
# 1 0.027425 -0.005706 -0.009185 -0.004336 -0.004701 -0.008123
# 2 -0.005706 0.010413 -0.002787 0.007358 -0.001423 -0.000967
# 3 -0.009185 -0.002787 0.013315 -0.004052 0.005616 0.005772
# 4 -0.004336 0.007358 -0.004052 0.031138 0.001308 0.001926
# 5 -0.004701 -0.001423 0.005616 0.001308 0.033590 0.014817
# 6 -0.008123 -0.000967 0.005772 0.001926 0.014817 0.028239
#
#
# Mechanical properties :
#
#
# Convention : Reuss Voigt Hill
#
# Bulk Modulus (GPa) = 63.29788 76.24265 69.77027
# Shear Modulus (GPa) = 27.06469 39.36893 33.21681
#
# Velocity S-wave (km/s) = 3.21196 3.87387 3.55834
# Velocity P-wave (km/s) = 6.15499 7.00513 6.59377
#
# Compressibility (1/GPa) = 0.01579832
#
# Stress axis : x y z
#
# Youngs Moduli (GPa) = 36.46311 96.02975 75.10063
#
# Poissons Ratio (x) = 0.54794 0.68982
# Poissons Ratio (y) = 0.20806 0.20928
# Poissons Ratio (z) = 0.33492 0.26760
#
# Static dielectric constant tensor:
#      x y z
#    x 4.500500 0.229680 -0.098840 
#    y 0.229680 5.177950 -0.181810 
#    z -0.098840 -0.181810 4.898010 
# 
# 
# High freq. dielectric constant tensor:
#      x y z
#    x 2.039340 0.014310 -0.004810 
#    y 0.014310 2.066450 -0.005480 
#    z -0.004810 -0.005480 2.053670 
# 
# From -- ./inp_files/381282.got.cif
#   From: 2010.06.25/outbox.cif.g09.slc.cpg/sg2_191_cif.got.tgz:381282.got - 2010.06.27 13:26:56.
