data_PCOD8015992
_publ_section_title
;
Structure prediction by ZEFSAII (Michael W. Deem and Ramdas Pophale) SiO2 
 PCOD8015992
Probable space group: P -1
;
_chemical_formula_sum "Si O2"
_cell_formula_units_Z 16
_cell_length_a 9.182227
_cell_length_b 25.223549
_cell_length_c 8.375629
_cell_angle_alpha 40.438716
_cell_angle_beta 106.411928
_cell_angle_gamma 135.476415
_cell_volume 723.796215
_symmetry_space_group_name_H-M "P -1"
_symmetry_group_IT_number 2
_symmetry_cell_setting 'triclinic'
loop_
_space_group_symop_operation_xyz
x,y,z
-x,-y,-z
loop_
_atom_site_type_symbol
_atom_site_label
_atom_site_fract_x
_atom_site_fract_y
_atom_site_fract_z
Si Si1 0.215473 0.639933 0.493257
Si Si2 0.599506 0.692806 0.347684
Si Si3 0.690462 0.569475 0.540738
Si Si4 0.734608 0.114991 0.528456
Si Si5 0.782340 0.189660 0.020133
Si Si6 0.917708 0.050159 0.931124
Si Si7 0.389397 0.788821 0.519372
Si Si8 0.653994 0.377980 0.903043
O O1 0.421984 0.656623 0.510020
O O2 0.202762 0.670505 0.599223
O O3 0.948817 0.486305 0.708407
O O4 0.296438 0.748238 0.149368
O O5 0.607030 0.597092 0.590007
O O6 0.503128 0.676223 0.181444
O O7 0.885788 0.846468 0.104329
O O8 0.500000 0.500000 0.500000
O O9 0.661936 0.462170 0.827106
O O10 0.972087 0.714007 0.236061
O O11 0.842926 0.189250 0.220490
O O12 0.914944 0.119453 0.635450
O O13 0.753307 0.198885 0.464272
O O14 0.441799 0.961796 0.774583
O O15 0.639136 0.930074 0.191048
O O16 0.000000 0.000000 0.000000
O O17 0.470928 0.752381 0.749142
#
# Coordination Sequence:
#
# PCOD8015992 Si02
#       8
#     2   2   2   2   2   2   2   2
#     4  11  22  43  67  92 133 165 214 269 311 376
#     4  11  22  42  67  93 129 176 207 261 328 376
#     4   9  21  40  65  93 127 164 209 263 313 374
#     4  11  24  40  69  96 122 171 217 264 318 379
#     4  10  21  43  68  94 124 166 222 263 311 381
#     4  12  25  42  64  95 139 161 204 270 329 377
#     4  12  24  41  66  98 128 168 214 266 320 376
#     4  10  24  42  67  92 126 173 224 257 308 382
#
# _framework density 22.10567
#
# number of rings (size 3 to 8) (size 9 to 14) (size 15 to 20)
#    0.000    1.250    2.500    2.625    3.500    5.500 
#    0.000    0.625    0.000    0.000    0.000    0.000 
#    0.000    0.000    0.000    0.000    0.000    0.000 
#
# Total GULP energy -198354.833265 kJ/mol
# GULP energy per Si atom -12397.177079 kJ/mol
# Density = 2.205536 g / cm^3
# Si number density = 22.105670 Si / 1000 Ang^3
#
#
#
# Elastic Constant Matrix: (Units=GPa)
#
#
# Indices 1 2 3 4 5 6 
#
# 1 150.5767 38.1796 26.1985 7.0623 29.7825 -14.9339
# 2 38.1796 119.6296 21.7179 -2.7878 6.2387 -0.8478
# 3 26.1985 21.7179 51.3136 10.5749 20.4520 -5.1298
# 4 7.0623 -2.7878 10.5749 32.8132 4.6080 0.9883
# 5 29.7825 6.2387 20.4520 4.6080 25.4564 -8.8707
# 6 -14.9339 -0.8478 -5.1298 0.9883 -8.8707 35.4024
#
#
#
# Elastic Compliance Matrix: (Units=1/GPa)
#
#
# Indices 1 2 3 4 5 6 
#
# 1 0.009398 -0.002620 0.000775 -0.001098 -0.010264 0.001473
# 2 -0.002620 0.009957 -0.005052 0.002496 0.004000 -0.000666
# 3 0.000775 -0.005052 0.032592 -0.007575 -0.024862 -0.001090
# 4 -0.001098 0.002496 -0.007575 0.033462 -0.000161 -0.002476
# 5 -0.010264 0.004000 -0.024862 -0.000161 0.074051 0.010723
# 6 0.001473 -0.000666 -0.001090 -0.002476 0.010723 0.031450
#
#
# Mechanical properties :
#
#
# Convention : Reuss Voigt Hill
#
# Bulk Modulus (GPa) = 26.20987 54.85688 40.53338
# Shear Modulus (GPa) = 22.99674 34.42934 28.71304
#
# Velocity S-wave (km/s) = 3.22888 3.95078 3.60793
# Velocity P-wave (km/s) = 5.07772 6.75879 5.97765
#
# Compressibility (1/GPa) = 0.03815357
#
# Stress axis : x y z
#
# Youngs Moduli (GPa) = 106.40224 100.42878 30.68258
#
# Poissons Ratio (x) = 0.26313 -0.02378
# Poissons Ratio (y) = 0.27878 0.15500
# Poissons Ratio (z) = -0.08246 0.50735
#
# Static dielectric constant tensor:
#      x y z
#    x 3.900170 0.169420 0.258270 
#    y 0.169420 4.023470 -0.144170 
#    z 0.258270 -0.144170 3.994580 
# 
# 
# High freq. dielectric constant tensor:
#      x y z
#    x 1.879990 0.006600 0.019700 
#    y 0.006600 1.877730 -0.018130 
#    z 0.019700 -0.018130 1.851950 
# 
# From -- ./inp_files/225983.got.cif
#   From: 2010.06.25/outbox.cif.g09.slc.cpg/sg2_113_cif.got.tgz:225983.got - 2010.06.27 13:26:56.
