data_PCOD8015050
_publ_section_title
;
Structure prediction by ZEFSAII (Michael W. Deem and Ramdas Pophale) SiO2 
 PCOD8015050
Probable space group: P -1
;
_chemical_formula_sum "Si O2"
_cell_formula_units_Z 16
_cell_length_a 14.265987
_cell_length_b 8.487801
_cell_length_c 6.953533
_cell_angle_alpha 80.970995
_cell_angle_beta 69.916315
_cell_angle_gamma 98.495043
_cell_volume 762.311484
_symmetry_space_group_name_H-M "P -1"
_symmetry_group_IT_number 2
_symmetry_cell_setting 'triclinic'
loop_
_space_group_symop_operation_xyz
x,y,z
-x,-y,-z
loop_
_atom_site_type_symbol
_atom_site_label
_atom_site_fract_x
_atom_site_fract_y
_atom_site_fract_z
Si Si1 0.732075 0.192011 0.146751
Si Si2 0.892717 0.794562 0.273005
Si Si3 0.536828 0.323713 0.173034
Si Si4 0.113560 0.961125 0.095965
Si Si5 0.593034 0.684387 0.092965
Si Si6 0.182454 0.259290 0.241784
Si Si7 0.883825 0.515504 0.046222
Si Si8 0.587927 0.903441 0.424158
O O1 0.629674 0.231628 0.125585
O O2 0.807746 0.340941 0.171094
O O3 0.792980 0.131149 0.938581
O O4 0.695031 0.036236 0.347485
O O5 0.879772 0.957590 0.138096
O O6 0.826613 0.756604 0.519670
O O7 0.852431 0.637805 0.198667
O O8 0.013039 0.818782 0.225644
O O9 0.504369 0.326482 0.974824
O O10 0.432982 0.236539 0.373685
O O11 0.579221 0.498412 0.212737
O O12 0.114142 0.094006 0.234170
O O13 0.700765 0.730044 0.899568
O O14 0.586704 0.815663 0.235306
O O15 0.137804 0.413175 0.163089
O O16 0.000000 0.500000 0.000000
O O17 0.500000 0.000000 0.500000
#
# Coordination Sequence:
#
# PCOD8015050 Si02
#       8
#     2   2   2   2   2   2   2   2
#     4  11  21  42  63  92 129 170 205 264 318 366
#     4  10  23  41  66  94 126 173 217 254 322 379
#     4  10  24  42  65  93 125 165 216 260 322 376
#     4  10  21  42  65  90 133 164 213 270 309 378
#     4  11  22  43  66  92 128 164 210 269 315 383
#     4  11  23  41  67  94 126 171 214 258 323 381
#     4  11  23  43  64  91 135 170 209 265 311 376
#     4  10  23  42  65  91 125 167 213 262 317 375
#
# _framework density 20.988793999999999
#
# number of rings (size 3 to 8) (size 9 to 14) (size 15 to 20)
#    0.000    1.500    3.750    0.750    1.750    2.500 
#    9.000    1.250    0.000    0.000    0.000    0.000 
#    0.000    0.000    0.000    0.000    0.000    0.000 
#
# Total GULP energy -198281.089035 kJ/mol
# GULP energy per Si atom -12392.568065 kJ/mol
# Density = 2.094102 g / cm^3
# Si number density = 20.988794 Si / 1000 Ang^3
#
#
#
# Elastic Constant Matrix: (Units=GPa)
#
#
# Indices 1 2 3 4 5 6 
#
# 1 86.2712 22.2024 17.5269 2.4821 -16.8427 -2.1770
# 2 22.2024 129.4712 47.5961 -2.6962 -15.5361 23.2534
# 3 17.5269 47.5961 105.6367 1.7266 -10.0819 -4.8225
# 4 2.4821 -2.6962 1.7266 22.5304 2.7723 -10.2492
# 5 -16.8427 -15.5361 -10.0819 2.7723 28.4248 2.3044
# 6 -2.1770 23.2534 -4.8225 -10.2492 2.3044 34.1261
#
#
#
# Elastic Compliance Matrix: (Units=1/GPa)
#
#
# Indices 1 2 3 4 5 6 
#
# 1 0.013589 -0.001231 -0.000955 -0.002280 0.007231 0.000397
# 2 -0.001231 0.012361 -0.005284 -0.003488 0.005357 -0.010657
# 3 -0.000955 -0.005284 0.012276 0.001016 0.000351 0.005556
# 4 -0.002280 -0.003488 0.001016 0.054111 -0.009738 0.019283
# 5 0.007231 0.005357 0.000351 -0.009738 0.044201 -0.009049
# 6 0.000397 -0.010657 0.005556 0.019283 -0.009049 0.043778
#
#
# Mechanical properties :
#
#
# Convention : Reuss Voigt Hill
#
# Bulk Modulus (GPa) = 42.93890 55.11440 49.02665
# Shear Modulus (GPa) = 24.62839 32.61983 28.62411
#
# Velocity S-wave (km/s) = 3.42922 3.94655 3.69695
# Velocity P-wave (km/s) = 6.01513 6.86171 6.45232
#
# Compressibility (1/GPa) = 0.02328891
#
# Stress axis : x y z
#
# Youngs Moduli (GPa) = 73.58694 80.89648 81.45993
#
# Poissons Ratio (x) = 0.09955 0.07777
# Poissons Ratio (y) = 0.09055 0.43041
# Poissons Ratio (z) = 0.07025 0.42743
#
# Static dielectric constant tensor:
#      x y z
#    x 3.840760 0.081580 -0.203230 
#    y 0.081580 4.223240 -0.272190 
#    z -0.203230 -0.272190 3.758990 
# 
# 
# High freq. dielectric constant tensor:
#      x y z
#    x 1.827220 0.004580 -0.021230 
#    y 0.004580 1.842540 -0.005500 
#    z -0.021230 -0.005500 1.796540 
# 
# From -- ./inp_files/83108.got.cif
#   From: 2010.06.25/outbox.cif.g09.slc.cpg/sg2_42_cif.got.tgz:83108.got - 2010.06.27 13:26:56.
