data_PCOD8015475
_publ_section_title
;
Structure prediction by ZEFSAII (Michael W. Deem and Ramdas Pophale) SiO2 
 PCOD8015475
Probable space group: P -1
;
_chemical_formula_sum "Si O2"
_cell_formula_units_Z 16
_cell_length_a 8.739860
_cell_length_b 11.150923
_cell_length_c 11.582236
_cell_angle_alpha 66.865168
_cell_angle_beta 116.785504
_cell_angle_gamma 72.334986
_cell_volume 751.297737
_symmetry_space_group_name_H-M "P -1"
_symmetry_group_IT_number 2
_symmetry_cell_setting 'triclinic'
loop_
_space_group_symop_operation_xyz
x,y,z
-x,-y,-z
loop_
_atom_site_type_symbol
_atom_site_label
_atom_site_fract_x
_atom_site_fract_y
_atom_site_fract_z
Si Si1 0.882092 0.241347 0.228917
Si Si2 0.295171 0.703035 0.604283
Si Si3 0.780424 0.081387 0.086547
Si Si4 0.555757 0.997702 0.200370
Si Si5 0.059212 0.326772 0.611418
Si Si6 0.912546 0.806113 0.095065
Si Si7 0.724224 0.376842 0.890359
Si Si8 0.337172 0.985063 0.521530
O O1 0.734569 0.308993 0.264900
O O2 0.892516 0.090733 0.234944
O O3 0.792286 0.379877 0.046145
O O4 0.121548 0.165501 0.374975
O O5 0.527961 0.545500 0.713272
O O6 0.301242 0.852889 0.513938
O O7 0.117822 0.701187 0.475356
O O8 0.599557 0.063518 0.075343
O O9 0.956767 0.925028 0.130204
O O10 0.669737 0.246446 0.913491
O O11 0.588659 0.064230 0.303238
O O12 0.718877 0.803377 0.327757
O O13 0.312651 0.065148 0.090425
O O14 0.088919 0.306846 0.767174
O O15 0.000000 0.500000 0.500000
O O16 0.076653 0.687668 0.099861
O O17 0.500000 0.000000 0.500000
#
# Coordination Sequence:
#
# PCOD8015475 Si02
#       8
#     2   2   2   2   2   2   2   2
#     4  10  21  42  69  95 126 177 228 264 325 402
#     4  12  24  45  69  96 138 173 225 272 334 396
#     4   9  20  39  69  89 123 178 224 263 319 394
#     4  11  22  42  68  93 129 178 227 269 316 407
#     4  11  26  43  70 101 132 175 221 280 331 394
#     4  11  23  43  63  98 133 174 225 269 329 394
#     4  10  24  40  65  99 131 174 213 280 334 386
#     4  12  23  41  66 102 133 172 223 275 332 387
#
# _framework density 21.296484
#
# number of rings (size 3 to 8) (size 9 to 14) (size 15 to 20)
#    0.750    0.500    2.500    4.875    3.500    1.500 
#    2.250    1.250    0.000    0.000    0.000    0.000 
#    0.000    0.000    0.000    0.000    0.000    0.000 
#
# Total GULP energy -198233.073757 kJ/mol
# GULP energy per Si atom -12389.567110 kJ/mol
# Density = 2.124801 g / cm^3
# Si number density = 21.296484 Si / 1000 Ang^3
#
#
#
# Elastic Constant Matrix: (Units=GPa)
#
#
# Indices 1 2 3 4 5 6 
#
# 1 99.9286 48.3375 38.2988 -10.7111 8.1778 -10.9356
# 2 48.3375 75.4781 38.6858 -11.3141 7.5502 -4.4379
# 3 38.2988 38.6858 103.8323 -15.7266 15.8231 -3.1097
# 4 -10.7111 -11.3141 -15.7266 39.9767 -0.9754 0.6926
# 5 8.1778 7.5502 15.8231 -0.9754 37.0716 -9.4868
# 6 -10.9356 -4.4379 -3.1097 0.6926 -9.4868 40.9838
#
#
#
# Elastic Compliance Matrix: (Units=1/GPa)
#
#
# Indices 1 2 3 4 5 6 
#
# 1 0.015351 -0.008336 -0.002366 0.000773 0.000117 0.003028
# 2 -0.008336 0.021200 -0.004434 0.002014 -0.000648 -0.000449
# 3 -0.002366 -0.004434 0.013294 0.003252 -0.004469 -0.001192
# 4 0.000773 0.002014 0.003252 0.027042 -0.001278 -0.000082
# 5 0.000117 -0.000648 -0.004469 -0.001278 0.030681 0.006745
# 6 0.003028 -0.000449 -0.001192 -0.000082 0.006745 0.026631
#
#
# Mechanical properties :
#
#
# Convention : Reuss Voigt Hill
#
# Bulk Modulus (GPa) = 51.09111 58.87593 54.98352
# Shear Modulus (GPa) = 29.24066 33.86754 31.55410
#
# Velocity S-wave (km/s) = 3.70946 3.99217 3.85341
# Velocity P-wave (km/s) = 6.51070 6.99684 6.75814
#
# Compressibility (1/GPa) = 0.01957288
#
# Stress axis : x y z
#
# Youngs Moduli (GPa) = 65.14217 47.16954 75.22468
#
# Poissons Ratio (x) = 0.39320 0.17801
# Poissons Ratio (y) = 0.54302 0.33351
# Poissons Ratio (z) = 0.15416 0.20913
#
# Static dielectric constant tensor:
#      x y z
#    x 3.586100 -0.082800 0.002350 
#    y -0.082800 3.826130 0.108480 
#    z 0.002350 0.108480 3.787120 
# 
# 
# High freq. dielectric constant tensor:
#      x y z
#    x 1.818140 -0.009200 0.002540 
#    y -0.009200 1.829500 0.005710 
#    z 0.002540 0.005710 1.840250 
# 
# From -- ./inp_files/389789.got.cif
#   From: 2010.06.25/outbox.cif.g09.slc.cpg/sg2_195_cif.got.tgz:389789.got - 2010.06.27 13:26:56.
