data_PCOD8015720
_publ_section_title
;
Structure prediction by ZEFSAII (Michael W. Deem and Ramdas Pophale) SiO2 
 PCOD8015720
Probable space group: P -1
;
_chemical_formula_sum "Si O2"
_cell_formula_units_Z 14
_cell_length_a 12.332187
_cell_length_b 9.295345
_cell_length_c 11.144979
_cell_angle_alpha 57.225742
_cell_angle_beta 120.731283
_cell_angle_gamma 144.064540
_cell_volume 623.534873
_symmetry_space_group_name_H-M "P -1"
_symmetry_group_IT_number 2
_symmetry_cell_setting 'triclinic'
loop_
_space_group_symop_operation_xyz
x,y,z
-x,-y,-z
loop_
_atom_site_type_symbol
_atom_site_label
_atom_site_fract_x
_atom_site_fract_y
_atom_site_fract_z
Si Si1 0.411653 0.782991 0.953638
Si Si2 0.744902 0.665745 0.420235
Si Si3 0.656986 0.980113 0.788889
Si Si4 0.921740 0.770163 0.722546
Si Si5 0.001290 0.515391 0.152004
Si Si6 0.866901 0.437487 0.552353
Si Si7 0.382433 0.394981 0.211752
O O1 0.482111 0.877308 0.813537
O O2 0.192051 0.584940 0.927353
O O3 0.465714 0.645206 0.082377
O O4 0.500000 0.000000 0.000000
O O5 0.777989 0.646271 0.585828
O O6 0.788294 0.542019 0.419065
O O7 0.528422 0.493607 0.355121
O O8 0.877324 0.951366 0.321782
O O9 0.632471 0.762854 0.828406
O O10 0.836282 0.177301 0.891590
O O11 0.693623 0.136747 0.621982
O O12 0.954023 0.601222 0.860932
O O13 0.822340 0.773644 0.772420
O O14 0.001040 0.408785 0.325501
O O15 0.000000 0.500000 0.500000
#
# Coordination Sequence:
#
# PCOD8015720 Si02
#       7
#     2   2   2   2   2   2   2
#     4  12  26  44  67  92 129 176 222 263 317 381
#     4  10  22  39  65  97 131 163 215 269 316 390
#     4  10  25  44  61 101 125 169 218 261 328 378
#     4  10  21  43  63  97 128 172 215 263 327 375
#     4   9  23  44  65  90 134 165 219 263 309 393
#     4   9  20  43  66  95 129 167 204 261 333 375
#     4  12  25  39  68  96 129 169 216 267 326 379
#
# _framework density 22.452632999999999
#
# number of rings (size 3 to 8) (size 9 to 14) (size 15 to 20)
#    0.857    0.857    0.000    3.429    2.000    4.571 
#    7.714    0.000    0.000    0.000    0.000    0.000 
#    0.000    0.000    0.000    0.000    0.000    0.000 
#
# Total GULP energy -173517.001890 kJ/mol
# GULP energy per Si atom -12394.071564 kJ/mol
# Density = 2.240153 g / cm^3
# Si number density = 22.452633 Si / 1000 Ang^3
#
#
#
# Elastic Constant Matrix: (Units=GPa)
#
#
# Indices 1 2 3 4 5 6 
#
# 1 154.7318 50.6466 28.5353 -4.3039 -3.6961 -11.0838
# 2 50.6466 111.5230 15.7980 -11.7344 16.1356 -13.1575
# 3 28.5353 15.7980 29.6463 -18.8284 7.4395 -4.2685
# 4 -4.3039 -11.7344 -18.8284 31.4648 1.1537 12.1308
# 5 -3.6961 16.1356 7.4395 1.1537 45.3986 -5.0452
# 6 -11.0838 -13.1575 -4.2685 12.1308 -5.0452 40.3496
#
#
#
# Elastic Compliance Matrix: (Units=1/GPa)
#
#
# Indices 1 2 3 4 5 6 
#
# 1 0.011104 -0.004275 -0.016980 -0.012092 0.005985 0.004244
# 2 -0.004275 0.011931 0.002441 0.005210 -0.005034 0.000779
# 3 -0.016980 0.002441 0.088311 0.057688 -0.019782 -0.014343
# 4 -0.012092 0.005210 0.057688 0.074945 -0.016428 -0.020106
# 5 0.005985 -0.005034 -0.019782 -0.016428 0.028678 0.006435
# 6 0.004244 0.000779 -0.014343 -0.020106 0.006435 0.031535
#
#
# Mechanical properties :
#
#
# Convention : Reuss Voigt Hill
#
# Bulk Modulus (GPa) = 13.56532 53.98455 33.77493
# Shear Modulus (GPa) = 16.19678 36.83734 26.51706
#
# Velocity S-wave (km/s) = 2.68876 4.05491 3.44033
# Velocity P-wave (km/s) = 3.96158 6.78373 5.55487
#
# Compressibility (1/GPa) = 0.07371741
#
# Stress axis : x y z
#
# Youngs Moduli (GPa) = 90.05628 83.81671 11.32368
#
# Poissons Ratio (x) = 0.35831 0.19228
# Poissons Ratio (y) = 0.38499 -0.02765
# Poissons Ratio (z) = 1.52920 -0.20463
#
# Static dielectric constant tensor:
#      x y z
#    x 4.087930 -0.181970 0.085850 
#    y -0.181970 3.979970 -0.074700 
#    z 0.085850 -0.074700 3.957940 
# 
# 
# High freq. dielectric constant tensor:
#      x y z
#    x 1.896980 -0.005300 0.000570 
#    y -0.005300 1.876740 -0.007600 
#    z 0.000570 -0.007600 1.878450 
# 
# From -- ./inp_files/418996.got.cif
#   From: 2010.06.25/outbox.cif.g09.slc.cpg/sg2_210_cif.got.tgz:418996.got - 2010.06.27 13:26:56.
