data_PCOD8015305
_publ_section_title
;
Structure prediction by ZEFSAII (Michael W. Deem and Ramdas Pophale) SiO2 
 PCOD8015305
Probable space group: P -1
;
_chemical_formula_sum "Si O2"
_cell_formula_units_Z 16
_cell_length_a 13.288103
_cell_length_b 20.784636
_cell_length_c 8.482045
_cell_angle_alpha 49.552562
_cell_angle_beta 129.638507
_cell_angle_gamma 156.465171
_cell_volume 704.649586
_symmetry_space_group_name_H-M "P -1"
_symmetry_group_IT_number 2
_symmetry_cell_setting 'triclinic'
loop_
_space_group_symop_operation_xyz
x,y,z
-x,-y,-z
loop_
_atom_site_type_symbol
_atom_site_label
_atom_site_fract_x
_atom_site_fract_y
_atom_site_fract_z
Si Si1 0.993984 0.445515 0.322519
Si Si2 0.434325 0.481069 0.718301
Si Si3 0.608295 0.691766 0.816852
Si Si4 0.381199 0.729246 0.036198
Si Si5 0.881964 0.725306 0.551650
Si Si6 0.264415 0.834833 0.934872
Si Si7 0.936102 0.570380 0.264617
Si Si8 0.075203 0.051927 0.811895
O O1 0.069133 0.561991 0.335346
O O2 0.210893 0.561522 0.218600
O O3 0.992405 0.369337 0.573386
O O4 0.723415 0.311322 0.180800
O O5 0.527943 0.619509 0.674523
O O6 0.670771 0.576980 0.701386
O O7 0.193186 0.360361 0.553269
O O8 0.334727 0.359293 0.941599
O O9 0.367120 0.606861 0.782730
O O10 0.852149 0.888405 0.740788
O O11 0.668624 0.857622 0.110514
O O12 0.352300 0.798687 0.994671
O O13 0.888305 0.830110 0.380365
O O14 0.158692 0.842591 0.687705
O O15 0.042674 0.705329 0.050444
O O16 0.500000 0.000000 0.000000
O O17 0.000000 0.000000 0.000000
#
# Coordination Sequence:
#
# PCOD8015305 Si02
#       8
#     2   2   2   2   2   2   2   2
#     4   9  21  40  69 102 129 183 232 293 342 423
#     4  10  24  42  70  99 137 189 235 285 348 432
#     4  11  23  42  71 100 141 183 237 290 350 425
#     4  10  24  43  73 100 139 181 242 281 354 423
#     4  11  25  46  71 101 141 187 237 292 360 413
#     4  11  26  46  69 101 144 187 232 296 350 424
#     4  10  21  42  67  95 140 183 233 285 353 419
#     4  12  26  44  72 110 144 180 235 311 354 411
#
# _framework density 22.706323000000001
#
# number of rings (size 3 to 8) (size 9 to 14) (size 15 to 20)
#    0.000    1.500    2.500    0.750    5.250    6.500 
#    0.000    1.250    0.000    0.000    0.000    0.000 
#    0.000    0.000    0.000    0.000    0.000    0.000 
#
# Total GULP energy -198304.550289 kJ/mol
# GULP energy per Si atom -12394.034393 kJ/mol
# Density = 2.265464 g / cm^3
# Si number density = 22.706323 Si / 1000 Ang^3
#
#
#
# Elastic Constant Matrix: (Units=GPa)
#
#
# Indices 1 2 3 4 5 6 
#
# 1 95.7910 54.6111 49.5106 13.7052 -9.3873 2.1744
# 2 54.6111 158.7307 64.1097 29.3553 -2.1589 -1.7340
# 3 49.5106 64.1097 122.9255 24.6621 -7.2858 -0.8512
# 4 13.7052 29.3553 24.6621 37.4237 -0.9135 -1.5905
# 5 -9.3873 -2.1589 -7.2858 -0.9135 33.5626 9.4064
# 6 2.1744 -1.7340 -0.8512 -1.5905 9.4064 46.5729
#
#
#
# Elastic Compliance Matrix: (Units=1/GPa)
#
#
# Indices 1 2 3 4 5 6 
#
# 1 0.014856 -0.003464 -0.003960 -0.000096 0.003521 -0.001609
# 2 -0.003464 0.009366 -0.002694 -0.004309 -0.001226 0.000562
# 3 -0.003960 -0.002694 0.012086 -0.004375 0.001251 -0.000097
# 4 -0.000096 -0.004309 -0.004375 0.033047 -0.000641 0.001022
# 5 0.003521 -0.001226 0.001251 -0.000641 0.032875 -0.006849
# 6 -0.001609 0.000562 -0.000097 0.001022 -0.006849 0.022984
#
#
# Mechanical properties :
#
#
# Convention : Reuss Voigt Hill
#
# Bulk Modulus (GPa) = 62.21681 79.32333 70.77007
# Shear Modulus (GPa) = 33.15470 37.45958 35.30714
#
# Velocity S-wave (km/s) = 3.82534 4.06611 3.94756
# Velocity P-wave (km/s) = 6.85355 7.55345 7.21199
#
# Compressibility (1/GPa) = 0.01607283
#
# Stress axis : x y z
#
# Youngs Moduli (GPa) = 67.31105 106.76859 82.73834
#
# Poissons Ratio (x) = 0.36981 0.32768
# Poissons Ratio (y) = 0.23314 0.22289
# Poissons Ratio (z) = 0.26658 0.28762
#
# Static dielectric constant tensor:
#      x y z
#    x 4.097860 -0.066300 -0.340710 
#    y -0.066300 4.043520 0.066330 
#    z -0.340710 0.066330 4.426710 
# 
# 
# High freq. dielectric constant tensor:
#      x y z
#    x 1.895940 0.001770 -0.012520 
#    y 0.001770 1.879930 0.013650 
#    z -0.012520 0.013650 1.909630 
# 
# From -- ./inp_files/320281.got.cif
#   From: 2010.06.25/outbox.cif.g09.slc.cpg/sg2_161_cif.got.tgz:320281.got - 2010.06.27 13:26:56.
