data_PCOD8015701
_publ_section_title
;
Structure prediction by ZEFSAII (Michael W. Deem and Ramdas Pophale) SiO2 
 PCOD8015701
Probable space group: P -1
;
_chemical_formula_sum "Si O2"
_cell_formula_units_Z 16
_cell_length_a 6.778852
_cell_length_b 16.273923
_cell_length_c 22.572186
_cell_angle_alpha 21.134491
_cell_angle_beta 70.210097
_cell_angle_gamma 79.649948
_cell_volume 773.812676
_symmetry_space_group_name_H-M "P -1"
_symmetry_group_IT_number 2
_symmetry_cell_setting 'triclinic'
loop_
_space_group_symop_operation_xyz
x,y,z
-x,-y,-z
loop_
_atom_site_type_symbol
_atom_site_label
_atom_site_fract_x
_atom_site_fract_y
_atom_site_fract_z
Si Si1 0.653637 0.982801 0.661127
Si Si2 0.432280 0.200335 0.339062
Si Si3 0.137691 0.373600 0.327843
Si Si4 0.639663 0.092895 0.087940
Si Si5 0.761062 0.921951 0.308302
Si Si6 0.651382 0.426219 0.708568
Si Si7 0.753424 0.985198 0.023921
Si Si8 0.268501 0.237158 0.081975
O O1 0.625417 0.861316 0.681751
O O2 0.685023 0.793532 0.832731
O O3 0.435859 0.044017 0.655978
O O4 0.879101 0.239076 0.467310
O O5 0.204502 0.196798 0.396363
O O6 0.500000 0.000000 0.500000
O O7 0.636420 0.472923 0.139642
O O8 0.314533 0.447708 0.315163
O O9 0.165356 0.626095 0.121695
O O10 0.617382 0.959721 0.116633
O O11 0.393593 0.094721 0.127106
O O12 0.722446 0.948484 0.225174
O O13 0.751123 0.644819 0.503315
O O14 0.001098 0.123445 0.171336
O O15 0.382594 0.258530 0.837708
O O16 0.779746 0.238229 0.817122
O O17 0.000000 0.000000 0.000000
#
# Coordination Sequence:
#
# PCOD8015701 Si02
#       8
#     2   2   2   2   2   2   2   2
#     4  11  23  41  64  91 126 169 210 257 317 367
#     4  11  24  39  63  96 123 167 217 262 310 363
#     4  10  21  43  63  89 131 165 208 262 308 374
#     4   9  23  40  63  94 122 163 204 255 314 368
#     4  11  23  40  67  91 123 172 205 255 311 375
#     4  10  22  40  63  94 124 164 209 245 314 373
#     4  10  23  41  66  97 127 161 203 259 309 374
#     4  10  23  44  61  87 132 165 207 258 311 374
#
# _framework density 20.676838
#
# number of rings (size 3 to 8) (size 9 to 14) (size 15 to 20)
#    0.000    1.750    1.250    1.500    5.250    5.000 
#    2.250    1.250    0.000    0.000    0.000    0.000 
#    0.000    0.000    0.000    0.000    0.000    0.000 
#
# Total GULP energy -198423.665664 kJ/mol
# GULP energy per Si atom -12401.479104 kJ/mol
# Density = 2.062978 g / cm^3
# Si number density = 20.676838 Si / 1000 Ang^3
#
#
#
# Elastic Constant Matrix: (Units=GPa)
#
#
# Indices 1 2 3 4 5 6 
#
# 1 140.2689 52.9576 72.3958 3.5781 -13.5039 6.7042
# 2 52.9576 104.4045 34.5316 5.5989 -5.6794 8.1474
# 3 72.3958 34.5316 142.6445 5.0161 10.6312 0.4007
# 4 3.5781 5.5989 5.0161 28.3040 4.8160 -3.5642
# 5 -13.5039 -5.6794 10.6312 4.8160 43.8043 6.4933
# 6 6.7042 8.1474 0.4007 -3.5642 6.4933 22.1046
#
#
#
# Elastic Compliance Matrix: (Units=1/GPa)
#
#
# Indices 1 2 3 4 5 6 
#
# 1 0.012146 -0.003625 -0.005633 -0.001241 0.005375 -0.004025
# 2 -0.003625 0.012382 -0.001181 -0.002623 0.001710 -0.004368
# 3 -0.005633 -0.001181 0.010504 0.000372 -0.004996 0.003481
# 4 -0.001241 -0.002623 0.000372 0.038211 -0.006405 0.009379
# 5 0.005375 0.001710 -0.004996 -0.006405 0.028332 -0.011525
# 6 -0.004025 -0.004368 0.003481 0.009379 -0.011525 0.052905
#
#
# Mechanical properties :
#
#
# Convention : Reuss Voigt Hill
#
# Bulk Modulus (GPa) = 70.64067 78.56530 74.60299
# Shear Modulus (GPa) = 27.76593 34.00477 30.88535
#
# Velocity S-wave (km/s) = 3.66847 4.05974 3.86906
# Velocity P-wave (km/s) = 7.22370 7.74949 7.49121
#
# Compressibility (1/GPa) = 0.01415615
#
# Stress axis : x y z
#
# Youngs Moduli (GPa) = 82.32933 80.76273 95.19835
#
# Poissons Ratio (x) = 0.29277 0.53622
# Poissons Ratio (y) = 0.29845 0.11239
# Poissons Ratio (z) = 0.46373 0.09535
#
# Static dielectric constant tensor:
#      x y z
#    x 3.708310 0.070320 0.112060 
#    y 0.070320 3.889860 0.092530 
#    z 0.112060 0.092530 3.976610 
# 
# 
# High freq. dielectric constant tensor:
#      x y z
#    x 1.811190 0.010350 0.006940 
#    y 0.010350 1.803460 0.005130 
#    z 0.006940 0.005130 1.818480 
# 
# From -- ./inp_files/99896.got.cif
#   From: 2010.06.25/outbox.cif.g09.slc.cpg/sg2_50_cif.got.tgz:99896.got - 2010.06.27 13:26:56.
