data_PCOD8015190
_publ_section_title
;
Structure prediction by ZEFSAII (Michael W. Deem and Ramdas Pophale) SiO2 
 PCOD8015190
Probable space group: P -1
;
_chemical_formula_sum "Si O2"
_cell_formula_units_Z 16
_cell_length_a 9.489604
_cell_length_b 13.024308
_cell_length_c 14.063364
_cell_angle_alpha 140.921120
_cell_angle_beta 64.563210
_cell_angle_gamma 136.179819
_cell_volume 723.928152
_symmetry_space_group_name_H-M "P -1"
_symmetry_group_IT_number 2
_symmetry_cell_setting 'triclinic'
loop_
_space_group_symop_operation_xyz
x,y,z
-x,-y,-z
loop_
_atom_site_type_symbol
_atom_site_label
_atom_site_fract_x
_atom_site_fract_y
_atom_site_fract_z
Si Si1 0.225036 0.131517 0.744870
Si Si2 0.600726 0.182518 0.681532
Si Si3 0.539328 0.280170 0.313815
Si Si4 0.278856 0.436359 0.803004
Si Si5 0.067313 0.938228 0.848693
Si Si6 0.385814 0.435720 0.338584
Si Si7 0.503509 0.084199 0.850021
Si Si8 0.017896 0.332509 0.624727
O O1 0.479922 0.270876 0.775780
O O2 0.187865 0.273297 0.802213
O O3 0.144638 0.101579 0.854181
O O4 0.094287 0.891564 0.562315
O O5 0.559889 0.073710 0.718612
O O6 0.854345 0.365188 0.717930
O O7 0.500000 0.000000 0.500000
O O8 0.398329 0.265431 0.262336
O O9 0.504848 0.353217 0.474319
O O10 0.787797 0.457136 0.340555
O O11 0.455002 0.037729 0.179299
O O12 0.483255 0.481583 0.737831
O O13 0.097259 0.314653 0.688466
O O14 0.343446 0.662411 0.978729
O O15 0.857427 0.686881 0.699055
O O16 0.253675 0.949093 0.833248
O O17 0.000000 0.000000 0.000000
#
# Coordination Sequence:
#
# PCOD8015190 Si02
#       8
#     2   2   2   2   2   2   2   2
#     4  10  22  42  66  91 129 165 218 260 306 388
#     4   9  22  41  61  92 127 167 210 261 315 372
#     4  10  23  42  68  95 126 166 215 268 308 380
#     4  11  24  41  65  97 130 168 206 264 322 376
#     4  11  22  44  64  96 129 167 215 259 321 374
#     4  10  22  42  67  96 124 169 216 257 322 372
#     4  11  25  43  62  97 134 162 213 263 320 380
#     4  10  21  42  66  95 122 166 220 257 317 373
#
# _framework density 22.10164
#
# number of rings (size 3 to 8) (size 9 to 14) (size 15 to 20)
#    0.000    1.750    2.500    0.375    3.500    7.000 
#    2.250    0.000    0.000    0.000    0.000    0.000 
#    0.000    0.000    0.000    0.000    0.000    0.000 
#
# Total GULP energy -198380.258796 kJ/mol
# GULP energy per Si atom -12398.766175 kJ/mol
# Density = 2.205134 g / cm^3
# Si number density = 22.101640 Si / 1000 Ang^3
#
#
#
# Elastic Constant Matrix: (Units=GPa)
#
#
# Indices 1 2 3 4 5 6 
#
# 1 72.1103 29.6120 27.0837 -3.7808 2.4544 0.2023
# 2 29.6120 94.9525 49.9442 -19.9823 -12.4635 -11.0674
# 3 27.0837 49.9442 70.3100 -7.6230 -5.7070 -4.1619
# 4 -3.7808 -19.9823 -7.6230 36.7601 -2.6990 -4.0100
# 5 2.4544 -12.4635 -5.7070 -2.6990 25.0193 0.7507
# 6 0.2023 -11.0674 -4.1619 -4.0100 0.7507 41.5196
#
#
#
# Elastic Compliance Matrix: (Units=1/GPa)
#
#
# Indices 1 2 3 4 5 6 
#
# 1 0.017383 -0.004522 -0.004236 -0.002122 -0.005098 -0.001827
# 2 -0.004522 0.022350 -0.011856 0.010562 0.009843 0.005633
# 3 -0.004236 -0.011856 0.023985 -0.002023 -0.000210 -0.000927
# 4 -0.002122 0.010562 -0.002023 0.033551 0.008456 0.005711
# 5 -0.005098 0.009843 -0.000210 0.008456 0.046159 0.002610
# 6 -0.001827 0.005633 -0.000927 0.005711 0.002610 0.026007
#
#
# Mechanical properties :
#
#
# Convention : Reuss Voigt Hill
#
# Bulk Modulus (GPa) = 44.46576 50.07253 47.26915
# Shear Modulus (GPa) = 22.91906 29.37533 26.14720
#
# Velocity S-wave (km/s) = 3.22372 3.64964 3.44327
# Velocity P-wave (km/s) = 5.83257 6.36118 6.10260
#
# Compressibility (1/GPa) = 0.02248921
#
# Stress axis : x y z
#
# Youngs Moduli (GPa) = 57.52786 44.74372 41.69216
#
# Poissons Ratio (x) = 0.20232 0.17661
# Poissons Ratio (y) = 0.26012 0.49432
# Poissons Ratio (z) = 0.24369 0.53050
#
# Static dielectric constant tensor:
#      x y z
#    x 4.372740 0.253970 0.161020 
#    y 0.253970 4.149980 -0.327170 
#    z 0.161020 -0.327170 3.748090 
# 
# 
# High freq. dielectric constant tensor:
#      x y z
#    x 1.872740 0.007820 0.014470 
#    y 0.007820 1.872750 -0.025190 
#    z 0.014470 -0.025190 1.853220 
# 
# From -- ./inp_files/398472.got.cif
#   From: 2010.06.25/outbox.cif.g09.slc.cpg/sg2_200_cif.got.tgz:398472.got - 2010.06.27 13:26:56.
