data_PCOD8015052
_publ_section_title
;
Structure prediction by ZEFSAII (Michael W. Deem and Ramdas Pophale) SiO2 
 PCOD8015052
Probable space group: P -1
;
_chemical_formula_sum "Si O2"
_cell_formula_units_Z 16
_cell_length_a 13.767579
_cell_length_b 10.979037
_cell_length_c 27.864148
_cell_angle_alpha 29.303841
_cell_angle_beta 158.889654
_cell_angle_gamma 149.321631
_cell_volume 716.120482
_symmetry_space_group_name_H-M "P -1"
_symmetry_group_IT_number 2
_symmetry_cell_setting 'triclinic'
loop_
_space_group_symop_operation_xyz
x,y,z
-x,-y,-z
loop_
_atom_site_type_symbol
_atom_site_label
_atom_site_fract_x
_atom_site_fract_y
_atom_site_fract_z
Si Si1 0.506938 0.959391 0.649431
Si Si2 0.288659 0.530349 0.096240
Si Si3 0.983447 0.660511 0.288455
Si Si4 0.438619 0.768063 0.232396
Si Si5 0.966187 0.604446 0.500881
Si Si6 0.417166 0.012669 0.044232
Si Si7 0.550267 0.168998 0.225660
Si Si8 0.842298 0.497508 0.065243
O O1 0.596617 0.712427 0.754596
O O2 0.534495 0.984545 0.710882
O O3 0.179709 0.891368 0.506883
O O4 0.696709 0.222280 0.622592
O O5 0.491633 0.797629 0.117968
O O6 0.262184 0.552320 0.020164
O O7 0.000000 0.500000 0.000000
O O8 0.839122 0.395167 0.285086
O O9 0.970784 0.594726 0.361831
O O10 0.812996 0.870013 0.127452
O O11 0.651937 0.622803 0.358189
O O12 0.172949 0.565895 0.203559
O O13 0.295661 0.890301 0.081412
O O14 0.596940 0.971122 0.275128
O O15 0.000000 0.500000 0.500000
O O16 0.703255 0.221114 0.120007
O O17 0.293836 0.283803 0.051107
#
# Coordination Sequence:
#
# PCOD8015052 Si02
#       8
#     2   2   2   2   2   2   2   2
#     4  10  21  42  65  91 127 173 208 259 317 377
#     4  11  18  36  63  91 123 158 209 265 313 363
#     4  10  22  43  68  91 125 170 213 264 315 371
#     4  12  24  42  63  94 133 170 207 266 316 370
#     4  11  27  44  61  93 134 168 209 257 320 385
#     4  11  22  38  65  97 124 163 219 259 316 376
#     4   9  22  41  65  95 128 161 216 267 316 370
#     4  10  22  36  61  94 125 163 206 266 322 365
#
# _framework density 22.342608999999999
#
# number of rings (size 3 to 8) (size 9 to 14) (size 15 to 20)
#    0.000    1.500    2.500    3.000    0.000    7.500 
#    0.000    1.250    0.000    0.000    0.000    0.000 
#    0.000    0.000    0.000    0.000    0.000    0.000 
#
# Total GULP energy -198365.013465 kJ/mol
# GULP energy per Si atom -12397.813342 kJ/mol
# Density = 2.229176 g / cm^3
# Si number density = 22.342609 Si / 1000 Ang^3
#
#
#
# Elastic Constant Matrix: (Units=GPa)
#
#
# Indices 1 2 3 4 5 6 
#
# 1 89.4625 41.9120 30.2891 -5.3251 -0.7041 -9.7209
# 2 41.9120 116.7451 25.8729 18.5022 0.5794 8.1395
# 3 30.2891 25.8729 79.4791 13.8223 2.1733 2.7254
# 4 -5.3251 18.5022 13.8223 25.8166 6.4970 9.2600
# 5 -0.7041 0.5794 2.1733 6.4970 33.9427 5.1241
# 6 -9.7209 8.1395 2.7254 9.2600 5.1241 45.4004
#
#
#
# Elastic Compliance Matrix: (Units=1/GPa)
#
#
# Indices 1 2 3 4 5 6 
#
# 1 0.017635 -0.006906 -0.006509 0.011335 -0.001766 0.003292
# 2 -0.006906 0.012767 0.000325 -0.010569 0.001920 -0.001848
# 3 -0.006509 0.000325 0.016798 -0.010652 0.000881 -0.000387
# 4 0.011335 -0.010569 -0.010652 0.058830 -0.009258 -0.005993
# 5 -0.001766 0.001920 0.000881 -0.009258 0.031476 -0.002439
# 6 0.003292 -0.001848 -0.000387 -0.005993 -0.002439 0.024583
#
#
# Mechanical properties :
#
#
# Convention : Reuss Voigt Hill
#
# Bulk Modulus (GPa) = 47.57155 53.53718 50.55436
# Shear Modulus (GPa) = 25.60464 33.53945 29.57205
#
# Velocity S-wave (km/s) = 3.38894 3.87866 3.64204
# Velocity P-wave (km/s) = 6.05403 6.63872 6.35310
#
# Compressibility (1/GPa) = 0.02102097
#
# Stress axis : x y z
#
# Youngs Moduli (GPa) = 56.70424 78.32514 59.52974
#
# Poissons Ratio (x) = 0.54091 0.38745
# Poissons Ratio (y) = 0.39160 -0.01932
# Poissons Ratio (z) = 0.36906 -0.02542
#
# Static dielectric constant tensor:
#      x y z
#    x 5.134330 0.300060 0.397780 
#    y 0.300060 4.359240 0.133250 
#    z 0.397780 0.133250 3.962800 
# 
# 
# High freq. dielectric constant tensor:
#      x y z
#    x 1.879450 0.008900 0.003270 
#    y 0.008900 1.886470 0.014770 
#    z 0.003270 0.014770 1.857250 
# 
# From -- ./inp_files/623516.got.cif
#   From: 2010.06.25/outbox.cif.g09.slc.cpg/sg2_312_cif.got.tgz:623516.got - 2010.06.27 13:26:56.
