data_PCOD8015542
_publ_section_title
;
Structure prediction by ZEFSAII (Michael W. Deem and Ramdas Pophale) SiO2 
 PCOD8015542
Probable space group: P -1
;
_chemical_formula_sum "Si O2"
_cell_formula_units_Z 16
_cell_length_a 9.067368
_cell_length_b 18.666334
_cell_length_c 15.604257
_cell_angle_alpha 29.954216
_cell_angle_beta 142.628237
_cell_angle_gamma 141.731769
_cell_volume 758.727820
_symmetry_space_group_name_H-M "P -1"
_symmetry_group_IT_number 2
_symmetry_cell_setting 'triclinic'
loop_
_space_group_symop_operation_xyz
x,y,z
-x,-y,-z
loop_
_atom_site_type_symbol
_atom_site_label
_atom_site_fract_x
_atom_site_fract_y
_atom_site_fract_z
Si Si1 0.395130 0.244299 0.072320
Si Si2 0.571256 0.424486 0.693645
Si Si3 0.156091 0.208686 0.169405
Si Si4 0.619274 0.270002 0.424170
Si Si5 0.272222 0.984255 0.163146
Si Si6 0.728765 0.522410 0.336394
Si Si7 0.431428 0.910061 0.973529
Si Si8 0.836179 0.456350 0.165924
O O1 0.213030 0.154215 0.158360
O O2 0.446834 0.123121 0.157243
O O3 0.666142 0.354441 0.117804
O O4 0.230819 0.330755 0.855457
O O5 0.500000 0.500000 0.500000
O O6 0.410137 0.460443 0.658769
O O7 0.870994 0.498353 0.776185
O O8 0.497307 0.244536 0.830332
O O9 0.344033 0.166719 0.367554
O O10 0.867364 0.126255 0.147872
O O11 0.240650 0.392047 0.013405
O O12 0.555008 0.377970 0.353385
O O13 0.799536 0.365175 0.332905
O O14 0.769660 0.169222 0.644001
O O15 0.418168 0.980777 0.145488
O O16 0.000000 0.000000 0.000000
O O17 0.000000 0.500000 0.500000
O O18 0.500000 0.000000 0.000000
#
# Coordination Sequence:
#
# PCOD8015542 Si02
#       8
#     2   2   2   2   2   2   2   2
#     4  11  21  43  66  96 130 172 215 265 325 381
#     4  11  26  42  67  99 128 169 220 270 325 381
#     4  10  21  43  70  95 129 168 216 271 322 382
#     4  11  23  42  68  96 130 173 216 261 328 387
#     4  12  27  43  62  95 135 176 216 266 323 392
#     4  12  23  39  67  96 129 169 218 267 314 384
#     4  11  26  46  64  93 135 175 211 269 329 384
#     4  10  21  42  70  97 130 163 216 275 321 380
#
# _framework density 21.087931999999999
#
# number of rings (size 3 to 8) (size 9 to 14) (size 15 to 20)
#    0.000    1.000    3.750    3.000    5.250    4.000 
#    2.250    0.000    0.000    0.000    0.000    0.000 
#    0.000    0.000    0.000    0.000    0.000    0.000 
#
# Total GULP energy -198448.981035 kJ/mol
# GULP energy per Si atom -12403.061315 kJ/mol
# Density = 2.103993 g / cm^3
# Si number density = 21.087932 Si / 1000 Ang^3
#
#
#
# Elastic Constant Matrix: (Units=GPa)
#
#
# Indices 1 2 3 4 5 6 
#
# 1 147.5375 64.1723 49.3687 13.6990 -0.8696 -13.4067
# 2 64.1723 79.2194 14.6528 -2.0079 -7.0598 -12.2420
# 3 49.3687 14.6528 112.7865 4.8811 -11.9779 -1.4239
# 4 13.6990 -2.0079 4.8811 28.8700 -3.9545 3.1610
# 5 -0.8696 -7.0598 -11.9779 -3.9545 28.3963 0.7926
# 6 -13.4067 -12.2420 -1.4239 3.1610 0.7926 42.9951
#
#
#
# Elastic Compliance Matrix: (Units=1/GPa)
#
#
# Indices 1 2 3 4 5 6 
#
# 1 0.013937 -0.010778 -0.004931 -0.007465 -0.005421 0.001763
# 2 -0.010778 0.022094 0.002324 0.006964 0.007047 0.002365
# 3 -0.004931 0.002324 0.011224 0.001418 0.005378 -0.000707
# 4 -0.007465 0.006964 0.001418 0.039855 0.007745 -0.003371
# 5 -0.005421 0.007047 0.005378 0.007745 0.040172 -0.000816
# 6 0.001763 0.002365 -0.000707 -0.003371 -0.000816 0.024721
#
#
# Mechanical properties :
#
#
# Convention : Reuss Voigt Hill
#
# Bulk Modulus (GPa) = 48.81440 66.21456 57.51448
# Shear Modulus (GPa) = 26.93975 34.14223 30.54099
#
# Velocity S-wave (km/s) = 3.57809 4.02810 3.80974
# Velocity P-wave (km/s) = 6.34575 7.28708 6.83264
#
# Compressibility (1/GPa) = 0.02048576
#
# Stress axis : x y z
#
# Youngs Moduli (GPa) = 71.75131 45.26129 89.09864
#
# Poissons Ratio (x) = 0.48782 0.43932
# Poissons Ratio (y) = 0.77332 -0.20708
# Poissons Ratio (z) = 0.35379 -0.10519
#
# Static dielectric constant tensor:
#      x y z
#    x 3.770160 -0.008540 0.037340 
#    y -0.008540 3.705150 -0.051100 
#    z 0.037340 -0.051100 3.862510 
# 
# 
# High freq. dielectric constant tensor:
#      x y z
#    x 1.827990 -0.009910 -0.001870 
#    y -0.009910 1.834560 0.011030 
#    z -0.001870 0.011030 1.828090 
# 
# From -- ./inp_files/205267.got.cif
#   From: 2010.06.25/outbox.cif.g09.slc.cpg/sg2_103_cif.got.tgz:205267.got - 2010.06.27 13:26:56.
