data_PCOD8015295
_publ_section_title
;
Structure prediction by ZEFSAII (Michael W. Deem and Ramdas Pophale) SiO2 
 PCOD8015295
Probable space group: P -1
;
_chemical_formula_sum "Si O2"
_cell_formula_units_Z 14
_cell_length_a 18.455629
_cell_length_b 12.198413
_cell_length_c 8.182190
_cell_angle_alpha 111.673000
_cell_angle_beta 114.303505
_cell_angle_gamma 19.728186
_cell_volume 565.712689
_symmetry_space_group_name_H-M "P -1"
_symmetry_group_IT_number 2
_symmetry_cell_setting 'triclinic'
loop_
_space_group_symop_operation_xyz
x,y,z
-x,-y,-z
loop_
_atom_site_type_symbol
_atom_site_label
_atom_site_fract_x
_atom_site_fract_y
_atom_site_fract_z
Si Si1 0.045650 0.205739 0.262568
Si Si2 0.395597 0.801796 0.629754
Si Si3 0.059194 0.416983 0.817784
Si Si4 0.626073 0.641543 0.191553
Si Si5 0.298958 0.259638 0.335518
Si Si6 0.767681 0.386473 0.527337
Si Si7 0.605161 0.422947 0.906112
O O1 0.976020 0.407458 0.193089
O O2 0.836913 0.434400 0.276698
O O3 0.216795 0.008215 0.448843
O O4 0.153922 0.960900 0.108131
O O5 0.626786 0.516644 0.606069
O O6 0.453692 0.615523 0.708779
O O7 0.301608 0.039693 0.783842
O O8 0.894382 0.548646 0.654314
O O9 0.000000 0.500000 0.000000
O O10 0.622290 0.586737 0.337747
O O11 0.408812 0.023411 0.165938
O O12 0.631768 0.526877 0.007704
O O13 0.200563 0.521217 0.329561
O O14 0.500000 0.000000 0.500000
O O15 0.000000 0.000000 0.500000
O O16 0.500000 0.500000 0.000000
#
# Coordination Sequence:
#
# PCOD8015295 Si02
#       7
#     2   2   2   2   2   2   2
#     4  12  25  45  71 102 139 186 238 289 349 423
#     4  12  25  45  72 103 136 186 237 286 352 425
#     4  12  26  45  71 105 142 184 233 293 353 412
#     4  11  24  45  68  99 138 185 233 290 350 413
#     4  10  21  42  67  94 134 182 227 278 341 413
#     4  11  24  43  70 104 139 182 235 289 346 418
#     4  12  26  45  68 101 143 183 232 297 355 412
#
# _framework density 24.747544000000001
#
# number of rings (size 3 to 8) (size 9 to 14) (size 15 to 20)
#    0.000    0.571    0.000    9.857    0.000    5.714 
#    0.000    2.857    0.000    0.000    0.000    0.000 
#    0.000    0.000    0.000    0.000    0.000    0.000 
#
# Total GULP energy -173554.273285 kJ/mol
# GULP energy per Si atom -12396.733806 kJ/mol
# Density = 2.469122 g / cm^3
# Si number density = 24.747544 Si / 1000 Ang^3
#
#
#
# Elastic Constant Matrix: (Units=GPa)
#
#
# Indices 1 2 3 4 5 6 
#
# 1 139.7405 71.0637 43.3454 7.8135 -13.1879 7.6611
# 2 71.0637 188.3654 33.0397 41.5683 -7.9043 11.4420
# 3 43.3454 33.0397 53.9796 16.4269 -20.7052 -3.9030
# 4 7.8135 41.5683 16.4269 45.8332 8.8184 2.0448
# 5 -13.1879 -7.9043 -20.7052 8.8184 47.5671 3.7604
# 6 7.6611 11.4420 -3.9030 2.0448 3.7604 46.6766
#
#
#
# Elastic Compliance Matrix: (Units=1/GPa)
#
#
# Indices 1 2 3 4 5 6 
#
# 1 0.011783 -0.003970 -0.009916 0.005733 -0.002628 -0.001829
# 2 -0.003970 0.008505 0.001214 -0.007880 0.002395 -0.001179
# 3 -0.009916 0.001214 0.037150 -0.016031 0.016293 0.003826
# 4 0.005733 -0.007880 -0.016031 0.036343 -0.013367 -0.000865
# 5 -0.002628 0.002395 0.016293 -0.013367 0.030314 -0.000650
# 6 -0.001829 -0.001179 0.003826 -0.000865 -0.000650 0.022424
#
#
# Mechanical properties :
#
#
# Convention : Reuss Voigt Hill
#
# Bulk Modulus (GPa) = 31.16070 75.22035 53.19052
# Shear Modulus (GPa) = 27.38810 43.65783 35.52296
#
# Velocity S-wave (km/s) = 3.33032 4.20471 3.79280
# Velocity P-wave (km/s) = 5.23515 7.35077 6.38125
#
# Compressibility (1/GPa) = 0.03209171
#
# Stress axis : x y z
#
# Youngs Moduli (GPa) = 84.86932 117.58034 26.91800
#
# Poissons Ratio (x) = 0.46683 0.26693
# Poissons Ratio (y) = 0.33696 -0.03267
# Poissons Ratio (z) = 0.84160 -0.14272
#
# Static dielectric constant tensor:
#      x y z
#    x 4.607410 0.222830 0.335510 
#    y 0.222830 5.076310 0.527850 
#    z 0.335510 0.527850 4.833010 
# 
# 
# High freq. dielectric constant tensor:
#      x y z
#    x 1.983900 0.006250 0.008740 
#    y 0.006250 2.009900 0.020020 
#    z 0.008740 0.020020 1.990120 
# 
# From -- ./inp_files/279607.got.cif
#   From: 2010.06.25/outbox.cif.g09.slc.cpg/sg2_140_cif.got.tgz:279607.got - 2010.06.27 13:26:56.
