data_PCOD8015351
_publ_section_title
;
Structure prediction by ZEFSAII (Michael W. Deem and Ramdas Pophale) SiO2 
 PCOD8015351
Probable space group: P -1
;
_chemical_formula_sum "Si O2"
_cell_formula_units_Z 16
_cell_length_a 8.859345
_cell_length_b 11.551927
_cell_length_c 18.292338
_cell_angle_alpha 33.005393
_cell_angle_beta 47.963547
_cell_angle_gamma 46.398883
_cell_volume 718.429988
_symmetry_space_group_name_H-M "P -1"
_symmetry_group_IT_number 2
_symmetry_cell_setting 'triclinic'
loop_
_space_group_symop_operation_xyz
x,y,z
-x,-y,-z
loop_
_atom_site_type_symbol
_atom_site_label
_atom_site_fract_x
_atom_site_fract_y
_atom_site_fract_z
Si Si1 0.996227 0.052552 0.320547
Si Si2 0.315209 0.091205 0.316489
Si Si3 0.445317 0.720072 0.590726
Si Si4 0.909202 0.610677 0.547006
Si Si5 0.445818 0.696800 0.970901
Si Si6 0.349359 0.288403 0.822855
Si Si7 0.695195 0.809865 0.948739
Si Si8 0.927907 0.430666 0.789388
O O1 0.752466 0.202940 0.330625
O O2 0.125791 0.043196 0.358248
O O3 0.083814 0.172073 0.164050
O O4 0.017252 0.800371 0.426819
O O5 0.211574 0.318931 0.274584
O O6 0.419902 0.888520 0.443132
O O7 0.509204 0.097961 0.195838
O O8 0.653323 0.716376 0.570809
O O9 0.469120 0.474602 0.680830
O O10 0.966170 0.429356 0.690388
O O11 0.000000 0.500000 0.500000
O O12 0.204130 0.740605 0.055759
O O13 0.500000 0.500000 0.000000
O O14 0.607452 0.642295 0.017019
O O15 0.155152 0.346312 0.798996
O O16 0.515357 0.051411 0.874694
O O17 0.254824 0.285600 0.935986
#
# Coordination Sequence:
#
# PCOD8015351 Si02
#       8
#     2   2   2   2   2   2   2   2
#     4  11  22  42  68  95 133 175 222 276 323 393
#     4  10  21  42  68 103 132 170 227 273 322 395
#     4  12  23  42  70  96 132 176 220 273 332 388
#     4  12  27  42  63 101 138 175 218 272 335 401
#     4   9  21  41  67  98 136 174 214 274 329 387
#     4  11  24  43  71  96 132 183 217 280 336 388
#     4  10  24  45  65 100 136 170 231 272 331 403
#     4  11  22  44  69  97 135 173 224 274 330 395
#
# _framework density 22.270783999999999
#
# number of rings (size 3 to 8) (size 9 to 14) (size 15 to 20)
#    0.000    1.250    2.500    3.000    0.000    5.000 
#    4.500    4.375    0.000    0.000    0.000    0.000 
#    0.000    0.000    0.000    0.000    0.000    0.000 
#
# Total GULP energy -198433.781963 kJ/mol
# GULP energy per Si atom -12402.111373 kJ/mol
# Density = 2.222009 g / cm^3
# Si number density = 22.270784 Si / 1000 Ang^3
#
#
#
# Elastic Constant Matrix: (Units=GPa)
#
#
# Indices 1 2 3 4 5 6 
#
# 1 120.9073 42.4964 65.0701 18.3087 12.3027 2.9994
# 2 42.4964 76.0426 38.3765 13.9187 5.6103 17.0296
# 3 65.0701 38.3765 103.4344 14.7165 5.5597 0.8831
# 4 18.3087 13.9187 14.7165 32.2884 2.0658 6.0478
# 5 12.3027 5.6103 5.5597 2.0658 48.1917 -0.6071
# 6 2.9994 17.0296 0.8831 6.0478 -0.6071 27.5271
#
#
#
# Elastic Compliance Matrix: (Units=1/GPa)
#
#
# Indices 1 2 3 4 5 6 
#
# 1 0.014000 -0.004093 -0.006715 -0.003333 -0.002156 0.001907
# 2 -0.004093 0.020974 -0.004733 -0.002277 -0.000903 -0.011898
# 3 -0.006715 -0.004733 0.015887 -0.002109 0.000569 0.003626
# 4 -0.003333 -0.002277 -0.002109 0.035956 -0.000259 -0.006066
# 5 -0.002156 -0.000903 0.000569 -0.000259 0.021368 0.001303
# 6 0.001907 -0.011898 0.003626 -0.006066 0.001303 0.044726
#
#
# Mechanical properties :
#
#
# Convention : Reuss Voigt Hill
#
# Bulk Modulus (GPa) = 50.55766 65.80781 58.18273
# Shear Modulus (GPa) = 26.23490 31.89751 29.06621
#
# Velocity S-wave (km/s) = 3.43592 3.78862 3.61657
# Velocity P-wave (km/s) = 6.20414 6.98221 6.60464
#
# Compressibility (1/GPa) = 0.01977940
#
# Stress axis : x y z
#
# Youngs Moduli (GPa) = 71.42845 47.67724 62.94513
#
# Poissons Ratio (x) = 0.19514 0.42267
# Poissons Ratio (y) = 0.29236 0.29792
# Poissons Ratio (z) = 0.47964 0.22565
#
# Static dielectric constant tensor:
#      x y z
#    x 4.166970 0.176610 -0.295190 
#    y 0.176610 3.957550 0.202870 
#    z -0.295190 0.202870 4.398350 
# 
# 
# High freq. dielectric constant tensor:
#      x y z
#    x 1.886940 0.012910 -0.010460 
#    y 0.012910 1.867540 0.014220 
#    z -0.010460 0.014220 1.890990 
# 
# From -- ./inp_files/559504.got.cif
#   From: 2010.06.25/outbox.cif.g09.slc.cpg/sg2_280_cif.got.tgz:559504.got - 2010.06.27 13:26:56.
