data_PCOD8015307
_publ_section_title
;
Structure prediction by ZEFSAII (Michael W. Deem and Ramdas Pophale) SiO2 
 PCOD8015307
Probable space group: P -1
;
_chemical_formula_sum "Si O2"
_cell_formula_units_Z 16
_cell_length_a 16.633717
_cell_length_b 16.840574
_cell_length_c 11.387933
_cell_angle_alpha 51.883165
_cell_angle_beta 32.013077
_cell_angle_gamma 30.819616
_cell_volume 790.846834
_symmetry_space_group_name_H-M "P -1"
_symmetry_group_IT_number 2
_symmetry_cell_setting 'triclinic'
loop_
_space_group_symop_operation_xyz
x,y,z
-x,-y,-z
loop_
_atom_site_type_symbol
_atom_site_label
_atom_site_fract_x
_atom_site_fract_y
_atom_site_fract_z
Si Si1 0.296580 0.573160 0.876015
Si Si2 0.157286 0.429466 0.254630
Si Si3 0.118105 0.226703 0.979662
Si Si4 0.031320 0.988809 0.659889
Si Si5 0.709569 0.676046 0.435948
Si Si6 0.444218 0.877203 0.815696
Si Si7 0.120711 0.775512 0.548371
Si Si8 0.227969 0.831668 0.795060
O O1 0.599697 0.420900 0.628931
O O2 0.190901 0.730630 0.926946
O O3 0.230200 0.508505 0.089262
O O4 0.159370 0.636621 0.862266
O O5 0.407174 0.227116 0.150268
O O6 0.000000 0.500000 0.500000
O O7 0.987909 0.481641 0.305527
O O8 0.231155 0.278859 0.785948
O O9 0.327623 0.049859 0.812369
O O10 0.072519 0.210381 0.183567
O O11 0.127843 0.860107 0.559032
O O12 0.235598 0.880958 0.611710
O O13 0.984063 0.123983 0.537098
O O14 0.775469 0.089282 0.950642
O O15 0.612550 0.786123 0.572445
O O16 0.506412 0.701930 0.624967
O O17 0.000000 0.000000 0.000000
#
# Coordination Sequence:
#
# PCOD8015307 Si02
#       8
#     2   2   2   2   2   2   2   2
#     4  11  20  36  62  88 116 154 202 243 280 351
#     4   9  20  35  58  85 117 151 196 245 292 337
#     4  10  20  34  59  89 110 154 202 243 284 336
#     4  10  20  36  62  89 113 152 196 250 285 339
#     4  10  21  36  55  85 124 150 192 243 298 349
#     4  10  16  36  59  85 114 149 199 243 291 337
#     4  10  20  37  61  88 114 152 210 242 276 339
#     4  12  23  39  59  89 123 156 191 237 306 355
#
# _framework density 20.231477000000002
#
# number of rings (size 3 to 8) (size 9 to 14) (size 15 to 20)
#    0.000    1.750    5.000    0.750    0.000    2.000 
#    0.000    8.125    0.000    0.000    0.000    0.000 
#    0.000    0.000    0.000    0.000    0.000    0.000 
#
# Total GULP energy -198258.371202 kJ/mol
# GULP energy per Si atom -12391.148200 kJ/mol
# Density = 2.018543 g / cm^3
# Si number density = 20.231477 Si / 1000 Ang^3
#
#
#
# Elastic Constant Matrix: (Units=GPa)
#
#
# Indices 1 2 3 4 5 6 
#
# 1 62.2508 19.1699 15.4832 -2.3782 -10.0374 -16.9002
# 2 19.1699 80.5270 23.5761 -3.5857 4.8325 -21.6660
# 3 15.4832 23.5761 72.4933 -12.7678 -1.6310 1.5570
# 4 -2.3782 -3.5857 -12.7678 34.5348 -4.1046 2.3027
# 5 -10.0374 4.8325 -1.6310 -4.1046 31.5691 2.6600
# 6 -16.9002 -21.6660 1.5570 2.3027 2.6600 23.3790
#
#
#
# Elastic Compliance Matrix: (Units=1/GPa)
#
#
# Indices 1 2 3 4 5 6 
#
# 1 0.022582 0.000195 -0.005259 -0.000816 0.005397 0.016322
# 2 0.000195 0.020316 -0.007692 -0.002736 -0.005518 0.020378
# 3 -0.005259 -0.007692 0.018999 0.007040 0.002512 -0.013175
# 4 -0.000816 -0.002736 0.007040 0.032348 0.005352 -0.007389
# 5 0.005397 -0.005518 0.002512 0.005352 0.035564 -0.005953
# 6 0.016322 0.020378 -0.013175 -0.007389 -0.005953 0.075740
#
#
# Mechanical properties :
#
#
# Convention : Reuss Voigt Hill
#
# Bulk Modulus (GPa) = 27.48489 36.85882 32.17186
# Shear Modulus (GPa) = 20.56004 28.36603 24.46304
#
# Velocity S-wave (km/s) = 3.19131 3.74849 3.48107
# Velocity P-wave (km/s) = 5.21479 6.08219 5.66511
#
# Compressibility (1/GPa) = 0.03638362
#
# Stress axis : x y z
#
# Youngs Moduli (GPa) = 44.28261 49.22228 52.63458
#
# Poissons Ratio (x) = -0.00961 0.27683
# Poissons Ratio (y) = -0.00864 0.40489
# Poissons Ratio (z) = 0.23290 0.37864
#
# Static dielectric constant tensor:
#      x y z
#    x 11.295610 -24.586260 1.282970 
#    y -24.586260 78.304620 -4.301430 
#    z 1.282970 -4.301430 4.136370 
# 
# 
# High freq. dielectric constant tensor:
#      x y z
#    x 1.744350 -0.032740 0.000910 
#    y -0.032740 1.799670 -0.001220 
#    z 0.000910 -0.001220 1.796880 
# 
# From -- ./inp_files/189317.got.cif
#   From: 2010.06.25/outbox.cif.g09.slc.cpg/sg2_95_cif.got.tgz:189317.got - 2010.06.27 13:26:56.
