data_PCOD8015107
_publ_section_title
;
Structure prediction by ZEFSAII (Michael W. Deem and Ramdas Pophale) SiO2 
 PCOD8015107
Probable space group: P -1
;
_chemical_formula_sum "Si O2"
_cell_formula_units_Z 16
_cell_length_a 8.697895
_cell_length_b 5.366465
_cell_length_c 17.699111
_cell_angle_alpha 114.093778
_cell_angle_beta 122.330105
_cell_angle_gamma 75.406747
_cell_volume 636.649728
_symmetry_space_group_name_H-M "P -1"
_symmetry_group_IT_number 2
_symmetry_cell_setting 'triclinic'
loop_
_space_group_symop_operation_xyz
x,y,z
-x,-y,-z
loop_
_atom_site_type_symbol
_atom_site_label
_atom_site_fract_x
_atom_site_fract_y
_atom_site_fract_z
Si Si1 0.762158 0.063250 0.299020
Si Si2 0.757539 0.131198 0.735402
Si Si3 0.598618 0.706167 0.997074
Si Si4 0.171336 0.247648 0.418275
Si Si5 0.071427 0.111647 0.110831
Si Si6 0.200967 0.890646 0.521491
Si Si7 0.572254 0.597613 0.808372
Si Si8 0.107080 0.371726 0.823805
O O1 0.690111 0.055600 0.365463
O O2 0.613932 0.231256 0.231816
O O3 0.953248 0.213179 0.357622
O O4 0.776025 0.750101 0.232138
O O5 0.570506 0.304783 0.727050
O O6 0.902809 0.283778 0.740877
O O7 0.727928 0.854023 0.646138
O O8 0.868499 0.115379 0.841387
O O9 0.800039 0.747296 0.089036
O O10 0.500000 0.500000 0.000000
O O11 0.607541 0.554853 0.900779
O O12 0.500000 0.000000 0.000000
O O13 0.211653 0.565918 0.470190
O O14 0.268068 0.070438 0.490438
O O15 0.253213 0.268224 0.163540
O O16 0.909109 0.300243 0.131248
O O17 0.000000 0.000000 0.000000
O O18 0.000000 0.000000 0.500000
#
# Coordination Sequence:
#
# PCOD8015107 Si02
#       8
#     2   2   2   2   2   2   2   2
#     4  10  21  42  66 100 134 170 221 286 341 397
#     4  10  24  42  67  96 130 183 226 279 324 410
#     4  12  27  44  64 100 140 172 220 280 341 395
#     4  10  23  43  71  99 133 174 229 273 340 405
#     4  11  24  42  70  92 134 183 235 272 331 401
#     4  10  21  42  68 103 131 175 220 282 337 408
#     4  11  25  45  62 101 136 177 226 279 342 396
#     4  10  23  41  66  95 129 180 225 278 328 402
#
# _framework density 25.131558999999999
#
# number of rings (size 3 to 8) (size 9 to 14) (size 15 to 20)
#    0.000    1.500    1.250    3.000   12.250    2.000 
#    9.000    1.250    0.000    0.000    0.000    0.000 
#    0.000    0.000    0.000    0.000    0.000    0.000 
#
# Total GULP energy -198223.100902 kJ/mol
# GULP energy per Si atom -12388.943806 kJ/mol
# Density = 2.507436 g / cm^3
# Si number density = 25.131559 Si / 1000 Ang^3
#
#
#
# Elastic Constant Matrix: (Units=GPa)
#
#
# Indices 1 2 3 4 5 6 
#
# 1 61.3438 36.8036 29.6826 13.4846 -21.3971 -18.0469
# 2 36.8036 142.7596 42.5634 26.9295 -19.9839 -17.8695
# 3 29.6826 42.5634 135.9442 14.2813 -39.5058 -16.9020
# 4 13.4846 26.9295 14.2813 44.5507 -11.1347 -13.4866
# 5 -21.3971 -19.9839 -39.5058 -11.1347 39.7852 8.5587
# 6 -18.0469 -17.8695 -16.9020 -13.4866 8.5587 36.1517
#
#
#
# Elastic Compliance Matrix: (Units=1/GPa)
#
#
# Indices 1 2 3 4 5 6 
#
# 1 0.024305 -0.003837 -0.000533 -0.000297 0.008859 0.007779
# 2 -0.003837 0.009235 -0.001664 -0.003794 -0.000249 0.000515
# 3 -0.000533 -0.001664 0.010931 0.000643 0.009478 0.002018
# 4 -0.000297 -0.003794 0.000643 0.028136 0.004804 0.007636
# 5 0.008859 -0.000249 0.009478 0.004804 0.040319 0.000977
# 6 0.007779 0.000515 0.002018 0.007636 0.000977 0.035360
#
#
# Mechanical properties :
#
#
# Convention : Reuss Voigt Hill
#
# Bulk Modulus (GPa) = 30.85984 62.01633 46.43808
# Shear Modulus (GPa) = 29.21319 39.49738 34.35528
#
# Velocity S-wave (km/s) = 3.41311 3.96867 3.70133
# Velocity P-wave (km/s) = 5.27621 6.76245 6.06503
#
# Compressibility (1/GPa) = 0.03240458
#
# Stress axis : x y z
#
# Youngs Moduli (GPa) = 41.14297 108.28045 91.48496
#
# Poissons Ratio (x) = 0.41550 0.04874
# Poissons Ratio (y) = 0.15788 0.15219
# Poissons Ratio (z) = 0.02192 0.18013
#
# Static dielectric constant tensor:
#      x y z
#    x 4.966490 0.447550 -1.758140 
#    y 0.447550 5.413970 -1.670870 
#    z -1.758140 -1.670870 8.645220 
# 
# 
# High freq. dielectric constant tensor:
#      x y z
#    x 1.986710 -0.016250 -0.017780 
#    y -0.016250 2.004920 0.003730 
#    z -0.017780 0.003730 2.013060 
# 
# From -- ./inp_files/553875.got.cif
#   From: 2010.06.25/outbox.cif.g09.slc.cpg/sg2_277_cif.got.tgz:553875.got - 2010.06.27 13:26:56.
