data_PCOD8015790
_publ_section_title
;
Structure prediction by ZEFSAII (Michael W. Deem and Ramdas Pophale) SiO2 
 PCOD8015790
Probable space group: P -1
;
_chemical_formula_sum "Si O2"
_cell_formula_units_Z 16
_cell_length_a 9.246334
_cell_length_b 12.327780
_cell_length_c 15.597456
_cell_angle_alpha 27.609963
_cell_angle_beta 108.146662
_cell_angle_gamma 95.557937
_cell_volume 715.290903
_symmetry_space_group_name_H-M "P -1"
_symmetry_group_IT_number 2
_symmetry_cell_setting 'triclinic'
loop_
_space_group_symop_operation_xyz
x,y,z
-x,-y,-z
loop_
_atom_site_type_symbol
_atom_site_label
_atom_site_fract_x
_atom_site_fract_y
_atom_site_fract_z
Si Si1 0.431539 0.514920 0.110411
Si Si2 0.839350 0.413362 0.477471
Si Si3 0.793096 0.664739 0.607088
Si Si4 0.104351 0.971204 0.725717
Si Si5 0.657762 0.688806 0.932015
Si Si6 0.561727 0.257948 0.483092
Si Si7 0.992917 0.668018 0.799402
Si Si8 0.984070 0.280821 0.776744
O O1 0.422852 0.355189 0.138895
O O2 0.532019 0.297049 0.349189
O O3 0.243357 0.702640 0.977057
O O4 0.543090 0.675636 0.998647
O O5 0.657408 0.429407 0.411871
O O6 0.851187 0.404272 0.589334
O O7 0.854605 0.668958 0.262228
O O8 0.985571 0.152005 0.650158
O O9 0.620408 0.637339 0.581885
O O10 0.934301 0.419429 0.761659
O O11 0.833951 0.706634 0.684318
O O12 0.778227 0.912404 0.378392
O O13 0.990727 0.930078 0.656803
O O14 0.667464 0.963675 0.734507
O O15 0.843690 0.473127 0.130250
O O16 0.000000 0.500000 0.000000
O O17 0.000000 0.000000 0.000000
#
# Coordination Sequence:
#
# PCOD8015790 Si02
#       8
#     2   2   2   2   2   2   2   2
#     4  10  22  38  60  93 137 180 213 257 321 380
#     4  10  25  45  69  99 124 167 221 272 324 391
#     4  11  24  42  66  98 131 174 217 268 328 382
#     4  10  21  43  65  94 139 172 219 265 313 394
#     4  10  22  39  57  94 139 176 217 260 310 387
#     4  12  24  38  66  97 132 166 216 272 328 379
#     4  11  23  38  65  98 135 178 220 258 320 389
#     4  10  25  47  73  90 123 170 221 271 328 388
#
# _framework density 22.368518999999999
#
# number of rings (size 3 to 8) (size 9 to 14) (size 15 to 20)
#    0.000    1.500    1.250    3.000    8.750    1.500 
#    0.000    0.625    0.000    0.000    0.000    0.000 
#    0.000    0.000    0.000    0.000    0.000    0.000 
#
# Total GULP energy -198296.818286 kJ/mol
# GULP energy per Si atom -12393.551143 kJ/mol
# Density = 2.231761 g / cm^3
# Si number density = 22.368519 Si / 1000 Ang^3
#
#
#
# Elastic Constant Matrix: (Units=GPa)
#
#
# Indices 1 2 3 4 5 6 
#
# 1 110.8645 29.0314 17.0843 4.1856 -16.5405 29.4933
# 2 29.0314 80.7216 11.5298 -0.5304 -7.8608 14.9862
# 3 17.0843 11.5298 66.3883 -12.8566 -23.5065 8.2602
# 4 4.1856 -0.5304 -12.8566 27.1532 8.4980 -5.6720
# 5 -16.5405 -7.8608 -23.5065 8.4980 33.0763 -3.2066
# 6 29.4933 14.9862 8.2602 -5.6720 -3.2066 40.8692
#
#
#
# Elastic Compliance Matrix: (Units=1/GPa)
#
#
# Indices 1 2 3 4 5 6 
#
# 1 0.013348 -0.002445 -0.000935 -0.006355 0.006195 -0.008943
# 2 -0.002445 0.014148 -0.001175 -0.000964 0.001240 -0.003222
# 3 -0.000935 -0.001175 0.021351 0.005946 0.012765 -0.001383
# 4 -0.006355 -0.000964 0.005946 0.045680 -0.010016 0.009291
# 5 0.006195 0.001240 0.012765 -0.010016 0.044749 -0.005385
# 6 -0.008943 -0.003222 -0.001383 0.009291 -0.005385 0.033250
#
#
# Mechanical properties :
#
#
# Convention : Reuss Voigt Hill
#
# Bulk Modulus (GPa) = 25.16486 41.47394 33.31940
# Shear Modulus (GPa) = 25.65674 33.57499 29.61587
#
# Velocity S-wave (km/s) = 3.39042 3.87847 3.64263
# Velocity P-wave (km/s) = 5.15763 6.21596 5.71136
#
# Compressibility (1/GPa) = 0.03973796
#
# Stress axis : x y z
#
# Youngs Moduli (GPa) = 74.92007 70.68067 46.83633
#
# Poissons Ratio (x) = 0.17283 0.04377
# Poissons Ratio (y) = 0.18319 0.05501
# Poissons Ratio (z) = 0.07002 0.08302
#
# Static dielectric constant tensor:
#      x y z
#    x 4.305050 0.217670 -0.274540 
#    y 0.217670 4.100020 -0.191810 
#    z -0.274540 -0.191810 4.098710 
# 
# 
# High freq. dielectric constant tensor:
#      x y z
#    x 1.890650 0.012660 -0.025660 
#    y 0.012660 1.865040 0.000520 
#    z -0.025660 0.000520 1.871350 
# 
# From -- ./inp_files/499767.got.cif
#   From: 2010.06.25/outbox.cif.g09.slc.cpg/sg2_250_cif.got.tgz:499767.got - 2010.06.27 13:26:56.
