data_PCOD8015285
_publ_section_title
;
Structure prediction by ZEFSAII (Michael W. Deem and Ramdas Pophale) SiO2 
 PCOD8015285
Probable space group: P -1
;
_chemical_formula_sum "Si O2"
_cell_formula_units_Z 14
_cell_length_a 9.260724
_cell_length_b 5.176666
_cell_length_c 18.987149
_cell_angle_alpha 61.562139
_cell_angle_beta 126.625535
_cell_angle_gamma 102.350608
_cell_volume 639.178572
_symmetry_space_group_name_H-M "P -1"
_symmetry_group_IT_number 2
_symmetry_cell_setting 'triclinic'
loop_
_space_group_symop_operation_xyz
x,y,z
-x,-y,-z
loop_
_atom_site_type_symbol
_atom_site_label
_atom_site_fract_x
_atom_site_fract_y
_atom_site_fract_z
Si Si1 0.385412 0.735164 0.982603
Si Si2 0.205173 0.410564 0.092005
Si Si3 0.921742 0.707471 0.537098
Si Si4 0.132289 0.569062 0.309043
Si Si5 0.247525 0.272622 0.659579
Si Si6 0.088210 0.875204 0.765665
Si Si7 0.664845 0.274996 0.780604
O O1 0.207865 0.851838 0.873347
O O2 0.500000 0.500000 0.000000
O O3 0.335734 0.585667 0.059894
O O4 0.500000 0.000000 0.000000
O O5 0.235653 0.508622 0.168128
O O6 0.252293 0.061437 0.140977
O O7 0.000000 0.500000 0.000000
O O8 0.814638 0.687655 0.582647
O O9 0.784412 0.650651 0.442010
O O10 0.102668 0.489997 0.630861
O O11 0.000000 0.000000 0.500000
O O12 0.303939 0.624735 0.303696
O O13 0.983372 0.440332 0.231482
O O14 0.071838 0.874442 0.292289
O O15 0.452718 0.318280 0.730915
O O16 0.201877 0.955478 0.718182
#
# Coordination Sequence:
#
# PCOD8015285 Si02
#       7
#     2   2   2   2   2   2   2
#     4  12  24  40  64  96 124 163 217 270 313 371
#     4  12  26  46  66  93 138 176 213 264 327 382
#     4  10  21  42  67  94 128 170 211 264 331 385
#     4  11  23  41  65  91 126 167 214 256 317 387
#     4  10  23  40  66  96 130 166 213 269 324 384
#     4  11  22  41  63  89 124 168 212 260 319 384
#     4  12  26  43  66  99 130 173 217 266 320 381
#
# _framework density 21.903112
#
# number of rings (size 3 to 8) (size 9 to 14) (size 15 to 20)
#    0.000    0.857    1.429    6.429    2.000    1.714 
#    0.000    0.714    0.000    0.000    0.000    0.000 
#    0.000    0.000    0.000    0.000    0.000    0.000 
#
# Total GULP energy -173525.179881 kJ/mol
# GULP energy per Si atom -12394.655706 kJ/mol
# Density = 2.185326 g / cm^3
# Si number density = 21.903112 Si / 1000 Ang^3
#
#
#
# Elastic Constant Matrix: (Units=GPa)
#
#
# Indices 1 2 3 4 5 6 
#
# 1 91.2816 11.7360 28.0868 5.4052 -23.7368 12.8834
# 2 11.7360 94.6742 6.8595 7.4745 3.3429 -4.6105
# 3 28.0868 6.8595 78.5725 -1.6975 -6.5552 -4.5752
# 4 5.4052 7.4745 -1.6975 32.5180 10.7299 -9.6349
# 5 -23.7368 3.3429 -6.5552 10.7299 46.5428 -2.9289
# 6 12.8834 -4.6105 -4.5752 -9.6349 -2.9289 32.0350
#
#
#
# Elastic Compliance Matrix: (Units=1/GPa)
#
#
# Indices 1 2 3 4 5 6 
#
# 1 0.017503 -0.001851 -0.006065 -0.008937 0.009638 -0.009979
# 2 -0.001851 0.011052 -0.000342 -0.001268 -0.001382 0.001779
# 3 -0.006065 -0.000342 0.015216 0.004050 -0.001504 0.005643
# 4 -0.008937 -0.001268 0.004050 0.041390 -0.012476 0.015298
# 5 0.009638 -0.001382 -0.001504 -0.012476 0.028824 -0.005407
# 6 -0.009979 0.001779 0.005643 0.015298 -0.005407 0.040398
#
#
# Mechanical properties :
#
#
# Convention : Reuss Voigt Hill
#
# Bulk Modulus (GPa) = 36.69170 39.76588 38.22879
# Shear Modulus (GPa) = 27.78017 36.74223 32.26120
#
# Velocity S-wave (km/s) = 3.56521 4.10016 3.84201
# Velocity P-wave (km/s) = 5.80826 6.37259 6.09695
#
# Compressibility (1/GPa) = 0.02725412
#
# Stress axis : x y z
#
# Youngs Moduli (GPa) = 57.13272 90.47910 65.72168
#
# Poissons Ratio (x) = 0.16747 0.39861
# Poissons Ratio (y) = 0.10575 0.02250
# Poissons Ratio (z) = 0.34652 0.03098
#
# Static dielectric constant tensor:
#      x y z
#    x 3.632450 -0.223380 0.400550 
#    y -0.223380 3.842230 0.630550 
#    z 0.400550 0.630550 3.044360 
# 
# 
# High freq. dielectric constant tensor:
#      x y z
#    x 1.862320 0.007270 -0.025030 
#    y 0.007270 1.867460 -0.003970 
#    z -0.025030 -0.003970 1.864350 
# 
# From -- ./inp_files/38421.got.cif
#   From: 2010.06.25/outbox.cif.g09.slc.cpg/sg2_20_cif.got.tgz:38421.got - 2010.06.27 13:26:56.
