data_PCOD8015739
_publ_section_title
;
Structure prediction by ZEFSAII (Michael W. Deem and Ramdas Pophale) SiO2 
 PCOD8015739
Probable space group: P -1
;
_chemical_formula_sum "Si O2"
_cell_formula_units_Z 16
_cell_length_a 12.046437
_cell_length_b 8.895244
_cell_length_c 14.671865
_cell_angle_alpha 131.604350
_cell_angle_beta 131.512673
_cell_angle_gamma 44.117798
_cell_volume 764.279694
_symmetry_space_group_name_H-M "P -1"
_symmetry_group_IT_number 2
_symmetry_cell_setting 'triclinic'
loop_
_space_group_symop_operation_xyz
x,y,z
-x,-y,-z
loop_
_atom_site_type_symbol
_atom_site_label
_atom_site_fract_x
_atom_site_fract_y
_atom_site_fract_z
Si Si1 0.833441 0.556804 0.688330
Si Si2 0.378932 0.943041 0.470317
Si Si3 0.498364 0.928330 0.722407
Si Si4 0.909741 0.663165 0.101178
Si Si5 0.245450 0.796735 0.793997
Si Si6 0.559183 0.793697 0.020893
Si Si7 0.030647 0.321595 0.365147
Si Si8 0.388897 0.581722 0.599849
O O1 0.698545 0.809904 0.756710
O O2 0.936327 0.585733 0.673306
O O3 0.725446 0.435479 0.549234
O O4 0.961263 0.394024 0.768705
O O5 0.379488 0.026885 0.608122
O O6 0.450861 0.669435 0.392421
O O7 0.500000 0.000000 0.500000
O O8 0.189231 0.074253 0.380380
O O9 0.468149 0.737406 0.677521
O O10 0.452535 0.132505 0.850592
O O11 0.756712 0.618173 0.033268
O O12 0.842087 0.926556 0.141583
O O13 0.000000 0.500000 0.000000
O O14 0.263256 0.696288 0.662311
O O15 0.130943 0.715280 0.754406
O O16 0.435286 0.684222 0.896810
O O17 0.500000 0.000000 0.000000
O O18 0.000000 0.500000 0.500000
#
# Coordination Sequence:
#
# PCOD8015739 Si02
#       8
#     2   2   2   2   2   2   2   2
#     4  11  23  41  64 101 135 167 223 268 330 384
#     4  11  22  41  65  96 133 177 210 263 340 382
#     4  11  22  40  69  96 133 169 221 271 323 395
#     4  11  25  43  70  99 130 173 219 278 326 386
#     4  11  24  42  68  95 134 175 218 269 328 390
#     4  10  21  43  64  91 130 169 216 267 327 382
#     4  12  25  43  64  97 142 173 212 272 325 400
#     4  11  22  40  67 101 129 166 219 278 326 389
#
# _framework density 20.934743999999998
#
# number of rings (size 3 to 8) (size 9 to 14) (size 15 to 20)
#    0.000    1.000    6.250    3.000    5.250    0.500 
#    0.000    3.125    0.000    0.000    0.000    0.000 
#    0.000    0.000    0.000    0.000    0.000    0.000 
#
# Total GULP energy -198412.435285 kJ/mol
# GULP energy per Si atom -12400.777205 kJ/mol
# Density = 2.088710 g / cm^3
# Si number density = 20.934744 Si / 1000 Ang^3
#
#
#
# Elastic Constant Matrix: (Units=GPa)
#
#
# Indices 1 2 3 4 5 6 
#
# 1 112.6051 9.0027 33.0271 7.0219 3.4917 -21.2884
# 2 9.0027 53.1177 29.5160 1.0836 1.5821 -16.0212
# 3 33.0271 29.5160 89.8598 4.5310 -0.1731 -18.1028
# 4 7.0219 1.0836 4.5310 19.9939 -8.1086 -6.6438
# 5 3.4917 1.5821 -0.1731 -8.1086 50.5126 -0.3754
# 6 -21.2884 -16.0212 -18.1028 -6.6438 -0.3754 36.4188
#
#
#
# Elastic Compliance Matrix: (Units=1/GPa)
#
#
# Indices 1 2 3 4 5 6 
#
# 1 0.010853 0.001646 -0.003427 -0.001899 -0.001081 0.005007
# 2 0.001646 0.025207 -0.007215 0.002462 -0.000467 0.008909
# 3 -0.003427 -0.007215 0.015258 -0.000968 0.000376 0.002234
# 4 -0.001899 0.002462 -0.000968 0.057971 0.009432 0.010165
# 5 -0.001081 -0.000467 0.000376 0.009432 0.021411 0.001291
# 6 0.005007 0.008909 0.002234 0.010165 0.001291 0.037283
#
#
# Mechanical properties :
#
#
# Convention : Reuss Voigt Hill
#
# Bulk Modulus (GPa) = 30.00717 44.29713 37.15215
# Shear Modulus (GPa) = 25.37006 33.65417 29.51212
#
# Velocity S-wave (km/s) = 3.48496 4.01381 3.75870
# Velocity P-wave (km/s) = 5.52793 6.53349 6.05163
#
# Compressibility (1/GPa) = 0.03332537
#
# Stress axis : x y z
#
# Youngs Moduli (GPa) = 92.14314 39.67127 65.54125
#
# Poissons Ratio (x) = -0.06530 0.22462
# Poissons Ratio (y) = -0.15168 0.47288
# Poissons Ratio (z) = 0.31579 0.28623
#
# Static dielectric constant tensor:
#      x y z
#    x 4.373250 -0.136320 -0.237770 
#    y -0.136320 3.121750 -0.006560 
#    z -0.237770 -0.006560 4.126810 
# 
# 
# High freq. dielectric constant tensor:
#      x y z
#    x 1.836650 -0.018410 -0.006400 
#    y -0.018410 1.803170 -0.006810 
#    z -0.006400 -0.006810 1.819350 
# 
# From -- ./inp_files/327551.got.cif
#   From: 2010.06.25/outbox.cif.g09.slc.cpg/sg2_164_cif.got.tgz:327551.got - 2010.06.27 13:26:56.
