data_PCOD8015042
_publ_section_title
;
Structure prediction by ZEFSAII (Michael W. Deem and Ramdas Pophale) SiO2 
 PCOD8015042
Probable space group: P -1
;
_chemical_formula_sum "Si O2"
_cell_formula_units_Z 16
_cell_length_a 11.333494
_cell_length_b 8.885748
_cell_length_c 11.940074
_cell_angle_alpha 128.550098
_cell_angle_beta 129.254910
_cell_angle_gamma 58.617192
_cell_volume 712.136827
_symmetry_space_group_name_H-M "P -1"
_symmetry_group_IT_number 2
_symmetry_cell_setting 'triclinic'
loop_
_space_group_symop_operation_xyz
x,y,z
-x,-y,-z
loop_
_atom_site_type_symbol
_atom_site_label
_atom_site_fract_x
_atom_site_fract_y
_atom_site_fract_z
Si Si1 0.711753 0.408223 0.980564
Si Si2 0.359978 0.580198 0.802146
Si Si3 0.698723 0.779157 0.849546
Si Si4 0.868268 0.742896 0.155910
Si Si5 0.861291 0.608944 0.543650
Si Si6 0.350500 0.871604 0.739183
Si Si7 0.842018 0.980872 0.836557
Si Si8 0.196045 0.613047 0.377637
O O1 0.545097 0.522951 0.892293
O O2 0.754213 0.197986 0.846281
O O3 0.717351 0.373135 0.101313
O O4 0.838397 0.532572 0.079781
O O5 0.298515 0.401756 0.622498
O O6 0.311735 0.776761 0.789480
O O7 0.531798 0.881286 0.847864
O O8 0.728137 0.898832 0.814197
O O9 0.701635 0.550914 0.717112
O O10 0.833729 0.781695 0.022199
O O11 0.049414 0.744662 0.284984
O O12 0.755917 0.912337 0.237829
O O13 0.870912 0.835876 0.678706
O O14 0.876286 0.492815 0.614897
O O15 0.000000 0.500000 0.500000
O O16 0.310757 0.748187 0.552187
O O17 0.000000 0.000000 0.000000
#
# Coordination Sequence:
#
# PCOD8015042 Si02
#       8
#     2   2   2   2   2   2   2   2
#     4  11  23  39  64  96 129 164 218 261 312 375
#     4  10  22  40  65  90 130 171 209 264 315 378
#     4  11  23  42  66  91 129 167 213 259 326 378
#     4  12  23  40  67  98 128 168 218 261 314 382
#     4  10  21  42  65  89 126 168 213 258 324 380
#     4  11  23  42  65  95 127 173 212 261 323 377
#     4  11  24  42  66  93 127 169 209 262 324 382
#     4  10  23  41  64  92 130 165 211 269 317 379
#
# _framework density 22.467592
#
# number of rings (size 3 to 8) (size 9 to 14) (size 15 to 20)
#    0.000    1.250    1.250    5.250    3.500    1.500 
#    0.000    3.750    0.000    0.000    0.000    0.000 
#    0.000    0.000    0.000    0.000    0.000    0.000 
#
# Total GULP energy -198486.825863 kJ/mol
# GULP energy per Si atom -12405.426616 kJ/mol
# Density = 2.241645 g / cm^3
# Si number density = 22.467592 Si / 1000 Ang^3
#
#
#
# Elastic Constant Matrix: (Units=GPa)
#
#
# Indices 1 2 3 4 5 6 
#
# 1 53.5799 13.8345 2.0344 5.0112 -4.2990 -6.9589
# 2 13.8345 100.1280 28.6433 17.9765 -3.6547 -15.2839
# 3 2.0344 28.6433 105.9369 6.9621 -2.3409 -2.2686
# 4 5.0112 17.9765 6.9621 42.6627 -11.3623 -0.5588
# 5 -4.2990 -3.6547 -2.3409 -11.3623 31.8880 8.5253
# 6 -6.9589 -15.2839 -2.2686 -0.5588 8.5253 21.0610
#
#
#
# Elastic Compliance Matrix: (Units=1/GPa)
#
#
# Indices 1 2 3 4 5 6 
#
# 1 0.019953 -0.001811 0.000320 -0.001388 0.000674 0.005004
# 2 -0.001811 0.013627 -0.003125 -0.005888 -0.003770 0.010324
# 3 0.000320 -0.003125 0.010280 -0.000224 0.000721 -0.001353
# 4 -0.001388 -0.005888 -0.000224 0.029164 0.011862 -0.008783
# 5 0.000674 -0.003770 0.000721 0.011862 0.040217 -0.018400
# 6 0.005004 0.010324 -0.001353 -0.008783 -0.018400 0.063696
#
#
# Mechanical properties :
#
#
# Convention : Reuss Voigt Hill
#
# Bulk Modulus (GPa) = 28.87868 38.74102 33.80985
# Shear Modulus (GPa) = 25.28939 33.46453 29.37696
#
# Velocity S-wave (km/s) = 3.35863 3.86354 3.61990
# Velocity P-wave (km/s) = 5.28412 6.09779 5.70548
#
# Compressibility (1/GPa) = 0.03462763
#
# Stress axis : x y z
#
# Youngs Moduli (GPa) = 50.11817 73.38566 97.27584
#
# Poissons Ratio (x) = 0.13288 -0.03110
# Poissons Ratio (y) = 0.09075 0.30398
# Poissons Ratio (z) = -0.01602 0.22932
#
# Static dielectric constant tensor:
#      x y z
#    x 3.816980 -0.066680 -0.078590 
#    y -0.066680 4.026300 0.132970 
#    z -0.078590 0.132970 4.471630 
# 
# 
# High freq. dielectric constant tensor:
#      x y z
#    x 1.879140 -0.008490 -0.000350 
#    y -0.008490 1.879350 0.005030 
#    z -0.000350 0.005030 1.898980 
# 
# From -- ./inp_files/261684.got.cif
#   From: 2010.06.25/outbox.cif.g09.slc.cpg/sg2_131_cif.got.tgz:261684.got - 2010.06.27 13:26:56.
