data_PCOD8015137
_publ_section_title
;
Structure prediction by ZEFSAII (Michael W. Deem and Ramdas Pophale) SiO2 
 PCOD8015137
Probable space group: P -1
;
_chemical_formula_sum "Si O2"
_cell_formula_units_Z 16
_cell_length_a 11.030412
_cell_length_b 21.260088
_cell_length_c 9.223690
_cell_angle_alpha 133.147479
_cell_angle_beta 82.448054
_cell_angle_gamma 135.321179
_cell_volume 801.342388
_symmetry_space_group_name_H-M "P -1"
_symmetry_group_IT_number 2
_symmetry_cell_setting 'triclinic'
loop_
_space_group_symop_operation_xyz
x,y,z
-x,-y,-z
loop_
_atom_site_type_symbol
_atom_site_label
_atom_site_fract_x
_atom_site_fract_y
_atom_site_fract_z
Si Si1 0.712640 0.986810 0.729173
Si Si2 0.992268 0.523431 0.287343
Si Si3 0.344830 0.864146 0.932505
Si Si4 0.495715 0.805577 0.996127
Si Si5 0.267413 0.139974 0.218405
Si Si6 0.710542 0.382497 0.830851
Si Si7 0.611960 0.660180 0.253919
Si Si8 0.077324 0.956809 0.481295
O O1 0.743734 0.947577 0.806901
O O2 0.448803 0.801530 0.417522
O O3 0.912557 0.092622 0.743508
O O4 0.763389 0.118507 0.945262
O O5 0.777759 0.367400 0.180815
O O6 0.146295 0.683625 0.607346
O O7 0.157005 0.543197 0.232134
O O8 0.899550 0.508785 0.128894
O O9 0.511141 0.910783 0.091235
O O10 0.500000 0.000000 0.000000
O O11 0.566465 0.780538 0.820040
O O12 0.667975 0.893372 0.242388
O O13 0.376286 0.293362 0.512741
O O14 0.000000 0.000000 0.000000
O O15 0.539489 0.361383 0.845509
O O16 0.500000 0.500000 0.000000
O O17 0.878729 0.805858 0.385858
O O18 0.000000 0.000000 0.500000
#
# Coordination Sequence:
#
# PCOD8015137 Si02
#       8
#     2   2   2   2   2   2   2   2
#     4  11  22  41  64  94 128 170 217 262 323 385
#     4  11  23  41  67  94 129 171 215 267 319 390
#     4  12  24  40  63  97 136 167 212 273 328 380
#     4  12  24  41  70  98 127 174 221 264 328 387
#     4  11  21  40  67  92 127 174 214 261 325 389
#     4  10  21  42  66  89 131 177 211 255 334 388
#     4  11  24  40  64  96 129 165 214 272 320 375
#     4  12  22  44  69  93 128 175 221 264 316 394
#
# _framework density 19.966498000000001
#
# number of rings (size 3 to 8) (size 9 to 14) (size 15 to 20)
#    0.000    0.750    7.500    1.125    0.000    4.500 
#    0.000    0.000    0.000    4.500    0.000    0.000 
#    0.000    0.000    0.000    0.000    0.000    0.000 
#
# Total GULP energy -198212.935031 kJ/mol
# GULP energy per Si atom -12388.308439 kJ/mol
# Density = 1.992105 g / cm^3
# Si number density = 19.966498 Si / 1000 Ang^3
#
#
#
# Elastic Constant Matrix: (Units=GPa)
#
#
# Indices 1 2 3 4 5 6 
#
# 1 111.4916 38.6057 60.4209 -8.7751 -8.8391 6.2377
# 2 38.6057 120.8983 21.3691 -5.3519 -10.7755 25.3186
# 3 60.4209 21.3691 89.0967 -6.0055 -6.2500 -10.9168
# 4 -8.7751 -5.3519 -6.0055 35.8942 5.0005 0.1860
# 5 -8.8391 -10.7755 -6.2500 5.0005 38.6483 -7.8303
# 6 6.2377 25.3186 -10.9168 0.1860 -7.8303 42.5578
#
#
#
# Elastic Compliance Matrix: (Units=1/GPa)
#
#
# Indices 1 2 3 4 5 6 
#
# 1 0.015808 -0.002352 -0.010451 0.001738 0.000326 -0.003546
# 2 -0.002352 0.010741 -0.001653 0.000668 0.000822 -0.006321
# 3 -0.010451 -0.001653 0.019833 0.000205 0.001942 0.007959
# 4 0.001738 0.000668 0.000205 0.028899 -0.003396 -0.001351
# 5 0.000326 0.000822 0.001942 -0.003396 0.027969 0.005122
# 6 -0.003546 -0.006321 0.007959 -0.001351 0.005122 0.030768
#
#
# Mechanical properties :
#
#
# Convention : Reuss Voigt Hill
#
# Bulk Modulus (GPa) = 57.23846 62.47533 59.85690
# Shear Modulus (GPa) = 29.62902 36.82612 33.22757
#
# Velocity S-wave (km/s) = 3.85637 4.29930 4.08384
# Velocity P-wave (km/s) = 6.96838 7.48354 7.23055
#
# Compressibility (1/GPa) = 0.01747077
#
# Stress axis : x y z
#
# Youngs Moduli (GPa) = 63.25725 93.09860 50.42187
#
# Poissons Ratio (x) = 0.21898 0.52695
# Poissons Ratio (y) = 0.14879 0.08334
# Poissons Ratio (z) = 0.66109 0.15388
#
# Static dielectric constant tensor:
#      x y z
#    x 2.978870 -0.760090 -0.432250 
#    y -0.760090 2.412920 -1.159220 
#    z -0.432250 -1.159220 2.967150 
# 
# 
# High freq. dielectric constant tensor:
#      x y z
#    x 1.784750 0.024640 0.012660 
#    y 0.024640 1.788150 -0.018220 
#    z 0.012660 -0.018220 1.772480 
# 
# From -- ./inp_files/282286.got.cif
#   From: 2010.06.25/outbox.cif.g09.slc.cpg/sg2_142_cif.got.tgz:282286.got - 2010.06.27 13:26:56.
