data_PCOD8015892
_publ_section_title
;
Structure prediction by ZEFSAII (Michael W. Deem and Ramdas Pophale) SiO2 
 PCOD8015892
Probable space group: P -1
;
_chemical_formula_sum "Si O2"
_cell_formula_units_Z 12
_cell_length_a 18.479649
_cell_length_b 14.301779
_cell_length_c 11.548598
_cell_angle_alpha 32.161399
_cell_angle_beta 149.852795
_cell_angle_gamma 157.593612
_cell_volume 566.335513
_symmetry_space_group_name_H-M "P -1"
_symmetry_group_IT_number 2
_symmetry_cell_setting 'triclinic'
loop_
_space_group_symop_operation_xyz
x,y,z
-x,-y,-z
loop_
_atom_site_type_symbol
_atom_site_label
_atom_site_fract_x
_atom_site_fract_y
_atom_site_fract_z
Si Si1 0.717012 0.409850 0.169388
Si Si2 0.276382 0.616789 0.052140
Si Si3 0.628531 0.763428 0.960505
Si Si4 0.293483 0.028700 0.612016
Si Si5 0.159083 0.878096 0.336391
Si Si6 0.025396 0.067001 0.332857
O O1 0.806337 0.295630 0.420052
O O2 0.912461 0.707639 0.161733
O O3 0.644779 0.379478 0.969024
O O4 0.522189 0.258399 0.142413
O O5 0.459515 0.759665 0.249266
O O6 0.198370 0.751286 0.798666
O O7 0.086565 0.326082 0.132970
O O8 0.811353 0.840525 0.208551
O O9 0.500000 0.500000 0.000000
O O10 0.719759 0.963695 0.776622
O O11 0.248032 0.049532 0.395207
O O12 0.201209 0.093519 0.499944
O O13 0.000000 0.000000 0.500000
#
# Coordination Sequence:
#
# PCOD8015892 Si02
#       6
#     2   2   2   2   2   2
#     4  10  21  43  67  90 127 169 215 259 320 380
#     4  10  22  44  68  91 126 174 212 265 320 372
#     4  12  26  39  62 100 130 166 213 262 321 382
#     4  10  23  42  68  94 124 171 217 260 322 380
#     4  10  22  42  67  93 125 170 210 266 318 374
#     4  12  26  42  63  96 132 170 212 266 321 379
#
# _framework density 21.188853999999999
#
# number of rings (size 3 to 8) (size 9 to 14) (size 15 to 20)
#    0.000    1.333    1.667    3.000    4.667    2.000 
#    3.000    0.000    0.000    0.000    0.000    0.000 
#    0.000    0.000    0.000    0.000    0.000    0.000 
#
# Total GULP energy -148820.613072 kJ/mol
# GULP energy per Si atom -12401.717756 kJ/mol
# Density = 2.114063 g / cm^3
# Si number density = 21.188854 Si / 1000 Ang^3
#
#
#
# Elastic Constant Matrix: (Units=GPa)
#
#
# Indices 1 2 3 4 5 6 
#
# 1 95.1774 21.9987 26.5829 -5.6393 -28.7428 3.7897
# 2 21.9987 106.7078 30.5119 0.6268 -19.7272 -6.5552
# 3 26.5829 30.5119 60.9634 6.3511 -21.1580 -3.8694
# 4 -5.6393 0.6268 6.3511 30.2429 0.5813 -7.2400
# 5 -28.7428 -19.7272 -21.1580 0.5813 44.3731 3.2438
# 6 3.7897 -6.5552 -3.8694 -7.2400 3.2438 43.1104
#
#
#
# Elastic Compliance Matrix: (Units=1/GPa)
#
#
# Indices 1 2 3 4 5 6 
#
# 1 0.014102 -0.000633 -0.003761 0.002882 0.007148 -0.001727
# 2 -0.000633 0.011321 -0.004591 0.000887 0.002324 0.001339
# 3 -0.003761 -0.004591 0.023249 -0.005548 0.006660 0.000286
# 4 0.002882 0.000887 -0.005548 0.036100 -0.001262 0.005541
# 5 0.007148 0.002324 0.006660 -0.001262 0.031557 -0.002264
# 6 -0.001727 0.001339 0.000286 0.005541 -0.002264 0.024678
#
#
# Mechanical properties :
#
#
# Convention : Reuss Voigt Hill
#
# Bulk Modulus (GPa) = 32.57205 46.78172 39.67689
# Shear Modulus (GPa) = 29.54870 35.79562 32.67216
#
# Velocity S-wave (km/s) = 3.73840 4.11464 3.93103
# Velocity P-wave (km/s) = 5.83437 6.68581 6.27455
#
# Compressibility (1/GPa) = 0.03070117
#
# Stress axis : x y z
#
# Youngs Moduli (GPa) = 70.91338 88.32792 43.01341
#
# Poissons Ratio (x) = 0.05594 0.16178
# Poissons Ratio (y) = 0.04491 0.19747
# Poissons Ratio (z) = 0.26671 0.40550
#
# Static dielectric constant tensor:
#      x y z
#    x 4.196290 -0.138760 -0.250120 
#    y -0.138760 3.737220 0.211010 
#    z -0.250120 0.211010 3.831050 
# 
# 
# High freq. dielectric constant tensor:
#      x y z
#    x 1.834500 -0.015470 -0.012580 
#    y -0.015470 1.834300 0.003590 
#    z -0.012580 0.003590 1.837430 
# 
# From -- ./inp_files/33680.got.cif
#   From: 2010.06.25/outbox.cif.g09.slc.cpg/sg2_17_cif.got.tgz:33680.got - 2010.06.27 13:26:56.
