data_PCOD8015153
_publ_section_title
;
Structure prediction by ZEFSAII (Michael W. Deem and Ramdas Pophale) SiO2 
 PCOD8015153
Probable space group: P -1
;
_chemical_formula_sum "Si O2"
_cell_formula_units_Z 16
_cell_length_a 14.785078
_cell_length_b 8.435889
_cell_length_c 15.721516
_cell_angle_alpha 70.159408
_cell_angle_beta 25.541597
_cell_angle_gamma 61.009160
_cell_volume 714.171928
_symmetry_space_group_name_H-M "P -1"
_symmetry_group_IT_number 2
_symmetry_cell_setting 'triclinic'
loop_
_space_group_symop_operation_xyz
x,y,z
-x,-y,-z
loop_
_atom_site_type_symbol
_atom_site_label
_atom_site_fract_x
_atom_site_fract_y
_atom_site_fract_z
Si Si1 0.915514 0.389753 0.333047
Si Si2 0.482138 0.625233 0.413110
Si Si3 0.661577 0.733356 0.602936
Si Si4 0.872090 0.323713 0.706487
Si Si5 0.096248 0.155836 0.381243
Si Si6 0.376372 0.079954 0.678733
Si Si7 0.453034 0.264570 0.113154
Si Si8 0.066412 0.565949 0.019613
O O1 0.775698 0.291876 0.421612
O O2 0.729791 0.565128 0.510205
O O3 0.085345 0.230900 0.281576
O O4 0.047165 0.455945 0.139438
O O5 0.500000 0.500000 0.500000
O O6 0.521451 0.796835 0.381709
O O7 0.660019 0.493212 0.212965
O O8 0.561199 0.694160 0.782250
O O9 0.893396 0.766552 0.418424
O O10 0.438236 0.907317 0.720913
O O11 0.717902 0.540282 0.825002
O O12 0.940010 0.319779 0.550033
O O13 0.720161 0.205094 0.868718
O O14 0.366128 0.104257 0.190721
O O15 0.000000 0.000000 0.500000
O O16 0.098748 0.209107 0.873143
O O17 0.500000 0.000000 0.500000
O O18 0.000000 0.500000 0.000000
#
# Coordination Sequence:
#
# PCOD8015153 Si02
#       8
#     2   2   2   2   2   2   2   2
#     4  12  22  41  69  92 129 179 218 271 339 401
#     4  11  23  43  67  92 133 177 219 273 341 399
#     4  11  21  41  63  97 130 170 221 277 334 389
#     4  10  21  42  67  89 131 172 222 275 331 395
#     4  11  24  41  63  97 134 173 218 274 330 398
#     4  11  22  42  66  95 132 168 223 283 321 398
#     4  10  21  42  66  91 131 173 221 273 330 400
#     4  10  22  44  65  90 130 174 217 270 337 393
#
# _framework density 22.403568
#
# number of rings (size 3 to 8) (size 9 to 14) (size 15 to 20)
#    0.000    1.250    6.250    0.750    3.500    2.500 
#    6.750    1.250    0.000    0.000    0.000    0.000 
#    0.000    0.000    0.000    0.000    0.000    0.000 
#
# Total GULP energy -198231.149810 kJ/mol
# GULP energy per Si atom -12389.446863 kJ/mol
# Density = 2.235258 g / cm^3
# Si number density = 22.403568 Si / 1000 Ang^3
#
#
#
# Elastic Constant Matrix: (Units=GPa)
#
#
# Indices 1 2 3 4 5 6 
#
# 1 84.8906 16.2164 35.2840 -10.3222 13.6687 -5.8872
# 2 16.2164 72.9671 11.7658 -2.8126 6.5897 -13.1500
# 3 35.2840 11.7658 115.1569 -10.9060 7.4063 -11.7096
# 4 -10.3222 -2.8126 -10.9060 36.9168 3.2262 1.6840
# 5 13.6687 6.5897 7.4063 3.2262 39.1427 -11.3106
# 6 -5.8872 -13.1500 -11.7096 1.6840 -11.3106 36.0762
#
#
#
# Elastic Compliance Matrix: (Units=1/GPa)
#
#
# Indices 1 2 3 4 5 6 
#
# 1 0.014904 -0.002375 -0.003839 0.003326 -0.004734 -0.001319
# 2 -0.002375 0.015206 -0.000284 0.000206 -0.000257 0.004973
# 3 -0.003839 -0.000284 0.010320 0.001836 0.000018 0.002540
# 4 0.003326 0.000206 0.001836 0.029027 -0.004373 -0.001512
# 5 -0.004734 -0.000257 0.000018 -0.004373 0.030142 0.008794
# 6 -0.001319 0.004973 0.002540 -0.001512 0.008794 0.032968
#
#
# Mechanical properties :
#
#
# Convention : Reuss Voigt Hill
#
# Bulk Modulus (GPa) = 36.45141 44.39412 40.42277
# Shear Modulus (GPa) = 32.31883 36.41036 34.36460
#
# Velocity S-wave (km/s) = 3.80225 4.03576 3.92074
# Velocity P-wave (km/s) = 5.96505 6.44787 6.21115
#
# Compressibility (1/GPa) = 0.02743378
#
# Stress axis : x y z
#
# Youngs Moduli (GPa) = 67.09475 65.76425 96.89940
#
# Poissons Ratio (x) = 0.15622 0.37196
# Poissons Ratio (y) = 0.15938 0.02753
# Poissons Ratio (z) = 0.25755 0.01869
#
# Static dielectric constant tensor:
#      x y z
#    x 4.196310 -0.088630 -0.102640 
#    y -0.088630 3.889430 0.105490 
#    z -0.102640 0.105490 4.613940 
# 
# 
# High freq. dielectric constant tensor:
#      x y z
#    x 1.891440 0.001500 0.007660 
#    y 0.001500 1.859480 -0.003850 
#    z 0.007660 -0.003850 1.883840 
# 
# From -- ./inp_files/529509.got.cif
#   From: 2010.06.25/outbox.cif.g09.slc.cpg/sg2_265_cif.got.tgz:529509.got - 2010.06.27 13:26:56.
