data_PCOD8015408
_publ_section_title
;
Structure prediction by ZEFSAII (Michael W. Deem and Ramdas Pophale) SiO2 
 PCOD8015408
Probable space group: P -1
;
_chemical_formula_sum "Si O2"
_cell_formula_units_Z 16
_cell_length_a 9.053524
_cell_length_b 14.232679
_cell_length_c 9.255555
_cell_angle_alpha 124.813000
_cell_angle_beta 108.913195
_cell_angle_gamma 107.241041
_cell_volume 726.887231
_symmetry_space_group_name_H-M "P -1"
_symmetry_group_IT_number 2
_symmetry_cell_setting 'triclinic'
loop_
_space_group_symop_operation_xyz
x,y,z
-x,-y,-z
loop_
_atom_site_type_symbol
_atom_site_label
_atom_site_fract_x
_atom_site_fract_y
_atom_site_fract_z
Si Si1 0.004130 0.907638 0.545515
Si Si2 0.729250 0.398942 0.128529
Si Si3 0.879127 0.241273 0.191192
Si Si4 0.555272 0.648604 0.212309
Si Si5 0.689061 0.520963 0.507657
Si Si6 0.094563 0.700775 0.416135
Si Si7 0.808932 0.964914 0.981760
Si Si8 0.581948 0.312790 0.513396
O O1 0.074403 0.814661 0.430721
O O2 0.784475 0.783032 0.425551
O O3 0.000000 0.000000 0.500000
O O4 0.150011 0.014027 0.814250
O O5 0.790654 0.301684 0.117594
O O6 0.659203 0.455020 0.280833
O O7 0.896136 0.533051 0.195300
O O8 0.537895 0.297307 0.875237
O O9 0.861035 0.271760 0.376126
O O10 0.108088 0.313629 0.286278
O O11 0.762352 0.068925 0.989046
O O12 0.467423 0.618214 0.318225
O O13 0.500000 0.500000 0.000000
O O14 0.500000 0.500000 0.500000
O O15 0.734676 0.438226 0.558326
O O16 0.288786 0.735075 0.428507
O O17 0.615075 0.804352 0.743792
O O18 0.000000 0.000000 0.000000
#
# Coordination Sequence:
#
# PCOD8015408 Si02
#       8
#     2   2   2   2   2   2   2   2
#     4  11  26  47  69  98 139 182 223 270 345 409
#     4  11  21  43  66 100 139 174 221 285 343 389
#     4  10  21  42  68  97 139 175 219 285 338 394
#     4  12  26  46  68  96 140 184 219 285 346 388
#     4  11  21  37  69 103 127 170 239 273 320 410
#     4  10  21  44  69  99 137 174 221 287 337 397
#     4  11  24  46  69  96 141 176 219 284 335 398
#     4  12  24  43  69 102 132 178 232 272 339 407
#
# _framework density 22.011668
#
# number of rings (size 3 to 8) (size 9 to 14) (size 15 to 20)
#    0.000    1.000    5.000    2.250    3.500    3.500 
#    4.500    1.250    0.000    0.000    0.000    0.000 
#    0.000    0.000    0.000    0.000    0.000    0.000 
#
# Total GULP energy -198265.047326 kJ/mol
# GULP energy per Si atom -12391.565458 kJ/mol
# Density = 2.196157 g / cm^3
# Si number density = 22.011668 Si / 1000 Ang^3
#
#
#
# Elastic Constant Matrix: (Units=GPa)
#
#
# Indices 1 2 3 4 5 6 
#
# 1 122.2957 22.9247 32.1790 1.4595 -2.0586 -3.0489
# 2 22.9247 110.1343 36.6224 1.7314 -5.2976 -18.9117
# 3 32.1790 36.6224 96.5235 -10.0955 -2.4645 -2.4922
# 4 1.4595 1.7314 -10.0955 14.4161 -10.9801 -0.1533
# 5 -2.0586 -5.2976 -2.4645 -10.9801 19.6949 -3.9412
# 6 -3.0489 -18.9117 -2.4922 -0.1533 -3.9412 42.2437
#
#
#
# Elastic Compliance Matrix: (Units=1/GPa)
#
#
# Indices 1 2 3 4 5 6 
#
# 1 0.009239 -0.000884 -0.003358 -0.005174 -0.002615 -0.000190
# 2 -0.000884 0.011688 -0.004233 -0.002652 0.002064 0.005102
# 3 -0.003358 -0.004233 0.015602 0.021076 0.012213 -0.000001
# 4 -0.005174 -0.002652 0.021076 0.151893 0.087750 0.008420
# 5 -0.002615 0.002064 0.012213 0.087750 0.103799 0.011458
# 6 -0.000190 0.005102 -0.000001 0.008420 0.011458 0.027042
#
#
# Mechanical properties :
#
#
# Convention : Reuss Voigt Hill
#
# Bulk Modulus (GPa) = 51.07135 56.93397 54.00266
# Shear Modulus (GPa) = 14.58836 31.08609 22.83723
#
# Velocity S-wave (km/s) = 2.57720 3.76208 3.22453
# Velocity P-wave (km/s) = 5.66641 6.69272 6.20083
#
# Compressibility (1/GPa) = 0.01958045
#
# Stress axis : x y z
#
# Youngs Moduli (GPa) = 108.23643 85.55429 64.09501
#
# Poissons Ratio (x) = 0.07559 0.21521
# Poissons Ratio (y) = 0.09564 0.27133
# Poissons Ratio (z) = 0.36342 0.36217
#
# Static dielectric constant tensor:
#      x y z
#    x 4.166610 -0.325710 0.107470 
#    y -0.325710 4.308740 0.125070 
#    z 0.107470 0.125070 4.073520 
# 
# 
# High freq. dielectric constant tensor:
#      x y z
#    x 1.883210 -0.013940 0.005490 
#    y -0.013940 1.863540 0.001980 
#    z 0.005490 0.001980 1.847900 
# 
# From -- ./inp_files/209073.got.cif
#   From: 2010.06.25/outbox.cif.g09.slc.cpg/sg2_105_cif.got.tgz:209073.got - 2010.06.27 13:26:56.
