data_PCOD8015340
_publ_section_title
;
Structure prediction by ZEFSAII (Michael W. Deem and Ramdas Pophale) SiO2 
 PCOD8015340
Probable space group: P -1
;
_chemical_formula_sum "Si O2"
_cell_formula_units_Z 16
_cell_length_a 23.201651
_cell_length_b 8.354985
_cell_length_c 6.283694
_cell_angle_alpha 59.544151
_cell_angle_beta 49.235820
_cell_angle_gamma 48.805246
_cell_volume 687.886192
_symmetry_space_group_name_H-M "P -1"
_symmetry_group_IT_number 2
_symmetry_cell_setting 'triclinic'
loop_
_space_group_symop_operation_xyz
x,y,z
-x,-y,-z
loop_
_atom_site_type_symbol
_atom_site_label
_atom_site_fract_x
_atom_site_fract_y
_atom_site_fract_z
Si Si1 0.628569 0.696942 0.344096
Si Si2 0.225975 0.485803 0.205153
Si Si3 0.259674 0.814679 0.139211
Si Si4 0.113208 0.041647 0.670574
Si Si5 0.041652 0.836870 0.313142
Si Si6 0.388816 0.695165 0.273687
Si Si7 0.506911 0.882087 0.850510
Si Si8 0.759437 0.910403 0.384292
O O1 0.598714 0.519766 0.499059
O O2 0.608649 0.760527 0.601101
O O3 0.563703 0.925383 0.249298
O O4 0.727042 0.609306 0.075334
O O5 0.263848 0.634171 0.094707
O O6 0.120461 0.609893 0.355492
O O7 0.252443 0.296637 0.439901
O O8 0.351372 0.729644 0.098724
O O9 0.186691 0.863222 0.460860
O O10 0.232835 0.028797 0.919353
O O11 0.153224 0.159283 0.634698
O O12 0.031161 0.199291 0.610022
O O13 0.084592 0.922701 0.985396
O O14 0.000000 0.000000 0.500000
O O15 0.323936 0.890559 0.446771
O O16 0.480768 0.694944 0.049900
O O17 0.500000 0.000000 0.000000
#
# Coordination Sequence:
#
# PCOD8015340 Si02
#       8
#     2   2   2   2   2   2   2   2
#     4  11  25  47  69 103 140 174 233 278 341 414
#     4  12  23  44  70 100 135 189 224 282 344 402
#     4  11  23  44  69  98 142 178 230 281 336 407
#     4  10  21  42  67  99 138 182 226 287 338 405
#     4  11  21  42  72  98 140 180 231 283 348 400
#     4  11  24  44  71 101 135 183 224 281 344 408
#     4  11  27  48  70 105 139 175 228 286 343 409
#     4  11  23  42  66 101 140 177 237 276 339 404
#
# _framework density 23.259661999999999
#
# number of rings (size 3 to 8) (size 9 to 14) (size 15 to 20)
#    0.000    1.000    5.000    1.125    1.750    4.000 
#    4.500    2.500    0.000    0.000    0.000    0.000 
#    0.000    0.000    0.000    0.000    0.000    0.000 
#
# Total GULP energy -198247.351741 kJ/mol
# GULP energy per Si atom -12390.459484 kJ/mol
# Density = 2.320672 g / cm^3
# Si number density = 23.259662 Si / 1000 Ang^3
#
#
#
# Elastic Constant Matrix: (Units=GPa)
#
#
# Indices 1 2 3 4 5 6 
#
# 1 19.6408 -62.4369 -2.5914 22.4138 -11.3422 19.2287
# 2 -62.4369 25.4443 14.7413 11.8336 -18.5207 23.2755
# 3 -2.5914 14.7413 124.7213 16.9926 -1.8230 10.0556
# 4 22.4138 11.8336 16.9926 50.9080 6.6838 -12.9625
# 5 -11.3422 -18.5207 -1.8230 6.6838 23.9258 8.0709
# 6 19.2287 23.2755 10.0556 -12.9625 8.0709 12.2026
#
#
#
# Elastic Compliance Matrix: (Units=1/GPa)
#
#
# Indices 1 2 3 4 5 6 
#
# 1 0.005765 -0.006674 -0.000945 0.004133 -0.008539 0.014463
# 2 -0.006674 0.005457 -0.002834 0.006681 -0.005457 0.013149
# 3 -0.000945 -0.002834 0.009018 -0.002870 0.000072 -0.003633
# 4 0.004133 0.006681 -0.002870 0.016677 0.002542 -0.000856
# 5 -0.008539 -0.005457 0.000072 0.002542 0.030735 0.006178
# 6 0.014463 0.013149 -0.003633 -0.000856 0.006178 0.032075
#
#
# Mechanical properties :
#
#
# Convention : Reuss Voigt Hill
#
# Bulk Modulus (GPa) = -1499.94532 7.69249 -746.12642
# Shear Modulus (GPa) = 41.52393 32.08017 36.80205
#
# Velocity S-wave (km/s) = 4.22979 3.71781 3.98204
# Velocity P-wave (km/s) = 24.94825 4.66304 17.33019
#
# Compressibility (1/GPa) = -0.00066669
#
# Stress axis : x y z
#
# Youngs Moduli (GPa) = 173.46325 183.24043 110.88786
#
# Poissons Ratio (x) = 1.22301 0.10483
# Poissons Ratio (y) = 1.15776 0.31424
# Poissons Ratio (z) = 0.16398 0.51927
#
# Static dielectric constant tensor:
#      x y z
#    x 4.389310 -0.098340 0.075880 
#    y -0.098340 4.240620 0.144540 
#    z 0.075880 0.144540 4.794170 
# 
# 
# High freq. dielectric constant tensor:
#      x y z
#    x 1.905660 -0.002710 0.001900 
#    y -0.002710 1.916120 0.006600 
#    z 0.001900 0.006600 1.937380 
# 
# From -- ./inp_files/120119.got.cif
#   From: 2010.06.25/outbox.cif.g09.slc.cpg/sg2_61_cif.got.tgz:120119.got - 2010.06.27 13:26:56.
