data_PCOD8015814
_publ_section_title
;
Structure prediction by ZEFSAII (Michael W. Deem and Ramdas Pophale) SiO2 
 PCOD8015814
Probable space group: P -1
;
_chemical_formula_sum "Si O2"
_cell_formula_units_Z 16
_cell_length_a 13.495541
_cell_length_b 9.082231
_cell_length_c 12.092269
_cell_angle_alpha 36.304165
_cell_angle_beta 108.457185
_cell_angle_gamma 124.512294
_cell_volume 692.679739
_symmetry_space_group_name_H-M "P -1"
_symmetry_group_IT_number 2
_symmetry_cell_setting 'triclinic'
loop_
_space_group_symop_operation_xyz
x,y,z
-x,-y,-z
loop_
_atom_site_type_symbol
_atom_site_label
_atom_site_fract_x
_atom_site_fract_y
_atom_site_fract_z
Si Si1 0.364480 0.319496 0.795430
Si Si2 0.389449 0.048656 0.665658
Si Si3 0.957133 0.688172 0.117430
Si Si4 0.199764 0.474160 0.047492
Si Si5 0.815350 0.363069 0.818824
Si Si6 0.705928 0.260729 0.397435
Si Si7 0.587405 0.653133 0.829628
Si Si8 0.641742 0.479429 0.568905
O O1 0.289661 0.445097 0.749673
O O2 0.504938 0.499499 0.784224
O O3 0.357129 0.361298 0.638869
O O4 0.300685 0.973152 0.003380
O O5 0.516826 0.142137 0.721140
O O6 0.378885 0.330137 0.462662
O O7 0.391953 0.902982 0.639125
O O8 0.269478 0.823125 0.833637
O O9 0.847532 0.398073 0.321460
O O10 0.066081 0.627504 0.189993
O O11 0.918703 0.709504 0.965273
O O12 0.000000 0.000000 0.000000
O O13 0.153533 0.435699 0.181306
O O14 0.297817 0.386137 0.108539
O O15 0.767997 0.493273 0.629259
O O16 0.657521 0.017576 0.627111
O O17 0.500000 0.500000 0.000000
#
# Coordination Sequence:
#
# PCOD8015814 Si02
#       8
#     2   2   2   2   2   2   2   2
#     4  12  25  43  71 108 152 178 236 301 362 439
#     4  10  21  43  66 102 149 183 223 302 367 419
#     4  11  25  51  72 100 143 196 250 305 349 417
#     4  11  25  45  73 103 145 190 242 299 360 426
#     4  12  26  46  72 109 143 199 241 291 362 428
#     4  11  24  45  70 102 146 190 239 300 357 428
#     4  12  26  43  75 113 144 189 237 296 379 439
#     4  11  24  41  71 106 148 183 236 293 362 444
#
# _framework density 23.098697999999999
#
# number of rings (size 3 to 8) (size 9 to 14) (size 15 to 20)
#    0.000    0.750    3.750    3.750    5.250    1.000 
#    2.250    4.375    0.000    0.000    0.000    0.000 
#    0.000    0.000    0.000    0.000    0.000    0.000 
#
# Total GULP energy -198296.937850 kJ/mol
# GULP energy per Si atom -12393.558616 kJ/mol
# Density = 2.304612 g / cm^3
# Si number density = 23.098698 Si / 1000 Ang^3
#
#
#
# Elastic Constant Matrix: (Units=GPa)
#
#
# Indices 1 2 3 4 5 6 
#
# 1 130.6605 37.8352 18.9864 15.8947 21.9281 14.2273
# 2 37.8352 102.9592 33.3775 1.8531 9.2284 7.8670
# 3 18.9864 33.3775 88.5637 12.4581 1.0062 7.6869
# 4 15.8947 1.8531 12.4581 29.4931 3.2786 4.1732
# 5 21.9281 9.2284 1.0062 3.2786 35.9275 3.8657
# 6 14.2273 7.8670 7.6869 4.1732 3.8657 42.4623
#
#
#
# Elastic Compliance Matrix: (Units=1/GPa)
#
#
# Indices 1 2 3 4 5 6 
#
# 1 0.010091 -0.002988 -0.000202 -0.004361 -0.004780 -0.001927
# 2 -0.002988 0.012346 -0.004350 0.002923 -0.001422 -0.000656
# 3 -0.000202 -0.004350 0.013831 -0.005451 0.001483 -0.001229
# 4 -0.004361 0.002923 -0.005451 0.038771 -0.001282 -0.001787
# 5 -0.004780 -0.001422 0.001483 -0.001282 0.031313 -0.001128
# 6 -0.001927 -0.000656 -0.001229 -0.001787 -0.001128 0.024819
#
#
# Mechanical properties :
#
#
# Convention : Reuss Voigt Hill
#
# Bulk Modulus (GPa) = 47.20106 55.84242 51.52174
# Shear Modulus (GPa) = 32.61288 37.04220 34.82754
#
# Velocity S-wave (km/s) = 3.76159 4.00890 3.88721
# Velocity P-wave (km/s) = 6.27256 6.75696 6.51926
#
# Compressibility (1/GPa) = 0.02118597
#
# Stress axis : x y z
#
# Youngs Moduli (GPa) = 99.10115 80.99772 72.30255
#
# Poissons Ratio (x) = 0.24206 0.01460
# Poissons Ratio (y) = 0.29616 0.31454
# Poissons Ratio (z) = 0.02002 0.35237
#
# Static dielectric constant tensor:
#      x y z
#    x 4.073410 -0.063580 -0.001400 
#    y -0.063580 4.426220 -0.020850 
#    z -0.001400 -0.020850 4.205670 
# 
# 
# High freq. dielectric constant tensor:
#      x y z
#    x 1.913180 -0.012440 0.004440 
#    y -0.012440 1.923240 -0.003300 
#    z 0.004440 -0.003300 1.904010 
# 
# From -- ./inp_files/446670.got.cif
#   From: 2010.06.25/outbox.cif.g09.slc.cpg/sg2_224_cif.got.tgz:446670.got - 2010.06.27 13:26:56.
