data_PCOD8015889
_publ_section_title
;
Structure prediction by ZEFSAII (Michael W. Deem and Ramdas Pophale) SiO2 
 PCOD8015889
Probable space group: P -1
;
_chemical_formula_sum "Si O2"
_cell_formula_units_Z 16
_cell_length_a 8.823054
_cell_length_b 9.353179
_cell_length_c 11.831437
_cell_angle_alpha 97.130373
_cell_angle_beta 47.955627
_cell_angle_gamma 95.102475
_cell_volume 719.450298
_symmetry_space_group_name_H-M "P -1"
_symmetry_group_IT_number 2
_symmetry_cell_setting 'triclinic'
loop_
_space_group_symop_operation_xyz
x,y,z
-x,-y,-z
loop_
_atom_site_type_symbol
_atom_site_label
_atom_site_fract_x
_atom_site_fract_y
_atom_site_fract_z
Si Si1 0.004477 0.469691 0.679765
Si Si2 0.245157 0.871407 0.542352
Si Si3 0.470735 0.676263 0.822660
Si Si4 0.700794 0.405553 0.636037
Si Si5 0.811187 0.894491 0.076267
Si Si6 0.176521 0.230001 0.183645
Si Si7 0.006842 0.642879 0.084951
Si Si8 0.483560 0.892624 0.646987
O O1 0.844833 0.386110 0.671215
O O2 0.905479 0.613793 0.792956
O O3 0.065040 0.378513 0.751215
O O4 0.197714 0.507015 0.509665
O O5 0.353157 0.755727 0.393027
O O6 0.330533 0.839632 0.621009
O O7 0.999328 0.853326 0.663785
O O8 0.304205 0.036444 0.497330
O O9 0.507261 0.503311 0.777607
O O10 0.616600 0.753486 0.847792
O O11 0.526637 0.751166 0.683610
O O12 0.238087 0.704740 0.975769
O O13 0.851283 0.756773 0.121525
O O14 0.612177 0.977487 0.222058
O O15 0.769356 0.852985 0.964362
O O16 0.000000 0.000000 0.000000
O O17 0.000000 0.500000 0.000000
#
# Coordination Sequence:
#
# PCOD8015889 Si02
#       8
#     2   2   2   2   2   2   2   2
#     4   9  20  41  66  98 126 162 214 265 323 376
#     4  10  22  42  66  90 126 174 213 266 318 381
#     4  11  25  42  63  99 128 168 216 268 323 382
#     4   9  21  41  67  92 129 167 208 270 319 370
#     4  12  23  45  65  89 132 176 208 267 325 373
#     4  10  21  43  67  89 133 165 208 273 321 375
#     4  12  25  42  69  98 127 170 220 266 317 389
#     4  11  25  42  61  95 131 167 220 258 323 389
#
# _framework density 22.239201000000001
#
# number of rings (size 3 to 8) (size 9 to 14) (size 15 to 20)
#    0.000    1.500    3.750    0.750    3.500    6.500 
#    2.250    0.000    0.000    0.000    0.000    0.000 
#    0.000    0.000    0.000    0.000    0.000    0.000 
#
# Total GULP energy -198392.085533 kJ/mol
# GULP energy per Si atom -12399.505346 kJ/mol
# Density = 2.218858 g / cm^3
# Si number density = 22.239201 Si / 1000 Ang^3
#
#
#
# Elastic Constant Matrix: (Units=GPa)
#
#
# Indices 1 2 3 4 5 6 
#
# 1 72.8977 19.1934 25.4682 -2.6224 8.3136 12.1560
# 2 19.1934 59.8051 2.8473 -1.7580 9.4819 12.3821
# 3 25.4682 2.8473 47.3353 3.3958 20.5233 12.6121
# 4 -2.6224 -1.7580 3.3958 43.4274 1.9660 9.4985
# 5 8.3136 9.4819 20.5233 1.9660 39.7998 -2.8913
# 6 12.1560 12.3821 12.6121 9.4985 -2.8913 33.6287
#
#
#
# Elastic Compliance Matrix: (Units=1/GPa)
#
#
# Indices 1 2 3 4 5 6 
#
# 1 0.018976 -0.005809 -0.011058 0.001823 0.002971 -0.000833
# 2 -0.005809 0.021954 0.008511 0.002639 -0.009315 -0.010722
# 3 -0.011058 0.008511 0.040287 0.001104 -0.021740 -0.016427
# 4 0.001823 0.002639 0.001104 0.025400 -0.003525 -0.009522
# 5 0.002971 -0.009315 -0.021740 -0.003525 0.039190 0.014874
# 6 -0.000833 -0.010722 -0.016427 -0.009522 0.014874 0.044115
#
#
# Mechanical properties :
#
#
# Convention : Reuss Voigt Hill
#
# Bulk Modulus (GPa) = 15.50225 30.56179 23.03202
# Shear Modulus (GPa) = 21.91693 32.20644 27.06169
#
# Velocity S-wave (km/s) = 3.14269 3.80963 3.49212
# Velocity P-wave (km/s) = 4.48937 5.75527 5.16128
#
# Compressibility (1/GPa) = 0.06450677
#
# Stress axis : x y z
#
# Youngs Moduli (GPa) = 52.69809 45.54902 24.82200
#
# Poissons Ratio (x) = 0.26458 0.27447
# Poissons Ratio (y) = 0.30610 -0.21126
# Poissons Ratio (z) = 0.58271 -0.38767
#
# Static dielectric constant tensor:
#      x y z
#    x 3.999730 0.119320 0.115180 
#    y 0.119320 4.035270 0.075400 
#    z 0.115180 0.075400 4.218950 
# 
# 
# High freq. dielectric constant tensor:
#      x y z
#    x 1.871460 0.016440 0.009460 
#    y 0.016440 1.874800 0.000760 
#    z 0.009460 0.000760 1.875730 
# 
# From -- ./inp_files/209346.got.cif
#   From: 2010.06.25/outbox.cif.g09.slc.cpg/sg2_105_cif.got.tgz:209346.got - 2010.06.27 13:26:56.
