data_PCOD8015023
_publ_section_title
;
Structure prediction by ZEFSAII (Michael W. Deem and Ramdas Pophale) SiO2 
 PCOD8015023
Probable space group: P -1
;
_chemical_formula_sum "Si O2"
_cell_formula_units_Z 14
_cell_length_a 13.962574
_cell_length_b 14.293052
_cell_length_c 8.229940
_cell_angle_alpha 143.974170
_cell_angle_beta 46.747290
_cell_angle_gamma 143.013624
_cell_volume 577.589260
_symmetry_space_group_name_H-M "P -1"
_symmetry_group_IT_number 2
_symmetry_cell_setting 'triclinic'
loop_
_space_group_symop_operation_xyz
x,y,z
-x,-y,-z
loop_
_atom_site_type_symbol
_atom_site_label
_atom_site_fract_x
_atom_site_fract_y
_atom_site_fract_z
Si Si1 0.620790 0.284297 0.653912
Si Si2 0.403340 0.295395 0.412725
Si Si3 0.069874 0.039139 0.300898
Si Si4 0.088598 0.342856 0.249936
Si Si5 0.867807 0.153162 0.517873
Si Si6 0.652535 0.717890 0.157351
Si Si7 0.429804 0.874842 0.152915
O O1 0.815006 0.437660 0.626471
O O2 0.527854 0.390642 0.864823
O O3 0.584868 0.221884 0.793020
O O4 0.554604 0.107544 0.356315
O O5 0.500000 0.500000 0.500000
O O6 0.259801 0.170274 0.276779
O O7 0.346054 0.291171 0.658055
O O8 0.504696 0.201156 0.165222
O O9 0.003821 0.155213 0.460608
O O10 0.000000 0.000000 0.500000
O O11 0.012898 0.833588 0.003621
O O12 0.964515 0.312662 0.489000
O O13 0.235828 0.336580 0.134774
O O14 0.748884 0.198105 0.806593
O O15 0.738136 0.937295 0.298816
#
# Coordination Sequence:
#
# PCOD8015023 Si02
#       7
#     2   2   2   2   2   2   2
#     4  10  23  41  67  97 135 173 219 269 331 387
#     4  12  26  44  72  95 131 179 225 265 329 401
#     4  11  23  44  66 100 135 176 220 274 321 387
#     4  11  22  40  70  99 132 170 224 272 325 386
#     4  10  23  42  66  97 138 169 216 274 334 375
#     4  10  21  42  65 101 129 174 223 270 321 391
#     4  10  25  45  64  99 136 175 215 272 332 394
#
# _framework density 24.238679999999999
#
# number of rings (size 3 to 8) (size 9 to 14) (size 15 to 20)
#    0.000    1.429    2.857    3.000   10.000    2.857 
#    0.000    0.714    0.000    0.000    0.000    0.000 
#    0.000    0.000    0.000    0.000    0.000    0.000 
#
# Total GULP energy -173432.988844 kJ/mol
# GULP energy per Si atom -12388.070632 kJ/mol
# Density = 2.418351 g / cm^3
# Si number density = 24.238680 Si / 1000 Ang^3
#
#
#
# Elastic Constant Matrix: (Units=GPa)
#
#
# Indices 1 2 3 4 5 6 
#
# 1 75.4084 38.6586 19.9099 0.7230 -3.6909 13.6012
# 2 38.6586 166.8405 29.8220 -3.7893 3.4453 26.2951
# 3 19.9099 29.8220 91.6521 -8.1181 -21.4343 9.2853
# 4 0.7230 -3.7893 -8.1181 30.2298 2.1485 -2.8695
# 5 -3.6909 3.4453 -21.4343 2.1485 28.3191 -4.1245
# 6 13.6012 26.2951 9.2853 -2.8695 -4.1245 38.7464
#
#
#
# Elastic Compliance Matrix: (Units=1/GPa)
#
#
# Indices 1 2 3 4 5 6 
#
# 1 0.015923 -0.002820 -0.002282 -0.001677 0.000350 -0.003216
# 2 -0.002820 0.007799 -0.002352 0.000287 -0.003718 -0.004114
# 3 -0.002282 -0.002352 0.015030 0.003022 0.011166 0.000208
# 4 -0.001677 0.000287 0.003022 0.034191 -0.000243 0.002176
# 5 0.000350 -0.003718 0.011166 -0.000243 0.044933 0.004490
# 6 -0.003216 -0.004114 0.000208 0.002176 0.004490 0.030319
#
#
# Mechanical properties :
#
#
# Convention : Reuss Voigt Hill
#
# Bulk Modulus (GPa) = 41.94224 56.74244 49.34234
# Shear Modulus (GPa) = 29.23085 35.82643 32.52864
#
# Velocity S-wave (km/s) = 3.47646 3.84874 3.66732
# Velocity P-wave (km/s) = 5.78410 6.57351 6.19140
#
# Compressibility (1/GPa) = 0.02384231
#
# Stress axis : x y z
#
# Youngs Moduli (GPa) = 62.80386 128.21638 66.53379
#
# Poissons Ratio (x) = 0.36157 0.15185
# Poissons Ratio (y) = 0.17711 0.15652
# Poissons Ratio (z) = 0.14334 0.30162
#
# Static dielectric constant tensor:
#      x y z
#    x 4.039770 0.032450 -0.429420 
#    y 0.032450 4.793340 0.024780 
#    z -0.429420 0.024780 4.234060 
# 
# 
# High freq. dielectric constant tensor:
#      x y z
#    x 1.957420 0.005980 -0.026190 
#    y 0.005980 1.997240 -0.003830 
#    z -0.026190 -0.003830 1.942910 
# 
# From -- ./inp_files/316051.got.cif
#   From: 2010.06.25/outbox.cif.g09.slc.cpg/sg2_159_cif.got.tgz:316051.got - 2010.06.27 13:26:56.
