data_PCOD8015516
_publ_section_title
;
Structure prediction by ZEFSAII (Michael W. Deem and Ramdas Pophale) SiO2 
 PCOD8015516
Probable space group: P -1
;
_chemical_formula_sum "Si O2"
_cell_formula_units_Z 16
_cell_length_a 15.423771
_cell_length_b 12.582362
_cell_length_c 9.160870
_cell_angle_alpha 31.153251
_cell_angle_beta 85.719033
_cell_angle_gamma 71.762209
_cell_volume 803.171555
_symmetry_space_group_name_H-M "P -1"
_symmetry_group_IT_number 2
_symmetry_cell_setting 'triclinic'
loop_
_space_group_symop_operation_xyz
x,y,z
-x,-y,-z
loop_
_atom_site_type_symbol
_atom_site_label
_atom_site_fract_x
_atom_site_fract_y
_atom_site_fract_z
Si Si1 0.744388 0.179362 0.737170
Si Si2 0.847452 0.461789 0.264264
Si Si3 0.083015 0.282449 0.831197
Si Si4 0.386931 0.409187 0.203920
Si Si5 0.291826 0.152772 0.370039
Si Si6 0.606427 0.228831 0.437293
Si Si7 0.980838 0.008656 0.166750
Si Si8 0.753505 0.193922 0.038836
O O1 0.781039 0.359018 0.464962
O O2 0.661488 0.178703 0.643466
O O3 0.699561 0.250287 0.821741
O O4 0.836147 0.915434 0.052578
O O5 0.854845 0.649984 0.146245
O O6 0.797987 0.594801 0.964049
O O7 0.959193 0.253179 0.466351
O O8 0.000000 0.500000 0.500000
O O9 0.025077 0.161884 0.059953
O O10 0.369665 0.196892 0.401804
O O11 0.492675 0.299299 0.400817
O O12 0.386959 0.557116 0.890214
O O13 0.300851 0.571312 0.135767
O O14 0.345577 0.000953 0.399559
O O15 0.249845 0.022057 0.630175
O O16 0.866734 0.129810 0.078901
O O17 0.000000 0.000000 0.000000
#
# Coordination Sequence:
#
# PCOD8015516 Si02
#       8
#     2   2   2   2   2   2   2   2
#     4  11  21  39  65  94 124 159 214 254 305 376
#     4  11  21  37  64  91 117 169 209 250 300 378
#     4  11  19  34  62  90 119 160 210 249 297 363
#     4  10  23  42  64  92 129 166 200 262 322 359
#     4  11  23  41  64  93 127 159 214 255 312 368
#     4  10  21  42  70  90 119 170 215 249 308 385
#     4  11  21  38  59  90 126 165 208 247 308 374
#     4  11  24  40  60  95 132 159 200 269 311 358
#
# _framework density 19.921025
#
# number of rings (size 3 to 8) (size 9 to 14) (size 15 to 20)
#    0.000    1.250    6.250    0.375    0.000    4.000 
#    0.000    1.875    0.000    0.000    0.000    0.000 
#    0.000    0.000    0.000    0.000    0.000    0.000 
#
# Total GULP energy -198388.769166 kJ/mol
# GULP energy per Si atom -12399.298073 kJ/mol
# Density = 1.987568 g / cm^3
# Si number density = 19.921025 Si / 1000 Ang^3
#
#
#
# Elastic Constant Matrix: (Units=GPa)
#
#
# Indices 1 2 3 4 5 6 
#
# 1 120.7295 58.1143 38.4026 -5.6623 3.9236 3.0926
# 2 58.1143 80.1011 33.4787 3.8971 -9.0438 8.1826
# 3 38.4026 33.4787 88.3618 -1.9752 3.6148 5.1814
# 4 -5.6623 3.8971 -1.9752 27.5876 10.0015 -2.4521
# 5 3.9236 -9.0438 3.6148 10.0015 30.9132 -6.4588
# 6 3.0926 8.1826 5.1814 -2.4521 -6.4588 34.9555
#
#
#
# Elastic Compliance Matrix: (Units=1/GPa)
#
#
# Indices 1 2 3 4 5 6 
#
# 1 0.014793 -0.011219 -0.001774 0.007137 -0.007101 0.000769
# 2 -0.011219 0.024975 -0.005184 -0.010899 0.012325 -0.002573
# 3 -0.001774 -0.005184 0.014362 0.002782 -0.004149 -0.001330
# 4 0.007137 -0.010899 0.002782 0.046527 -0.019218 0.001220
# 5 -0.007101 0.012325 -0.004149 -0.019218 0.044658 0.005261
# 6 0.000769 -0.002573 -0.001330 0.001220 0.005261 0.030397
#
#
# Mechanical properties :
#
#
# Convention : Reuss Voigt Hill
#
# Bulk Modulus (GPa) = 56.25106 61.02040 58.63573
# Shear Modulus (GPa) = 22.93682 29.30437 26.12059
#
# Velocity S-wave (km/s) = 3.39689 3.83956 3.62499
# Velocity P-wave (km/s) = 6.60935 7.09605 6.85702
#
# Compressibility (1/GPa) = 0.01777744
#
# Stress axis : x y z
#
# Youngs Moduli (GPa) = 67.59850 40.04044 69.62865
#
# Poissons Ratio (x) = 0.44920 0.12350
# Poissons Ratio (y) = 0.75837 0.36094
# Poissons Ratio (z) = 0.11990 0.20756
#
# Static dielectric constant tensor:
#      x y z
#    x 3.821520 0.208020 0.008460 
#    y 0.208020 3.598440 -0.185550 
#    z 0.008460 -0.185550 3.730290 
# 
# 
# High freq. dielectric constant tensor:
#      x y z
#    x 1.788160 0.018360 0.004170 
#    y 0.018360 1.760650 -0.018900 
#    z 0.004170 -0.018900 1.778410 
# 
# From -- ./inp_files/52140.got.cif
#   From: 2010.06.25/outbox.cif.g09.slc.cpg/sg2_27_cif.got.tgz:52140.got - 2010.06.27 13:26:56.
