data_PCOD8015182
_publ_section_title
;
Structure prediction by ZEFSAII (Michael W. Deem and Ramdas Pophale) SiO2 
 PCOD8015182
Probable space group: P -1
;
_chemical_formula_sum "Si O2"
_cell_formula_units_Z 16
_cell_length_a 21.594542
_cell_length_b 8.454443
_cell_length_c 8.979804
_cell_angle_alpha 69.023854
_cell_angle_beta 108.299534
_cell_angle_gamma 49.980565
_cell_volume 760.526501
_symmetry_space_group_name_H-M "P -1"
_symmetry_group_IT_number 2
_symmetry_cell_setting 'triclinic'
loop_
_space_group_symop_operation_xyz
x,y,z
-x,-y,-z
loop_
_atom_site_type_symbol
_atom_site_label
_atom_site_fract_x
_atom_site_fract_y
_atom_site_fract_z
Si Si1 0.076204 0.523220 0.242889
Si Si2 0.464988 0.738254 0.795246
Si Si3 0.715320 0.229604 0.995913
Si Si4 0.734222 0.650280 0.392464
Si Si5 0.794640 0.685658 0.145771
Si Si6 0.803914 0.268110 0.815746
Si Si7 0.752772 0.738252 0.762002
Si Si8 0.050482 0.266388 0.491114
O O1 0.179818 0.388260 0.465787
O O2 0.121592 0.438735 0.134084
O O3 0.070287 0.336347 0.335289
O O4 0.947818 0.900643 0.054248
O O5 0.407685 0.000847 0.779918
O O6 0.366028 0.917431 0.528585
O O7 0.500000 0.500000 0.000000
O O8 0.584532 0.553279 0.866858
O O9 0.741069 0.973003 0.086104
O O10 0.818627 0.094544 0.225322
O O11 0.721009 0.299263 0.810966
O O12 0.752668 0.617810 0.238939
O O13 0.771633 0.384021 0.579420
O O14 0.945938 0.353655 0.354953
O O15 0.731095 0.803604 0.898551
O O16 0.773041 0.498181 0.815979
O O17 0.000000 0.500000 0.500000
#
# Coordination Sequence:
#
# PCOD8015182 Si02
#       8
#     2   2   2   2   2   2   2   2
#     4  10  16  36  56  80 108 148 192 222 269 337
#     4  10  19  37  61  85 104 152 196 222 259 342
#     4  11  19  36  64  81 107 150 200 219 266 337
#     4  10  19  33  57  79 112 146 186 228 273 329
#     4  11  20  37  57  84 117 142 179 242 284 317
#     4  10  20  36  58  82 108 150 191 225 272 337
#     4  10  24  34  56  87 118 141 181 237 286 319
#     4  10  17  31  60  85 106 145 189 233 264 330
#
# _framework density 21.038056999999998
#
# number of rings (size 3 to 8) (size 9 to 14) (size 15 to 20)
#    0.000    2.000    6.250    2.250    0.000    3.000 
#    0.000    5.625    2.750    1.500    0.000    0.000 
#    0.000    0.000    0.000    0.000    0.000    0.000 
#
# Total GULP energy -198268.271772 kJ/mol
# GULP energy per Si atom -12391.766986 kJ/mol
# Density = 2.099017 g / cm^3
# Si number density = 21.038057 Si / 1000 Ang^3
#
#
#
# Elastic Constant Matrix: (Units=GPa)
#
#
# Indices 1 2 3 4 5 6 
#
# 1 91.5278 29.1891 49.4124 -3.7452 -18.4237 -43.2538
# 2 29.1891 65.2280 48.6161 5.0866 2.4902 -33.3861
# 3 49.4124 48.6161 126.0162 2.9223 -11.1243 -24.0195
# 4 -3.7452 5.0866 2.9223 35.9988 -14.4390 -0.3645
# 5 -18.4237 2.4902 -11.1243 -14.4390 40.0582 2.0999
# 6 -43.2538 -33.3861 -24.0195 -0.3645 2.0999 36.9578
#
#
#
# Elastic Compliance Matrix: (Units=1/GPa)
#
#
# Indices 1 2 3 4 5 6 
#
# 1 0.041140 0.016736 -0.010889 0.009532 0.015388 0.055409
# 2 0.016736 0.045364 -0.014484 -0.004336 -0.003397 0.051304
# 3 -0.010889 -0.014484 0.014764 -0.000129 0.000799 -0.016280
# 4 0.009532 -0.004336 -0.000129 0.036443 0.017412 0.006526
# 5 0.015388 -0.003397 0.000799 0.017412 0.038044 0.013470
# 6 0.055409 0.051304 -0.016280 0.006526 0.013470 0.126971
#
#
# Mechanical properties :
#
#
# Convention : Reuss Voigt Hill
#
# Bulk Modulus (GPa) = 11.90578 59.68967 35.79773
# Shear Modulus (GPa) = 14.36792 32.97325 23.67059
#
# Velocity S-wave (km/s) = 2.61616 3.96323 3.35794
# Velocity P-wave (km/s) = 3.84671 7.02686 5.66454
#
# Compressibility (1/GPa) = 0.08399281
#
# Stress axis : x y z
#
# Youngs Moduli (GPa) = 24.30736 22.04400 67.73458
#
# Poissons Ratio (x) = -0.36893 0.73758
# Poissons Ratio (y) = -0.40681 0.98106
# Poissons Ratio (z) = 0.26469 0.31928
#
# Static dielectric constant tensor:
#      x y z
#    x 4.228580 -0.664610 -0.373010 
#    y -0.664610 3.639300 -0.001230 
#    z -0.373010 -0.001230 4.257890 
# 
# 
# High freq. dielectric constant tensor:
#      x y z
#    x 1.811050 -0.046190 -0.022200 
#    y -0.046190 1.795020 -0.006430 
#    z -0.022200 -0.006430 1.826320 
# 
# From -- ./inp_files/351695.got.cif
#   From: 2010.06.25/outbox.cif.g09.slc.cpg/sg2_176_cif.got.tgz:351695.got - 2010.06.27 13:26:56.
