data_PCOD8015725
_publ_section_title
;
Structure prediction by ZEFSAII (Michael W. Deem and Ramdas Pophale) SiO2 
 PCOD8015725
Probable space group: P -1
;
_chemical_formula_sum "Si O2"
_cell_formula_units_Z 14
_cell_length_a 8.283103
_cell_length_b 10.909077
_cell_length_c 11.334275
_cell_angle_alpha 93.071961
_cell_angle_beta 102.271939
_cell_angle_gamma 140.117638
_cell_volume 602.110325
_symmetry_space_group_name_H-M "P -1"
_symmetry_group_IT_number 2
_symmetry_cell_setting 'triclinic'
loop_
_space_group_symop_operation_xyz
x,y,z
-x,-y,-z
loop_
_atom_site_type_symbol
_atom_site_label
_atom_site_fract_x
_atom_site_fract_y
_atom_site_fract_z
Si Si1 0.175803 0.419422 0.476879
Si Si2 0.037103 0.143676 0.091249
Si Si3 0.349715 0.777804 0.553222
Si Si4 0.232223 0.794901 0.285655
Si Si5 0.762212 0.564995 0.041559
Si Si6 0.460321 0.199805 0.836981
Si Si7 0.497863 0.547133 0.309569
O O1 0.320005 0.619562 0.577236
O O2 0.271268 0.461238 0.360835
O O3 0.242587 0.344302 0.568196
O O4 0.851285 0.247657 0.410773
O O5 0.346061 0.347402 0.202580
O O6 0.817378 0.014060 0.156275
O O7 0.007165 0.241661 0.001893
O O8 0.000000 0.000000 0.000000
O O9 0.264061 0.726036 0.399260
O O10 0.649720 0.002536 0.645025
O O11 0.393540 0.827260 0.204973
O O12 0.915533 0.636728 0.194598
O O13 0.500000 0.500000 0.000000
O O14 0.667663 0.373723 0.977462
O O15 0.396162 0.277600 0.745186
#
# Coordination Sequence:
#
# PCOD8015725 Si02
#       7
#     2   2   2   2   2   2   2
#     4  10  21  43  63  98 130 178 218 270 327 394
#     4  11  24  40  65 100 130 171 224 269 332 386
#     4  10  23  40  68  96 134 173 219 270 332 391
#     4  11  24  44  65 100 133 175 220 272 333 396
#     4  11  25  44  69  98 131 174 224 274 333 393
#     4  11  23  45  66  97 137 174 219 276 333 394
#     4  10  23  41  68  97 135 171 221 271 329 393
#
# _framework density 23.251552
#
# number of rings (size 3 to 8) (size 9 to 14) (size 15 to 20)
#    0.000    1.429    2.857    1.286    6.000    0.571 
#    5.143    2.143    0.000    0.000    0.000    0.000 
#    0.000    0.000    0.000    0.000    0.000    0.000 
#
# Total GULP energy -173492.413294 kJ/mol
# GULP energy per Si atom -12392.315235 kJ/mol
# Density = 2.319863 g / cm^3
# Si number density = 23.251552 Si / 1000 Ang^3
#
#
#
# Elastic Constant Matrix: (Units=GPa)
#
#
# Indices 1 2 3 4 5 6 
#
# 1 74.9700 8.6320 32.1305 2.6647 -2.4888 7.1352
# 2 8.6320 101.8184 24.9444 -1.8037 7.4053 -0.5019
# 3 32.1305 24.9444 112.0551 5.0005 7.1864 2.7040
# 4 2.6647 -1.8037 5.0005 32.0849 3.0037 -13.9319
# 5 -2.4888 7.4053 7.1864 3.0037 30.6023 -2.1388
# 6 7.1352 -0.5019 2.7040 -13.9319 -2.1388 17.2716
#
#
#
# Elastic Compliance Matrix: (Units=1/GPa)
#
#
# Indices 1 2 3 4 5 6 
#
# 1 0.016474 -0.000674 -0.004234 -0.005409 0.002312 -0.010239
# 2 -0.000674 0.010627 -0.002196 0.002287 -0.002160 0.002508
# 3 -0.004234 -0.002196 0.010920 -0.002143 -0.002309 -0.002039
# 4 -0.005409 0.002287 -0.002143 0.051285 -0.002470 0.043699
# 5 0.002312 -0.002160 -0.002309 -0.002470 0.034284 0.001597
# 6 -0.010239 0.002508 -0.002039 0.043699 0.001597 0.097968
#
#
# Mechanical properties :
#
#
# Convention : Reuss Voigt Hill
#
# Bulk Modulus (GPa) = 41.99407 46.69526 44.34466
# Shear Modulus (GPa) = 20.51671 30.86753 25.69212
#
# Velocity S-wave (km/s) = 2.97371 3.64750 3.32771
# Velocity P-wave (km/s) = 5.46723 6.15348 5.82048
#
# Compressibility (1/GPa) = 0.02381289
#
# Stress axis : x y z
#
# Youngs Moduli (GPa) = 60.70091 94.10349 91.57507
#
# Poissons Ratio (x) = 0.06342 0.38769
# Poissons Ratio (y) = 0.04091 0.20114
# Poissons Ratio (z) = 0.25698 0.20669
#
# Static dielectric constant tensor:
#      x y z
#    x 3.945880 0.044660 -0.214030 
#    y 0.044660 4.292910 -0.127870 
#    z -0.214030 -0.127870 4.283210 
# 
# 
# High freq. dielectric constant tensor:
#      x y z
#    x 1.905630 0.000870 -0.017470 
#    y 0.000870 1.922420 -0.004590 
#    z -0.017470 -0.004590 1.925920 
# 
# From -- ./inp_files/390456.got.cif
#   From: 2010.06.25/outbox.cif.g09.slc.cpg/sg2_196_cif.got.tgz:390456.got - 2010.06.27 13:26:56.
