data_PCOD8015988
_publ_section_title
;
Structure prediction by ZEFSAII (Michael W. Deem and Ramdas Pophale) SiO2 
 PCOD8015988
Probable space group: P -1
;
_chemical_formula_sum "Si O2"
_cell_formula_units_Z 16
_cell_length_a 11.302954
_cell_length_b 9.081534
_cell_length_c 19.758439
_cell_angle_alpha 125.533385
_cell_angle_beta 151.838598
_cell_angle_gamma 47.336097
_cell_volume 703.098485
_symmetry_space_group_name_H-M "P -1"
_symmetry_group_IT_number 2
_symmetry_cell_setting 'triclinic'
loop_
_space_group_symop_operation_xyz
x,y,z
-x,-y,-z
loop_
_atom_site_type_symbol
_atom_site_label
_atom_site_fract_x
_atom_site_fract_y
_atom_site_fract_z
Si Si1 0.728318 0.781683 0.848842
Si Si2 0.811603 0.337556 0.603436
Si Si3 0.387190 0.267780 0.583939
Si Si4 0.335908 0.009422 0.596654
Si Si5 0.892687 0.582750 0.345119
Si Si6 0.805342 0.350415 0.750537
Si Si7 0.625904 0.839168 0.960863
Si Si8 0.385555 0.571177 0.136190
O O1 0.661421 0.589119 0.755294
O O2 0.565615 0.901975 0.867469
O O3 0.600784 0.923869 0.757721
O O4 0.060545 0.713624 0.997910
O O5 0.500000 0.500000 0.500000
O O6 0.972642 0.431717 0.664067
O O7 0.954904 0.297912 0.738539
O O8 0.818898 0.133459 0.523028
O O9 0.427834 0.055299 0.580454
O O10 0.072564 0.394028 0.433629
O O11 0.586101 0.251234 0.615861
O O12 0.496992 0.383166 0.723106
O O13 0.112026 0.221781 0.567891
O O14 0.581082 0.598561 0.183473
O O15 0.041677 0.244767 0.896503
O O16 0.546138 0.660888 0.891256
O O17 0.500000 0.000000 0.000000
#
# Coordination Sequence:
#
# PCOD8015988 Si02
#       8
#     2   2   2   2   2   2   2   2
#     4  11  21  44  70  93 134 175 223 262 334 401
#     4  12  24  44  66  97 135 174 221 275 326 390
#     4  11  21  43  68  96 133 175 220 270 330 395
#     4  11  25  40  69 102 128 175 225 273 331 390
#     4  11  25  43  67  97 135 178 222 274 331 387
#     4  11  22  44  69  92 134 180 218 263 337 393
#     4  11  24  41  69 101 128 174 222 273 324 399
#     4  10  21  43  68  93 129 180 213 270 330 390
#
# _framework density 22.756416000000002
#
# number of rings (size 3 to 8) (size 9 to 14) (size 15 to 20)
#    0.000    1.000    5.000    2.625    1.750    4.500 
#    2.250    2.500    0.000    0.000    0.000    0.000 
#    0.000    0.000    0.000    0.000    0.000    0.000 
#
# Total GULP energy -198263.797589 kJ/mol
# GULP energy per Si atom -12391.487349 kJ/mol
# Density = 2.270462 g / cm^3
# Si number density = 22.756416 Si / 1000 Ang^3
#
#
#
# Elastic Constant Matrix: (Units=GPa)
#
#
# Indices 1 2 3 4 5 6 
#
# 1 160.8561 36.7094 44.5457 -4.2541 5.7943 20.8665
# 2 36.7094 87.4260 25.3749 -4.7182 -6.1477 9.1327
# 3 44.5457 25.3749 75.6489 -4.3456 -4.1908 13.2853
# 4 -4.2541 -4.7182 -4.3456 30.4833 5.8708 -10.2805
# 5 5.7943 -6.1477 -4.1908 5.8708 39.2094 2.3424
# 6 20.8665 9.1327 13.2853 -10.2805 2.3424 31.0282
#
#
#
# Elastic Compliance Matrix: (Units=1/GPa)
#
#
# Indices 1 2 3 4 5 6 
#
# 1 0.008203 -0.002185 -0.003628 -0.000527 -0.001662 -0.003369
# 2 -0.002185 0.013499 -0.002872 0.000542 0.002126 -0.001255
# 3 -0.003628 -0.002872 0.017189 -0.000410 0.002246 -0.004380
# 4 -0.000527 0.000542 -0.000410 0.038608 -0.006477 0.013651
# 5 -0.001662 0.002126 0.002246 -0.006477 0.027574 -0.004697
# 6 -0.003369 -0.001255 -0.004380 0.013651 -0.004697 0.041617
#
#
# Mechanical properties :
#
#
# Convention : Reuss Voigt Hill
#
# Bulk Modulus (GPa) = 46.46663 59.68789 53.07726
# Shear Modulus (GPa) = 29.19990 34.63090 31.91540
#
# Velocity S-wave (km/s) = 3.58599 3.90527 3.74903
# Velocity P-wave (km/s) = 6.13264 6.82794 6.48961
#
# Compressibility (1/GPa) = 0.02152082
#
# Stress axis : x y z
#
# Youngs Moduli (GPa) = 121.90560 74.07888 58.17708
#
# Poissons Ratio (x) = 0.16184 0.21108
# Poissons Ratio (y) = 0.26633 0.16710
# Poissons Ratio (z) = 0.44230 0.21277
#
# Static dielectric constant tensor:
#      x y z
#    x 4.768520 0.213970 -0.033980 
#    y 0.213970 4.007100 -0.020540 
#    z -0.033980 -0.020540 4.239270 
# 
# 
# High freq. dielectric constant tensor:
#      x y z
#    x 1.909890 0.010220 -0.001530 
#    y 0.010220 1.881210 -0.003550 
#    z -0.001530 -0.003550 1.895420 
# 
# From -- ./inp_files/593680.got.cif
#   From: 2010.06.25/outbox.cif.g09.slc.cpg/sg2_297_cif.got.tgz:593680.got - 2010.06.27 13:26:56.
