data_PCOD8015212
_publ_section_title
;
Structure prediction by ZEFSAII (Michael W. Deem and Ramdas Pophale) SiO2 
 PCOD8015212
Probable space group: P -1
;
_chemical_formula_sum "Si O2"
_cell_formula_units_Z 16
_cell_length_a 12.864859
_cell_length_b 23.541503
_cell_length_c 8.835886
_cell_angle_alpha 39.032334
_cell_angle_beta 131.202894
_cell_angle_gamma 152.585367
_cell_volume 771.534571
_symmetry_space_group_name_H-M "P -1"
_symmetry_group_IT_number 2
_symmetry_cell_setting 'triclinic'
loop_
_space_group_symop_operation_xyz
x,y,z
-x,-y,-z
loop_
_atom_site_type_symbol
_atom_site_label
_atom_site_fract_x
_atom_site_fract_y
_atom_site_fract_z
Si Si1 0.450822 0.249099 0.551603
Si Si2 0.677955 0.651096 0.946462
Si Si3 0.460334 0.888272 0.609999
Si Si4 0.733423 0.868426 0.048687
Si Si5 0.096550 0.407089 0.649786
Si Si6 0.033545 0.413721 0.230866
Si Si7 0.485812 0.584685 0.223813
Si Si8 0.578937 0.138642 0.729833
O O1 0.279617 0.233815 0.342041
O O2 0.333982 0.164679 0.772067
O O3 0.705315 0.425496 0.437875
O O4 0.448157 0.154444 0.649928
O O5 0.500000 0.500000 0.000000
O O6 0.887845 0.691257 0.086034
O O7 0.594752 0.637743 0.056709
O O8 0.205432 0.747083 0.715045
O O9 0.474247 0.892355 0.434377
O O10 0.500000 0.000000 0.500000
O O11 0.639089 0.909389 0.798221
O O12 0.614892 0.722079 0.165641
O O13 0.000000 0.000000 0.000000
O O14 0.117369 0.427725 0.447517
O O15 0.843150 0.299904 0.683032
O O16 0.224782 0.477759 0.166477
O O17 0.000000 0.500000 0.000000
O O18 0.500000 0.500000 0.500000
O O19 0.500000 0.000000 0.000000
#
# Coordination Sequence:
#
# PCOD8015212 Si02
#       8
#     2   2   2   2   2   2   2   2
#     4  11  22  45  65  97 132 168 223 274 328 396
#     4  10  22  40  63  99 133 163 218 270 329 385
#     4  11  25  46  64  96 133 176 223 267 333 393
#     4  12  27  45  68  98 132 174 222 275 334 397
#     4  10  21  42  66  97 129 173 215 271 321 390
#     4  11  21  40  70  95 129 170 227 273 312 387
#     4  12  22  42  69  98 130 177 224 268 326 390
#     4  11  25  42  67  96 135 173 216 270 337 391
#
# _framework density 20.737891000000001
#
# number of rings (size 3 to 8) (size 9 to 14) (size 15 to 20)
#    0.000    1.000    3.750    2.625    3.500    2.000 
#    9.000    1.875    0.000    0.000    0.000    0.000 
#    0.000    0.000    0.000    0.000    0.000    0.000 
#
# Total GULP energy -198257.538441 kJ/mol
# GULP energy per Si atom -12391.096153 kJ/mol
# Density = 2.069069 g / cm^3
# Si number density = 20.737891 Si / 1000 Ang^3
#
#
#
# Elastic Constant Matrix: (Units=GPa)
#
#
# Indices 1 2 3 4 5 6 
#
# 1 135.1473 56.9875 57.0277 -1.5221 13.7165 -8.1964
# 2 56.9875 101.4485 55.6274 -4.7305 10.0132 4.8359
# 3 57.0277 55.6274 157.0728 9.2426 24.9705 1.6998
# 4 -1.5221 -4.7305 9.2426 40.2815 0.5999 5.1289
# 5 13.7165 10.0132 24.9705 0.5999 45.0000 -3.8336
# 6 -8.1964 4.8359 1.6998 5.1289 -3.8336 34.3532
#
#
#
# Elastic Compliance Matrix: (Units=1/GPa)
#
#
# Indices 1 2 3 4 5 6 
#
# 1 0.010603 -0.004942 -0.002010 -0.000123 -0.000737 0.003261
# 2 -0.004942 0.014921 -0.003594 0.002844 -0.000159 -0.003544
# 3 -0.002010 -0.003594 0.009099 -0.002473 -0.003643 -0.000461
# 4 -0.000123 0.002844 -0.002473 0.026258 0.000067 -0.004220
# 5 -0.000737 -0.000159 -0.003643 0.000067 0.024740 0.002778
# 6 0.003261 -0.003544 -0.000461 -0.004220 0.002778 0.031349
#
#
# Mechanical properties :
#
#
# Convention : Reuss Voigt Hill
#
# Bulk Modulus (GPa) = 73.90590 81.43934 77.67262
# Shear Modulus (GPa) = 35.07013 38.86201 36.96607
#
# Velocity S-wave (km/s) = 4.11678 4.33362 4.22659
# Velocity P-wave (km/s) = 7.63627 8.02474 7.83291
#
# Compressibility (1/GPa) = 0.01353072
#
# Stress axis : x y z
#
# Youngs Moduli (GPa) = 94.31573 67.01856 109.90753
#
# Poissons Ratio (x) = 0.33122 0.22092
# Poissons Ratio (y) = 0.46612 0.39497
# Poissons Ratio (z) = 0.18958 0.24084
#
# Static dielectric constant tensor:
#      x y z
#    x 5.545190 0.317390 -0.989000 
#    y 0.317390 3.816340 0.085990 
#    z -0.989000 0.085990 5.028820 
# 
# 
# High freq. dielectric constant tensor:
#      x y z
#    x 1.822200 -0.001320 0.011120 
#    y -0.001320 1.809680 0.008240 
#    z 0.011120 0.008240 1.831830 
# 
# From -- ./inp_files/205918.got.cif
#   From: 2010.06.25/outbox.cif.g09.slc.cpg/sg2_103_cif.got.tgz:205918.got - 2010.06.27 13:26:56.
