data_PCOD8015392
_publ_section_title
;
Structure prediction by ZEFSAII (Michael W. Deem and Ramdas Pophale) SiO2 
 PCOD8015392
Probable space group: P -1
;
_chemical_formula_sum "Si O2"
_cell_formula_units_Z 14
_cell_length_a 12.568363
_cell_length_b 12.263088
_cell_length_c 8.978368
_cell_angle_alpha 35.182652
_cell_angle_beta 59.647531
_cell_angle_gamma 53.583232
_cell_volume 641.023113
_symmetry_space_group_name_H-M "P -1"
_symmetry_group_IT_number 2
_symmetry_cell_setting 'triclinic'
loop_
_space_group_symop_operation_xyz
x,y,z
-x,-y,-z
loop_
_atom_site_type_symbol
_atom_site_label
_atom_site_fract_x
_atom_site_fract_y
_atom_site_fract_z
Si Si1 0.052122 0.392577 0.737291
Si Si2 0.197440 0.903580 0.862013
Si Si3 0.077879 0.779305 0.371669
Si Si4 0.467428 0.226541 0.710426
Si Si5 0.216034 0.569317 0.028721
Si Si6 0.704685 0.802468 0.391279
Si Si7 0.304021 0.601046 0.611459
O O1 0.081650 0.551228 0.645915
O O2 0.185829 0.208773 0.802037
O O3 0.000000 0.500000 0.500000
O O4 0.945004 0.315797 0.977686
O O5 0.309223 0.986866 0.751366
O O6 0.139778 0.802295 0.144594
O O7 0.274554 0.726476 0.888390
O O8 0.074444 0.072016 0.675921
O O9 0.176930 0.784410 0.428784
O O10 0.421032 0.213754 0.586994
O O11 0.358601 0.404229 0.684473
O O12 0.594897 0.287520 0.549025
O O13 0.500000 0.000000 0.000000
O O14 0.254066 0.363279 0.323768
O O15 0.266914 0.517509 0.884076
#
# Coordination Sequence:
#
# PCOD8015392 Si02
#       7
#     2   2   2   2   2   2   2
#     4  10  16  36  61  93 123 159 198 238 307 362
#     4  11  20  35  66  94 124 162 206 240 300 377
#     4  11  19  37  63  93 126 165 202 243 301 371
#     4  11  25  47  68  84 115 168 220 255 301 366
#     4  11  23  39  61  98 131 157 195 255 316 367
#     4  11  21  41  66  90 124 165 210 249 297 364
#     4  11  26  44  62  91 128 161 202 261 315 352
#
# _framework density 21.840084999999998
#
# number of rings (size 3 to 8) (size 9 to 14) (size 15 to 20)
#    0.000    1.143    7.143    1.714    0.000    4.000 
#    0.000    1.429    0.000    0.000    0.000    0.000 
#    0.000    0.000    0.000    0.000    0.000    0.000 
#
# Total GULP energy -173459.078194 kJ/mol
# GULP energy per Si atom -12389.934157 kJ/mol
# Density = 2.179038 g / cm^3
# Si number density = 21.840085 Si / 1000 Ang^3
#
#
#
# Elastic Constant Matrix: (Units=GPa)
#
#
# Indices 1 2 3 4 5 6 
#
# 1 132.9311 27.5520 34.6183 3.5286 -5.1972 20.4717
# 2 27.5520 56.7322 32.0549 3.7395 -11.0563 21.5396
# 3 34.6183 32.0549 84.1513 3.2843 -4.1437 6.1055
# 4 3.5286 3.7395 3.2843 31.4579 10.1146 -8.7412
# 5 -5.1972 -11.0563 -4.1437 10.1146 28.5738 -7.1778
# 6 20.4717 21.5396 6.1055 -8.7412 -7.1778 23.8934
#
#
#
# Elastic Compliance Matrix: (Units=1/GPa)
#
#
# Indices 1 2 3 4 5 6 
#
# 1 0.009864 0.001566 -0.003729 -0.003949 0.000710 -0.010142
# 2 0.001566 0.042730 -0.012717 -0.018762 0.011567 -0.040002
# 3 -0.003729 -0.012717 0.017227 0.003751 -0.001630 0.011140
# 4 -0.003949 -0.018762 0.003751 0.048272 -0.016470 0.032051
# 5 0.000710 0.011567 -0.001630 -0.016470 0.044362 -0.003318
# 6 -0.010142 -0.040002 0.011140 0.032051 -0.003318 0.094485
#
#
# Mechanical properties :
#
#
# Convention : Reuss Voigt Hill
#
# Bulk Modulus (GPa) = 24.96260 51.36278 38.16269
# Shear Modulus (GPa) = 16.66371 28.75764 22.71068
#
# Velocity S-wave (km/s) = 2.76522 3.63262 3.22819
# Velocity P-wave (km/s) = 4.65293 6.41586 5.60415
#
# Compressibility (1/GPa) = 0.04005993
#
# Stress axis : x y z
#
# Youngs Moduli (GPa) = 101.38130 23.40282 58.04937
#
# Poissons Ratio (x) = -0.03665 0.21649
# Poissons Ratio (y) = -0.15876 0.73820
# Poissons Ratio (z) = 0.37809 0.29761
#
# Static dielectric constant tensor:
#      x y z
#    x 4.383520 0.251040 -0.200250 
#    y 0.251040 3.395010 -0.018960 
#    z -0.200250 -0.018960 3.689410 
# 
# 
# High freq. dielectric constant tensor:
#      x y z
#    x 1.870460 0.020800 -0.010770 
#    y 0.020800 1.833000 -0.016600 
#    z -0.010770 -0.016600 1.842350 
# 
# From -- ./inp_files/255734.got.cif
#   From: 2010.06.25/outbox.cif.g09.slc.cpg/sg2_128_cif.got.tgz:255734.got - 2010.06.27 13:26:56.
