data_PCOD8015688
_publ_section_title
;
Structure prediction by ZEFSAII (Michael W. Deem and Ramdas Pophale) SiO2 
 PCOD8015688
Probable space group: P -1
;
_chemical_formula_sum "Si O2"
_cell_formula_units_Z 14
_cell_length_a 8.879056
_cell_length_b 12.474299
_cell_length_c 10.958771
_cell_angle_alpha 143.400215
_cell_angle_beta 74.429172
_cell_angle_gamma 91.871173
_cell_volume 660.858071
_symmetry_space_group_name_H-M "P -1"
_symmetry_group_IT_number 2
_symmetry_cell_setting 'triclinic'
loop_
_space_group_symop_operation_xyz
x,y,z
-x,-y,-z
loop_
_atom_site_type_symbol
_atom_site_label
_atom_site_fract_x
_atom_site_fract_y
_atom_site_fract_z
Si Si1 0.547129 0.165891 0.498703
Si Si2 0.951940 0.308756 0.333438
Si Si3 0.687703 0.405979 0.840597
Si Si4 0.269084 0.230112 0.817192
Si Si5 0.608042 0.318073 0.382495
Si Si6 0.133752 0.927895 0.057065
Si Si7 0.064123 0.827174 0.238555
O O1 0.691536 0.238969 0.593348
O O2 0.377682 0.217899 0.658713
O O3 0.505744 0.250373 0.448068
O O4 0.636399 0.940121 0.268637
O O5 0.000000 0.500000 0.500000
O O6 0.757542 0.370770 0.464331
O O7 0.978615 0.190854 0.090089
O O8 0.056921 0.155671 0.268582
O O9 0.793776 0.336117 0.875188
O O10 0.500000 0.500000 0.000000
O O11 0.748513 0.575034 0.927399
O O12 0.086719 0.242012 0.830487
O O13 0.500000 0.500000 0.500000
O O14 0.684386 0.146117 0.112338
O O15 0.150502 0.886393 0.158062
O O16 0.000000 0.000000 0.500000
#
# Coordination Sequence:
#
# PCOD8015688 Si02
#       7
#     2   2   2   2   2   2   2
#     4  10  21  43  62  93 129 163 213 259 321 378
#     4   9  20  42  67  91 121 170 216 255 319 386
#     4  10  23  39  63  92 124 166 206 261 318 378
#     4  10  22  39  65  93 124 169 206 263 316 376
#     4  10  22  42  66  90 131 170 202 270 320 375
#     4   9  23  42  64  90 134 162 210 272 318 369
#     4  12  23  42  65  95 132 166 214 270 322 379
#
# _framework density 21.18458
#
# number of rings (size 3 to 8) (size 9 to 14) (size 15 to 20)
#    0.857    1.143    1.429    1.286    4.000    1.143 
#    5.143    0.714    0.000    0.000    0.000    0.000 
#    0.000    0.000    0.000    0.000    0.000    0.000 
#
# Total GULP energy -173455.328284 kJ/mol
# GULP energy per Si atom -12389.666306 kJ/mol
# Density = 2.113636 g / cm^3
# Si number density = 21.184580 Si / 1000 Ang^3
#
#
#
# Elastic Constant Matrix: (Units=GPa)
#
#
# Indices 1 2 3 4 5 6 
#
# 1 67.8404 28.4954 11.8670 14.5207 -20.7111 -4.4718
# 2 28.4954 164.1969 52.1935 15.7216 -12.9365 -10.8709
# 3 11.8670 52.1935 72.3109 28.6271 2.9022 1.2921
# 4 14.5207 15.7216 28.6271 46.6537 0.7326 -6.3802
# 5 -20.7111 -12.9365 2.9022 0.7326 33.9846 12.0064
# 6 -4.4718 -10.8709 1.2921 -6.3802 12.0064 31.4342
#
#
#
# Elastic Compliance Matrix: (Units=1/GPa)
#
#
# Indices 1 2 3 4 5 6 
#
# 1 0.020954 -0.002374 0.000527 -0.006863 0.013532 -0.004423
# 2 -0.002374 0.008820 -0.007072 0.002490 0.001412 0.002969
# 3 0.000527 -0.007072 0.024333 -0.013387 -0.002323 -0.005201
# 4 -0.006863 0.002490 -0.013387 0.032315 -0.006079 0.009316
# 5 0.013532 0.001412 -0.002323 -0.006079 0.044029 -0.015542
# 6 -0.004423 0.002969 -0.005201 0.009316 -0.015542 0.040251
#
#
# Mechanical properties :
#
#
# Convention : Reuss Voigt Hill
#
# Bulk Modulus (GPa) = 27.57104 54.38444 40.97774
# Shear Modulus (GPa) = 24.92179 36.53398 30.72788
#
# Velocity S-wave (km/s) = 3.43361 4.15728 3.81265
# Velocity P-wave (km/s) = 5.36307 6.98365 6.22631
#
# Compressibility (1/GPa) = 0.03626994
#
# Stress axis : x y z
#
# Youngs Moduli (GPa) = 47.72417 113.38501 41.09696
#
# Poissons Ratio (x) = 0.26914 -0.02168
# Poissons Ratio (y) = 0.11328 0.29063
# Poissons Ratio (z) = -0.02517 0.80183
#
# Static dielectric constant tensor:
#      x y z
#    x 4.561900 -0.533050 0.475610 
#    y -0.533050 3.943380 -0.119310 
#    z 0.475610 -0.119310 4.181350 
# 
# 
# High freq. dielectric constant tensor:
#      x y z
#    x 1.814150 -0.001710 -0.010780 
#    y -0.001710 1.829110 0.016990 
#    z -0.010780 0.016990 1.829240 
# 
# From -- ./inp_files/386276.got.cif
#   From: 2010.06.25/outbox.cif.g09.slc.cpg/sg2_194_cif.got.tgz:386276.got - 2010.06.27 13:26:56.
