data_PCOD8015646
_publ_section_title
;
Structure prediction by ZEFSAII (Michael W. Deem and Ramdas Pophale) SiO2 
 PCOD8015646
Probable space group: P -1
;
_chemical_formula_sum "Si O2"
_cell_formula_units_Z 16
_cell_length_a 5.178623
_cell_length_b 14.461395
_cell_length_c 10.319386
_cell_angle_alpha 117.431816
_cell_angle_beta 100.964623
_cell_angle_gamma 90.227391
_cell_volume 669.671515
_symmetry_space_group_name_H-M "P -1"
_symmetry_group_IT_number 2
_symmetry_cell_setting 'triclinic'
loop_
_space_group_symop_operation_xyz
x,y,z
-x,-y,-z
loop_
_atom_site_type_symbol
_atom_site_label
_atom_site_fract_x
_atom_site_fract_y
_atom_site_fract_z
Si Si1 0.395719 0.027230 0.869505
Si Si2 0.547632 0.681575 0.596704
Si Si3 0.166202 0.993388 0.298914
Si Si4 0.535004 0.252495 0.100984
Si Si5 0.025318 0.353725 0.075550
Si Si6 0.829262 0.237787 0.739270
Si Si7 0.748226 0.792047 0.439993
Si Si8 0.162758 0.502187 0.386024
O O1 0.571704 0.982492 0.746197
O O2 0.909375 0.016281 0.206244
O O3 0.422579 0.151846 0.944464
O O4 0.500000 0.000000 0.000000
O O5 0.461727 0.762192 0.750682
O O6 0.745055 0.744196 0.554569
O O7 0.305748 0.619180 0.453321
O O8 0.654164 0.590721 0.634183
O O9 0.202426 0.080946 0.472048
O O10 0.126823 0.875731 0.271991
O O11 0.332918 0.334041 0.089696
O O12 0.840103 0.278633 0.106078
O O13 0.008799 0.469810 0.214271
O O14 0.906383 0.334478 0.908112
O O15 0.525447 0.242680 0.679608
O O16 0.014038 0.254947 0.641825
O O17 0.000000 0.500000 0.500000
#
# Coordination Sequence:
#
# PCOD8015646 Si02
#       8
#     2   2   2   2   2   2   2   2
#     4  12  23  37  63  98 136 169 212 280 335 383
#     4  10  24  41  65 103 129 167 217 274 341 394
#     4  12  24  44  63  94 135 181 232 261 319 392
#     4  11  20  39  63  93 130 165 205 276 325 398
#     4  11  22  40  69  93 124 167 220 259 331 389
#     4  12  24  45  66  93 133 188 227 263 314 389
#     4  12  27  43  67  95 137 178 231 274 312 383
#     4  10  21  42  73  96 129 166 209 277 348 411
#
# _framework density 23.892309000000001
#
# number of rings (size 3 to 8) (size 9 to 14) (size 15 to 20)
#    0.000    0.750    3.750    4.125    1.750    2.000 
#    0.000    1.250    0.000    0.000    0.000    0.000 
#    0.000    0.000    0.000    0.000    0.000    0.000 
#
# Total GULP energy -198287.608990 kJ/mol
# GULP energy per Si atom -12392.975562 kJ/mol
# Density = 2.383793 g / cm^3
# Si number density = 23.892309 Si / 1000 Ang^3
#
#
#
# Elastic Constant Matrix: (Units=GPa)
#
#
# Indices 1 2 3 4 5 6 
#
# 1 88.0925 13.1302 21.8824 7.2240 -4.8788 5.7183
# 2 13.1302 21.0450 2.9751 -2.9056 2.4861 13.4446
# 3 21.8824 2.9751 147.2208 27.5716 -3.4378 10.1014
# 4 7.2240 -2.9056 27.5716 41.8922 9.1775 3.2734
# 5 -4.8788 2.4861 -3.4378 9.1775 45.2719 -5.6983
# 6 5.7183 13.4446 10.1014 3.2734 -5.6983 27.9726
#
#
#
# Elastic Compliance Matrix: (Units=1/GPa)
#
#
# Indices 1 2 3 4 5 6 
#
# 1 0.013664 -0.012118 -0.001396 -0.003359 0.003292 0.004599
# 2 -0.012118 0.086979 -0.000049 0.014799 -0.014627 -0.044022
# 3 -0.001396 -0.000049 0.008139 -0.005272 0.001320 -0.001744
# 4 -0.003359 0.014799 -0.005272 0.031774 -0.009292 -0.010133
# 5 0.003292 -0.014627 0.001320 -0.009292 0.026795 0.012426
# 6 0.004599 -0.044022 -0.001744 -0.010133 0.012426 0.060315
#
#
# Mechanical properties :
#
#
# Convention : Reuss Voigt Hill
#
# Bulk Modulus (GPa) = 12.24651 36.92595 24.58623
# Shear Modulus (GPa) = 17.72989 37.58537 27.65763
#
# Velocity S-wave (km/s) = 2.72706 3.97056 3.40604
# Velocity P-wave (km/s) = 3.87978 6.04228 5.07749
#
# Compressibility (1/GPa) = 0.08165589
#
# Stress axis : x y z
#
# Youngs Moduli (GPa) = 73.18602 11.49698 122.86764
#
# Poissons Ratio (x) = 0.13932 0.17149
# Poissons Ratio (y) = 0.88688 0.00604
# Poissons Ratio (z) = 0.10215 0.00057
#
# Static dielectric constant tensor:
#      x y z
#    x 5.058520 -1.103590 -1.148830 
#    y -1.103590 6.513900 2.519130 
#    z -1.148830 2.519130 6.729370 
# 
# 
# High freq. dielectric constant tensor:
#      x y z
#    x 1.951130 0.012790 -0.004840 
#    y 0.012790 1.911370 0.019230 
#    z -0.004840 0.019230 1.973420 
# 
# From -- ./inp_files/135710.got.cif
#   From: 2010.06.25/outbox.cif.g09.slc.cpg/sg2_68_cif.got.tgz:135710.got - 2010.06.27 13:26:56.
