data_PCOD8015133
_publ_section_title
;
Structure prediction by ZEFSAII (Michael W. Deem and Ramdas Pophale) SiO2 
 PCOD8015133
Probable space group: P -1
;
_chemical_formula_sum "Si O2"
_cell_formula_units_Z 16
_cell_length_a 8.698879
_cell_length_b 19.532314
_cell_length_c 9.950545
_cell_angle_alpha 118.410141
_cell_angle_beta 73.440480
_cell_angle_gamma 55.048779
_cell_volume 772.636200
_symmetry_space_group_name_H-M "P -1"
_symmetry_group_IT_number 2
_symmetry_cell_setting 'triclinic'
loop_
_space_group_symop_operation_xyz
x,y,z
-x,-y,-z
loop_
_atom_site_type_symbol
_atom_site_label
_atom_site_fract_x
_atom_site_fract_y
_atom_site_fract_z
Si Si1 0.900597 0.701509 0.929102
Si Si2 0.925125 0.119996 0.629050
Si Si3 0.303308 0.360951 0.918784
Si Si4 0.293321 0.325200 0.595917
Si Si5 0.912631 0.202908 0.977550
Si Si6 0.348773 0.986942 0.175855
Si Si7 0.728379 0.567396 0.555962
Si Si8 0.375187 0.959933 0.845659
O O1 0.151622 0.566053 0.640981
O O2 0.834884 0.666540 0.031035
O O3 0.604175 0.833821 0.041149
O O4 0.023587 0.731381 0.986793
O O5 0.573814 0.274742 0.864110
O O6 0.052849 0.108888 0.720152
O O7 0.000000 0.000000 0.500000
O O8 0.056055 0.104439 0.448034
O O9 0.421964 0.307803 0.686466
O O10 0.063190 0.527387 0.156745
O O11 0.381834 0.340881 0.461339
O O12 0.420376 0.187603 0.413472
O O13 0.562402 0.327241 0.183512
O O14 0.076193 0.097256 0.965152
O O15 0.425359 0.045548 0.198063
O O16 0.284771 0.973856 0.033953
O O17 0.000000 0.500000 0.500000
#
# Coordination Sequence:
#
# PCOD8015133 Si02
#       8
#     2   2   2   2   2   2   2   2
#     4  10  21  42  66  89 128 163 212 255 309 375
#     4  12  24  39  63  94 126 163 212 261 309 373
#     4  10  22  41  63  92 124 165 205 259 315 369
#     4  10  22  39  65  85 126 163 207 253 312 368
#     4  11  25  39  66  97 120 167 212 256 314 371
#     4  10  23  40  63  91 129 164 203 259 316 363
#     4  11  23  41  67  93 125 165 207 259 313 368
#     4  10  23  41  62  92 126 164 207 258 309 371
#
# _framework density 20.708321999999999
#
# number of rings (size 3 to 8) (size 9 to 14) (size 15 to 20)
#    0.000    1.500    1.250    3.375    5.250    1.500 
#    0.000    1.875    0.000    0.000    0.000    0.000 
#    0.000    0.000    0.000    0.000    0.000    0.000 
#
# Total GULP energy -198387.002714 kJ/mol
# GULP energy per Si atom -12399.187670 kJ/mol
# Density = 2.066119 g / cm^3
# Si number density = 20.708322 Si / 1000 Ang^3
#
#
#
# Elastic Constant Matrix: (Units=GPa)
#
#
# Indices 1 2 3 4 5 6 
#
# 1 92.0149 40.5936 54.4920 2.6209 4.6530 -11.6537
# 2 40.5936 83.0862 38.1362 -4.7762 1.7211 -6.4434
# 3 54.4920 38.1362 126.2723 -4.1615 10.4912 -3.3250
# 4 2.6209 -4.7762 -4.1615 45.5294 2.7939 3.9945
# 5 4.6530 1.7211 10.4912 2.7939 39.1623 1.3210
# 6 -11.6537 -6.4434 -3.3250 3.9945 1.3210 27.4713
#
#
#
# Elastic Compliance Matrix: (Units=1/GPa)
#
#
# Indices 1 2 3 4 5 6 
#
# 1 0.017627 -0.005636 -0.005813 -0.002632 -0.000299 0.005849
# 2 -0.005636 0.016027 -0.002369 0.001690 0.000452 0.000814
# 3 -0.005813 -0.002369 0.011334 0.001415 -0.002284 -0.001746
# 4 -0.002632 0.001690 0.001415 0.022856 -0.001643 -0.003793
# 5 -0.000299 0.000452 -0.002284 -0.001643 0.026324 -0.001324
# 6 0.005849 0.000814 -0.001746 -0.003793 -0.001324 0.039478
#
#
# Mechanical properties :
#
#
# Convention : Reuss Voigt Hill
#
# Bulk Modulus (GPa) = 57.62438 63.09079 60.35758
# Shear Modulus (GPa) = 29.92841 33.64271 31.78556
#
# Velocity S-wave (km/s) = 3.80575 4.03500 3.92205
# Velocity P-wave (km/s) = 6.87013 7.22778 7.05123
#
# Compressibility (1/GPa) = 0.01735377
#
# Stress axis : x y z
#
# Youngs Moduli (GPa) = 56.72997 62.39330 88.23246
#
# Poissons Ratio (x) = 0.35163 0.51288
# Poissons Ratio (y) = 0.31971 0.20901
# Poissons Ratio (z) = 0.32976 0.14780
#
# Static dielectric constant tensor:
#      x y z
#    x 3.710760 -0.164480 0.009310 
#    y -0.164480 4.109790 -0.095270 
#    z 0.009310 -0.095270 3.999140 
# 
# 
# High freq. dielectric constant tensor:
#      x y z
#    x 1.793510 -0.004980 0.008720 
#    y -0.004980 1.821170 -0.001490 
#    z 0.008720 -0.001490 1.825080 
# 
# From -- ./inp_files/223807.got.cif
#   From: 2010.06.25/outbox.cif.g09.slc.cpg/sg2_112_cif.got.tgz:223807.got - 2010.06.27 13:26:56.
