data_PCOD8015893
_publ_section_title
;
Structure prediction by ZEFSAII (Michael W. Deem and Ramdas Pophale) SiO2 
 PCOD8015893
Probable space group: P -1
;
_chemical_formula_sum "Si O2"
_cell_formula_units_Z 16
_cell_length_a 6.969523
_cell_length_b 8.972947
_cell_length_c 18.119377
_cell_angle_alpha 47.174511
_cell_angle_beta 98.997017
_cell_angle_gamma 102.770311
_cell_volume 810.484863
_symmetry_space_group_name_H-M "P -1"
_symmetry_group_IT_number 2
_symmetry_cell_setting 'triclinic'
loop_
_space_group_symop_operation_xyz
x,y,z
-x,-y,-z
loop_
_atom_site_type_symbol
_atom_site_label
_atom_site_fract_x
_atom_site_fract_y
_atom_site_fract_z
Si Si1 0.712093 0.483392 0.047429
Si Si2 0.742822 0.415061 0.241974
Si Si3 0.407642 0.185981 0.398493
Si Si4 0.341395 0.549664 0.379098
Si Si5 0.007805 0.810967 0.872807
Si Si6 0.238224 0.311774 0.595218
Si Si7 0.971149 0.718780 0.261846
Si Si8 0.013882 0.111633 0.317870
O O1 0.697737 0.479763 0.135496
O O2 0.786154 0.278836 0.088714
O O3 0.500000 0.500000 0.000000
O O4 0.861389 0.682622 0.964284
O O5 0.542228 0.304951 0.303362
O O6 0.831823 0.619086 0.222264
O O7 0.907548 0.269174 0.304340
O O8 0.374977 0.345175 0.406853
O O9 0.204009 0.078114 0.386490
O O10 0.500000 0.000000 0.500000
O O11 0.250037 0.485884 0.475208
O O12 0.545439 0.702877 0.353470
O O13 0.195382 0.674483 0.283283
O O14 0.916852 0.800394 0.788357
O O15 0.044859 0.042378 0.825975
O O16 0.107170 0.376110 0.632391
O O17 0.143034 0.094480 0.628894
#
# Coordination Sequence:
#
# PCOD8015893 Si02
#       8
#     2   2   2   2   2   2   2   2
#     4  10  21  43  67  91 121 155 207 258 311 380
#     4  11  23  40  64  92 126 165 205 260 315 366
#     4  12  25  38  61  94 128 169 217 253 303 366
#     4  11  23  39  60  87 126 170 213 256 305 364
#     4   9  22  40  65  93 117 159 207 251 317 376
#     4  10  23  39  60  88 123 170 216 253 303 364
#     4  11  22  40  63  89 129 160 205 262 314 364
#     4  10  22  41  63  89 125 166 208 258 308 365
#
# _framework density 19.741268000000002
#
# number of rings (size 3 to 8) (size 9 to 14) (size 15 to 20)
#    0.000    1.500    2.500    1.875    1.750   10.500 
#    0.000    0.625    0.000    0.000    0.000    0.000 
#    0.000    0.000    0.000    0.000    0.000    0.000 
#
# Total GULP energy -198436.459158 kJ/mol
# GULP energy per Si atom -12402.278697 kJ/mol
# Density = 1.969634 g / cm^3
# Si number density = 19.741268 Si / 1000 Ang^3
#
#
#
# Elastic Constant Matrix: (Units=GPa)
#
#
# Indices 1 2 3 4 5 6 
#
# 1 128.2011 78.4848 74.6646 -5.5571 10.5243 12.6391
# 2 78.4848 141.6636 44.8965 -7.5105 13.2499 7.7870
# 3 74.6646 44.8965 81.5070 2.4195 12.0245 6.9951
# 4 -5.5571 -7.5105 2.4195 25.9756 -6.8619 -0.9056
# 5 10.5243 13.2499 12.0245 -6.8619 32.3590 0.7001
# 6 12.6391 7.7870 6.9951 -0.9056 0.7001 32.8358
#
#
#
# Elastic Compliance Matrix: (Units=1/GPa)
#
#
# Indices 1 2 3 4 5 6 
#
# 1 0.021898 -0.006678 -0.016686 0.004972 0.002937 -0.003216
# 2 -0.006678 0.010894 0.000412 0.001099 -0.002208 -0.000023
# 3 -0.016686 0.000412 0.028592 -0.007973 -0.007061 0.000165
# 4 0.004972 0.001099 -0.007973 0.043299 0.010067 0.000504
# 5 0.002937 -0.002208 -0.007061 0.010067 0.035602 0.000416
# 6 -0.003216 -0.000023 0.000165 0.000504 0.000416 0.031668
#
#
# Mechanical properties :
#
#
# Convention : Reuss Voigt Hill
#
# Bulk Modulus (GPa) = 64.60319 83.05150 73.82735
# Shear Modulus (GPa) = 22.41978 28.45579 25.43778
#
# Velocity S-wave (km/s) = 3.37364 3.80074 3.59354
# Velocity P-wave (km/s) = 6.92613 7.83723 7.39572
#
# Compressibility (1/GPa) = 0.01547911
#
# Stress axis : x y z
#
# Youngs Moduli (GPa) = 45.66596 91.79005 34.97528
#
# Poissons Ratio (x) = 0.61299 0.58360
# Poissons Ratio (y) = 0.30496 -0.01440
# Poissons Ratio (z) = 0.76199 -0.03780
#
# Static dielectric constant tensor:
#      x y z
#    x 3.782140 -0.081940 -0.123940 
#    y -0.081940 3.592600 0.095400 
#    z -0.123940 0.095400 3.591070 
# 
# 
# High freq. dielectric constant tensor:
#      x y z
#    x 1.781070 -0.004050 -0.003600 
#    y -0.004050 1.773660 0.005090 
#    z -0.003600 0.005090 1.765090 
# 
# From -- ./inp_files/37920.got.cif
#   From: 2010.06.25/outbox.cif.g09.slc.cpg/sg2_19_cif.got.tgz:37920.got - 2010.06.27 13:26:56.
