data_PCOD8015726
_publ_section_title
;
Structure prediction by ZEFSAII (Michael W. Deem and Ramdas Pophale) SiO2 
 PCOD8015726
Probable space group: P -1
;
_chemical_formula_sum "Si O2"
_cell_formula_units_Z 16
_cell_length_a 11.629888
_cell_length_b 11.081038
_cell_length_c 12.680566
_cell_angle_alpha 99.200797
_cell_angle_beta 35.762735
_cell_angle_gamma 73.798274
_cell_volume 665.278931
_symmetry_space_group_name_H-M "P -1"
_symmetry_group_IT_number 2
_symmetry_cell_setting 'triclinic'
loop_
_space_group_symop_operation_xyz
x,y,z
-x,-y,-z
loop_
_atom_site_type_symbol
_atom_site_label
_atom_site_fract_x
_atom_site_fract_y
_atom_site_fract_z
Si Si1 0.789621 0.735735 0.107793
Si Si2 0.885034 0.179561 0.085443
Si Si3 0.466106 0.074055 0.876959
Si Si4 0.850796 0.730707 0.443806
Si Si5 0.084165 0.104329 0.316698
Si Si6 0.663417 0.646916 0.383046
Si Si7 0.193531 0.799518 0.096336
Si Si8 0.704644 0.457536 0.754597
O O1 0.853008 0.851084 0.084551
O O2 0.099046 0.546590 0.861925
O O3 0.634844 0.783410 0.116974
O O4 0.599484 0.769562 0.350824
O O5 0.605844 0.316397 0.383931
O O6 0.812654 0.225146 0.024826
O O7 0.000000 0.000000 0.000000
O O8 0.554957 0.907503 0.732381
O O9 0.730832 0.012380 0.734390
O O10 0.221905 0.150248 0.150306
O O11 0.790990 0.656288 0.391333
O O12 0.029824 0.597990 0.390900
O O13 0.011623 0.776522 0.284309
O O14 0.797081 0.297625 0.593077
O O15 0.055320 0.991104 0.257025
O O16 0.526549 0.639675 0.850933
O O17 0.500000 0.500000 0.000000
#
# Coordination Sequence:
#
# PCOD8015726 Si02
#       8
#     2   2   2   2   2   2   2   2
#     4  11  25  46  68 102 133 184 226 288 349 400
#     4  12  26  45  70  99 136 182 232 283 344 416
#     4  10  23  42  68  93 137 173 229 281 341 411
#     4  10  21  43  63  99 135 177 226 284 339 414
#     4  10  22  44  65 104 133 177 229 282 339 418
#     4  11  25  44  68 100 138 175 237 284 340 418
#     4  11  23  42  70  99 137 183 225 281 351 404
#     4   9  22  40  66  99 138 173 227 280 337 414
#
# _framework density 24.050062
#
# number of rings (size 3 to 8) (size 9 to 14) (size 15 to 20)
#    0.000    1.500    1.250    2.625    5.250    5.500 
#    4.500    2.500    0.000    0.000    0.000    0.000 
#    0.000    0.000    0.000    0.000    0.000    0.000 
#
# Total GULP energy -198309.405723 kJ/mol
# GULP energy per Si atom -12394.337858 kJ/mol
# Density = 2.399532 g / cm^3
# Si number density = 24.050062 Si / 1000 Ang^3
#
#
#
# Elastic Constant Matrix: (Units=GPa)
#
#
# Indices 1 2 3 4 5 6 
#
# 1 63.6954 13.4567 7.5964 -14.1562 7.2235 -18.6899
# 2 13.4567 45.0382 10.3454 4.8519 4.2187 -10.3388
# 3 7.5964 10.3454 116.2513 3.5910 16.2386 -8.0297
# 4 -14.1562 4.8519 3.5910 31.2238 -4.5482 3.0319
# 5 7.2235 4.2187 16.2386 -4.5482 23.5357 4.9451
# 6 -18.6899 -10.3388 -8.0297 3.0319 4.9451 42.0702
#
#
#
# Elastic Compliance Matrix: (Units=1/GPa)
#
#
# Indices 1 2 3 4 5 6 
#
# 1 0.021951 -0.005027 0.000171 0.009000 -0.006023 0.008608
# 2 -0.005027 0.026390 -0.000680 -0.007587 -0.005296 0.005291
# 3 0.000171 -0.000680 0.010037 -0.002412 -0.007938 0.002931
# 4 0.009000 -0.007587 -0.002412 0.038967 0.008234 -0.002103
# 5 -0.006023 -0.005296 -0.007938 0.008234 0.054991 -0.012550
# 6 0.008608 0.005291 0.002931 -0.002103 -0.012550 0.031081
#
#
# Mechanical properties :
#
#
# Convention : Reuss Voigt Hill
#
# Bulk Modulus (GPa) = 21.13955 31.97578 26.55766
# Shear Modulus (GPa) = 23.78028 32.27168 28.02598
#
# Velocity S-wave (km/s) = 3.14790 3.66711 3.41738
# Velocity P-wave (km/s) = 4.69268 5.59058 5.16120
#
# Compressibility (1/GPa) = 0.04730470
#
# Stress axis : x y z
#
# Youngs Moduli (GPa) = 45.55670 37.89346 99.62938
#
# Poissons Ratio (x) = 0.19049 -0.01703
# Poissons Ratio (y) = 0.22902 0.06778
# Poissons Ratio (z) = -0.00779 0.02578
#
# Static dielectric constant tensor:
#      x y z
#    x 5.037980 -0.145230 -0.931890 
#    y -0.145230 4.401350 -0.085800 
#    z -0.931890 -0.085800 5.635160 
# 
# 
# High freq. dielectric constant tensor:
#      x y z
#    x 1.949230 -0.019090 0.007110 
#    y -0.019090 1.947530 -0.001830 
#    z 0.007110 -0.001830 1.967670 
# 
# From -- ./inp_files/428315.got.cif
#   From: 2010.06.25/outbox.cif.g09.slc.cpg/sg2_215_cif.got.tgz:428315.got - 2010.06.27 13:26:56.
