data_PCOD8015984
_publ_section_title
;
Structure prediction by ZEFSAII (Michael W. Deem and Ramdas Pophale) SiO2 
 PCOD8015984
Probable space group: P -1
;
_chemical_formula_sum "Si O2"
_cell_formula_units_Z 16
_cell_length_a 9.450935
_cell_length_b 21.212634
_cell_length_c 11.715095
_cell_angle_alpha 42.620878
_cell_angle_beta 51.142002
_cell_angle_gamma 26.499939
_cell_volume 705.834704
_symmetry_space_group_name_H-M "P -1"
_symmetry_group_IT_number 2
_symmetry_cell_setting 'triclinic'
loop_
_space_group_symop_operation_xyz
x,y,z
-x,-y,-z
loop_
_atom_site_type_symbol
_atom_site_label
_atom_site_fract_x
_atom_site_fract_y
_atom_site_fract_z
Si Si1 0.978302 0.693470 0.511381
Si Si2 0.190170 0.432466 0.170826
Si Si3 0.240972 0.798830 0.960662
Si Si4 0.815876 0.989801 0.717892
Si Si5 0.444876 0.633842 0.470365
Si Si6 0.476789 0.786154 0.079853
Si Si7 0.616690 0.268120 0.380087
Si Si8 0.692709 0.933318 0.153067
O O1 0.177047 0.670298 0.531356
O O2 0.208238 0.550603 0.490958
O O3 0.805361 0.682483 0.680852
O O4 0.721628 0.868102 0.346757
O O5 0.408868 0.375595 0.030199
O O6 0.331838 0.412011 0.245269
O O7 0.842602 0.620503 0.078019
O O8 0.041273 0.932784 0.782055
O O9 0.258641 0.857830 0.983679
O O10 0.042844 0.788612 0.108843
O O11 0.039042 0.852847 0.687737
O O12 0.601342 0.164194 0.548877
O O13 0.575127 0.010938 0.856775
O O14 0.381347 0.755232 0.270018
O O15 0.438024 0.651713 0.584784
O O16 0.422105 0.912719 0.981536
#
# Coordination Sequence:
#
# PCOD8015984 Si02
#       8
#     2   2   2   2   2   2   2   2
#     4  10  22  41  66  96 128 165 226 264 313 379
#     4  10  23  46  66  94 129 175 214 264 320 387
#     4  11  23  42  67  91 135 172 207 265 330 383
#     4  10  23  41  64 100 127 171 213 269 319 382
#     4  10  22  42  66  95 128 174 214 269 317 382
#     4  11  24  41  66  97 133 169 214 261 334 382
#     4  10  21  43  68  92 132 167 219 265 322 375
#     4  12  23  43  63 100 131 166 218 266 322 384
#
# _framework density 22.668198
#
# number of rings (size 3 to 8) (size 9 to 14) (size 15 to 20)
#    0.000    1.500    2.500    1.875    1.750    3.000 
#    6.750    2.500    0.000    0.000    0.000    0.000 
#    0.000    0.000    0.000    0.000    0.000    0.000 
#
# Total GULP energy -198413.862568 kJ/mol
# GULP energy per Si atom -12400.866410 kJ/mol
# Density = 2.261660 g / cm^3
# Si number density = 22.668198 Si / 1000 Ang^3
#
#
#
# Elastic Constant Matrix: (Units=GPa)
#
#
# Indices 1 2 3 4 5 6 
#
# 1 99.5723 46.7851 27.7801 13.1726 -1.7846 7.0015
# 2 46.7851 80.3853 34.4611 21.0362 -17.3215 -8.0124
# 3 27.7801 34.4611 83.9574 5.6794 -12.0649 1.1653
# 4 13.1726 21.0362 5.6794 37.6472 -3.3957 -1.6749
# 5 -1.7846 -17.3215 -12.0649 -3.3957 35.6752 8.3681
# 6 7.0015 -8.0124 1.1653 -1.6749 8.3681 33.3513
#
#
#
# Elastic Compliance Matrix: (Units=1/GPa)
#
#
# Indices 1 2 3 4 5 6 
#
# 1 0.015098 -0.009120 -0.001620 -0.000432 -0.003201 -0.004522
# 2 -0.009120 0.024570 -0.005482 -0.008786 0.007446 0.005699
# 3 -0.001620 -0.005482 0.015056 0.001533 0.003006 -0.002180
# 4 -0.000432 -0.008786 0.001533 0.031313 -0.000713 -0.000322
# 5 -0.003201 0.007446 0.003006 -0.000713 0.033885 -0.006182
# 6 -0.004522 0.005699 -0.002180 -0.000322 -0.006182 0.033914
#
#
# Mechanical properties :
#
#
# Convention : Reuss Voigt Hill
#
# Bulk Modulus (GPa) = 44.88555 53.55196 49.21875
# Shear Modulus (GPa) = 25.81237 31.66067 28.73652
#
# Velocity S-wave (km/s) = 3.37813 3.74130 3.56434
# Velocity P-wave (km/s) = 5.92113 6.50682 6.22087
#
# Compressibility (1/GPa) = 0.02227888
#
# Stress axis : x y z
#
# Youngs Moduli (GPa) = 66.23429 40.70019 66.42031
#
# Poissons Ratio (x) = 0.37119 0.10762
# Poissons Ratio (y) = 0.60406 0.36412
# Poissons Ratio (z) = 0.10732 0.22312
#
# Static dielectric constant tensor:
#      x y z
#    x 4.025820 -0.290460 0.021490 
#    y -0.290460 4.112810 0.235810 
#    z 0.021490 0.235810 4.085550 
# 
# 
# High freq. dielectric constant tensor:
#      x y z
#    x 1.896860 -0.020890 0.010500 
#    y -0.020890 1.889540 0.009090 
#    z 0.010500 0.009090 1.890830 
# 
# From -- ./inp_files/405380.got.cif
#   From: 2010.06.25/outbox.cif.g09.slc.cpg/sg2_203_cif.got.tgz:405380.got - 2010.06.27 13:26:56.
