data_PCOD8015031
_publ_section_title
;
Structure prediction by ZEFSAII (Michael W. Deem and Ramdas Pophale) SiO2 
 PCOD8015031
Probable space group: P -1
;
_chemical_formula_sum "Si O2"
_cell_formula_units_Z 16
_cell_length_a 16.412903
_cell_length_b 12.665110
_cell_length_c 19.412937
_cell_angle_alpha 44.573726
_cell_angle_beta 159.102322
_cell_angle_gamma 146.365998
_cell_volume 752.221723
_symmetry_space_group_name_H-M "P -1"
_symmetry_group_IT_number 2
_symmetry_cell_setting 'triclinic'
loop_
_space_group_symop_operation_xyz
x,y,z
-x,-y,-z
loop_
_atom_site_type_symbol
_atom_site_label
_atom_site_fract_x
_atom_site_fract_y
_atom_site_fract_z
Si Si1 0.238888 0.369707 0.909505
Si Si2 0.327985 0.060882 0.370036
Si Si3 0.889704 0.382539 0.246064
Si Si4 0.270223 0.717032 0.287516
Si Si5 0.225794 0.231120 0.591902
Si Si6 0.173021 0.214415 0.069882
Si Si7 0.373006 0.296756 0.528600
Si Si8 0.655123 0.921944 0.127222
O O1 0.065668 0.455176 0.742784
O O2 0.025721 0.145430 0.813944
O O3 0.358799 0.375812 0.078493
O O4 0.500000 0.500000 0.000000
O O5 0.500000 0.000000 0.500000
O O6 0.442964 0.135837 0.502785
O O7 0.380824 0.239706 0.284597
O O8 0.056936 0.489388 0.255215
O O9 0.042263 0.300584 0.436687
O O10 0.525671 0.194217 0.032449
O O11 0.074517 0.781898 0.094419
O O12 0.415969 0.744831 0.315373
O O13 0.436864 0.345431 0.637988
O O14 0.410202 0.252248 0.793975
O O15 0.000000 0.000000 0.500000
O O16 0.000000 0.000000 0.000000
O O17 0.500000 0.500000 0.500000
O O18 0.016473 0.109448 0.314707
O O19 0.500000 0.000000 0.000000
#
# Coordination Sequence:
#
# PCOD8015031 Si02
#       8
#     2   2   2   2   2   2   2   2
#     4  10  23  41  62  95 130 157 210 262 301 370
#     4  11  20  42  69  85 124 174 204 248 317 363
#     4  11  21  41  65  88 128 164 204 253 314 366
#     4  11  22  40  65  94 126 162 213 256 303 369
#     4  10  21  42  65  86 124 167 201 247 322 366
#     4   9  19  40  63  86 124 166 204 251 309 362
#     4  11  22  42  64  94 126 155 213 264 297 375
#     4  11  22  42  65  87 125 167 202 252 318 367
#
# _framework density 21.270323999999999
#
# number of rings (size 3 to 8) (size 9 to 14) (size 15 to 20)
#    0.000    1.500    7.500    0.000    1.750    2.000 
#   11.250    1.875    0.000    0.000    0.000    0.000 
#    0.000    0.000    0.000    0.000    0.000    0.000 
#
# Total GULP energy -198270.331286 kJ/mol
# GULP energy per Si atom -12391.895705 kJ/mol
# Density = 2.122191 g / cm^3
# Si number density = 21.270324 Si / 1000 Ang^3
#
#
#
# Elastic Constant Matrix: (Units=GPa)
#
#
# Indices 1 2 3 4 5 6 
#
# 1 99.6143 32.8469 38.5767 -15.8402 18.0832 16.4368
# 2 32.8469 99.0096 42.8232 -20.3015 8.4463 9.7811
# 3 38.5767 42.8232 101.0592 -28.9219 6.9068 10.9741
# 4 -15.8402 -20.3015 -28.9219 51.9929 -3.7004 3.5308
# 5 18.0832 8.4463 6.9068 -3.7004 36.3815 4.7972
# 6 16.4368 9.7811 10.9741 3.5308 4.7972 35.3043
#
#
#
# Elastic Compliance Matrix: (Units=1/GPa)
#
#
# Indices 1 2 3 4 5 6 
#
# 1 0.013818 -0.002037 -0.003131 0.001610 -0.005061 -0.004369
# 2 -0.002037 0.013184 -0.003883 0.002417 -0.000851 -0.001623
# 3 -0.003131 -0.003883 0.014683 0.005926 0.000630 -0.002709
# 4 0.001610 0.002417 0.005926 0.024413 0.000762 -0.005806
# 5 -0.005061 -0.000851 0.000630 0.000762 0.030396 -0.001810
# 6 -0.004369 -0.001623 -0.002709 -0.005806 -0.001810 0.032478
#
#
# Mechanical properties :
#
#
# Convention : Reuss Voigt Hill
#
# Bulk Modulus (GPa) = 42.40123 58.68631 50.54377
# Shear Modulus (GPa) = 32.27175 37.09814 34.68494
#
# Velocity S-wave (km/s) = 3.89938 4.18080 4.04254
# Velocity P-wave (km/s) = 6.34439 7.13835 6.75305
#
# Compressibility (1/GPa) = 0.02358422
#
# Stress axis : x y z
#
# Youngs Moduli (GPa) = 72.36711 75.85100 68.10704
#
# Poissons Ratio (x) = 0.15449 0.21322
# Poissons Ratio (y) = 0.14740 0.26445
# Poissons Ratio (z) = 0.22656 0.29452
#
# Static dielectric constant tensor:
#      x y z
#    x 5.037680 0.342020 0.135580 
#    y 0.342020 4.996050 -0.096180 
#    z 0.135580 -0.096180 4.397350 
# 
# 
# High freq. dielectric constant tensor:
#      x y z
#    x 1.817320 -0.014370 0.002560 
#    y -0.014370 1.847350 -0.011500 
#    z 0.002560 -0.011500 1.824920 
# 
# From -- ./inp_files/600291.got.cif
#   From: 2010.06.25/outbox.cif.g09.slc.cpg/sg2_301_cif.got.tgz:600291.got - 2010.06.27 13:26:56.
