data_PCOD8015095
_publ_section_title
;
Structure prediction by ZEFSAII (Michael W. Deem and Ramdas Pophale) SiO2 
 PCOD8015095
Probable space group: P -1
;
_chemical_formula_sum "Si O2"
_cell_formula_units_Z 16
_cell_length_a 11.740539
_cell_length_b 14.368811
_cell_length_c 14.478606
_cell_angle_alpha 124.211891
_cell_angle_beta 150.403260
_cell_angle_gamma 43.353274
_cell_volume 810.298219
_symmetry_space_group_name_H-M "P -1"
_symmetry_group_IT_number 2
_symmetry_cell_setting 'triclinic'
loop_
_space_group_symop_operation_xyz
x,y,z
-x,-y,-z
loop_
_atom_site_type_symbol
_atom_site_label
_atom_site_fract_x
_atom_site_fract_y
_atom_site_fract_z
Si Si1 0.743769 0.986392 0.605543
Si Si2 0.631749 0.946755 0.962665
Si Si3 0.734705 0.537737 0.433437
Si Si4 0.648780 0.570283 0.183434
Si Si5 0.356724 0.825319 0.990324
Si Si6 0.723623 0.153862 0.396880
Si Si7 0.162857 0.749486 0.649416
Si Si8 0.714161 0.225378 0.634102
O O1 0.018619 0.928439 0.833309
O O2 0.848928 0.883457 0.533253
O O3 0.500000 0.000000 0.500000
O O4 0.609886 0.137930 0.555218
O O5 0.541774 0.854062 0.804061
O O6 0.967735 0.843810 0.148420
O O7 0.500000 0.000000 0.000000
O O8 0.532349 0.080202 0.902485
O O9 0.589697 0.604684 0.269722
O O10 0.848601 0.379686 0.425328
O O11 0.497501 0.619407 0.390426
O O12 0.009457 0.538108 0.648629
O O13 0.500000 0.500000 0.000000
O O14 0.531214 0.717345 0.134874
O O15 0.394833 0.736258 0.876178
O O16 0.741439 0.241601 0.379333
O O17 0.696427 0.230633 0.514466
O O18 0.000000 0.000000 0.500000
#
# Coordination Sequence:
#
# PCOD8015095 Si02
#       8
#     2   2   2   2   2   2   2   2
#     4   9  19  37  65  92 134 161 215 275 312 381
#     4  11  20  41  67  97 126 168 218 274 324 384
#     4  11  27  42  64  98 134 173 220 269 329 392
#     4  11  23  43  67  87 134 184 217 257 329 402
#     4   9  20  39  66  96 123 171 220 266 320 389
#     4  12  21  41  70  92 128 172 215 269 328 380
#     4  10  21  42  65  98 124 175 218 259 325 398
#     4  11  25  42  61  99 135 167 218 277 318 390
#
# _framework density 19.745816000000001
#
# number of rings (size 3 to 8) (size 9 to 14) (size 15 to 20)
#    0.750    0.750    5.000    0.000    7.000    1.500 
#    0.000    1.875    0.000    0.000    0.000    0.000 
#    0.000    0.000    0.000    0.000    0.000    0.000 
#
# Total GULP energy -198334.151513 kJ/mol
# GULP energy per Si atom -12395.884470 kJ/mol
# Density = 1.970087 g / cm^3
# Si number density = 19.745816 Si / 1000 Ang^3
#
#
#
# Elastic Constant Matrix: (Units=GPa)
#
#
# Indices 1 2 3 4 5 6 
#
# 1 129.3287 33.1551 56.0639 -1.3116 2.2757 8.3810
# 2 33.1551 65.0254 26.7338 0.2379 1.4936 -2.1525
# 3 56.0639 26.7338 91.9844 0.1732 -5.0205 0.7524
# 4 -1.3116 0.2379 0.1732 18.0705 0.8841 -3.0059
# 5 2.2757 1.4936 -5.0205 0.8841 33.6338 -2.8182
# 6 8.3810 -2.1525 0.7524 -3.0059 -2.8182 39.9907
#
#
#
# Elastic Compliance Matrix: (Units=1/GPa)
#
#
# Indices 1 2 3 4 5 6 
#
# 1 0.011427 -0.003382 -0.006058 0.000595 -0.001756 -0.002542
# 2 -0.003382 0.018582 -0.003405 -0.000128 -0.000959 0.001696
# 3 -0.006058 -0.003405 0.015710 -0.000532 0.003001 0.000962
# 4 0.000595 -0.000128 -0.000532 0.056117 -0.001253 0.004008
# 5 -0.001756 -0.000959 0.003001 -0.001253 0.030569 0.002320
# 6 -0.002542 0.001696 0.000962 0.004008 0.002320 0.026076
#
#
# Mechanical properties :
#
#
# Convention : Reuss Voigt Hill
#
# Bulk Modulus (GPa) = 49.92802 57.58268 53.75535
# Shear Modulus (GPa) = 26.19899 29.69804 27.94851
#
# Velocity S-wave (km/s) = 3.64649 3.88237 3.76628
# Velocity P-wave (km/s) = 6.56274 7.02299 6.79676
#
# Compressibility (1/GPa) = 0.02002883
#
# Stress axis : x y z
#
# Youngs Moduli (GPa) = 87.51222 53.81692 63.65243
#
# Poissons Ratio (x) = 0.18200 0.38561
# Poissons Ratio (y) = 0.29594 0.21675
# Poissons Ratio (z) = 0.53015 0.18326
#
# Static dielectric constant tensor:
#      x y z
#    x 3.544390 0.153510 0.011860 
#    y 0.153510 3.555040 0.235770 
#    z 0.011860 0.235770 3.863490 
# 
# 
# High freq. dielectric constant tensor:
#      x y z
#    x 1.774220 0.013900 0.002160 
#    y 0.013900 1.753430 0.004040 
#    z 0.002160 0.004040 1.769370 
# 
# From -- ./inp_files/521694.got.cif
#   From: 2010.06.25/outbox.cif.g09.slc.cpg/sg2_261_cif.got.tgz:521694.got - 2010.06.27 13:26:56.
