data_PCOD8015843
_publ_section_title
;
Structure prediction by ZEFSAII (Michael W. Deem and Ramdas Pophale) SiO2 
 PCOD8015843
Probable space group: P -1
;
_chemical_formula_sum "Si O2"
_cell_formula_units_Z 16
_cell_length_a 9.227913
_cell_length_b 14.008181
_cell_length_c 14.866685
_cell_angle_alpha 43.121590
_cell_angle_beta 40.940126
_cell_angle_gamma 66.305409
_cell_volume 811.408408
_symmetry_space_group_name_H-M "P -1"
_symmetry_group_IT_number 2
_symmetry_cell_setting 'triclinic'
loop_
_space_group_symop_operation_xyz
x,y,z
-x,-y,-z
loop_
_atom_site_type_symbol
_atom_site_label
_atom_site_fract_x
_atom_site_fract_y
_atom_site_fract_z
Si Si1 0.099791 0.417216 0.748691
Si Si2 0.512191 0.060389 0.852791
Si Si3 0.052895 0.004778 0.367818
Si Si4 0.491498 0.631215 0.306643
Si Si5 0.669804 0.452721 0.019213
Si Si6 0.694279 0.162138 0.043458
Si Si7 0.542527 0.893096 0.628479
Si Si8 0.611714 0.682156 0.016005
O O1 0.243067 0.516369 0.532156
O O2 0.283652 0.413221 0.742220
O O3 0.959603 0.255265 0.883665
O O4 0.920843 0.489110 0.828070
O O5 0.468933 0.214605 0.767428
O O6 0.766043 0.081733 0.677049
O O7 0.500000 0.000000 0.000000
O O8 0.311680 0.945853 0.963323
O O9 0.161355 0.174952 0.168198
O O10 0.000000 0.000000 0.500000
O O11 0.819577 0.924407 0.477431
O O12 0.470488 0.635073 0.206886
O O13 0.579767 0.282048 0.211550
O O14 0.500000 0.500000 0.000000
O O15 0.697663 0.551932 0.027386
O O16 0.554972 0.066186 0.259446
O O17 0.559709 0.278007 0.002307
O O18 0.500000 0.000000 0.500000
#
# Coordination Sequence:
#
# PCOD8015843 Si02
#       8
#     2   2   2   2   2   2   2   2
#     4  10  25  44  65  89 136 168 214 280 324 387
#     4  11  22  40  67  93 126 174 218 258 327 387
#     4  11  21  40  66  94 128 170 217 272 317 393
#     4  11  25  44  61  96 133 174 215 267 332 388
#     4  11  22  44  71  94 125 176 219 269 328 383
#     4  10  21  43  66  94 128 167 219 274 313 393
#     4  11  24  41  64 102 133 162 216 279 333 376
#     4  11  22  41  67  97 127 166 227 268 321 393
#
# _framework density 19.718800999999999
#
# number of rings (size 3 to 8) (size 9 to 14) (size 15 to 20)
#    0.000    1.250    7.500    0.000    7.000    1.500 
#    6.750    0.000    0.000    0.000    0.000    0.000 
#    0.000    0.000    0.000    0.000    0.000    0.000 
#
# Total GULP energy -198398.755888 kJ/mol
# GULP energy per Si atom -12399.922243 kJ/mol
# Density = 1.967392 g / cm^3
# Si number density = 19.718801 Si / 1000 Ang^3
#
#
#
# Elastic Constant Matrix: (Units=GPa)
#
#
# Indices 1 2 3 4 5 6 
#
# 1 78.6013 32.4679 52.3358 9.8668 7.5884 -0.4416
# 2 32.4679 118.1498 42.6528 12.6378 5.9982 6.2255
# 3 52.3358 42.6528 133.7144 10.6914 7.1008 -5.2374
# 4 9.8668 12.6378 10.6914 32.3400 -0.6429 0.5616
# 5 7.5884 5.9982 7.1008 -0.6429 43.9849 1.0247
# 6 -0.4416 6.2255 -5.2374 0.5616 1.0247 32.7739
#
#
#
# Elastic Compliance Matrix: (Units=1/GPa)
#
#
# Indices 1 2 3 4 5 6 
#
# 1 0.018289 -0.002447 -0.006072 -0.002651 -0.001876 -0.000155
# 2 -0.002447 0.010354 -0.002198 -0.002545 -0.000619 -0.002288
# 3 -0.006072 -0.002198 0.010732 -0.000881 -0.000446 0.002080
# 4 -0.002651 -0.002545 -0.000881 0.033050 0.001437 -0.000304
# 5 -0.001876 -0.000619 -0.000446 0.001437 0.023253 -0.000731
# 6 -0.000155 -0.002288 0.002080 -0.000304 -0.000731 0.031305
#
#
# Mechanical properties :
#
#
# Convention : Reuss Voigt Hill
#
# Bulk Modulus (GPa) = 55.73948 65.04206 60.39077
# Shear Modulus (GPa) = 32.38344 35.35368 33.86856
#
# Velocity S-wave (km/s) = 4.05688 4.23885 4.14886
# Velocity P-wave (km/s) = 7.09034 7.55073 7.32415
#
# Compressibility (1/GPa) = 0.01794060
#
# Stress axis : x y z
#
# Youngs Moduli (GPa) = 54.67618 96.58007 93.17693
#
# Poissons Ratio (x) = 0.23631 0.56581
# Poissons Ratio (y) = 0.13378 0.20484
# Poissons Ratio (z) = 0.33202 0.21232
#
# Static dielectric constant tensor:
#      x y z
#    x 3.615040 -0.046010 -0.142380 
#    y -0.046010 3.657920 0.229350 
#    z -0.142380 0.229350 3.874230 
# 
# 
# High freq. dielectric constant tensor:
#      x y z
#    x 1.763330 0.007160 -0.000170 
#    y 0.007160 1.765940 0.004210 
#    z -0.000170 0.004210 1.777040 
# 
# From -- ./inp_files/319116.got.cif
#   From: 2010.06.25/outbox.cif.g09.slc.cpg/sg2_160_cif.got.tgz:319116.got - 2010.06.27 13:26:56.
