data_PCOD8015206
_publ_section_title
;
Structure prediction by ZEFSAII (Michael W. Deem and Ramdas Pophale) SiO2 
 PCOD8015206
Probable space group: P -1
;
_chemical_formula_sum "Si O2"
_cell_formula_units_Z 14
_cell_length_a 13.180307
_cell_length_b 9.270992
_cell_length_c 11.830779
_cell_angle_alpha 124.490927
_cell_angle_beta 119.267039
_cell_angle_gamma 33.788925
_cell_volume 662.127512
_symmetry_space_group_name_H-M "P -1"
_symmetry_group_IT_number 2
_symmetry_cell_setting 'triclinic'
loop_
_space_group_symop_operation_xyz
x,y,z
-x,-y,-z
loop_
_atom_site_type_symbol
_atom_site_label
_atom_site_fract_x
_atom_site_fract_y
_atom_site_fract_z
Si Si1 0.702231 0.119385 0.537644
Si Si2 0.509484 0.782212 0.922218
Si Si3 0.387717 0.158581 0.621146
Si Si4 0.577522 0.211081 0.884298
Si Si5 0.664486 0.276691 0.349058
Si Si6 0.213159 0.706227 0.794795
Si Si7 0.176946 0.846971 0.160440
O O1 0.763929 0.139363 0.462466
O O2 0.490488 0.395785 0.577907
O O3 0.825448 0.055342 0.674999
O O4 0.718834 0.893256 0.425584
O O5 0.433759 0.791506 0.768455
O O6 0.711946 0.465864 0.916335
O O7 0.383803 0.862932 0.994428
O O8 0.500000 0.000000 0.000000
O O9 0.533565 0.065345 0.750417
O O10 0.226886 0.488363 0.667046
O O11 0.500000 0.000000 0.500000
O O12 0.750700 0.095181 0.864567
O O13 0.605675 0.456526 0.100526
O O14 0.800290 0.168763 0.273471
O O15 0.037643 0.945530 0.885015
#
# Coordination Sequence:
#
# PCOD8015206 Si02
#       7
#     2   2   2   2   2   2   2
#     4  10  18  35  59  84 118 155 192 232 288 346
#     4  11  22  41  63  85 114 159 199 235 297 349
#     4  10  16  36  57  85 116 148 188 238 285 332
#     4  10  21  40  61  86 119 153 193 241 290 348
#     4  10  20  36  58  83 118 156 190 239 287 340
#     4  10  22  37  59  93 116 153 194 240 293 344
#     4  11  22  39  62  89 115 157 196 237 296 345
#
# _framework density 21.143964
#
# number of rings (size 3 to 8) (size 9 to 14) (size 15 to 20)
#    0.857    0.857    5.714    1.286    0.000    1.714 
#    0.000    2.143    0.000    0.000    0.000    0.000 
#    0.000    0.000    0.000    0.000    0.000    0.000 
#
# Total GULP energy -173492.501445 kJ/mol
# GULP energy per Si atom -12392.321532 kJ/mol
# Density = 2.109584 g / cm^3
# Si number density = 21.143964 Si / 1000 Ang^3
#
#
#
# Elastic Constant Matrix: (Units=GPa)
#
#
# Indices 1 2 3 4 5 6 
#
# 1 122.0451 46.6042 30.0548 6.3893 -12.5104 4.0862
# 2 46.6042 61.0842 20.3258 13.0212 -1.1789 -3.6504
# 3 30.0548 20.3258 81.1763 4.2913 -9.5476 12.5151
# 4 6.3893 13.0212 4.2913 31.9741 12.3659 2.5029
# 5 -12.5104 -1.1789 -9.5476 12.3659 42.9228 7.8981
# 6 4.0862 -3.6504 12.5151 2.5029 7.8981 35.2328
#
#
#
# Elastic Compliance Matrix: (Units=1/GPa)
#
#
# Indices 1 2 3 4 5 6 
#
# 1 0.012507 -0.009194 -0.001531 0.000325 0.003447 -0.002655
# 2 -0.009194 0.026867 -0.004017 -0.008455 -0.001545 0.006224
# 3 -0.001531 -0.004017 0.015523 -0.001366 0.004517 -0.006668
# 4 0.000325 -0.008455 -0.001366 0.039402 -0.011681 -0.000609
# 5 0.003447 -0.001545 0.004517 -0.011681 0.030118 -0.008086
# 6 -0.002655 0.006224 -0.006668 -0.000609 -0.008086 0.033560
#
#
# Mechanical properties :
#
#
# Convention : Reuss Voigt Hill
#
# Bulk Modulus (GPa) = 39.35177 50.91947 45.13562
# Shear Modulus (GPa) = 25.51909 33.18066 29.34988
#
# Velocity S-wave (km/s) = 3.47785 3.96570 3.72976
# Velocity P-wave (km/s) = 5.89737 6.71592 6.31991
#
# Compressibility (1/GPa) = 0.02541182
#
# Stress axis : x y z
#
# Youngs Moduli (GPa) = 79.95670 37.22078 64.42003
#
# Poissons Ratio (x) = 0.34221 0.09861
# Poissons Ratio (y) = 0.73513 0.25880
# Poissons Ratio (z) = 0.12240 0.14953
#
# Static dielectric constant tensor:
#      x y z
#    x 3.752520 0.239730 0.134420 
#    y 0.239730 3.452540 0.078920 
#    z 0.134420 0.078920 4.355910 
# 
# 
# High freq. dielectric constant tensor:
#      x y z
#    x 1.822200 0.016970 -0.004480 
#    y 0.016970 1.780270 0.000350 
#    z -0.004480 0.000350 1.860880 
# 
# From -- ./inp_files/177638.got.cif
#   From: 2010.06.25/outbox.cif.g09.slc.cpg/sg2_89_cif.got.tgz:177638.got - 2010.06.27 13:26:56.
