data_PCOD8015515
_publ_section_title
;
Structure prediction by ZEFSAII (Michael W. Deem and Ramdas Pophale) SiO2 
 PCOD8015515
Probable space group: P -1
;
_chemical_formula_sum "Si O2"
_cell_formula_units_Z 16
_cell_length_a 14.494566
_cell_length_b 15.192868
_cell_length_c 9.267075
_cell_angle_alpha 72.885995
_cell_angle_beta 116.496293
_cell_angle_gamma 152.454923
_cell_volume 818.918618
_symmetry_space_group_name_H-M "P -1"
_symmetry_group_IT_number 2
_symmetry_cell_setting 'triclinic'
loop_
_space_group_symop_operation_xyz
x,y,z
-x,-y,-z
loop_
_atom_site_type_symbol
_atom_site_label
_atom_site_fract_x
_atom_site_fract_y
_atom_site_fract_z
Si Si1 0.160139 0.262482 0.858756
Si Si2 0.543536 0.972108 0.847335
Si Si3 0.701701 0.953142 0.753592
Si Si4 0.214922 0.646956 0.169357
Si Si5 0.578743 0.707833 0.991125
Si Si6 0.403039 0.129911 0.830068
Si Si7 0.117580 0.870136 0.492335
Si Si8 0.950880 0.395790 0.382073
O O1 0.214059 0.196712 0.927768
O O2 0.097944 0.244409 0.659232
O O3 0.359285 0.476112 0.962462
O O4 0.953525 0.122400 0.885806
O O5 0.640700 0.001772 0.758427
O O6 0.280755 0.758026 0.773844
O O7 0.620708 0.137258 0.816366
O O8 0.629873 0.988918 0.042102
O O9 0.681163 0.950959 0.567451
O O10 0.551891 0.753642 0.811324
O O11 0.361235 0.682957 0.177870
O O12 0.145047 0.561169 0.321609
O O13 0.000000 0.500000 0.000000
O O14 0.611193 0.791666 0.118556
O O15 0.196742 0.968555 0.654664
O O16 0.055779 0.714430 0.518628
O O17 0.000000 0.500000 0.500000
#
# Coordination Sequence:
#
# PCOD8015515 Si02
#       8
#     2   2   2   2   2   2   2   2
#     4   9  22  41  65  92 118 152 210 252 298 366
#     4  11  23  41  58  91 124 162 213 239 293 378
#     4   9  22  37  66  86 120 155 199 249 300 360
#     4  12  24  38  61  82 127 168 199 247 304 359
#     4  10  21  42  70  86 119 158 204 250 306 368
#     4  11  23  40  61  92 123 164 199 253 305 363
#     4  10  23  40  58  93 126 152 203 256 301 354
#     4  12  26  38  61  89 125 169 205 250 297 355
#
# _framework density 19.537960000000002
#
# number of rings (size 3 to 8) (size 9 to 14) (size 15 to 20)
#    0.750    0.750    2.500    2.250    7.000    1.500 
#    0.000    0.000    0.000    2.250    0.000    0.000 
#    0.000    0.000    0.000    0.000    0.000    0.000 
#
# Total GULP energy -198346.591334 kJ/mol
# GULP energy per Si atom -12396.661958 kJ/mol
# Density = 1.949349 g / cm^3
# Si number density = 19.537960 Si / 1000 Ang^3
#
#
#
# Elastic Constant Matrix: (Units=GPa)
#
#
# Indices 1 2 3 4 5 6 
#
# 1 82.6863 36.6834 6.0768 -10.4439 -5.6294 -8.9411
# 2 36.6834 79.4676 17.9036 -3.4039 -14.3489 -10.5463
# 3 6.0768 17.9036 81.0859 -6.9768 -12.8340 -19.8348
# 4 -10.4439 -3.4039 -6.9768 32.5321 8.8699 -0.5363
# 5 -5.6294 -14.3489 -12.8340 8.8699 27.1921 1.1128
# 6 -8.9411 -10.5463 -19.8348 -0.5363 1.1128 31.9915
#
#
#
# Elastic Compliance Matrix: (Units=1/GPa)
#
#
# Indices 1 2 3 4 5 6 
#
# 1 0.016176 -0.007465 0.001349 0.005239 -0.001787 0.003046
# 2 -0.007465 0.018081 -0.001837 -0.003047 0.008024 0.002405
# 3 0.001349 -0.001837 0.016091 0.002277 0.005770 0.009585
# 4 0.005239 -0.003047 0.002277 0.035693 -0.011209 0.002860
# 5 -0.001787 0.008024 0.005770 -0.011209 0.046859 0.003905
# 6 0.003046 0.002405 0.009585 0.002860 0.003905 0.038758
#
#
# Mechanical properties :
#
#
# Convention : Reuss Voigt Hill
#
# Bulk Modulus (GPa) = 29.03345 40.50749 34.77047
# Shear Modulus (GPa) = 25.12003 30.51488 27.81746
#
# Velocity S-wave (km/s) = 3.58956 3.95628 3.77737
# Velocity P-wave (km/s) = 5.66323 6.45347 6.07122
#
# Compressibility (1/GPa) = 0.03444303
#
# Stress axis : x y z
#
# Youngs Moduli (GPa) = 61.81986 55.30644 62.14715
#
# Poissons Ratio (x) = 0.41286 -0.08384
# Poissons Ratio (y) = 0.46149 0.11413
# Poissons Ratio (z) = -0.08340 0.10157
#
# Static dielectric constant tensor:
#      x y z
#    x 3.646170 0.117290 0.055600 
#    y 0.117290 3.511810 -0.070200 
#    z 0.055600 -0.070200 3.576980 
# 
# 
# High freq. dielectric constant tensor:
#      x y z
#    x 1.759550 0.004620 0.001220 
#    y 0.004620 1.759770 -0.004820 
#    z 0.001220 -0.004820 1.760170 
# 
# From -- ./inp_files/313029.got.cif
#   From: 2010.06.25/outbox.cif.g09.slc.cpg/sg2_157_cif.got.tgz:313029.got - 2010.06.27 13:26:56.
