data_PCOD8015462
_publ_section_title
;
Structure prediction by ZEFSAII (Michael W. Deem and Ramdas Pophale) SiO2 
 PCOD8015462
Probable space group: P -1
;
_chemical_formula_sum "Si O2"
_cell_formula_units_Z 16
_cell_length_a 19.568376
_cell_length_b 6.411633
_cell_length_c 8.910491
_cell_angle_alpha 93.917339
_cell_angle_beta 126.158175
_cell_angle_gamma 58.618880
_cell_volume 722.821778
_symmetry_space_group_name_H-M "P -1"
_symmetry_group_IT_number 2
_symmetry_cell_setting 'triclinic'
loop_
_space_group_symop_operation_xyz
x,y,z
-x,-y,-z
loop_
_atom_site_type_symbol
_atom_site_label
_atom_site_fract_x
_atom_site_fract_y
_atom_site_fract_z
Si Si1 0.349898 0.122739 0.713166
Si Si2 0.424344 0.313235 0.077434
Si Si3 0.103124 0.326803 0.926852
Si Si4 0.893825 0.053199 0.300650
Si Si5 0.697619 0.227603 0.240698
Si Si6 0.939867 0.887670 0.857097
Si Si7 0.257014 0.593046 0.432844
Si Si8 0.750668 0.521767 0.916789
O O1 0.265200 0.343774 0.496433
O O2 0.450790 0.882637 0.740707
O O3 0.291750 0.033877 0.731746
O O4 0.389443 0.236239 0.883867
O O5 0.362536 0.319841 0.142134
O O6 0.388877 0.600481 0.995162
O O7 0.011127 0.635678 0.832644
O O8 0.081633 0.212080 0.749691
O O9 0.108897 0.179077 0.076125
O O10 0.213780 0.289953 0.052910
O O11 0.809439 0.157404 0.329276
O O12 0.843578 0.270281 0.115615
O O13 0.000000 0.000000 0.500000
O O14 0.661126 0.389161 0.361065
O O15 0.850104 0.125237 0.651359
O O16 0.000000 0.000000 0.000000
O O17 0.270762 0.567841 0.271394
#
# Coordination Sequence:
#
# PCOD8015462 Si02
#       8
#     2   2   2   2   2   2   2   2
#     4  10  21  42  69  93 122 167 212 262 331 377
#     4   9  21  43  67  92 127 163 209 270 318 381
#     4  11  23  39  68  87 122 183 210 254 322 378
#     4  11  25  43  61  94 136 168 215 269 308 379
#     4  10  23  39  65  93 128 168 214 258 317 388
#     4  11  23  41  61  92 127 173 216 257 311 377
#     4  11  24  39  63  93 131 160 211 276 308 378
#     4  11  23  43  63  95 131 163 215 265 321 378
#
# _framework density 22.135470000000002
#
# number of rings (size 3 to 8) (size 9 to 14) (size 15 to 20)
#    0.000    1.500    2.500    1.125    5.250    1.000 
#    4.500    0.625    0.000    0.000    0.000    0.000 
#    0.000    0.000    0.000    0.000    0.000    0.000 
#
# Total GULP energy -198255.805949 kJ/mol
# GULP energy per Si atom -12390.987872 kJ/mol
# Density = 2.208509 g / cm^3
# Si number density = 22.135470 Si / 1000 Ang^3
#
#
#
# Elastic Constant Matrix: (Units=GPa)
#
#
# Indices 1 2 3 4 5 6 
#
# 1 114.5201 48.2854 38.6615 -18.7550 -10.0954 9.7949
# 2 48.2854 122.4306 44.8192 -18.9382 -3.3334 4.0231
# 3 38.6615 44.8192 82.8058 -11.1092 -13.3706 -0.3694
# 4 -18.7550 -18.9382 -11.1092 45.1621 2.6989 -8.2020
# 5 -10.0954 -3.3334 -13.3706 2.6989 22.6424 2.0546
# 6 9.7949 4.0231 -0.3694 -8.2020 2.0546 33.8842
#
#
#
# Elastic Compliance Matrix: (Units=1/GPa)
#
#
# Indices 1 2 3 4 5 6 
#
# 1 0.011946 -0.003036 -0.003164 0.002227 0.002997 -0.002770
# 2 -0.003036 0.011474 -0.004915 0.002561 -0.002896 0.000257
# 3 -0.003164 -0.004915 0.017619 0.000728 0.008058 0.001378
# 4 0.002227 0.002561 0.000728 0.025387 -0.001708 0.005309
# 5 0.002997 -0.002896 0.008058 -0.001708 0.050391 -0.003904
# 6 -0.002770 0.000257 0.001378 0.005309 -0.003904 0.031819
#
#
# Mechanical properties :
#
#
# Convention : Reuss Voigt Hill
#
# Bulk Modulus (GPa) = 53.16891 64.80985 58.98938
# Shear Modulus (GPa) = 28.22690 32.87044 30.54867
#
# Velocity S-wave (km/s) = 3.57485 3.85771 3.71897
# Velocity P-wave (km/s) = 6.41181 7.01319 6.71923
#
# Compressibility (1/GPa) = 0.01880799
#
# Stress axis : x y z
#
# Youngs Moduli (GPa) = 83.70849 87.15658 56.75650
#
# Poissons Ratio (x) = 0.26461 0.17957
# Poissons Ratio (y) = 0.25414 0.27899
# Poissons Ratio (z) = 0.26485 0.42842
#
# Static dielectric constant tensor:
#      x y z
#    x 3.976090 -0.047700 -0.084210 
#    y -0.047700 4.199360 0.088030 
#    z -0.084210 0.088030 3.468580 
# 
# 
# High freq. dielectric constant tensor:
#      x y z
#    x 1.865530 0.006640 -0.015810 
#    y 0.006640 1.883410 -0.006020 
#    z -0.015810 -0.006020 1.858150 
# 
# From -- ./inp_files/340505.got.cif
#   From: 2010.06.25/outbox.cif.g09.slc.cpg/sg2_171_cif.got.tgz:340505.got - 2010.06.27 13:26:56.
