data_PCOD8015059
_publ_section_title
;
Structure prediction by ZEFSAII (Michael W. Deem and Ramdas Pophale) SiO2 
 PCOD8015059
Probable space group: P -1
;
_chemical_formula_sum "Si O2"
_cell_formula_units_Z 16
_cell_length_a 9.235618
_cell_length_b 20.821796
_cell_length_c 22.950793
_cell_angle_alpha 20.424489
_cell_angle_beta 28.094461
_cell_angle_gamma 28.601574
_cell_volume 689.133354
_symmetry_space_group_name_H-M "P -1"
_symmetry_group_IT_number 2
_symmetry_cell_setting 'triclinic'
loop_
_space_group_symop_operation_xyz
x,y,z
-x,-y,-z
loop_
_atom_site_type_symbol
_atom_site_label
_atom_site_fract_x
_atom_site_fract_y
_atom_site_fract_z
Si Si1 0.894485 0.423123 0.817883
Si Si2 0.454629 0.878938 0.839070
Si Si3 0.079479 0.829852 0.163712
Si Si4 0.326620 0.409532 0.780832
Si Si5 0.206228 0.025995 0.261048
Si Si6 0.283171 0.363435 0.617460
Si Si7 0.870657 0.790447 0.660487
Si Si8 0.564484 0.196431 0.293946
O O1 0.643831 0.636863 0.731159
O O2 0.080349 0.349706 0.875609
O O3 0.150861 0.433125 0.669122
O O4 0.693580 0.288078 0.981938
O O5 0.743873 0.879938 0.691968
O O6 0.610382 0.847979 0.875217
O O7 0.168121 0.086246 0.765508
O O8 0.449744 0.770508 0.106914
O O9 0.002866 0.648018 0.315503
O O10 0.000000 0.000000 0.000000
O O11 0.565276 0.481211 0.594090
O O12 0.140662 0.579941 0.746613
O O13 0.453425 0.849750 0.288313
O O14 0.007966 0.939450 0.451178
O O15 0.948619 0.169632 0.186235
O O16 0.557240 0.755492 0.769787
O O17 0.500000 0.000000 0.500000
#
# Coordination Sequence:
#
# PCOD8015059 Si02
#       8
#     2   2   2   2   2   2   2   2
#     4  11  23  40  61  94 129 160 211 254 309 376
#     4  11  23  39  58  92 126 161 204 256 309 369
#     4  11  23  44  61  92 130 159 209 263 311 370
#     4  10  23  40  66  88 120 172 209 256 313 360
#     4   9  20  38  64  89 124 166 202 254 307 362
#     4  10  21  42  65  92 126 162 211 256 301 377
#     4   9  20  41  60  89 123 159 215 250 301 377
#     4   9  20  39  61  88 121 159 205 257 303 362
#
# _framework density 23.217568
#
# number of rings (size 3 to 8) (size 9 to 14) (size 15 to 20)
#    0.000    2.000    1.250    1.875    0.000    7.000 
#    9.000    0.000    0.000    0.000    0.000    0.000 
#    0.000    0.000    0.000    0.000    0.000    0.000 
#
# Total GULP energy -198338.718649 kJ/mol
# GULP energy per Si atom -12396.169916 kJ/mol
# Density = 2.316472 g / cm^3
# Si number density = 23.217568 Si / 1000 Ang^3
#
#
#
# Elastic Constant Matrix: (Units=GPa)
#
#
# Indices 1 2 3 4 5 6 
#
# 1 108.9691 62.6375 20.7198 -18.1714 -15.4443 -26.3980
# 2 62.6375 135.0405 -5.5131 -7.2771 4.5018 -15.0390
# 3 20.7198 -5.5131 33.3896 -12.6003 -14.8012 -13.6004
# 4 -18.1714 -7.2771 -12.6003 30.5889 0.2267 -1.3055
# 5 -15.4443 4.5018 -14.8012 0.2267 39.7558 6.3183
# 6 -26.3980 -15.0390 -13.6004 -1.3055 6.3183 51.6969
#
#
#
# Elastic Compliance Matrix: (Units=1/GPa)
#
#
# Indices 1 2 3 4 5 6 
#
# 1 0.017582 -0.007656 -0.005633 0.006474 0.004793 0.004846
# 2 -0.007656 0.011524 0.006779 0.001065 -0.001999 0.001498
# 3 -0.005633 0.006779 0.054067 0.020938 0.015147 0.011997
# 4 0.006474 0.001065 0.020938 0.045748 0.008460 0.009245
# 5 0.004793 -0.001999 0.015147 0.008460 0.032501 0.002092
# 6 0.004846 0.001498 0.011997 0.009245 0.002092 0.025388
#
#
# Mechanical properties :
#
#
# Convention : Reuss Voigt Hill
#
# Bulk Modulus (GPa) = 14.25437 48.12087 31.18762
# Shear Modulus (GPa) = 22.40011 37.71199 30.05605
#
# Velocity S-wave (km/s) = 3.10948 4.03462 3.60187
# Velocity P-wave (km/s) = 4.36401 6.51730 5.54616
#
# Compressibility (1/GPa) = 0.07015391
#
# Stress axis : x y z
#
# Youngs Moduli (GPa) = 56.87640 86.77452 18.49555
#
# Poissons Ratio (x) = 0.66438 0.10418
# Poissons Ratio (y) = 0.43547 -0.12539
# Poissons Ratio (z) = 0.32037 -0.58828
#
# Static dielectric constant tensor:
#      x y z
#    x 4.645790 -0.170750 -0.325980 
#    y -0.170750 4.761430 0.292680 
#    z -0.325980 0.292680 3.963970 
# 
# 
# High freq. dielectric constant tensor:
#      x y z
#    x 1.915230 -0.001730 -0.020280 
#    y -0.001730 1.930250 0.017530 
#    z -0.020280 0.017530 1.908060 
# 
# From -- ./inp_files/608623.got.cif
#   From: 2010.06.25/outbox.cif.g09.slc.cpg/sg2_305_cif.got.tgz:608623.got - 2010.06.27 13:26:56.
