data_PCOD8015231
_publ_section_title
;
Structure prediction by ZEFSAII (Michael W. Deem and Ramdas Pophale) SiO2 
 PCOD8015231
Probable space group: P -1
;
_chemical_formula_sum "Si O2"
_cell_formula_units_Z 16
_cell_length_a 23.538118
_cell_length_b 20.728721
_cell_length_c 8.787343
_cell_angle_alpha 150.442966
_cell_angle_beta 150.755353
_cell_angle_gamma 22.758291
_cell_volume 760.450914
_symmetry_space_group_name_H-M "P -1"
_symmetry_group_IT_number 2
_symmetry_cell_setting 'triclinic'
loop_
_space_group_symop_operation_xyz
x,y,z
-x,-y,-z
loop_
_atom_site_type_symbol
_atom_site_label
_atom_site_fract_x
_atom_site_fract_y
_atom_site_fract_z
Si Si1 0.612737 0.306075 0.442462
Si Si2 0.573676 0.056719 0.679821
Si Si3 0.893827 0.311925 0.691996
Si Si4 0.088040 0.225818 0.258733
Si Si5 0.440814 0.179037 0.295195
Si Si6 0.918502 0.538229 0.044382
Si Si7 0.472426 0.395766 0.622146
Si Si8 0.977131 0.053052 0.728753
O O1 0.500000 0.500000 0.500000
O O2 0.583786 0.315970 0.573244
O O3 0.792949 0.215882 0.664818
O O4 0.588203 0.181979 0.058415
O O5 0.460082 0.168499 0.500307
O O6 0.500000 0.000000 0.500000
O O7 0.744355 0.883352 0.657994
O O8 0.706615 0.471431 0.582517
O O9 0.976297 0.353418 0.858688
O O10 0.949485 0.127401 0.380558
O O11 0.948900 0.304730 0.976038
O O12 0.043110 0.386120 0.580213
O O13 0.081127 0.105159 0.109799
O O14 0.526995 0.232374 0.519280
O O15 0.262444 0.328352 0.141300
O O16 0.500000 0.000000 0.000000
O O17 0.000000 0.500000 0.000000
O O18 0.500000 0.500000 0.000000
O O19 0.000000 0.000000 0.500000
#
# Coordination Sequence:
#
# PCOD8015231 Si02
#       8
#     2   2   2   2   2   2   2   2
#     4  12  24  43  73 105 136 179 239 284 333 419
#     4  12  26  43  74 104 131 184 239 285 344 414
#     4  10  23  44  70  96 139 178 231 280 345 408
#     4  11  23  45  71  98 137 181 228 286 341 403
#     4  11  24  44  65  95 144 178 224 284 354 401
#     4  11  26  42  65 100 138 184 225 282 340 409
#     4  11  26  43  68 101 140 182 220 288 352 402
#     4  10  21  42  67 100 133 171 224 286 342 392
#
# _framework density 21.040149
#
# number of rings (size 3 to 8) (size 9 to 14) (size 15 to 20)
#    0.000    1.000    3.750    3.375    5.250    5.000 
#    0.000    1.250    0.000    0.000    0.000    0.000 
#    0.000    0.000    0.000    0.000    0.000    0.000 
#
# Total GULP energy -198350.526056 kJ/mol
# GULP energy per Si atom -12396.907879 kJ/mol
# Density = 2.099226 g / cm^3
# Si number density = 21.040149 Si / 1000 Ang^3
#
#
#
# Elastic Constant Matrix: (Units=GPa)
#
#
# Indices 1 2 3 4 5 6 
#
# 1 166.2987 53.6041 66.6350 20.6988 19.4529 4.7594
# 2 53.6041 90.7428 30.1958 15.6866 14.6991 5.2261
# 3 66.6350 30.1958 108.2798 11.6995 12.3402 5.1350
# 4 20.6988 15.6866 11.6995 39.2143 8.7117 1.5821
# 5 19.4529 14.6991 12.3402 8.7117 44.4062 2.1888
# 6 4.7594 5.2261 5.1350 1.5821 2.1888 40.7557
#
#
#
# Elastic Compliance Matrix: (Units=1/GPa)
#
#
# Indices 1 2 3 4 5 6 
#
# 1 0.009285 -0.003484 -0.004388 -0.001906 -0.001324 0.000060
# 2 -0.003484 0.014443 -0.001250 -0.003021 -0.002263 -0.001049
# 3 -0.004388 -0.001250 0.012506 -0.000667 -0.000968 -0.000825
# 4 -0.001906 -0.003021 -0.000667 0.028724 -0.003604 -0.000228
# 5 -0.001324 -0.002263 -0.000968 -0.003604 0.024855 -0.000628
# 6 0.000060 -0.001049 -0.000825 -0.000228 -0.000628 0.024810
#
#
# Mechanical properties :
#
#
# Convention : Reuss Voigt Hill
#
# Bulk Modulus (GPa) = 55.58663 74.02122 64.80392
# Shear Modulus (GPa) = 36.00607 39.20098 37.60352
#
# Velocity S-wave (km/s) = 4.14128 4.32111 4.23215
# Velocity P-wave (km/s) = 7.02450 7.75585 7.39922
#
# Compressibility (1/GPa) = 0.01798994
#
# Stress axis : x y z
#
# Youngs Moduli (GPa) = 107.69843 69.23593 79.96227
#
# Poissons Ratio (x) = 0.24123 0.35091
# Poissons Ratio (y) = 0.37524 0.09992
# Poissons Ratio (z) = 0.47263 0.08652
#
# Static dielectric constant tensor:
#      x y z
#    x 4.126220 0.453210 0.507150 
#    y 0.453210 4.225720 0.394780 
#    z 0.507150 0.394780 4.296790 
# 
# 
# High freq. dielectric constant tensor:
#      x y z
#    x 1.833530 0.008030 0.015950 
#    y 0.008030 1.830150 0.005910 
#    z 0.015950 0.005910 1.836350 
# 
# From -- ./inp_files/355336.got.cif
#   From: 2010.06.25/outbox.cif.g09.slc.cpg/sg2_178_cif.got.tgz:355336.got - 2010.06.27 13:26:56.
