data_PCOD8015470
_publ_section_title
;
Structure prediction by ZEFSAII (Michael W. Deem and Ramdas Pophale) SiO2 
 PCOD8015470
Probable space group: P -1
;
_chemical_formula_sum "Si O2"
_cell_formula_units_Z 16
_cell_length_a 24.762724
_cell_length_b 9.098523
_cell_length_c 15.686591
_cell_angle_alpha 48.174054
_cell_angle_beta 150.516785
_cell_angle_gamma 151.854970
_cell_volume 739.303697
_symmetry_space_group_name_H-M "P -1"
_symmetry_group_IT_number 2
_symmetry_cell_setting 'triclinic'
loop_
_space_group_symop_operation_xyz
x,y,z
-x,-y,-z
loop_
_atom_site_type_symbol
_atom_site_label
_atom_site_fract_x
_atom_site_fract_y
_atom_site_fract_z
Si Si1 0.099909 0.225040 0.914639
Si Si2 0.930272 0.537368 0.749747
Si Si3 0.340857 0.917663 0.292434
Si Si4 0.161130 0.407154 0.562558
Si Si5 0.686531 0.714843 0.943926
Si Si6 0.955959 0.455082 0.357641
Si Si7 0.115542 0.421747 0.034423
Si Si8 0.482969 0.292985 0.992206
O O1 0.984374 0.235030 0.708151
O O2 0.263503 0.389888 0.011131
O O3 0.194346 0.433893 0.053159
O O4 0.952861 0.835060 0.888634
O O5 0.835323 0.378798 0.772332
O O6 0.804529 0.477184 0.533243
O O7 0.956046 0.352968 0.819077
O O8 0.128124 0.945842 0.878496
O O9 0.287124 0.796424 0.167631
O O10 0.500000 0.000000 0.500000
O O11 0.401312 0.236796 0.253204
O O12 0.365139 0.646074 0.790192
O O13 0.085047 0.482793 0.479483
O O14 0.000000 0.000000 0.500000
O O15 0.527415 0.413515 0.909094
O O16 0.000000 0.500000 0.500000
O O17 0.734380 0.107386 0.156039
O O18 0.500000 0.500000 0.000000
#
# Coordination Sequence:
#
# PCOD8015470 Si02
#       8
#     2   2   2   2   2   2   2   2
#     4  11  22  41  71  95 133 179 224 275 355 411
#     4  11  20  43  69  99 131 177 236 279 342 413
#     4  11  24  38  65 103 130 174 231 287 334 406
#     4  12  24  44  73 102 136 185 234 286 346 415
#     4  11  22  42  69  95 135 179 233 283 344 416
#     4  12  28  46  70 105 144 183 231 291 356 414
#     4  10  21  42  69  94 130 179 223 275 341 416
#     4  12  27  46  73 103 135 188 240 286 345 420
#
# _framework density 21.641985999999999
#
# number of rings (size 3 to 8) (size 9 to 14) (size 15 to 20)
#    0.000    0.750    6.250    1.500    3.500    3.000 
#    0.000    0.625    0.000    0.000    0.000    0.000 
#    0.000    0.000    0.000    0.000    0.000    0.000 
#
# Total GULP energy -198328.662225 kJ/mol
# GULP energy per Si atom -12395.541389 kJ/mol
# Density = 2.159273 g / cm^3
# Si number density = 21.641986 Si / 1000 Ang^3
#
#
#
# Elastic Constant Matrix: (Units=GPa)
#
#
# Indices 1 2 3 4 5 6 
#
# 1 143.6555 24.3608 33.1269 -15.4045 6.3004 -13.5442
# 2 24.3608 67.9152 35.6821 -25.9791 3.6357 -5.3062
# 3 33.1269 35.6821 143.8488 -24.1422 8.0249 -4.7031
# 4 -15.4045 -25.9791 -24.1422 41.8377 -0.3899 0.4356
# 5 6.3004 3.6357 8.0249 -0.3899 37.6336 -9.0357
# 6 -13.5442 -5.3062 -4.7031 0.4356 -9.0357 34.5122
#
#
#
# Elastic Compliance Matrix: (Units=1/GPa)
#
#
# Indices 1 2 3 4 5 6 
#
# 1 0.007874 -0.001530 -0.001118 0.001274 -0.000292 0.002610
# 2 -0.001530 0.021169 -0.002985 0.010834 -0.000569 0.001962
# 3 -0.001118 -0.002985 0.008457 0.002604 -0.001331 -0.000127
# 4 0.001274 0.010834 0.002604 0.032572 -0.001036 0.001838
# 5 -0.000292 -0.000569 -0.001331 -0.001036 0.028662 0.007133
# 6 0.002610 0.001962 -0.000127 0.001838 0.007133 0.032128
#
#
# Mechanical properties :
#
#
# Convention : Reuss Voigt Hill
#
# Bulk Modulus (GPa) = 38.11860 60.19545 49.15703
# Shear Modulus (GPa) = 33.14074 40.28002 36.71038
#
# Velocity S-wave (km/s) = 3.91745 4.31884 4.12303
# Velocity P-wave (km/s) = 6.17360 7.26254 6.74010
#
# Compressibility (1/GPa) = 0.02623391
#
# Stress axis : x y z
#
# Youngs Moduli (GPa) = 127.00161 47.23904 118.24894
#
# Poissons Ratio (x) = 0.07227 0.13224
# Poissons Ratio (y) = 0.19430 0.35292
# Poissons Ratio (z) = 0.14203 0.14099
#
# Static dielectric constant tensor:
#      x y z
#    x 3.850680 -0.037800 -0.257260 
#    y -0.037800 3.848980 -0.281870 
#    z -0.257260 -0.281870 3.656970 
# 
# 
# High freq. dielectric constant tensor:
#      x y z
#    x 1.869760 -0.003740 -0.004510 
#    y -0.003740 1.848030 -0.034750 
#    z -0.004510 -0.034750 1.838410 
# 
# From -- ./inp_files/308859.got.cif
#   From: 2010.06.25/outbox.cif.g09.slc.cpg/sg2_155_cif.got.tgz:308859.got - 2010.06.27 13:26:56.
