data_PCOD8015507
_publ_section_title
;
Structure prediction by ZEFSAII (Michael W. Deem and Ramdas Pophale) SiO2 
 PCOD8015507
Probable space group: P -1
;
_chemical_formula_sum "Si O2"
_cell_formula_units_Z 16
_cell_length_a 9.459034
_cell_length_b 11.232701
_cell_length_c 9.773325
_cell_angle_alpha 100.723501
_cell_angle_beta 133.789387
_cell_angle_gamma 83.559014
_cell_volume 736.331540
_symmetry_space_group_name_H-M "P -1"
_symmetry_group_IT_number 2
_symmetry_cell_setting 'triclinic'
loop_
_space_group_symop_operation_xyz
x,y,z
-x,-y,-z
loop_
_atom_site_type_symbol
_atom_site_label
_atom_site_fract_x
_atom_site_fract_y
_atom_site_fract_z
Si Si1 0.375295 0.474015 0.540580
Si Si2 0.701718 0.059951 0.262311
Si Si3 0.877566 0.827079 0.400316
Si Si4 0.625748 0.436858 0.959531
Si Si5 0.282106 0.825491 0.987563
Si Si6 0.980357 0.561128 0.352202
Si Si7 0.593597 0.966188 0.699663
Si Si8 0.829132 0.785828 0.658103
O O1 0.500000 0.500000 0.500000
O O2 0.206333 0.575284 0.457708
O O3 0.263219 0.346814 0.427042
O O4 0.537430 0.480818 0.768215
O O5 0.631206 0.108049 0.077149
O O6 0.552314 0.085321 0.291610
O O7 0.898417 0.130441 0.451640
O O8 0.743387 0.915885 0.239765
O O9 0.783362 0.844099 0.491987
O O10 0.869999 0.688350 0.315970
O O11 0.592131 0.292100 0.920791
O O12 0.852778 0.478850 0.142908
O O13 0.500000 0.500000 0.000000
O O14 0.061767 0.777519 0.815373
O O15 0.292504 0.915733 0.141841
O O16 0.000000 0.500000 0.500000
O O17 0.749725 0.863170 0.748193
O O18 0.500000 0.000000 0.500000
#
# Coordination Sequence:
#
# PCOD8015507 Si02
#       8
#     2   2   2   2   2   2   2   2
#     4  12  28  47  70 108 146 183 237 301 362 426
#     4  10  23  42  68 102 137 182 237 290 332 425
#     4  10  21  42  70 100 139 182 234 283 351 409
#     4  12  25  44  78 104 134 192 242 289 362 422
#     4  11  25  47  69  99 139 184 242 286 347 427
#     4  12  22  46  75 104 140 191 237 293 350 428
#     4  12  24  40  65  99 138 181 227 285 353 406
#     4  11  22  46  68  94 145 184 227 292 356 415
#
# _framework density 21.729341000000002
#
# number of rings (size 3 to 8) (size 9 to 14) (size 15 to 20)
#    0.000    0.750    5.000    2.250    3.500    0.500 
#    2.250    0.000    0.000    0.000    0.000    0.000 
#    0.000    0.000    0.000    0.000    0.000    0.000 
#
# Total GULP energy -198363.400350 kJ/mol
# GULP energy per Si atom -12397.712522 kJ/mol
# Density = 2.167988 g / cm^3
# Si number density = 21.729341 Si / 1000 Ang^3
#
#
#
# Elastic Constant Matrix: (Units=GPa)
#
#
# Indices 1 2 3 4 5 6 
#
# 1 158.2559 40.8278 48.9420 -6.4759 -12.6294 -4.1242
# 2 40.8278 97.2331 32.8177 6.9324 -4.0114 -11.8876
# 3 48.9420 32.8177 134.8829 0.7782 -9.7615 5.6812
# 4 -6.4759 6.9324 0.7782 32.6251 -3.7400 1.6307
# 5 -12.6294 -4.0114 -9.7615 -3.7400 28.8374 2.4652
# 6 -4.1242 -11.8876 5.6812 1.6307 2.4652 37.9299
#
#
#
# Elastic Compliance Matrix: (Units=1/GPa)
#
#
# Indices 1 2 3 4 5 6 
#
# 1 0.007978 -0.002720 -0.002050 0.002524 0.002746 0.000035
# 2 -0.002720 0.012985 -0.002410 -0.003578 -0.001037 0.004356
# 3 -0.002050 -0.002410 0.008996 0.000250 0.002055 -0.002470
# 4 0.002524 -0.003578 0.000250 0.032628 0.005148 -0.002622
# 5 0.002746 -0.001037 0.002055 0.005148 0.037354 -0.002984
# 6 0.000035 0.004356 -0.002470 -0.002622 -0.002984 0.028410
#
#
# Mechanical properties :
#
#
# Convention : Reuss Voigt Hill
#
# Bulk Modulus (GPa) = 64.11415 70.61634 67.36524
# Shear Modulus (GPa) = 33.80406 37.73076 35.76741
#
# Velocity S-wave (km/s) = 3.94850 4.17153 4.06155
# Velocity P-wave (km/s) = 7.09629 7.46799 7.28451
#
# Compressibility (1/GPa) = 0.01559718
#
# Stress axis : x y z
#
# Youngs Moduli (GPa) = 125.34380 77.01072 111.16618
#
# Poissons Ratio (x) = 0.20949 0.22792
# Poissons Ratio (y) = 0.34097 0.26794
# Poissons Ratio (z) = 0.25699 0.18561
#
# Static dielectric constant tensor:
#      x y z
#    x 4.155550 -0.096180 0.110170 
#    y -0.096180 4.288810 0.167040 
#    z 0.110170 0.167040 4.048300 
# 
# 
# High freq. dielectric constant tensor:
#      x y z
#    x 1.857270 -0.004540 0.016410 
#    y -0.004540 1.861340 0.002250 
#    z 0.016410 0.002250 1.860400 
# 
# From -- ./inp_files/188863.got.cif
#   From: 2010.06.25/outbox.cif.g09.slc.cpg/sg2_95_cif.got.tgz:188863.got - 2010.06.27 13:26:56.
