data_PCOD8015373
_publ_section_title
;
Structure prediction by ZEFSAII (Michael W. Deem and Ramdas Pophale) SiO2 
 PCOD8015373
Probable space group: P -1
;
_chemical_formula_sum "Si O2"
_cell_formula_units_Z 16
_cell_length_a 17.785640
_cell_length_b 9.079296
_cell_length_c 8.629209
_cell_angle_alpha 129.892512
_cell_angle_beta 87.577968
_cell_angle_gamma 124.736815
_cell_volume 754.387367
_symmetry_space_group_name_H-M "P -1"
_symmetry_group_IT_number 2
_symmetry_cell_setting 'triclinic'
loop_
_space_group_symop_operation_xyz
x,y,z
-x,-y,-z
loop_
_atom_site_type_symbol
_atom_site_label
_atom_site_fract_x
_atom_site_fract_y
_atom_site_fract_z
Si Si1 0.737431 0.587151 0.943299
Si Si2 0.252146 0.160409 0.174677
Si Si3 0.120100 0.769348 0.195922
Si Si4 0.877377 0.835615 0.385617
Si Si5 0.287818 0.875946 0.441707
Si Si6 0.588270 0.531433 0.136590
Si Si7 0.647562 0.968733 0.131198
Si Si8 0.321816 0.573699 0.689396
O O1 0.792157 0.780661 0.917430
O O2 0.674578 0.274923 0.697428
O O3 0.834064 0.714250 0.136696
O O4 0.653233 0.595213 0.017161
O O5 0.328067 0.428624 0.454619
O O6 0.158869 0.901510 0.111471
O O7 0.317379 0.101488 0.059408
O O8 0.183802 0.710083 0.229800
O O9 0.133975 0.959060 0.449541
O O10 0.000000 0.500000 0.000000
O O11 0.800548 0.597957 0.361141
O O12 0.000000 0.000000 0.500000
O O13 0.372043 0.196185 0.604821
O O14 0.267266 0.858979 0.618430
O O15 0.612061 0.394741 0.153778
O O16 0.461222 0.309789 0.967315
O O17 0.623248 0.132028 0.170920
#
# Coordination Sequence:
#
# PCOD8015373 Si02
#       8
#     2   2   2   2   2   2   2   2
#     4  11  23  42  67  91 132 172 212 270 314 380
#     4  11  23  43  63  95 133 159 220 267 310 388
#     4  11  24  45  68  97 128 167 211 265 331 388
#     4  10  21  42  68  93 130 166 212 265 332 378
#     4  12  23  43  66  94 132 170 216 264 321 381
#     4  11  24  44  62  95 134 172 216 265 320 382
#     4  12  25  40  67  94 131 175 215 266 321 372
#     4  10  23  43  61  95 133 163 219 265 314 395
#
# _framework density 21.209263
#
# number of rings (size 3 to 8) (size 9 to 14) (size 15 to 20)
#    0.000    1.000    6.250    1.500    5.250    2.000 
#    2.250    3.125    0.000    0.000    0.000    0.000 
#    0.000    0.000    0.000    0.000    0.000    0.000 
#
# Total GULP energy -198341.200046 kJ/mol
# GULP energy per Si atom -12396.325003 kJ/mol
# Density = 2.116099 g / cm^3
# Si number density = 21.209263 Si / 1000 Ang^3
#
#
#
# Elastic Constant Matrix: (Units=GPa)
#
#
# Indices 1 2 3 4 5 6 
#
# 1 88.4300 37.8941 48.6827 2.4810 -0.2554 5.0004
# 2 37.8941 109.5680 52.7310 -3.5769 -5.7522 -7.7500
# 3 48.6827 52.7310 106.5820 -4.0513 -8.9056 6.6459
# 4 2.4810 -3.5769 -4.0513 38.2595 -4.1727 1.4900
# 5 -0.2554 -5.7522 -8.9056 -4.1727 39.4930 2.6042
# 6 5.0004 -7.7500 6.6459 1.4900 2.6042 31.8856
#
#
#
# Elastic Compliance Matrix: (Units=1/GPa)
#
#
# Indices 1 2 3 4 5 6 
#
# 1 0.016011 -0.002946 -0.005975 -0.002072 -0.001777 -0.001740
# 2 -0.002946 0.013108 -0.005368 0.000714 0.000445 0.004697
# 3 -0.005975 -0.005368 0.015347 0.002002 0.003110 -0.003914
# 4 -0.002072 0.000714 0.002002 0.026988 0.003490 -0.001465
# 5 -0.001777 0.000445 0.003110 0.003490 0.026616 -0.002598
# 6 -0.001740 0.004697 -0.003914 -0.001465 -0.002598 0.033873
#
#
# Mechanical properties :
#
#
# Convention : Reuss Voigt Hill
#
# Bulk Modulus (GPa) = 62.93601 64.79952 63.86776
# Shear Modulus (GPa) = 30.15363 32.94576 31.54970
#
# Velocity S-wave (km/s) = 3.77466 3.94555 3.86105
# Velocity P-wave (km/s) = 6.98109 7.16766 7.07499
#
# Compressibility (1/GPa) = 0.01588915
#
# Stress axis : x y z
#
# Youngs Moduli (GPa) = 62.45545 76.28913 65.15842
#
# Poissons Ratio (x) = 0.22477 0.38929
# Poissons Ratio (y) = 0.18401 0.34977
# Poissons Ratio (z) = 0.37314 0.40952
#
# Static dielectric constant tensor:
#      x y z
#    x 3.587620 -0.277640 -0.325610 
#    y -0.277640 3.978180 -0.131560 
#    z -0.325610 -0.131560 3.770790 
# 
# 
# High freq. dielectric constant tensor:
#      x y z
#    x 1.820340 -0.028230 -0.014650 
#    y -0.028230 1.835750 -0.005450 
#    z -0.014650 -0.005450 1.843170 
# 
# From -- ./inp_files/201772.got.cif
#   From: 2010.06.25/outbox.cif.g09.slc.cpg/sg2_101_cif.got.tgz:201772.got - 2010.06.27 13:26:56.
