data_PCOD8015847
_publ_section_title
;
Structure prediction by ZEFSAII (Michael W. Deem and Ramdas Pophale) SiO2 
 PCOD8015847
Probable space group: P -1
;
_chemical_formula_sum "Si O2"
_cell_formula_units_Z 16
_cell_length_a 11.998370
_cell_length_b 12.082569
_cell_length_c 10.844692
_cell_angle_alpha 65.744836
_cell_angle_beta 64.179591
_cell_angle_gamma 32.239626
_cell_volume 752.009998
_symmetry_space_group_name_H-M "P -1"
_symmetry_group_IT_number 2
_symmetry_cell_setting 'triclinic'
loop_
_space_group_symop_operation_xyz
x,y,z
-x,-y,-z
loop_
_atom_site_type_symbol
_atom_site_label
_atom_site_fract_x
_atom_site_fract_y
_atom_site_fract_z
Si Si1 0.157148 0.035523 0.430036
Si Si2 0.765968 0.659692 0.989910
Si Si3 0.763271 0.292841 0.841688
Si Si4 0.707383 0.804808 0.412421
Si Si5 0.515737 0.047938 0.783233
Si Si6 0.305311 0.554917 0.936551
Si Si7 0.068246 0.901637 0.710238
Si Si8 0.109145 0.600656 0.432644
O O1 0.103539 0.029998 0.322306
O O2 0.963084 0.271455 0.467414
O O3 0.372624 0.939116 0.360023
O O4 0.202826 0.887490 0.568013
O O5 0.597764 0.800242 0.116500
O O6 0.755324 0.537380 0.989344
O O7 0.000000 0.500000 0.000000
O O8 0.697090 0.809352 0.848610
O O9 0.556804 0.372711 0.901909
O O10 0.737288 0.435233 0.706023
O O11 0.808981 0.293825 0.959887
O O12 0.958298 0.059635 0.803364
O O13 0.658810 0.872488 0.260500
O O14 0.764289 0.618906 0.489194
O O15 0.900517 0.736474 0.390293
O O16 0.500000 0.000000 0.500000
O O17 0.224654 0.677785 0.792777
#
# Coordination Sequence:
#
# PCOD8015847 Si02
#       8
#     2   2   2   2   2   2   2   2
#     4  10  21  43  66  94 132 161 216 269 323 391
#     4  11  27  45  67  96 133 174 217 267 324 390
#     4  10  24  43  63  96 128 168 219 265 315 391
#     4  11  24  40  67  97 135 168 216 271 321 393
#     4  11  25  43  65  98 129 172 217 267 324 385
#     4  11  24  42  67  91 129 174 215 263 320 385
#     4  10  22  42  65  96 127 166 211 268 325 379
#     4  10  24  41  64 100 129 174 215 267 332 378
#
# _framework density 21.276313999999999
#
# number of rings (size 3 to 8) (size 9 to 14) (size 15 to 20)
#    0.000    1.500    1.250    1.875    8.750    1.000 
#    4.500    2.500    0.000    0.000    0.000    0.000 
#    0.000    0.000    0.000    0.000    0.000    0.000 
#
# Total GULP energy -198466.448263 kJ/mol
# GULP energy per Si atom -12404.153016 kJ/mol
# Density = 2.122789 g / cm^3
# Si number density = 21.276314 Si / 1000 Ang^3
#
#
#
# Elastic Constant Matrix: (Units=GPa)
#
#
# Indices 1 2 3 4 5 6 
#
# 1 124.0939 36.9989 44.8016 -5.2380 -1.4671 1.7111
# 2 36.9989 76.4836 31.3834 -14.7511 1.4549 -1.7028
# 3 44.8016 31.3834 92.8733 -1.1831 4.9505 -5.6255
# 4 -5.2380 -14.7511 -1.1831 30.8260 -2.2438 3.1919
# 5 -1.4671 1.4549 4.9505 -2.2438 38.2028 0.2219
# 6 1.7111 -1.7028 -5.6255 3.1919 0.2219 29.9447
#
#
#
# Elastic Compliance Matrix: (Units=1/GPa)
#
#
# Indices 1 2 3 4 5 6 
#
# 1 0.010618 -0.003463 -0.004104 0.000236 0.001095 -0.001608
# 2 -0.003463 0.018062 -0.004370 0.007949 0.000215 -0.000445
# 3 -0.004104 -0.004370 0.014481 -0.002693 -0.002043 0.003009
# 4 0.000236 0.007949 -0.002693 0.036758 0.002237 -0.004002
# 5 0.001095 0.000215 -0.002043 0.002237 0.026611 -0.000870
# 6 -0.001608 -0.000445 0.003009 -0.004002 -0.000870 0.034460
#
#
# Mechanical properties :
#
#
# Convention : Reuss Voigt Hill
#
# Bulk Modulus (GPa) = 51.85256 57.75762 54.80509
# Shear Modulus (GPa) = 29.18958 31.81248 30.50103
#
# Velocity S-wave (km/s) = 3.70797 3.87098 3.79036
# Velocity P-wave (km/s) = 6.53881 6.86911 6.70600
#
# Compressibility (1/GPa) = 0.01928545
#
# Stress axis : x y z
#
# Youngs Moduli (GPa) = 94.18033 55.36387 69.05670
#
# Poissons Ratio (x) = 0.19175 0.28344
# Poissons Ratio (y) = 0.32619 0.30177
# Poissons Ratio (z) = 0.38656 0.24194
#
# Static dielectric constant tensor:
#      x y z
#    x 4.030860 0.120250 0.101530 
#    y 0.120250 3.707020 -0.015870 
#    z 0.101530 -0.015870 3.944700 
# 
# 
# High freq. dielectric constant tensor:
#      x y z
#    x 1.846550 0.009100 0.004120 
#    y 0.009100 1.827620 0.003060 
#    z 0.004120 0.003060 1.842870 
# 
# From -- ./inp_files/83290.got.cif
#   From: 2010.06.25/outbox.cif.g09.slc.cpg/sg2_42_cif.got.tgz:83290.got - 2010.06.27 13:26:56.
