data_PCOD8015533
_publ_section_title
;
Structure prediction by ZEFSAII (Michael W. Deem and Ramdas Pophale) SiO2 
 PCOD8015533
Probable space group: P -1
;
_chemical_formula_sum "Si O2"
_cell_formula_units_Z 16
_cell_length_a 9.039771
_cell_length_b 20.672405
_cell_length_c 14.587517
_cell_angle_alpha 161.191020
_cell_angle_beta 66.980100
_cell_angle_gamma 122.544713
_cell_volume 667.187565
_symmetry_space_group_name_H-M "P -1"
_symmetry_group_IT_number 2
_symmetry_cell_setting 'triclinic'
loop_
_space_group_symop_operation_xyz
x,y,z
-x,-y,-z
loop_
_atom_site_type_symbol
_atom_site_label
_atom_site_fract_x
_atom_site_fract_y
_atom_site_fract_z
Si Si1 0.074470 0.133068 0.064056
Si Si2 0.354494 0.017775 0.792793
Si Si3 0.200425 0.199675 0.675898
Si Si4 0.052213 0.500589 0.151649
Si Si5 0.016872 0.535152 0.670969
Si Si6 0.585697 0.188070 0.313235
Si Si7 0.792207 0.922110 0.691744
Si Si8 0.636245 0.075114 0.655267
O O1 0.081412 0.378745 0.392836
O O2 0.289449 0.200047 0.076299
O O3 0.927747 0.938832 0.762742
O O4 0.000000 0.000000 0.000000
O O5 0.544624 0.146310 0.854722
O O6 0.169791 0.780596 0.467192
O O7 0.387794 0.931554 0.764843
O O8 0.179860 0.181359 0.546701
O O9 0.359592 0.155334 0.618663
O O10 0.221979 0.446764 0.032633
O O11 0.000000 0.000000 0.500000
O O12 0.965461 0.472904 0.236029
O O13 0.852891 0.307892 0.885706
O O14 0.792569 0.429571 0.558080
O O15 0.162156 0.810361 0.973995
O O16 0.434104 0.259110 0.467691
O O17 0.500000 0.000000 0.000000
O O18 0.500000 0.000000 0.500000
#
# Coordination Sequence:
#
# PCOD8015533 Si02
#       8
#     2   2   2   2   2   2   2   2
#     4  12  24  42  67 101 136 175 217 273 332 389
#     4  11  24  44  65  92 138 173 210 274 337 377
#     4  10  21  42  70  95 128 171 222 266 324 394
#     4  10  22  44  69  91 132 176 216 268 329 395
#     4  11  22  43  71  94 134 177 221 265 328 399
#     4  11  21  40  68  95 131 168 222 273 316 390
#     4  12  23  44  71  95 133 178 220 271 327 393
#     4  11  24  43  66  97 134 165 221 282 318 391
#
# _framework density 23.981262999999998
#
# number of rings (size 3 to 8) (size 9 to 14) (size 15 to 20)
#    0.000    1.000    7.500    0.375    3.500    1.000 
#    0.000    5.000    0.000    0.000    0.000    0.000 
#    0.000    0.000    0.000    0.000    0.000    0.000 
#
# Total GULP energy -198286.678390 kJ/mol
# GULP energy per Si atom -12392.917399 kJ/mol
# Density = 2.392668 g / cm^3
# Si number density = 23.981263 Si / 1000 Ang^3
#
#
#
# Elastic Constant Matrix: (Units=GPa)
#
#
# Indices 1 2 3 4 5 6 
#
# 1 111.5926 32.7204 15.0741 -18.9987 3.3849 18.7818
# 2 32.7204 87.6518 11.8443 -26.0764 -8.4265 16.7754
# 3 15.0741 11.8443 63.3430 -6.4254 5.4285 15.9186
# 4 -18.9987 -26.0764 -6.4254 39.2493 4.7650 1.9282
# 5 3.3849 -8.4265 5.4285 4.7650 35.8173 -17.6511
# 6 18.7818 16.7754 15.9186 1.9282 -17.6511 46.5703
#
#
#
# Elastic Compliance Matrix: (Units=1/GPa)
#
#
# Indices 1 2 3 4 5 6 
#
# 1 0.011675 -0.002153 0.000195 0.005219 -0.005424 -0.006272
# 2 -0.002153 0.016218 -0.000199 0.009943 0.000130 -0.005268
# 3 0.000195 -0.000199 0.019556 0.004716 -0.008670 -0.010173
# 4 0.005219 0.009943 0.004716 0.037225 -0.010056 -0.012651
# 5 -0.005424 0.000130 -0.008670 -0.010056 0.041607 0.021290
# 6 -0.006272 -0.005268 -0.010173 -0.012651 0.021290 0.037970
#
#
# Mechanical properties :
#
#
# Convention : Reuss Voigt Hill
#
# Bulk Modulus (GPa) = 23.18325 42.42944 32.80635
# Shear Modulus (GPa) = 27.33087 37.85729 32.59408
#
# Velocity S-wave (km/s) = 3.37957 3.97749 3.69066
# Velocity P-wave (km/s) = 4.99168 6.23098 5.64544
#
# Compressibility (1/GPa) = 0.04313458
#
# Stress axis : x y z
#
# Youngs Moduli (GPa) = 85.65446 61.65885 51.13591
#
# Poissons Ratio (x) = 0.13275 -0.00995
# Poissons Ratio (y) = 0.18441 0.01017
# Poissons Ratio (z) = -0.01667 0.01226
#
# Static dielectric constant tensor:
#      x y z
#    x 5.008800 0.442060 -0.459890 
#    y 0.442060 4.611420 -0.445310 
#    z -0.459890 -0.445310 5.620710 
# 
# 
# High freq. dielectric constant tensor:
#      x y z
#    x 1.954580 0.013720 0.007300 
#    y 0.013720 1.960220 -0.022160 
#    z 0.007300 -0.022160 1.931590 
# 
# From -- ./inp_files/508189.got.cif
#   From: 2010.06.25/outbox.cif.g09.slc.cpg/sg2_255_cif.got.tgz:508189.got - 2010.06.27 13:26:56.
