data_PCOD8015214
_publ_section_title
;
Structure prediction by ZEFSAII (Michael W. Deem and Ramdas Pophale) SiO2 
 PCOD8015214
Probable space group: P -1
;
_chemical_formula_sum "Si O2"
_cell_formula_units_Z 16
_cell_length_a 11.991188
_cell_length_b 10.735692
_cell_length_c 12.002633
_cell_angle_alpha 142.850867
_cell_angle_beta 54.845570
_cell_angle_gamma 110.408648
_cell_volume 743.651912
_symmetry_space_group_name_H-M "P -1"
_symmetry_group_IT_number 2
_symmetry_cell_setting 'triclinic'
loop_
_space_group_symop_operation_xyz
x,y,z
-x,-y,-z
loop_
_atom_site_type_symbol
_atom_site_label
_atom_site_fract_x
_atom_site_fract_y
_atom_site_fract_z
Si Si1 0.704813 0.696170 0.388978
Si Si2 0.313254 0.341771 0.100760
Si Si3 0.814862 0.180935 0.458455
Si Si4 0.559653 0.055894 0.889337
Si Si5 0.351645 0.143206 0.708854
Si Si6 0.085898 0.088921 0.109738
Si Si7 0.783527 0.224735 0.008664
Si Si8 0.941851 0.886695 0.356954
O O1 0.690529 0.723924 0.283957
O O2 0.696358 0.459057 0.257161
O O3 0.861938 0.722023 0.341942
O O4 0.592468 0.857605 0.643715
O O5 0.287433 0.590130 0.317480
O O6 0.171517 0.258904 0.141929
O O7 0.442201 0.237486 0.030566
O O8 0.356091 0.306538 0.922082
O O9 0.966504 0.204391 0.346096
O O10 0.748390 0.014298 0.306196
O O11 0.828949 0.074317 0.496012
O O12 0.701511 0.130074 0.890953
O O13 0.500000 0.000000 0.000000
O O14 0.500000 0.000000 0.500000
O O15 0.197761 0.906498 0.980177
O O16 0.000000 0.000000 0.000000
O O17 0.937202 0.232670 0.880746
O O18 0.000000 0.000000 0.500000
#
# Coordination Sequence:
#
# PCOD8015214 Si02
#       8
#     2   2   2   2   2   2   2   2
#     4  11  25  43  68  99 134 175 220 275 336 389
#     4  12  25  43  70  97 136 178 222 274 333 395
#     4  10  25  41  67  98 128 175 219 276 334 380
#     4  12  26  45  65  99 138 177 225 269 324 410
#     4  11  24  43  63  98 137 171 222 269 322 405
#     4  11  23  47  69  98 134 170 229 280 325 398
#     4  11  25  44  69  98 134 177 218 275 337 387
#     4  10  21  42  66  97 132 164 222 275 322 395
#
# _framework density 21.515443000000001
#
# number of rings (size 3 to 8) (size 9 to 14) (size 15 to 20)
#    0.000    1.000    5.000    0.750    3.500    3.000 
#    0.000    0.000    0.000    0.000    0.000    0.000 
#    0.000    0.000    0.000    0.000    0.000    0.000 
#
# Total GULP energy -198363.934139 kJ/mol
# GULP energy per Si atom -12397.745884 kJ/mol
# Density = 2.146647 g / cm^3
# Si number density = 21.515443 Si / 1000 Ang^3
#
#
#
# Elastic Constant Matrix: (Units=GPa)
#
#
# Indices 1 2 3 4 5 6 
#
# 1 109.0158 16.5916 25.9776 9.7941 1.8348 -17.0674
# 2 16.5916 65.8783 35.4053 0.6189 -3.3409 -11.9340
# 3 25.9776 35.4053 113.0746 16.8557 -7.9196 -28.8759
# 4 9.7941 0.6189 16.8557 36.4743 -3.4535 -6.7436
# 5 1.8348 -3.3409 -7.9196 -3.4535 36.5914 -6.5677
# 6 -17.0674 -11.9340 -28.8759 -6.7436 -6.5677 29.9755
#
#
#
# Elastic Compliance Matrix: (Units=1/GPa)
#
#
# Indices 1 2 3 4 5 6 
#
# 1 0.010374 -0.001520 -0.000552 -0.001716 -0.000160 0.004348
# 2 -0.001520 0.018912 -0.005277 0.003141 0.001424 0.002599
# 3 -0.000552 -0.005277 0.014478 -0.003888 0.004398 0.011621
# 4 -0.001716 0.003141 -0.003888 0.030683 0.003168 0.004125
# 5 -0.000160 0.001424 0.004398 0.003168 0.030907 0.012197
# 6 0.004348 0.002599 0.011621 0.004125 0.012197 0.051666
#
#
# Mechanical properties :
#
#
# Convention : Reuss Voigt Hill
#
# Bulk Modulus (GPa) = 34.40638 49.32420 41.86529
# Shear Modulus (GPa) = 27.56228 34.60784 31.08506
#
# Velocity S-wave (km/s) = 3.58305 4.01498 3.80515
# Velocity P-wave (km/s) = 5.75707 6.66845 6.22945
#
# Compressibility (1/GPa) = 0.02906438
#
# Stress axis : x y z
#
# Youngs Moduli (GPa) = 96.39927 52.87645 69.06952
#
# Poissons Ratio (x) = 0.08038 0.03815
# Poissons Ratio (y) = 0.14653 0.36450
# Poissons Ratio (z) = 0.05324 0.27904
#
# Static dielectric constant tensor:
#      x y z
#    x 4.603470 0.417490 -0.261290 
#    y 0.417490 4.178140 -0.245330 
#    z -0.261290 -0.245330 3.885360 
# 
# 
# High freq. dielectric constant tensor:
#      x y z
#    x 1.859230 0.004130 -0.001140 
#    y 0.004130 1.842020 -0.006400 
#    z -0.001140 -0.006400 1.839960 
# 
# From -- ./inp_files/403315.got.cif
#   From: 2010.06.25/outbox.cif.g09.slc.cpg/sg2_202_cif.got.tgz:403315.got - 2010.06.27 13:26:56.
