data_PCOD8015895
_publ_section_title
;
Structure prediction by ZEFSAII (Michael W. Deem and Ramdas Pophale) SiO2 
 PCOD8015895
Probable space group: P -1
;
_chemical_formula_sum "Si O2"
_cell_formula_units_Z 16
_cell_length_a 6.932799
_cell_length_b 10.811454
_cell_length_c 17.673412
_cell_angle_alpha 143.622478
_cell_angle_beta 83.259116
_cell_angle_gamma 94.452207
_cell_volume 779.923982
_symmetry_space_group_name_H-M "P -1"
_symmetry_group_IT_number 2
_symmetry_cell_setting 'triclinic'
loop_
_space_group_symop_operation_xyz
x,y,z
-x,-y,-z
loop_
_atom_site_type_symbol
_atom_site_label
_atom_site_fract_x
_atom_site_fract_y
_atom_site_fract_z
Si Si1 0.123823 0.028751 0.736238
Si Si2 0.591833 0.794387 0.856982
Si Si3 0.203598 0.504098 0.203161
Si Si4 0.524887 0.642718 0.351461
Si Si5 0.458164 0.715321 0.564771
Si Si6 0.303423 0.024221 0.212758
Si Si7 0.103805 0.158712 0.628052
Si Si8 0.391632 0.324697 0.960265
O O1 0.095017 0.067034 0.667483
O O2 0.246833 0.213728 0.855584
O O3 0.240465 0.808523 0.637822
O O4 0.919808 0.029218 0.790076
O O5 0.782507 0.710130 0.853623
O O6 0.430514 0.610791 0.775891
O O7 0.673089 0.819747 0.781475
O O8 0.500000 0.000000 0.000000
O O9 0.338219 0.678399 0.322774
O O10 0.991987 0.608974 0.258334
O O11 0.268704 0.444013 0.087430
O O12 0.478057 0.705360 0.469654
O O13 0.679901 0.798149 0.387584
O O14 0.500000 0.500000 0.500000
O O15 0.619311 0.873925 0.663805
O O16 0.440423 0.826057 0.086604
O O17 0.000000 0.000000 0.500000
O O18 0.500000 0.500000 0.000000
#
# Coordination Sequence:
#
# PCOD8015895 Si02
#       8
#     2   2   2   2   2   2   2   2
#     4  11  27  39  65 100 126 170 216 266 325 380
#     4  10  21  43  67  91 129 170 214 262 322 380
#     4  10  23  40  64  95 124 173 216 260 321 381
#     4  10  23  41  66  92 129 173 215 265 324 377
#     4  11  22  42  66  94 129 171 212 260 327 382
#     4  11  22  43  64  95 132 165 211 272 320 383
#     4  12  25  43  64  97 134 167 221 266 320 385
#     4  11  23  41  65  91 130 171 215 261 324 384
#
# _framework density 20.51482
#
# number of rings (size 3 to 8) (size 9 to 14) (size 15 to 20)
#    0.750    0.500    2.500    3.000    0.000    9.500 
#    0.000    1.250    0.000    0.000    0.000    0.000 
#    0.000    0.000    0.000    0.000    0.000    0.000 
#
# Total GULP energy -198274.965859 kJ/mol
# GULP energy per Si atom -12392.185366 kJ/mol
# Density = 2.046813 g / cm^3
# Si number density = 20.514820 Si / 1000 Ang^3
#
#
#
# Elastic Constant Matrix: (Units=GPa)
#
#
# Indices 1 2 3 4 5 6 
#
# 1 91.0159 19.8288 20.3869 1.4764 -1.9101 -2.7751
# 2 19.8288 91.7104 19.1929 -8.2490 9.7232 -4.8733
# 3 20.3869 19.1929 74.0901 -13.9186 1.6946 -6.1597
# 4 1.4764 -8.2490 -13.9186 40.4471 -5.5933 1.9314
# 5 -1.9101 9.7232 1.6946 -5.5933 34.1642 5.9848
# 6 -2.7751 -4.8733 -6.1597 1.9314 5.9848 37.2265
#
#
#
# Elastic Compliance Matrix: (Units=1/GPa)
#
#
# Indices 1 2 3 4 5 6 
#
# 1 0.012244 -0.002279 -0.003150 -0.001831 0.001190 -0.000003
# 2 -0.002279 0.012431 -0.002130 0.001306 -0.003630 0.001621
# 3 -0.003150 -0.002130 0.016029 0.005129 0.000151 0.001848
# 4 -0.001831 0.001306 0.005129 0.027427 0.003968 -0.001178
# 5 0.001190 -0.003630 0.000151 0.003968 0.032013 -0.005714
# 6 -0.000003 0.001621 0.001848 -0.001178 -0.005714 0.028360
#
#
# Mechanical properties :
#
#
# Convention : Reuss Voigt Hill
#
# Bulk Modulus (GPa) = 39.08415 41.73707 40.41061
# Shear Modulus (GPa) = 32.86211 35.52808 34.19510
#
# Velocity S-wave (km/s) = 4.00668 4.16604 4.08713
# Velocity P-wave (km/s) = 6.36378 6.59774 6.48181
#
# Compressibility (1/GPa) = 0.02558582
#
# Stress axis : x y z
#
# Youngs Moduli (GPa) = 81.67400 80.44517 62.38531
#
# Poissons Ratio (x) = 0.18334 0.19652
# Poissons Ratio (y) = 0.18614 0.13288
# Poissons Ratio (z) = 0.25728 0.17134
#
# Static dielectric constant tensor:
#      x y z
#    x 3.629380 -0.140590 0.024790 
#    y -0.140590 3.646700 -0.034090 
#    z 0.024790 -0.034090 3.838910 
# 
# 
# High freq. dielectric constant tensor:
#      x y z
#    x 1.789700 -0.015410 -0.001960 
#    y -0.015410 1.810520 -0.004870 
#    z -0.001960 -0.004870 1.819480 
# 
# From -- ./inp_files/583361.got.cif
#   From: 2010.06.25/outbox.cif.g09.slc.cpg/sg2_292_cif.got.tgz:583361.got - 2010.06.27 13:26:56.
