data_PCOD8015315
_publ_section_title
;
Structure prediction by ZEFSAII (Michael W. Deem and Ramdas Pophale) SiO2 
 PCOD8015315
Probable space group: P -1
;
_chemical_formula_sum "Si O2"
_cell_formula_units_Z 16
_cell_length_a 8.038056
_cell_length_b 13.882144
_cell_length_c 7.938494
_cell_angle_alpha 102.901757
_cell_angle_beta 50.881871
_cell_angle_gamma 103.664079
_cell_volume 664.563918
_symmetry_space_group_name_H-M "P -1"
_symmetry_group_IT_number 2
_symmetry_cell_setting 'triclinic'
loop_
_space_group_symop_operation_xyz
x,y,z
-x,-y,-z
loop_
_atom_site_type_symbol
_atom_site_label
_atom_site_fract_x
_atom_site_fract_y
_atom_site_fract_z
Si Si1 0.280471 0.635063 0.938580
Si Si2 0.100802 0.063037 0.114697
Si Si3 0.397182 0.437722 0.886734
Si Si4 0.278033 0.276207 0.137732
Si Si5 0.915224 0.721465 0.381390
Si Si6 0.165291 0.930435 0.293439
Si Si7 0.360797 0.903686 0.475440
Si Si8 0.446780 0.700688 0.513982
O O1 0.292047 0.516263 0.867965
O O2 0.478003 0.695867 0.939698
O O3 0.276300 0.679015 0.767628
O O4 0.060811 0.641641 0.184180
O O5 0.255710 0.166233 0.022458
O O6 0.895667 0.097887 0.352233
O O7 0.242618 0.989897 0.096818
O O8 0.000000 0.000000 0.000000
O O9 0.577340 0.387483 0.644342
O O10 0.500000 0.500000 0.000000
O O11 0.228961 0.349938 0.044720
O O12 0.108601 0.284357 0.402019
O O13 0.029100 0.827187 0.288216
O O14 0.683465 0.700758 0.437928
O O15 0.376557 0.912632 0.264435
O O16 0.000000 0.000000 0.500000
O O17 0.427415 0.804944 0.476848
O O18 0.500000 0.000000 0.500000
#
# Coordination Sequence:
#
# PCOD8015315 Si02
#       8
#     2   2   2   2   2   2   2   2
#     4  10  25  45  74 102 138 193 237 298 370 413
#     4  11  25  42  68 106 146 183 241 292 355 438
#     4  10  24  45  72 103 142 187 241 299 358 427
#     4  10  23  44  71 104 143 187 234 303 358 425
#     4  11  23  45  71 103 142 187 238 298 353 438
#     4  10  21  42  67  96 147 184 232 290 350 427
#     4  11  25  41  69 105 142 194 232 291 361 427
#     4  11  25  45  72 104 146 182 241 294 357 431
#
# _framework density 24.075937
#
# number of rings (size 3 to 8) (size 9 to 14) (size 15 to 20)
#    0.000    1.500    2.500    1.875   10.500    1.000 
#    0.000    3.750    0.000    0.000    0.000    0.000 
#    0.000    0.000    0.000    0.000    0.000    0.000 
#
# Total GULP energy -198227.973378 kJ/mol
# GULP energy per Si atom -12389.248336 kJ/mol
# Density = 2.402114 g / cm^3
# Si number density = 24.075937 Si / 1000 Ang^3
#
#
#
# Elastic Constant Matrix: (Units=GPa)
#
#
# Indices 1 2 3 4 5 6 
#
# 1 86.1944 45.0463 33.7550 -6.0457 20.6758 -8.4060
# 2 45.0463 167.1851 39.6203 -13.4437 23.2847 -20.8258
# 3 33.7550 39.6203 100.2011 -1.7306 12.9941 -14.1470
# 4 -6.0457 -13.4437 -1.7306 40.3999 -0.3073 4.7780
# 5 20.6758 23.2847 12.9941 -0.3073 37.9513 2.8422
# 6 -8.4060 -20.8258 -14.1470 4.7780 2.8422 39.7251
#
#
#
# Elastic Compliance Matrix: (Units=1/GPa)
#
#
# Indices 1 2 3 4 5 6 
#
# 1 0.015840 -0.002361 -0.003425 0.001252 -0.006086 0.001179
# 2 -0.002361 0.007967 -0.001442 0.001835 -0.003332 0.003181
# 3 -0.003425 -0.001442 0.012357 -0.000848 -0.001722 0.003145
# 4 0.001252 0.001835 -0.000848 0.025753 -0.001152 -0.002090
# 5 -0.006086 -0.003332 -0.001722 -0.001152 0.032728 -0.005851
# 6 0.001179 0.003181 0.003145 -0.002090 -0.005851 0.028880
#
#
# Mechanical properties :
#
#
# Convention : Reuss Voigt Hill
#
# Bulk Modulus (GPa) = 46.06718 65.60266 55.83492
# Shear Modulus (GPa) = 34.43148 39.29252 36.86200
#
# Velocity S-wave (km/s) = 3.78580 4.04422 3.91714
# Velocity P-wave (km/s) = 6.18751 7.00821 6.61061
#
# Compressibility (1/GPa) = 0.02170743
#
# Stress axis : x y z
#
# Youngs Moduli (GPa) = 63.13299 125.51687 80.92794
#
# Poissons Ratio (x) = 0.29633 0.27718
# Poissons Ratio (y) = 0.14905 0.11670
# Poissons Ratio (z) = 0.21623 0.18100
#
# Static dielectric constant tensor:
#      x y z
#    x 5.382640 -0.510970 1.522840 
#    y -0.510970 5.020740 -0.372740 
#    z 1.522840 -0.372740 6.230820 
# 
# 
# High freq. dielectric constant tensor:
#      x y z
#    x 1.948750 -0.003650 0.018300 
#    y -0.003650 1.971990 -0.002020 
#    z 0.018300 -0.002020 1.953800 
# 
# From -- ./inp_files/188212.got.cif
#   From: 2010.06.25/outbox.cif.g09.slc.cpg/sg2_95_cif.got.tgz:188212.got - 2010.06.27 13:26:56.
