data_PCOD8015746
_publ_section_title
;
Structure prediction by ZEFSAII (Michael W. Deem and Ramdas Pophale) SiO2 
 PCOD8015746
Probable space group: P -1
;
_chemical_formula_sum "Si O2"
_cell_formula_units_Z 16
_cell_length_a 9.062940
_cell_length_b 19.967139
_cell_length_c 16.970883
_cell_angle_alpha 19.299676
_cell_angle_beta 132.130787
_cell_angle_gamma 133.754399
_cell_volume 731.041717
_symmetry_space_group_name_H-M "P -1"
_symmetry_group_IT_number 2
_symmetry_cell_setting 'triclinic'
loop_
_space_group_symop_operation_xyz
x,y,z
-x,-y,-z
loop_
_atom_site_type_symbol
_atom_site_label
_atom_site_fract_x
_atom_site_fract_y
_atom_site_fract_z
Si Si1 0.720447 0.799762 0.320217
Si Si2 0.764029 0.425423 0.986425
Si Si3 0.464380 0.012376 0.097696
Si Si4 0.718252 0.599447 0.936138
Si Si5 0.808301 0.422716 0.461034
Si Si6 0.467482 0.587809 0.227233
Si Si7 0.563077 0.968910 0.469125
Si Si8 0.856728 0.321316 0.412547
O O1 0.572557 0.569805 0.537834
O O2 0.959086 0.793092 0.410520
O O3 0.665817 0.956752 0.192705
O O4 0.663624 0.879264 0.127978
O O5 0.677769 0.541330 0.895406
O O6 0.665526 0.179418 0.227572
O O7 0.719994 0.501824 0.799632
O O8 0.000000 0.500000 0.000000
O O9 0.311032 0.810594 0.301794
O O10 0.534585 0.178427 0.007958
O O11 0.879422 0.504266 0.150271
O O12 0.500000 0.500000 0.000000
O O13 0.748277 0.848522 0.674672
O O14 0.669658 0.584508 0.252176
O O15 0.875602 0.429805 0.385352
O O16 0.000000 0.500000 0.500000
O O17 0.360443 0.846725 0.485090
O O18 0.500000 0.000000 0.500000
#
# Coordination Sequence:
#
# PCOD8015746 Si02
#       8
#     2   2   2   2   2   2   2   2
#     4  10  23  43  67  97 131 171 226 274 330 405
#     4  12  25  43  64  99 136 175 222 278 329 396
#     4  10  23  46  66  94 135 175 220 277 334 399
#     4  10  21  43  64  92 131 173 218 271 324 391
#     4  11  25  42  66 100 134 172 220 281 335 399
#     4  11  23  42  68  93 136 175 218 274 344 390
#     4  11  23  42  69  95 132 177 220 273 331 390
#     4  11  22  43  69 100 133 174 227 273 333 398
#
# _framework density 21.886574
#
# number of rings (size 3 to 8) (size 9 to 14) (size 15 to 20)
#    0.000    1.250    2.500    4.125    0.000    6.500 
#    4.500    0.000    0.000    0.000    0.000    0.000 
#    0.000    0.000    0.000    0.000    0.000    0.000 
#
# Total GULP energy -198271.701130 kJ/mol
# GULP energy per Si atom -12391.981321 kJ/mol
# Density = 2.183676 g / cm^3
# Si number density = 21.886574 Si / 1000 Ang^3
#
#
#
# Elastic Constant Matrix: (Units=GPa)
#
#
# Indices 1 2 3 4 5 6 
#
# 1 107.1939 48.3068 41.0714 -0.3691 24.8979 -12.0636
# 2 48.3068 119.2335 29.6786 6.9735 21.5390 -15.8189
# 3 41.0714 29.6786 102.2972 3.1005 25.7154 -6.5523
# 4 -0.3691 6.9735 3.1005 38.1859 -0.0507 3.3613
# 5 24.8979 21.5390 25.7154 -0.0507 37.5278 3.9491
# 6 -12.0636 -15.8189 -6.5523 3.3613 3.9491 43.9189
#
#
#
# Elastic Compliance Matrix: (Units=1/GPa)
#
#
# Indices 1 2 3 4 5 6 
#
# 1 0.013537 -0.003539 -0.002982 0.000801 -0.005159 0.002401
# 2 -0.003539 0.011318 -0.000510 -0.002381 -0.004179 0.003586
# 3 -0.002982 -0.000510 0.012966 -0.001141 -0.006786 0.001629
# 4 0.000801 -0.002381 -0.001141 0.026994 0.001974 -0.003051
# 5 -0.005159 -0.004179 -0.006786 0.001974 0.037909 -0.007494
# 6 0.002401 0.003586 0.001629 -0.003051 -0.007494 0.025871
#
#
# Mechanical properties :
#
#
# Convention : Reuss Voigt Hill
#
# Bulk Modulus (GPa) = 42.09110 62.98204 52.53657
# Shear Modulus (GPa) = 33.20573 37.90439 35.55506
#
# Velocity S-wave (km/s) = 3.89932 4.16607 4.03490
# Velocity P-wave (km/s) = 6.28857 7.20976 6.76486
#
# Compressibility (1/GPa) = 0.02375799
#
# Stress axis : x y z
#
# Youngs Moduli (GPa) = 73.86930 88.35850 77.12720
#
# Poissons Ratio (x) = 0.31267 0.23001
# Poissons Ratio (y) = 0.26140 0.03936
# Poissons Ratio (z) = 0.22029 0.04510
#
# Static dielectric constant tensor:
#      x y z
#    x 4.020870 -0.198580 0.039640 
#    y -0.198580 3.802960 -0.294670 
#    z 0.039640 -0.294670 2.770340 
# 
# 
# High freq. dielectric constant tensor:
#      x y z
#    x 1.874030 -0.015060 0.005370 
#    y -0.015060 1.850440 0.006650 
#    z 0.005370 0.006650 1.871790 
# 
# From -- ./inp_files/562907.got.cif
#   From: 2010.06.25/outbox.cif.g09.slc.cpg/sg2_282_cif.got.tgz:562907.got - 2010.06.27 13:26:56.
