data_PCOD8015274
_publ_section_title
;
Structure prediction by ZEFSAII (Michael W. Deem and Ramdas Pophale) SiO2 
 PCOD8015274
Probable space group: P -1
;
_chemical_formula_sum "Si O2"
_cell_formula_units_Z 16
_cell_length_a 11.884710
_cell_length_b 15.212718
_cell_length_c 14.279638
_cell_angle_alpha 134.314498
_cell_angle_beta 38.903725
_cell_angle_gamma 153.526867
_cell_volume 722.752191
_symmetry_space_group_name_H-M "P -1"
_symmetry_group_IT_number 2
_symmetry_cell_setting 'triclinic'
loop_
_space_group_symop_operation_xyz
x,y,z
-x,-y,-z
loop_
_atom_site_type_symbol
_atom_site_label
_atom_site_fract_x
_atom_site_fract_y
_atom_site_fract_z
Si Si1 0.132093 0.026780 0.235320
Si Si2 0.366293 0.120554 0.646465
Si Si3 0.003930 0.325774 0.892746
Si Si4 0.949529 0.423251 0.700220
Si Si5 0.574773 0.405118 0.349300
Si Si6 0.352023 0.532710 0.171783
Si Si7 0.364091 0.719344 0.027203
Si Si8 0.905395 0.271770 0.421309
O O1 0.299569 0.176532 0.326085
O O2 0.305397 0.135700 0.104772
O O3 0.052387 0.842969 0.167252
O O4 0.834601 0.942732 0.355621
O O5 0.387581 0.237099 0.798428
O O6 0.693080 0.261717 0.504942
O O7 0.244731 0.939561 0.645547
O O8 0.224244 0.460612 0.767226
O O9 0.152018 0.485538 0.998202
O O10 0.710128 0.231873 0.977460
O O11 0.883388 0.526139 0.784895
O O12 0.955509 0.330580 0.541808
O O13 0.260022 0.582339 0.667698
O O14 0.692225 0.247078 0.810273
O O15 0.500000 0.500000 0.500000
O O16 0.200416 0.414905 0.280116
O O17 0.500000 0.500000 0.000000
#
# Coordination Sequence:
#
# PCOD8015274 Si02
#       8
#     2   2   2   2   2   2   2   2
#     4  11  22  37  64  96 131 169 218 263 318 386
#     4  10  23  42  66  98 125 175 213 267 329 377
#     4   9  20  38  57  87 132 172 215 256 315 382
#     4  10  21  42  67  93 129 176 216 264 329 381
#     4  10  22  40  62  94 133 175 213 267 322 388
#     4  11  26  45  69  96 126 169 222 273 329 389
#     4   9  20  38  59  89 131 171 208 262 322 378
#     4  10  23  48  68  89 134 169 219 274 326 383
#
# _framework density 22.137602000000001
#
# number of rings (size 3 to 8) (size 9 to 14) (size 15 to 20)
#    0.000    2.000    0.000    3.375    3.500    4.000 
#    4.500    7.500    0.000    0.000    0.000    0.000 
#    0.000    0.000    0.000    0.000    0.000    0.000 
#
# Total GULP energy -198281.294019 kJ/mol
# GULP energy per Si atom -12392.580876 kJ/mol
# Density = 2.208722 g / cm^3
# Si number density = 22.137602 Si / 1000 Ang^3
#
#
#
# Elastic Constant Matrix: (Units=GPa)
#
#
# Indices 1 2 3 4 5 6 
#
# 1 117.4040 56.9381 53.2260 4.2545 -8.6284 19.8389
# 2 56.9381 101.4818 52.8636 22.1303 -4.5663 3.5895
# 3 53.2260 52.8636 131.5539 14.9900 0.8030 6.9081
# 4 4.2545 22.1303 14.9900 29.2735 -8.2243 -6.5928
# 5 -8.6284 -4.5663 0.8030 -8.2243 36.3892 -0.1308
# 6 19.8389 3.5895 6.9081 -6.5928 -0.1308 32.0781
#
#
#
# Elastic Compliance Matrix: (Units=1/GPa)
#
#
# Indices 1 2 3 4 5 6 
#
# 1 0.014669 -0.007099 -0.003260 0.004428 0.003636 -0.006651
# 2 -0.007099 0.017733 -0.003004 -0.011210 -0.001922 0.000741
# 3 -0.003260 -0.003004 0.010563 -0.003413 -0.002157 -0.000633
# 4 0.004428 -0.011210 -0.003413 0.048876 0.010799 0.009340
# 5 0.003636 -0.001922 -0.002157 0.010799 0.030593 0.000775
# 6 -0.006651 0.000741 -0.000633 0.009340 0.000775 0.037263
#
#
# Mechanical properties :
#
#
# Convention : Reuss Voigt Hill
#
# Bulk Modulus (GPa) = 61.57589 75.16611 68.37100
# Shear Modulus (GPa) = 26.06407 32.04230 29.05318
#
# Velocity S-wave (km/s) = 3.43500 3.80862 3.62662
# Velocity P-wave (km/s) = 6.60362 7.30538 6.96334
#
# Compressibility (1/GPa) = 0.01624012
#
# Stress axis : x y z
#
# Youngs Moduli (GPa) = 68.17169 56.39094 94.67362
#
# Poissons Ratio (x) = 0.40031 0.30862
# Poissons Ratio (y) = 0.48394 0.28437
# Poissons Ratio (z) = 0.22223 0.16938
#
# Static dielectric constant tensor:
#      x y z
#    x 4.168810 0.375620 0.041000 
#    y 0.375620 4.146240 0.146900 
#    z 0.041000 0.146900 4.018560 
# 
# 
# High freq. dielectric constant tensor:
#      x y z
#    x 1.864350 0.004910 -0.011830 
#    y 0.004910 1.860820 0.005910 
#    z -0.011830 0.005910 1.881340 
# 
# From -- ./inp_files/521657.got.cif
#   From: 2010.06.25/outbox.cif.g09.slc.cpg/sg2_261_cif.got.tgz:521657.got - 2010.06.27 13:26:56.
