data_PCOD8015100
_publ_section_title
;
Structure prediction by ZEFSAII (Michael W. Deem and Ramdas Pophale) SiO2 
 PCOD8015100
Probable space group: P -1
;
_chemical_formula_sum "Si O2"
_cell_formula_units_Z 16
_cell_length_a 8.368262
_cell_length_b 9.085339
_cell_length_c 23.674871
_cell_angle_alpha 149.482917
_cell_angle_beta 126.434358
_cell_angle_gamma 63.316977
_cell_volume 726.680450
_symmetry_space_group_name_H-M "P -1"
_symmetry_group_IT_number 2
_symmetry_cell_setting 'triclinic'
loop_
_space_group_symop_operation_xyz
x,y,z
-x,-y,-z
loop_
_atom_site_type_symbol
_atom_site_label
_atom_site_fract_x
_atom_site_fract_y
_atom_site_fract_z
Si Si1 0.917917 0.090153 0.821366
Si Si2 0.283506 0.827498 0.411225
Si Si3 0.271882 0.375548 0.054231
Si Si4 0.570118 0.221071 0.984333
Si Si5 0.950751 0.220553 0.437696
Si Si6 0.703581 0.455574 0.559583
Si Si7 0.809890 0.736633 0.874540
Si Si8 0.797933 0.769160 0.171417
O O1 0.771028 0.322627 0.884670
O O2 0.994158 0.146209 0.791096
O O3 0.801007 0.774879 0.704480
O O4 0.107031 0.111644 0.909929
O O5 0.312347 0.750319 0.457185
O O6 0.201071 0.526032 0.260118
O O7 0.500000 0.000000 0.500000
O O8 0.136175 0.063059 0.444907
O O9 0.232464 0.418459 0.125556
O O10 0.491789 0.304940 0.058264
O O11 0.392256 0.240979 0.911018
O O12 0.613475 0.893604 0.878952
O O13 0.776483 0.442890 0.086238
O O14 0.848438 0.313230 0.502468
O O15 0.000000 0.500000 0.500000
O O16 0.789955 0.993866 0.294889
O O17 0.500000 0.500000 0.500000
O O18 0.000000 0.000000 0.000000
#
# Coordination Sequence:
#
# PCOD8015100 Si02
#       8
#     2   2   2   2   2   2   2   2
#     4  10  21  42  65  98 136 177 228 286 348 423
#     4  12  30  48  71 109 147 189 244 305 354 436
#     4  10  22  39  67  99 135 177 230 290 348 419
#     4  10  23  39  67 103 134 178 233 294 351 424
#     4  12  25  47  75  99 142 189 240 289 369 421
#     4  12  28  45  73 103 142 191 244 288 366 427
#     4  12  25  44  70  96 144 185 238 287 368 413
#     4  10  22  41  68 101 135 180 232 290 354 427
#
# _framework density 22.017931000000001
#
# number of rings (size 3 to 8) (size 9 to 14) (size 15 to 20)
#    0.000    1.000    1.250    4.500    7.000    3.000 
#    0.000    2.500    0.000    0.000    0.000    0.000 
#    0.000    0.000    0.000    0.000    0.000    0.000 
#
# Total GULP energy -198262.631745 kJ/mol
# GULP energy per Si atom -12391.414484 kJ/mol
# Density = 2.196782 g / cm^3
# Si number density = 22.017931 Si / 1000 Ang^3
#
#
#
# Elastic Constant Matrix: (Units=GPa)
#
#
# Indices 1 2 3 4 5 6 
#
# 1 108.2701 64.0616 35.4753 6.6090 -1.4018 1.8687
# 2 64.0616 127.9501 41.7807 20.4506 -9.6657 11.9635
# 3 35.4753 41.7807 119.7410 10.5236 -0.1138 1.3251
# 4 6.6090 20.4506 10.5236 29.9240 7.1099 -13.7504
# 5 -1.4018 -9.6657 -0.1138 7.1099 30.9055 7.6582
# 6 1.8687 11.9635 1.3251 -13.7504 7.6582 38.4969
#
#
#
# Elastic Compliance Matrix: (Units=1/GPa)
#
#
# Indices 1 2 3 4 5 6 
#
# 1 0.014376 -0.008629 -0.001950 0.007217 -0.005113 0.005646
# 2 -0.008629 0.018504 -0.001925 -0.020394 0.013874 -0.015310
# 3 -0.001950 -0.001925 0.009756 -0.001741 -0.000198 -0.000226
# 4 0.007217 -0.020394 -0.001741 0.071343 -0.031853 0.037866
# 5 -0.005113 0.013874 -0.000198 -0.031853 0.050084 -0.025397
# 6 0.005646 -0.015310 -0.000226 0.037866 -0.025397 0.049045
#
#
# Mechanical properties :
#
#
# Convention : Reuss Voigt Hill
#
# Bulk Modulus (GPa) = 56.72606 70.95516 63.84061
# Shear Modulus (GPa) = 20.49250 34.17484 27.33367
#
# Velocity S-wave (km/s) = 3.05408 3.94399 3.52721
# Velocity P-wave (km/s) = 6.18515 7.28259 6.75619
#
# Compressibility (1/GPa) = 0.01762858
#
# Stress axis : x y z
#
# Youngs Moduli (GPa) = 69.55835 54.04372 102.49991
#
# Poissons Ratio (x) = 0.46633 0.19988
# Poissons Ratio (y) = 0.60020 0.19731
# Poissons Ratio (z) = 0.13564 0.10403
#
# Static dielectric constant tensor:
#      x y z
#    x 4.272510 0.104460 -0.104140 
#    y 0.104460 4.220310 0.053630 
#    z -0.104140 0.053630 4.058740 
# 
# 
# High freq. dielectric constant tensor:
#      x y z
#    x 1.872730 -0.000990 -0.007510 
#    y -0.000990 1.879240 0.007640 
#    z -0.007510 0.007640 1.869380 
# 
# From -- ./inp_files/316171.got.cif
#   From: 2010.06.25/outbox.cif.g09.slc.cpg/sg2_159_cif.got.tgz:316171.got - 2010.06.27 13:26:56.
