data_PCOD8015460
_publ_section_title
;
Structure prediction by ZEFSAII (Michael W. Deem and Ramdas Pophale) SiO2 
 PCOD8015460
Probable space group: P -1
;
_chemical_formula_sum "Si O2"
_cell_formula_units_Z 14
_cell_length_a 8.498929
_cell_length_b 8.534919
_cell_length_c 23.396629
_cell_angle_alpha 146.779444
_cell_angle_beta 133.118763
_cell_angle_gamma 59.222593
_cell_volume 670.987886
_symmetry_space_group_name_H-M "P -1"
_symmetry_group_IT_number 2
_symmetry_cell_setting 'triclinic'
loop_
_space_group_symop_operation_xyz
x,y,z
-x,-y,-z
loop_
_atom_site_type_symbol
_atom_site_label
_atom_site_fract_x
_atom_site_fract_y
_atom_site_fract_z
Si Si1 0.217161 0.217391 0.619047
Si Si2 0.785196 0.413084 0.381174
Si Si3 0.927094 0.514726 0.225864
Si Si4 0.669416 0.812039 0.756838
Si Si5 0.715628 0.356851 0.014722
Si Si6 0.005563 0.098481 0.739535
Si Si7 0.584825 0.842228 0.621086
O O1 0.233819 0.381178 0.613680
O O2 0.214760 0.436588 0.738576
O O3 0.407748 0.026623 0.611452
O O4 0.000000 0.000000 0.500000
O O5 0.560614 0.398036 0.356080
O O6 0.000000 0.500000 0.500000
O O7 0.800643 0.093337 0.263755
O O8 0.767754 0.306551 0.079621
O O9 0.137528 0.376271 0.252959
O O10 0.012511 0.820178 0.307788
O O11 0.665340 0.960605 0.739416
O O12 0.709111 0.057761 0.889520
O O13 0.916268 0.598798 0.114730
O O14 0.500000 0.500000 0.000000
O O15 0.783880 0.909261 0.647188
O O16 0.500000 0.500000 0.500000
#
# Coordination Sequence:
#
# PCOD8015460 Si02
#       7
#     2   2   2   2   2   2   2
#     4  12  24  42  64  94 132 170 219 269 325 390
#     4  12  24  40  67  97 129 172 217 267 331 389
#     4  10  23  41  66  97 129 170 220 268 324 386
#     4  12  22  42  67  94 134 174 215 272 325 383
#     4  10  21  42  69  92 134 171 221 267 325 383
#     4  10  22  41  64  93 131 166 220 259 332 373
#     4  12  25  42  66  97 132 173 217 271 326 387
#
# _framework density 20.864758999999999
#
# number of rings (size 3 to 8) (size 9 to 14) (size 15 to 20)
#    0.857    0.000    1.429    8.143    0.000    0.571 
#    0.000    5.000    0.000    0.000    0.000    0.000 
#    0.000    0.000    0.000    0.000    0.000    0.000 
#
# Total GULP energy -173503.451732 kJ/mol
# GULP energy per Si atom -12393.103695 kJ/mol
# Density = 2.081727 g / cm^3
# Si number density = 20.864759 Si / 1000 Ang^3
#
#
#
# Elastic Constant Matrix: (Units=GPa)
#
#
# Indices 1 2 3 4 5 6 
#
# 1 86.7829 48.6132 9.7478 -2.9388 2.6144 -0.5839
# 2 48.6132 166.2063 21.0836 -7.4576 -1.7692 5.2269
# 3 9.7478 21.0836 87.2412 -3.2425 -6.0492 4.8724
# 4 -2.9388 -7.4576 -3.2425 35.6279 1.4433 -3.4489
# 5 2.6144 -1.7692 -6.0492 1.4433 35.1229 -2.4742
# 6 -0.5839 5.2269 4.8724 -3.4489 -2.4742 34.5430
#
#
#
# Elastic Compliance Matrix: (Units=1/GPa)
#
#
# Indices 1 2 3 4 5 6 
#
# 1 0.013903 -0.004000 -0.000713 0.000383 -0.001313 0.000885
# 2 -0.004000 0.007420 -0.001234 0.001010 0.000355 -0.000890
# 3 -0.000713 -0.001234 0.012071 0.000574 0.001953 -0.001331
# 4 0.000383 0.001010 0.000574 0.028647 -0.000875 0.002570
# 5 -0.001313 0.000355 0.001953 -0.000875 0.029075 0.001644
# 6 0.000885 -0.000890 -0.001331 0.002570 0.001644 0.029661
#
#
# Mechanical properties :
#
#
# Convention : Reuss Voigt Hill
#
# Bulk Modulus (GPa) = 46.51385 55.45774 50.98579
# Shear Modulus (GPa) = 35.75520 38.44448 37.09984
#
# Velocity S-wave (km/s) = 4.14413 4.29716 4.22134
# Velocity P-wave (km/s) = 6.72606 7.15947 6.94615
#
# Compressibility (1/GPa) = 0.02149897
#
# Stress axis : x y z
#
# Youngs Moduli (GPa) = 71.92945 134.76353 82.83986
#
# Poissons Ratio (x) = 0.53912 0.05905
# Poissons Ratio (y) = 0.28775 0.10226
# Poissons Ratio (z) = 0.05127 0.16636
#
# Static dielectric constant tensor:
#      x y z
#    x 4.893530 -0.039520 -0.228830 
#    y -0.039520 3.943800 -0.019680 
#    z -0.228830 -0.019680 3.954400 
# 
# 
# High freq. dielectric constant tensor:
#      x y z
#    x 1.812500 -0.007470 -0.005100 
#    y -0.007470 1.834370 -0.005240 
#    z -0.005100 -0.005240 1.816740 
# 
# From -- ./inp_files/606963.got.cif
#   From: 2010.06.25/outbox.cif.g09.slc.cpg/sg2_304_cif.got.tgz:606963.got - 2010.06.27 13:26:56.
