data_PCOD8015040
_publ_section_title
;
Structure prediction by ZEFSAII (Michael W. Deem and Ramdas Pophale) SiO2 
 PCOD8015040
Probable space group: P -1
;
_chemical_formula_sum "Si O2"
_cell_formula_units_Z 16
_cell_length_a 26.794872
_cell_length_b 14.986525
_cell_length_c 17.347947
_cell_angle_alpha 29.306196
_cell_angle_beta 19.554284
_cell_angle_gamma 18.622468
_cell_volume 730.082245
_symmetry_space_group_name_H-M "P -1"
_symmetry_group_IT_number 2
_symmetry_cell_setting 'triclinic'
loop_
_space_group_symop_operation_xyz
x,y,z
-x,-y,-z
loop_
_atom_site_type_symbol
_atom_site_label
_atom_site_fract_x
_atom_site_fract_y
_atom_site_fract_z
Si Si1 0.466202 0.245085 0.879915
Si Si2 0.422578 0.843424 0.949069
Si Si3 0.000649 0.436046 0.176888
Si Si4 0.336837 0.357474 0.824426
Si Si5 0.727749 0.043282 0.077662
Si Si6 0.345429 0.538189 0.365278
Si Si7 0.733726 0.703489 0.723306
Si Si8 0.784449 0.267392 0.420254
O O1 0.325590 0.459740 0.849091
O O2 0.706025 0.131576 0.627581
O O3 0.324877 0.394795 0.052666
O O4 0.500000 0.000000 0.000000
O O5 0.319505 0.768243 0.201662
O O6 0.219358 0.187609 0.989462
O O7 0.460480 0.764995 0.862702
O O8 0.665387 0.681768 0.755854
O O9 0.853123 0.393670 0.440773
O O10 0.124479 0.409306 0.091802
O O11 0.826459 0.746532 0.159596
O O12 0.318182 0.521358 0.660617
O O13 0.587864 0.025150 0.703904
O O14 0.935726 0.989894 0.797068
O O15 0.598746 0.220467 0.211010
O O16 0.311871 0.555554 0.493177
O O17 0.000000 0.500000 0.500000
#
# Coordination Sequence:
#
# PCOD8015040 Si02
#       8
#     2   2   2   2   2   2   2   2
#     4  10  21  42  65  89 123 175 221 263 330 391
#     4  11  22  41  65  93 136 178 216 272 343 382
#     4  10  22  42  66  97 135 176 217 269 335 398
#     4   9  22  40  68  91 126 180 218 262 338 389
#     4  11  25  41  67 102 136 176 222 270 333 406
#     4  12  24  39  66 102 139 172 222 273 330 395
#     4  10  22  40  63  96 126 166 222 282 319 387
#     4  11  23  44  67  95 142 172 217 281 330 400
#
# _framework density 21.915338999999999
#
# number of rings (size 3 to 8) (size 9 to 14) (size 15 to 20)
#    0.000    1.500    2.500    1.875    3.500    3.000 
#    4.500    0.625    0.000    0.000    0.000    0.000 
#    0.000    0.000    0.000    0.000    0.000    0.000 
#
# Total GULP energy -198283.893926 kJ/mol
# GULP energy per Si atom -12392.743370 kJ/mol
# Density = 2.186546 g / cm^3
# Si number density = 21.915339 Si / 1000 Ang^3
#
#
#
# Elastic Constant Matrix: (Units=GPa)
#
#
# Indices 1 2 3 4 5 6 
#
# 1 135.6017 39.3861 57.5614 17.4723 -8.5035 -12.4408
# 2 39.3861 74.8093 37.5253 6.5551 -4.2417 -6.2842
# 3 57.5614 37.5253 136.0096 15.1567 -32.6433 2.0620
# 4 17.4723 6.5551 15.1567 29.5421 1.9756 -5.4988
# 5 -8.5035 -4.2417 -32.6433 1.9756 42.8681 -1.9627
# 6 -12.4408 -6.2842 2.0620 -5.4988 -1.9627 27.4042
#
#
#
# Elastic Compliance Matrix: (Units=1/GPa)
#
#
# Indices 1 2 3 4 5 6 
#
# 1 0.010436 -0.003275 -0.003351 -0.003023 -0.000502 0.003596
# 2 -0.003275 0.017109 -0.003905 0.000780 -0.001840 0.002755
# 3 -0.003351 -0.003905 0.012482 -0.004816 0.008506 -0.003713
# 4 -0.003023 0.000780 -0.004816 0.039564 -0.005706 0.006699
# 5 -0.000502 -0.001840 0.008506 -0.005706 0.029772 -0.000302
# 6 0.003596 0.002755 -0.003713 0.006699 -0.000302 0.040357
#
#
# Mechanical properties :
#
#
# Convention : Reuss Voigt Hill
#
# Bulk Modulus (GPa) = 52.72587 68.37403 60.54995
# Shear Modulus (GPa) = 28.23184 34.09274 31.16229
#
# Velocity S-wave (km/s) = 3.59308 3.94846 3.77495
# Velocity P-wave (km/s) = 6.42843 7.21485 6.83296
#
# Compressibility (1/GPa) = 0.01896602
#
# Stress axis : x y z
#
# Youngs Moduli (GPa) = 95.81831 58.44891 80.11231
#
# Poissons Ratio (x) = 0.19142 0.26848
# Poissons Ratio (y) = 0.31380 0.31281
# Poissons Ratio (z) = 0.32112 0.22822
#
# Static dielectric constant tensor:
#      x y z
#    x 4.528450 -0.054600 -0.102610 
#    y -0.054600 3.677750 -0.139570 
#    z -0.102610 -0.139570 3.970840 
# 
# 
# High freq. dielectric constant tensor:
#      x y z
#    x 1.875990 -0.006720 -0.012120 
#    y -0.006720 1.836300 -0.012670 
#    z -0.012120 -0.012670 1.860150 
# 
# From -- ./inp_files/579878.got.cif
#   From: 2010.06.25/outbox.cif.g09.slc.cpg/sg2_290_cif.got.tgz:579878.got - 2010.06.27 13:26:56.
