data_PCOD8015773
_publ_section_title
;
Structure prediction by ZEFSAII (Michael W. Deem and Ramdas Pophale) SiO2 
 PCOD8015773
Probable space group: P -1
;
_chemical_formula_sum "Si O2"
_cell_formula_units_Z 16
_cell_length_a 11.031159
_cell_length_b 9.483244
_cell_length_c 14.424577
_cell_angle_alpha 96.981211
_cell_angle_beta 61.666788
_cell_angle_gamma 139.723880
_cell_volume 778.150686
_symmetry_space_group_name_H-M "P -1"
_symmetry_group_IT_number 2
_symmetry_cell_setting 'triclinic'
loop_
_space_group_symop_operation_xyz
x,y,z
-x,-y,-z
loop_
_atom_site_type_symbol
_atom_site_label
_atom_site_fract_x
_atom_site_fract_y
_atom_site_fract_z
Si Si1 0.180753 0.497890 0.655218
Si Si2 0.089371 0.754288 0.901304
Si Si3 0.603583 0.873578 0.419408
Si Si4 0.947385 0.583506 0.734966
Si Si5 0.831608 0.823928 0.427691
Si Si6 0.498070 0.282852 0.755602
Si Si7 0.658055 0.716142 0.686051
Si Si8 0.264951 0.591076 0.838416
O O1 0.421151 0.773364 0.555911
O O2 0.156348 0.335825 0.591090
O O3 0.182696 0.459672 0.759349
O O4 0.971594 0.433115 0.706243
O O5 0.256131 0.754758 0.853025
O O6 0.945796 0.628422 0.847135
O O7 0.254585 0.030445 0.870069
O O8 0.904315 0.612639 0.038793
O O9 0.673429 0.764800 0.401102
O O10 0.486052 0.788757 0.353756
O O11 0.833337 0.159260 0.373460
O O12 0.709093 0.423215 0.758505
O O13 0.714922 0.777186 0.561782
O O14 0.094863 0.097929 0.337906
O O15 0.493334 0.446636 0.750918
O O16 0.527126 0.750192 0.771886
#
# Coordination Sequence:
#
# PCOD8015773 Si02
#       8
#     2   2   2   2   2   2   2   2
#     4  11  21  37  63  89 121 162 198 248 308 362
#     4   9  23  44  65  87 121 158 207 259 291 353
#     4  11  20  39  61  88 127 156 195 252 302 364
#     4  10  23  40  59  92 125 157 203 246 305 359
#     4  11  22  38  58  95 126 157 205 245 297 370
#     4  11  22  40  63  87 124 164 195 250 305 360
#     4  11  22  38  62  89 127 163 198 250 300 362
#     4  10  21  43  65  89 117 159 208 252 302 350
#
# _framework density 20.56157
#
# number of rings (size 3 to 8) (size 9 to 14) (size 15 to 20)
#    0.000    1.500    3.750    1.500    1.750    1.000 
#    2.250    2.500    0.000    0.000    0.000    0.000 
#    0.000    0.000    0.000    0.000    0.000    0.000 
#
# Total GULP energy -198371.809800 kJ/mol
# GULP energy per Si atom -12398.238112 kJ/mol
# Density = 2.051477 g / cm^3
# Si number density = 20.561570 Si / 1000 Ang^3
#
#
#
# Elastic Constant Matrix: (Units=GPa)
#
#
# Indices 1 2 3 4 5 6 
#
# 1 106.7974 22.6720 40.0925 -0.8178 0.7873 15.4782
# 2 22.6720 65.9860 32.5841 -12.7676 -0.7612 11.9386
# 3 40.0925 32.5841 128.2854 -9.8668 -0.8134 7.9543
# 4 -0.8178 -12.7676 -9.8668 24.8341 -6.3557 3.1858
# 5 0.7873 -0.7612 -0.8134 -6.3557 26.1971 5.4884
# 6 15.4782 11.9386 7.9543 3.1858 5.4884 29.0115
#
#
#
# Elastic Compliance Matrix: (Units=1/GPa)
#
#
# Indices 1 2 3 4 5 6 
#
# 1 0.011503 -0.001931 -0.002917 -0.001163 0.000157 -0.004445
# 2 -0.001931 0.021600 -0.003319 0.012339 0.005535 -0.009351
# 3 -0.002917 -0.003319 0.009745 0.002320 0.000893 -0.000173
# 4 -0.001163 0.012339 0.002320 0.053494 0.016391 -0.014069
# 5 0.000157 0.005535 0.000893 0.016391 0.045041 -0.012927
# 6 -0.004445 -0.009351 -0.000173 -0.014069 -0.012927 0.044726
#
#
# Mechanical properties :
#
#
# Convention : Reuss Voigt Hill
#
# Bulk Modulus (GPa) = 37.71677 54.64067 46.17872
# Shear Modulus (GPa) = 23.66524 29.72322 26.69423
#
# Velocity S-wave (km/s) = 3.39624 3.80619 3.60704
# Velocity P-wave (km/s) = 5.81054 6.77849 6.31310
#
# Compressibility (1/GPa) = 0.02651340
#
# Stress axis : x y z
#
# Youngs Moduli (GPa) = 86.93644 46.29612 102.61952
#
# Poissons Ratio (x) = 0.08938 0.29938
# Poissons Ratio (y) = 0.16784 0.34061
# Poissons Ratio (z) = 0.25362 0.15366
#
# Static dielectric constant tensor:
#      x y z
#    x 3.797740 -0.094060 0.071270 
#    y -0.094060 3.578900 -0.162600 
#    z 0.071270 -0.162600 3.669510 
# 
# 
# High freq. dielectric constant tensor:
#      x y z
#    x 1.811810 -0.008340 0.007760 
#    y -0.008340 1.791770 -0.012490 
#    z 0.007760 -0.012490 1.795130 
# 
# From -- ./inp_files/515766.got.cif
#   From: 2010.06.25/outbox.cif.g09.slc.cpg/sg2_258_cif.got.tgz:515766.got - 2010.06.27 13:26:56.
