data_PCOD8015082
_publ_section_title
;
Structure prediction by ZEFSAII (Michael W. Deem and Ramdas Pophale) SiO2 
 PCOD8015082
Probable space group: P -1
;
_chemical_formula_sum "Si O2"
_cell_formula_units_Z 16
_cell_length_a 11.520009
_cell_length_b 11.471006
_cell_length_c 14.274379
_cell_angle_alpha 32.497586
_cell_angle_beta 63.022939
_cell_angle_gamma 84.496680
_cell_volume 723.360246
_symmetry_space_group_name_H-M "P -1"
_symmetry_group_IT_number 2
_symmetry_cell_setting 'triclinic'
loop_
_space_group_symop_operation_xyz
x,y,z
-x,-y,-z
loop_
_atom_site_type_symbol
_atom_site_label
_atom_site_fract_x
_atom_site_fract_y
_atom_site_fract_z
Si Si1 0.720420 0.784177 0.414024
Si Si2 0.144155 0.645905 0.772120
Si Si3 0.247019 0.474573 0.255894
Si Si4 0.375977 0.096324 0.130888
Si Si5 0.043762 0.640673 0.142880
Si Si6 0.361990 0.475596 0.758520
Si Si7 0.681183 0.775996 0.744383
Si Si8 0.737210 0.501902 0.423666
O O1 0.808787 0.733917 0.496728
O O2 0.548115 0.710388 0.561041
O O3 0.687861 0.601506 0.460132
O O4 0.829044 0.097428 0.140746
O O5 0.243835 0.520119 0.828023
O O6 0.068017 0.596976 0.729617
O O7 0.275882 0.974887 0.508947
O O8 0.000000 0.500000 0.000000
O O9 0.134608 0.573412 0.227500
O O10 0.216954 0.321686 0.270986
O O11 0.433939 0.725539 0.034204
O O12 0.275887 0.108752 0.244258
O O13 0.321242 0.799797 0.330762
O O14 0.330385 0.194388 0.990434
O O15 0.932680 0.690693 0.211822
O O16 0.344711 0.479884 0.650841
O O17 0.500000 0.500000 0.000000
#
# Coordination Sequence:
#
# PCOD8015082 Si02
#       8
#     2   2   2   2   2   2   2   2
#     4  11  24  43  65  94 130 175 224 268 322 391
#     4  11  24  43  66  99 136 175 218 274 336 393
#     4  10  24  40  62  96 129 169 218 267 328 393
#     4  10  21  42  65  96 126 169 224 271 322 390
#     4  11  24  40  63  95 134 169 214 271 330 392
#     4  10  23  41  68  95 126 173 224 269 324 394
#     4  10  21  42  67  94 133 172 217 272 324 398
#     4  11  23  42  65  94 132 171 220 275 327 380
#
# _framework density 22.118993
#
# number of rings (size 3 to 8) (size 9 to 14) (size 15 to 20)
#    0.000    1.500    2.500    2.250    3.500    7.000 
#    0.000    2.500    0.000    0.000    0.000    0.000 
#    0.000    0.000    0.000    0.000    0.000    0.000 
#
# Total GULP energy -198301.444179 kJ/mol
# GULP energy per Si atom -12393.840261 kJ/mol
# Density = 2.206865 g / cm^3
# Si number density = 22.118993 Si / 1000 Ang^3
#
#
#
# Elastic Constant Matrix: (Units=GPa)
#
#
# Indices 1 2 3 4 5 6 
#
# 1 118.6046 -4.0396 87.9724 14.6676 8.8174 -15.3057
# 2 -4.0396 48.0519 45.5472 6.2959 -13.1121 -8.8221
# 3 87.9724 45.5472 75.7641 -13.3157 27.3263 2.1098
# 4 14.6676 6.2959 -13.3157 24.4985 1.0861 -3.4903
# 5 8.8174 -13.1121 27.3263 1.0861 27.3541 5.3317
# 6 -15.3057 -8.8221 2.1098 -3.4903 5.3317 17.2327
#
#
#
# Elastic Compliance Matrix: (Units=1/GPa)
#
#
# Indices 1 2 3 4 5 6 
#
# 1 0.004017 -0.009557 0.006566 0.004615 -0.013181 0.002884
# 2 -0.009557 0.005794 0.011425 0.010224 -0.005338 -0.003199
# 3 0.006566 0.011425 -0.006209 -0.009485 0.008395 0.007922
# 4 0.004615 0.010224 -0.009485 0.031906 0.008851 0.014218
# 5 -0.013181 -0.005338 0.008395 0.008851 0.034240 -0.024268
# 6 0.002884 -0.003199 0.007922 0.014218 -0.024268 0.068372
#
#
# Mechanical properties :
#
#
# Convention : Reuss Voigt Hill
#
# Bulk Modulus (GPa) = 48.85279 55.70894 52.28087
# Shear Modulus (GPa) = 39.03903 21.34643 30.19273
#
# Velocity S-wave (km/s) = 4.20569 3.10993 3.69862
# Velocity P-wave (km/s) = 6.76152 6.17546 6.47512
#
# Compressibility (1/GPa) = 0.02046966
#
# Stress axis : x y z
#
# Youngs Moduli (GPa) = 248.92044 172.58281 -161.06175
#
# Poissons Ratio (x) = 1.64944 1.05747
# Poissons Ratio (y) = 2.37903 1.84016
# Poissons Ratio (z) = -1.63431 -1.97179
#
# Static dielectric constant tensor:
#      x y z
#    x 3.698620 -0.206480 -0.178240 
#    y -0.206480 3.915000 0.015510 
#    z -0.178240 0.015510 4.055700 
# 
# 
# High freq. dielectric constant tensor:
#      x y z
#    x 1.857030 -0.009270 0.003780 
#    y -0.009270 1.864420 0.006780 
#    z 0.003780 0.006780 1.889870 
# 
# From -- ./inp_files/256030.got.cif
#   From: 2010.06.25/outbox.cif.g09.slc.cpg/sg2_129_cif.got.tgz:256030.got - 2010.06.27 13:26:56.
