data_PCOD8015036
_publ_section_title
;
Structure prediction by ZEFSAII (Michael W. Deem and Ramdas Pophale) SiO2 
 PCOD8015036
Probable space group: P -1
;
_chemical_formula_sum "Si O2"
_cell_formula_units_Z 16
_cell_length_a 6.657629
_cell_length_b 18.578544
_cell_length_c 11.933142
_cell_angle_alpha 131.938950
_cell_angle_beta 68.247225
_cell_angle_gamma 132.799271
_cell_volume 796.114937
_symmetry_space_group_name_H-M "P -1"
_symmetry_group_IT_number 2
_symmetry_cell_setting 'triclinic'
loop_
_space_group_symop_operation_xyz
x,y,z
-x,-y,-z
loop_
_atom_site_type_symbol
_atom_site_label
_atom_site_fract_x
_atom_site_fract_y
_atom_site_fract_z
Si Si1 0.367924 0.281878 0.073961
Si Si2 0.734915 0.897641 0.594808
Si Si3 0.660418 0.547078 0.899632
Si Si4 0.649822 0.440601 0.396358
Si Si5 0.761775 0.224749 0.909878
Si Si6 0.214852 0.929014 0.424068
Si Si7 0.709218 0.378952 0.565069
Si Si8 0.250719 0.933081 0.066910
O O1 0.436780 0.387864 0.084788
O O2 0.493218 0.333769 0.224651
O O3 0.506615 0.224313 0.933456
O O4 0.038455 0.176649 0.045687
O O5 0.439906 0.761539 0.514257
O O6 0.975850 0.884930 0.517866
O O7 0.750973 0.974767 0.569254
O O8 0.779296 0.967599 0.773896
O O9 0.598143 0.434498 0.723457
O O10 0.500000 0.500000 0.000000
O O11 0.986319 0.641609 0.955848
O O12 0.500000 0.500000 0.500000
O O13 0.636241 0.379086 0.451250
O O14 0.966008 0.546901 0.406407
O O15 0.858714 0.193650 0.747140
O O16 0.663236 0.119025 0.910467
O O17 0.500000 0.000000 0.500000
O O18 0.500000 0.000000 0.000000
#
# Coordination Sequence:
#
# PCOD8015036 Si02
#       8
#     2   2   2   2   2   2   2   2
#     4  11  23  43  65  92 126 167 214 254 315 375
#     4  10  23  41  62  93 125 164 204 257 314 366
#     4  11  23  41  63  94 128 164 205 260 313 369
#     4  11  24  42  65  91 128 171 210 256 310 376
#     4  10  22  41  63  91 122 163 206 257 311 366
#     4  10  21  42  65  88 123 164 210 254 309 371
#     4  11  24  41  65  95 131 163 208 260 316 367
#     4  10  24  40  63  93 127 161 206 260 312 364
#
# _framework density 20.097601000000001
#
# number of rings (size 3 to 8) (size 9 to 14) (size 15 to 20)
#    0.000    1.500    2.500    1.500    3.500    5.000 
#    4.500    0.000    0.000    0.000    0.000    0.000 
#    0.000    0.000    0.000    0.000    0.000    0.000 
#
# Total GULP energy -198457.879518 kJ/mol
# GULP energy per Si atom -12403.617470 kJ/mol
# Density = 2.005186 g / cm^3
# Si number density = 20.097601 Si / 1000 Ang^3
#
#
#
# Elastic Constant Matrix: (Units=GPa)
#
#
# Indices 1 2 3 4 5 6 
#
# 1 109.1560 24.6409 50.1569 -5.0356 -9.8590 15.1772
# 2 24.6409 96.0307 61.2184 -4.2696 -7.6533 17.8665
# 3 50.1569 61.2184 143.1713 -4.7011 -4.1622 6.5255
# 4 -5.0356 -4.2696 -4.7011 36.9782 3.3515 -4.9522
# 5 -9.8590 -7.6533 -4.1622 3.3515 38.3148 0.8477
# 6 15.1772 17.8665 6.5255 -4.9522 0.8477 20.5681
#
#
#
# Elastic Compliance Matrix: (Units=1/GPa)
#
#
# Indices 1 2 3 4 5 6 
#
# 1 0.012482 0.001739 -0.004598 -0.000249 0.003291 -0.009458
# 2 0.001739 0.017668 -0.007424 -0.000954 0.003578 -0.014653
# 3 -0.004598 -0.007424 0.011457 0.000995 -0.001653 0.006514
# 4 -0.000249 -0.000954 0.000995 0.028300 -0.002790 0.007625
# 5 0.003291 0.003578 -0.001653 -0.002790 0.027877 -0.006833
# 6 -0.009458 -0.014653 0.006514 0.007625 -0.006833 0.068377
#
#
# Mechanical properties :
#
#
# Convention : Reuss Voigt Hill
#
# Bulk Modulus (GPa) = 47.52094 68.93227 58.22660
# Shear Modulus (GPa) = 25.80773 33.32834 29.56804
#
# Velocity S-wave (km/s) = 3.58735 4.07667 3.83981
# Velocity P-wave (km/s) = 6.39181 7.51879 6.97809
#
# Compressibility (1/GPa) = 0.02104335
#
# Stress axis : x y z
#
# Youngs Moduli (GPa) = 80.11453 56.59817 87.28006
#
# Poissons Ratio (x) = -0.09843 0.40130
# Poissons Ratio (y) = -0.13933 0.64793
# Poissons Ratio (z) = 0.36836 0.42016
#
# Static dielectric constant tensor:
#      x y z
#    x 3.707560 0.033140 -0.044330 
#    y 0.033140 3.603220 -0.090870 
#    z -0.044330 -0.090870 3.996310 
# 
# 
# High freq. dielectric constant tensor:
#      x y z
#    x 1.788760 0.007080 -0.006860 
#    y 0.007080 1.779440 0.001320 
#    z -0.006860 0.001320 1.802380 
# 
# From -- ./inp_files/70791.got.cif
#   From: 2010.06.25/outbox.cif.g09.slc.cpg/sg2_36_cif.got.tgz:70791.got - 2010.06.27 13:26:56.
