data_PCOD8015732
_publ_section_title
;
Structure prediction by ZEFSAII (Michael W. Deem and Ramdas Pophale) SiO2 
 PCOD8015732
Probable space group: P -1
;
_chemical_formula_sum "Si O2"
_cell_formula_units_Z 16
_cell_length_a 5.232451
_cell_length_b 12.095053
_cell_length_c 18.480864
_cell_angle_alpha 130.694098
_cell_angle_beta 54.497785
_cell_angle_gamma 120.633010
_cell_volume 705.510690
_symmetry_space_group_name_H-M "P -1"
_symmetry_group_IT_number 2
_symmetry_cell_setting 'triclinic'
loop_
_space_group_symop_operation_xyz
x,y,z
-x,-y,-z
loop_
_atom_site_type_symbol
_atom_site_label
_atom_site_fract_x
_atom_site_fract_y
_atom_site_fract_z
Si Si1 0.968978 0.036878 0.439374
Si Si2 0.610048 0.836152 0.837536
Si Si3 0.282366 0.406482 0.056636
Si Si4 0.400827 0.194099 0.328475
Si Si5 0.030646 0.918046 0.034274
Si Si6 0.467325 0.752289 0.404025
Si Si7 0.430796 0.542775 0.810683
Si Si8 0.185456 0.664875 0.556138
O O1 0.874279 0.198714 0.523167
O O2 0.288566 0.057580 0.345649
O O3 0.716126 0.894056 0.390350
O O4 0.000000 0.000000 0.500000
O O5 0.455601 0.856058 0.791552
O O6 0.649785 0.666749 0.774695
O O7 0.935844 0.962617 0.853410
O O8 0.357938 0.856589 0.949722
O O9 0.468028 0.433272 0.112975
O O10 0.946099 0.460109 0.139644
O O11 0.500000 0.500000 0.000000
O O12 0.244622 0.229599 0.968896
O O13 0.656689 0.321072 0.382969
O O14 0.081200 0.235699 0.363538
O O15 0.000000 0.000000 0.000000
O O16 0.489177 0.613392 0.292161
O O17 0.483620 0.714388 0.471256
O O18 0.000000 0.500000 0.500000
#
# Coordination Sequence:
#
# PCOD8015732 Si02
#       8
#     2   2   2   2   2   2   2   2
#     4  10  21  43  64  86 137 177 214 269 332 391
#     4  10  23  41  66  98 128 169 226 276 330 402
#     4  11  25  45  68  99 138 171 221 277 340 401
#     4  11  24  39  63  94 123 166 219 265 312 392
#     4  10  21  43  69  91 133 181 211 277 348 391
#     4  10  23  40  65  92 128 177 218 263 336 391
#     4  11  24  42  69  97 129 173 221 277 329 397
#     4  11  23  39  61  92 129 165 205 268 323 376
#
# _framework density 22.678607
#
# number of rings (size 3 to 8) (size 9 to 14) (size 15 to 20)
#    0.000    1.500    2.500    1.500    3.500    3.000 
#    2.250    0.000    0.000    0.000    0.000    0.000 
#    0.000    0.000    0.000    0.000    0.000    0.000 
#
# Total GULP energy -198227.108844 kJ/mol
# GULP energy per Si atom -12389.194303 kJ/mol
# Density = 2.262699 g / cm^3
# Si number density = 22.678607 Si / 1000 Ang^3
#
#
#
# Elastic Constant Matrix: (Units=GPa)
#
#
# Indices 1 2 3 4 5 6 
#
# 1 98.6787 29.8794 33.2939 -0.7459 33.6265 -2.4362
# 2 29.8794 156.6526 60.4255 5.8415 19.9607 -2.8142
# 3 33.2939 60.4255 95.8851 9.5297 37.2376 1.4809
# 4 -0.7459 5.8415 9.5297 43.4276 -6.0919 6.1644
# 5 33.6265 19.9607 37.2376 -6.0919 43.4020 -5.6541
# 6 -2.4362 -2.8142 1.4809 6.1644 -5.6541 30.1851
#
#
#
# Elastic Compliance Matrix: (Units=1/GPa)
#
#
# Indices 1 2 3 4 5 6 
#
# 1 0.014108 -0.001405 0.000289 -0.001029 -0.010784 -0.000816
# 2 -0.001405 0.008656 -0.005963 0.000265 0.002442 0.001389
# 3 0.000289 -0.005963 0.021345 -0.005761 -0.017073 -0.003601
# 4 -0.001029 0.000265 -0.005761 0.025960 0.008815 -0.003426
# 5 -0.010784 0.002442 -0.017073 0.008815 0.047097 0.007217
# 6 -0.000816 0.001389 -0.003601 -0.003426 0.007217 0.035421
#
#
# Mechanical properties :
#
#
# Convention : Reuss Voigt Hill
#
# Bulk Modulus (GPa) = 33.38702 66.49045 49.93874
# Shear Modulus (GPa) = 28.29194 38.57745 33.43469
#
# Velocity S-wave (km/s) = 3.53585 4.12885 3.84381
# Velocity P-wave (km/s) = 5.60566 7.21887 6.46280
#
# Compressibility (1/GPa) = 0.02995176
#
# Stress axis : x y z
#
# Youngs Moduli (GPa) = 70.87933 115.53336 46.84934
#
# Poissons Ratio (x) = 0.16230 -0.01355
# Poissons Ratio (y) = 0.09957 0.27936
# Poissons Ratio (z) = -0.02050 0.68893
#
# Static dielectric constant tensor:
#      x y z
#    x 3.999880 -0.590640 0.476890 
#    y -0.590640 2.013100 0.900330 
#    z 0.476890 0.900330 4.534350 
# 
# 
# High freq. dielectric constant tensor:
#      x y z
#    x 1.895550 0.000790 0.011860 
#    y 0.000790 1.902900 0.001660 
#    z 0.011860 0.001660 1.886360 
# 
# From -- ./inp_files/549237.got.cif
#   From: 2010.06.25/outbox.cif.g09.slc.cpg/sg2_275_cif.got.tgz:549237.got - 2010.06.27 13:26:56.
