data_PCOD8015490
_publ_section_title
;
Structure prediction by ZEFSAII (Michael W. Deem and Ramdas Pophale) SiO2 
 PCOD8015490
Probable space group: P -1
;
_chemical_formula_sum "Si O2"
_cell_formula_units_Z 16
_cell_length_a 18.870502
_cell_length_b 8.068155
_cell_length_c 11.562384
_cell_angle_alpha 105.647471
_cell_angle_beta 38.547636
_cell_angle_gamma 132.941109
_cell_volume 656.078375
_symmetry_space_group_name_H-M "P -1"
_symmetry_group_IT_number 2
_symmetry_cell_setting 'triclinic'
loop_
_space_group_symop_operation_xyz
x,y,z
-x,-y,-z
loop_
_atom_site_type_symbol
_atom_site_label
_atom_site_fract_x
_atom_site_fract_y
_atom_site_fract_z
Si Si1 0.132377 0.711690 0.026598
Si Si2 0.259960 0.807754 0.638907
Si Si3 0.274944 0.444532 0.568035
Si Si4 0.582113 0.430903 0.823131
Si Si5 0.900190 0.660717 0.612112
Si Si6 0.901211 0.922029 0.864476
Si Si7 0.767983 0.189091 0.837060
Si Si8 0.414874 0.573898 0.662654
O O1 0.209828 0.711785 0.041974
O O2 0.944283 0.383583 0.178144
O O3 0.126653 0.909641 0.093663
O O4 0.273640 0.847662 0.767661
O O5 0.276095 0.633055 0.542547
O O6 0.422101 0.114294 0.434212
O O7 0.405543 0.503825 0.318584
O O8 0.330591 0.547096 0.647422
O O9 0.078236 0.117381 0.758505
O O10 0.779535 0.598785 0.650148
O O11 0.500000 0.500000 0.000000
O O12 0.439495 0.111862 0.971824
O O13 0.938698 0.864994 0.687394
O O14 0.795036 0.376929 0.750415
O O15 0.093756 0.809895 0.353002
O O16 0.731546 0.630415 0.089145
O O17 0.500000 0.500000 0.500000
#
# Coordination Sequence:
#
# PCOD8015490 Si02
#       8
#     2   2   2   2   2   2   2   2
#     4  10  21  42  69  98 136 184 227 282 348 414
#     4  10  22  41  66  98 135 183 228 279 345 417
#     4  11  26  44  68  98 134 184 227 278 351 419
#     4  12  26  46  75 102 139 185 242 287 348 421
#     4  11  26  46  69 106 140 184 233 298 350 409
#     4  11  24  44  68  98 141 179 226 289 347 414
#     4  11  25  46  72 102 142 185 236 291 352 415
#     4  12  25  41  65 103 138 173 227 287 342 415
#
# _framework density 24.387332000000001
#
# number of rings (size 3 to 8) (size 9 to 14) (size 15 to 20)
#    0.000    1.000    1.250    4.875    5.250    2.500 
#    4.500    0.000    0.000    0.000    0.000    0.000 
#    0.000    0.000    0.000    0.000    0.000    0.000 
#
# Total GULP energy -198312.861220 kJ/mol
# GULP energy per Si atom -12394.553826 kJ/mol
# Density = 2.433182 g / cm^3
# Si number density = 24.387332 Si / 1000 Ang^3
#
#
#
# Elastic Constant Matrix: (Units=GPa)
#
#
# Indices 1 2 3 4 5 6 
#
# 1 64.3000 12.1395 3.6239 -5.9710 1.4872 5.1071
# 2 12.1395 114.7060 38.3120 -19.8865 3.0839 11.9804
# 3 3.6239 38.3120 86.4887 -30.2011 5.2431 -4.2447
# 4 -5.9710 -19.8865 -30.2011 56.3658 0.6137 0.9622
# 5 1.4872 3.0839 5.2431 0.6137 34.2801 2.2824
# 6 5.1071 11.9804 -4.2447 0.9622 2.2824 26.8800
#
#
#
# Elastic Compliance Matrix: (Units=1/GPa)
#
#
# Indices 1 2 3 4 5 6 
#
# 1 0.016120 -0.001288 0.000319 0.001471 -0.000496 -0.002449
# 2 -0.001288 0.011254 -0.004724 0.001397 0.000112 -0.005576
# 3 0.000319 -0.004724 0.016527 0.007171 -0.002552 0.004615
# 4 0.001471 0.001397 0.007171 0.022258 -0.001656 -0.000426
# 5 -0.000496 0.000112 -0.002552 -0.001656 0.029791 -0.002829
# 6 -0.002449 -0.005576 0.004615 -0.000426 -0.002829 0.041137
#
#
# Mechanical properties :
#
#
# Convention : Reuss Voigt Hill
#
# Bulk Modulus (GPa) = 30.75631 41.51617 36.13624
# Shear Modulus (GPa) = 31.38520 37.59979 34.49250
#
# Velocity S-wave (km/s) = 3.59130 3.93080 3.76488
# Velocity P-wave (km/s) = 5.46219 6.13696 5.80938
#
# Compressibility (1/GPa) = 0.03251366
#
# Stress axis : x y z
#
# Youngs Moduli (GPa) = 62.03502 88.86027 60.50821
#
# Poissons Ratio (x) = 0.11449 -0.01929
# Poissons Ratio (y) = 0.07992 0.28583
# Poissons Ratio (z) = -0.01978 0.41975
#
# Static dielectric constant tensor:
#      x y z
#    x 3.994350 -0.099110 0.064110 
#    y -0.099110 4.460420 -0.006590 
#    z 0.064110 -0.006590 4.501440 
# 
# 
# High freq. dielectric constant tensor:
#      x y z
#    x 1.947000 0.005410 0.002840 
#    y 0.005410 1.987240 -0.001790 
#    z 0.002840 -0.001790 1.985670 
# 
# From -- ./inp_files/470052.got.cif
#   From: 2010.06.25/outbox.cif.g09.slc.cpg/sg2_236_cif.got.tgz:470052.got - 2010.06.27 13:26:56.
