data_PCOD8015592
_publ_section_title
;
Structure prediction by ZEFSAII (Michael W. Deem and Ramdas Pophale) SiO2 
 PCOD8015592
Probable space group: P -1
;
_chemical_formula_sum "Si O2"
_cell_formula_units_Z 16
_cell_length_a 8.448184
_cell_length_b 14.750172
_cell_length_c 11.101867
_cell_angle_alpha 40.874423
_cell_angle_beta 113.776005
_cell_angle_gamma 130.932495
_cell_volume 671.942875
_symmetry_space_group_name_H-M "P -1"
_symmetry_group_IT_number 2
_symmetry_cell_setting 'triclinic'
loop_
_space_group_symop_operation_xyz
x,y,z
-x,-y,-z
loop_
_atom_site_type_symbol
_atom_site_label
_atom_site_fract_x
_atom_site_fract_y
_atom_site_fract_z
Si Si1 0.007982 0.125360 0.633326
Si Si2 0.350947 0.822885 0.568381
Si Si3 0.268759 0.533184 0.466431
Si Si4 0.518431 0.108352 0.719224
Si Si5 0.368638 0.462605 0.323855
Si Si6 0.027057 0.834890 0.896709
Si Si7 0.814691 0.500157 0.004232
Si Si8 0.057017 0.807396 0.207797
O O1 0.868034 0.195679 0.494447
O O2 0.036847 0.126741 0.787467
O O3 0.233901 0.256920 0.504594
O O4 0.930638 0.943954 0.733561
O O5 0.468081 0.831825 0.473327
O O6 0.500000 0.000000 0.500000
O O7 0.321763 0.667061 0.788066
O O8 0.374853 0.729233 0.324597
O O9 0.279888 0.528339 0.329820
O O10 0.389676 0.464450 0.643880
O O11 0.024557 0.386803 0.580365
O O12 0.684605 0.058302 0.836850
O O13 0.282075 0.950074 0.839517
O O14 0.344589 0.513172 0.131851
O O15 0.911624 0.670384 0.941953
O O16 0.975683 0.786575 0.068787
O O17 0.000000 0.500000 0.000000
#
# Coordination Sequence:
#
# PCOD8015592 Si02
#       8
#     2   2   2   2   2   2   2   2
#     4  10  22  45  68  98 142 185 227 287 347 413
#     4  11  25  47  68  99 141 185 227 286 354 413
#     4  10  21  42  71  99 138 181 232 291 349 404
#     4  11  23  41  68 102 140 183 236 285 353 414
#     4  10  22  42  70 103 138 184 231 287 346 411
#     4  12  25  43  71 105 142 184 233 289 348 419
#     4  12  26  44  70 104 142 183 235 284 347 423
#     4  10  23  41  67 104 140 181 236 294 343 409
#
# _framework density 23.811547999999998
#
# number of rings (size 3 to 8) (size 9 to 14) (size 15 to 20)
#    0.000    1.250    2.500    2.625    1.750    2.500 
#    4.500    1.875    0.000    0.000    0.000    0.000 
#    0.000    0.000    0.000    0.000    0.000    0.000 
#
# Total GULP energy -198259.537980 kJ/mol
# GULP energy per Si atom -12391.221124 kJ/mol
# Density = 2.375735 g / cm^3
# Si number density = 23.811548 Si / 1000 Ang^3
#
#
#
# Elastic Constant Matrix: (Units=GPa)
#
#
# Indices 1 2 3 4 5 6 
#
# 1 49.9106 21.2565 32.0870 -3.6498 -4.0960 -7.1420
# 2 21.2565 152.5341 65.4862 -8.1585 1.4693 -24.4280
# 3 32.0870 65.4862 116.7955 0.4168 -7.9012 -22.3614
# 4 -3.6498 -8.1585 0.4168 51.4731 -2.6461 3.3104
# 5 -4.0960 1.4693 -7.9012 -2.6461 30.1691 -5.3081
# 6 -7.1420 -24.4280 -22.3614 3.3104 -5.3081 39.6320
#
#
#
# Elastic Compliance Matrix: (Units=1/GPa)
#
#
# Indices 1 2 3 4 5 6 
#
# 1 0.024656 -0.000598 -0.006169 0.001762 0.002042 0.000721
# 2 -0.000598 0.009073 -0.004485 0.001201 -0.001116 0.002704
# 3 -0.006169 -0.004485 0.013904 -0.001365 0.003708 0.004580
# 4 0.001762 0.001201 -0.001365 0.019900 0.001359 -0.001193
# 5 0.002042 -0.001116 0.003708 0.001359 0.035702 0.006440
# 6 0.000721 0.002704 0.004580 -0.001193 0.006440 0.030575
#
#
# Mechanical properties :
#
#
# Convention : Reuss Voigt Hill
#
# Bulk Modulus (GPa) = 39.79321 61.87770 50.83546
# Shear Modulus (GPa) = 30.36038 37.61554 33.98796
#
# Velocity S-wave (km/s) = 3.57463 3.97888 3.78216
# Velocity P-wave (km/s) = 5.81251 6.86669 6.36148
#
# Compressibility (1/GPa) = 0.02512992
#
# Stress axis : x y z
#
# Youngs Moduli (GPa) = 40.55853 110.22091 71.92236
#
# Poissons Ratio (x) = 0.06586 0.44367
# Poissons Ratio (y) = 0.02424 0.32256
# Poissons Ratio (z) = 0.25019 0.49433
#
# Static dielectric constant tensor:
#      x y z
#    x 4.660740 0.307580 -0.032090 
#    y 0.307580 4.865680 0.189170 
#    z -0.032090 0.189170 4.265720 
# 
# 
# High freq. dielectric constant tensor:
#      x y z
#    x 1.944580 -0.006890 -0.013230 
#    y -0.006890 1.953300 -0.003660 
#    z -0.013230 -0.003660 1.937210 
# 
# From -- ./inp_files/398440.got.cif
#   From: 2010.06.25/outbox.cif.g09.slc.cpg/sg2_200_cif.got.tgz:398440.got - 2010.06.27 13:26:56.
