data_PCOD8015080
_publ_section_title
;
Structure prediction by ZEFSAII (Michael W. Deem and Ramdas Pophale) SiO2 
 PCOD8015080
Probable space group: P -1
;
_chemical_formula_sum "Si O2"
_cell_formula_units_Z 16
_cell_length_a 16.643337
_cell_length_b 10.645379
_cell_length_c 13.583428
_cell_angle_alpha 55.988330
_cell_angle_beta 23.180427
_cell_angle_gamma 52.541376
_cell_volume 751.975607
_symmetry_space_group_name_H-M "P -1"
_symmetry_group_IT_number 2
_symmetry_cell_setting 'triclinic'
loop_
_space_group_symop_operation_xyz
x,y,z
-x,-y,-z
loop_
_atom_site_type_symbol
_atom_site_label
_atom_site_fract_x
_atom_site_fract_y
_atom_site_fract_z
Si Si1 0.048631 0.771702 0.442987
Si Si2 0.302788 0.483023 0.393684
Si Si3 0.530654 0.413624 0.653961
Si Si4 0.252520 0.753050 0.029780
Si Si5 0.926012 0.345303 0.129133
Si Si6 0.170150 0.048825 0.107997
Si Si7 0.082500 0.642944 0.080467
Si Si8 0.616413 0.855345 0.997495
O O1 0.244439 0.656595 0.334071
O O2 0.831628 0.758038 0.741301
O O3 0.052545 0.956011 0.356666
O O4 0.083979 0.712830 0.314428
O O5 0.349524 0.491295 0.453054
O O6 0.517749 0.369885 0.154014
O O7 0.104944 0.411298 0.633326
O O8 0.667066 0.387840 0.410809
O O9 0.279739 0.496900 0.885913
O O10 0.543661 0.249913 0.765768
O O11 0.165660 0.749716 0.017966
O O12 0.272008 0.929198 0.955437
O O13 0.018135 0.211231 0.165711
O O14 0.996430 0.272029 0.972780
O O15 0.000000 0.500000 0.000000
O O16 0.347498 0.092874 0.954767
O O17 0.500000 0.000000 0.000000
#
# Coordination Sequence:
#
# PCOD8015080 Si02
#       8
#     2   2   2   2   2   2   2   2
#     4  10  21  42  65  95 139 169 214 269 327 389
#     4  11  20  43  66  95 134 172 221 269 322 393
#     4  11  23  40  66 104 122 164 228 271 335 386
#     4   9  25  41  64  98 135 176 221 260 325 397
#     4  12  23  44  73  91 131 175 218 285 328 377
#     4  10  24  43  62 102 134 173 218 267 330 392
#     4  11  23  42  68  94 129 177 226 268 320 389
#     4  12  22  38  68 102 136 170 210 277 337 394
#
# _framework density 21.277284999999999
#
# number of rings (size 3 to 8) (size 9 to 14) (size 15 to 20)
#    0.750    0.500    2.500    4.125    0.000    2.000 
#    0.000    0.625    0.000    0.000    0.000    0.000 
#    0.000    0.000    0.000    0.000    0.000    0.000 
#
# Total GULP energy -198246.436057 kJ/mol
# GULP energy per Si atom -12390.402254 kJ/mol
# Density = 2.122886 g / cm^3
# Si number density = 21.277285 Si / 1000 Ang^3
#
#
#
# Elastic Constant Matrix: (Units=GPa)
#
#
# Indices 1 2 3 4 5 6 
#
# 1 116.4441 27.8994 34.1836 10.1023 4.2086 7.9783
# 2 27.8994 93.8582 48.2479 2.9224 0.3654 -0.8753
# 3 34.1836 48.2479 105.0786 -3.6429 0.6911 7.9026
# 4 10.1023 2.9224 -3.6429 16.0796 -5.2354 5.9391
# 5 4.2086 0.3654 0.6911 -5.2354 30.1091 4.1736
# 6 7.9783 -0.8753 7.9026 5.9391 4.1736 28.4702
#
#
#
# Elastic Compliance Matrix: (Units=1/GPa)
#
#
# Indices 1 2 3 4 5 6 
#
# 1 0.010612 -0.001295 -0.003112 -0.008017 -0.002780 -0.000070
# 2 -0.001295 0.014762 -0.006835 -0.005335 -0.001326 0.004021
# 3 -0.003112 -0.006835 0.014404 0.009410 0.002611 -0.005682
# 4 -0.008017 -0.005335 0.009410 0.084004 0.018454 -0.020759
# 5 -0.002780 -0.001326 0.002611 0.018454 0.038071 -0.009417
# 6 -0.000070 0.004021 -0.005682 -0.020759 -0.009417 0.042556
#
#
# Mechanical properties :
#
#
# Convention : Reuss Voigt Hill
#
# Bulk Modulus (GPa) = 57.82622 59.56030 58.69326
# Shear Modulus (GPa) = 21.49060 28.60177 25.04619
#
# Velocity S-wave (km/s) = 3.18154 3.67037 3.43466
# Velocity P-wave (km/s) = 6.38222 6.78346 6.58589
#
# Compressibility (1/GPa) = 0.01729319
#
# Stress axis : x y z
#
# Youngs Moduli (GPa) = 94.22871 67.74214 69.42481
#
# Poissons Ratio (x) = 0.08772 0.21606
# Poissons Ratio (y) = 0.12202 0.47455
# Poissons Ratio (z) = 0.29326 0.46305
#
# Static dielectric constant tensor:
#      x y z
#    x 3.753650 -0.032850 0.113500 
#    y -0.032850 3.738050 0.151330 
#    z 0.113500 0.151330 3.888990 
# 
# 
# High freq. dielectric constant tensor:
#      x y z
#    x 1.838480 -0.006630 0.005670 
#    y -0.006630 1.822240 0.005900 
#    z 0.005670 0.005900 1.828460 
# 
# From -- ./inp_files/538203.got.cif
#   From: 2010.06.25/outbox.cif.g09.slc.cpg/sg2_270_cif.got.tgz:538203.got - 2010.06.27 13:26:56.
