data_PCOD8015788
_publ_section_title
;
Structure prediction by ZEFSAII (Michael W. Deem and Ramdas Pophale) SiO2 
 PCOD8015788
Probable space group: P -1
;
_chemical_formula_sum "Si O2"
_cell_formula_units_Z 16
_cell_length_a 19.413177
_cell_length_b 9.427980
_cell_length_c 19.809855
_cell_angle_alpha 36.053815
_cell_angle_beta 20.812302
_cell_angle_gamma 45.808075
_cell_volume 727.765628
_symmetry_space_group_name_H-M "P -1"
_symmetry_group_IT_number 2
_symmetry_cell_setting 'triclinic'
loop_
_space_group_symop_operation_xyz
x,y,z
-x,-y,-z
loop_
_atom_site_type_symbol
_atom_site_label
_atom_site_fract_x
_atom_site_fract_y
_atom_site_fract_z
Si Si1 0.575969 0.685873 0.920491
Si Si2 0.698759 0.432034 0.656798
Si Si3 0.132812 0.224023 0.835365
Si Si4 0.304050 0.988182 0.005415
Si Si5 0.492238 0.506571 0.683932
Si Si6 0.953512 0.088401 0.605107
Si Si7 0.912322 0.166606 0.869657
Si Si8 0.877290 0.503838 0.896576
O O1 0.816922 0.756940 0.678023
O O2 0.500000 0.500000 0.000000
O O3 0.478925 0.577381 0.123135
O O4 0.499030 0.925351 0.881724
O O5 0.616713 0.404621 0.666310
O O6 0.805096 0.207261 0.651848
O O7 0.861241 0.704451 0.413759
O O8 0.363550 0.283613 0.576085
O O9 0.052905 0.467522 0.800704
O O10 0.110909 0.117541 0.972690
O O11 0.000000 0.000000 0.000000
O O12 0.249671 0.864225 0.029835
O O13 0.368470 0.288887 0.830788
O O14 0.103316 0.886255 0.274445
O O15 0.332503 0.619269 0.825290
O O16 0.912771 0.797197 0.733786
O O17 0.862838 0.350652 0.899762
#
# Coordination Sequence:
#
# PCOD8015788 Si02
#       8
#     2   2   2   2   2   2   2   2
#     4  11  23  38  64  93 129 168 210 253 313 376
#     4  11  24  40  65  94 126 168 211 255 308 371
#     4  10  21  43  65  94 127 159 209 268 306 362
#     4  10  24  43  59  93 134 159 203 266 314 364
#     4  11  23  43  64  95 125 164 213 257 308 373
#     4  10  23  44  64  90 131 165 207 258 308 374
#     4  11  23  44  65  91 130 165 204 265 317 360
#     4  10  23  41  67  94 120 166 214 255 308 373
#
# _framework density 21.985098000000001
#
# number of rings (size 3 to 8) (size 9 to 14) (size 15 to 20)
#    0.000    1.500    2.500    2.250    3.500    9.500 
#    0.000    2.500    0.000    0.000    0.000    0.000 
#    0.000    0.000    0.000    0.000    0.000    0.000 
#
# Total GULP energy -198351.502797 kJ/mol
# GULP energy per Si atom -12396.968925 kJ/mol
# Density = 2.193506 g / cm^3
# Si number density = 21.985098 Si / 1000 Ang^3
#
#
#
# Elastic Constant Matrix: (Units=GPa)
#
#
# Indices 1 2 3 4 5 6 
#
# 1 81.0696 26.3285 22.6188 -8.6154 6.2379 2.2449
# 2 26.3285 77.3680 32.8647 5.6914 6.7776 5.9585
# 3 22.6188 32.8647 154.7768 13.3068 12.8963 -3.6938
# 4 -8.6154 5.6914 13.3068 29.1674 -5.2447 -5.1228
# 5 6.2379 6.7776 12.8963 -5.2447 31.7410 -6.5585
# 6 2.2449 5.9585 -3.6938 -5.1228 -6.5585 22.3772
#
#
#
# Elastic Compliance Matrix: (Units=1/GPa)
#
#
# Indices 1 2 3 4 5 6 
#
# 1 0.015059 -0.004962 -0.001673 0.006363 0.000038 0.001002
# 2 -0.004962 0.016847 -0.002185 -0.005695 -0.004091 -0.006852
# 3 -0.001673 -0.002185 0.007779 -0.004120 -0.003002 0.000211
# 4 0.006363 -0.005695 -0.004120 0.043642 0.011662 0.013607
# 5 0.000038 -0.004091 -0.003002 0.011662 0.038524 0.014551
# 6 0.001002 -0.006852 0.000211 0.013607 0.014551 0.053827
#
#
# Mechanical properties :
#
#
# Convention : Reuss Voigt Hill
#
# Bulk Modulus (GPa) = 45.36510 52.98203 49.17357
# Shear Modulus (GPa) = 24.91686 32.08396 28.50041
#
# Velocity S-wave (km/s) = 3.37018 3.82429 3.60439
# Velocity P-wave (km/s) = 5.98527 6.60694 6.30377
#
# Compressibility (1/GPa) = 0.02204337
#
# Stress axis : x y z
#
# Youngs Moduli (GPa) = 66.40531 59.35713 128.55502
#
# Poissons Ratio (x) = 0.29456 0.21511
# Poissons Ratio (y) = 0.32953 0.28090
# Poissons Ratio (z) = 0.11112 0.12970
#
# Static dielectric constant tensor:
#      x y z
#    x 4.467380 -0.531190 0.359510 
#    y -0.531190 4.205410 0.044410 
#    z 0.359510 0.044410 4.356900 
# 
# 
# High freq. dielectric constant tensor:
#      x y z
#    x 1.855740 -0.005260 0.005820 
#    y -0.005260 1.855100 0.008660 
#    z 0.005820 0.008660 1.878130 
# 
# From -- ./inp_files/601107.got.cif
#   From: 2010.06.25/outbox.cif.g09.slc.cpg/sg2_301_cif.got.tgz:601107.got - 2010.06.27 13:26:56.
