data_PCOD8015885
_publ_section_title
;
Structure prediction by ZEFSAII (Michael W. Deem and Ramdas Pophale) SiO2 
 PCOD8015885
Probable space group: P -1
;
_chemical_formula_sum "Si O2"
_cell_formula_units_Z 16
_cell_length_a 11.687336
_cell_length_b 8.989189
_cell_length_c 15.811188
_cell_angle_alpha 71.263362
_cell_angle_beta 26.935920
_cell_angle_gamma 70.275651
_cell_volume 707.520192
_symmetry_space_group_name_H-M "P -1"
_symmetry_group_IT_number 2
_symmetry_cell_setting 'triclinic'
loop_
_space_group_symop_operation_xyz
x,y,z
-x,-y,-z
loop_
_atom_site_type_symbol
_atom_site_label
_atom_site_fract_x
_atom_site_fract_y
_atom_site_fract_z
Si Si1 0.636534 0.766594 0.482980
Si Si2 0.389512 0.913930 0.461812
Si Si3 0.850653 0.207862 0.922356
Si Si4 0.544753 0.709259 0.149048
Si Si5 0.710901 0.373169 0.147185
Si Si6 0.840403 0.875025 0.044551
Si Si7 0.440077 0.320332 0.053892
Si Si8 0.058901 0.831788 0.539949
O O1 0.426162 0.803585 0.541033
O O2 0.539658 0.634561 0.629935
O O3 0.908245 0.700047 0.275787
O O4 0.685840 0.910730 0.485555
O O5 0.659469 0.903104 0.239338
O O6 0.171911 0.861454 0.553437
O O7 0.674316 0.303689 0.090959
O O8 0.668676 0.199512 0.963558
O O9 0.965657 0.035570 0.914605
O O10 0.725752 0.558175 0.094225
O O11 0.674219 0.855570 0.073954
O O12 0.257760 0.720179 0.371641
O O13 0.550924 0.712239 0.044733
O O14 0.954551 0.275642 0.047587
O O15 0.179358 0.268979 0.273989
O O16 0.500000 0.500000 0.000000
O O17 0.000000 0.000000 0.500000
#
# Coordination Sequence:
#
# PCOD8015885 Si02
#       8
#     2   2   2   2   2   2   2   2
#     4  11  24  38  72 104 137 188 228 293 357 415
#     4  10  21  43  67 109 138 177 241 292 350 417
#     4  12  25  44  71 103 144 183 244 291 344 437
#     4  11  28  46  72 103 143 189 234 296 371 419
#     4  12  24  44  69 104 145 187 228 295 364 426
#     4  11  22  45  69 103 145 181 236 300 350 424
#     4  12  28  48  73 104 146 195 243 293 359 438
#     4  11  28  49  74 106 147 190 242 303 352 431
#
# _framework density 22.614196
#
# number of rings (size 3 to 8) (size 9 to 14) (size 15 to 20)
#    0.000    0.750    3.750    3.750    7.000    1.500 
#    0.000    1.250    0.000    0.000    0.000    0.000 
#    0.000    0.000    0.000    0.000    0.000    0.000 
#
# Total GULP energy -198341.680045 kJ/mol
# GULP energy per Si atom -12396.355003 kJ/mol
# Density = 2.256273 g / cm^3
# Si number density = 22.614196 Si / 1000 Ang^3
#
#
#
# Elastic Constant Matrix: (Units=GPa)
#
#
# Indices 1 2 3 4 5 6 
#
# 1 95.7409 24.3728 53.5604 -2.0778 3.6557 5.0936
# 2 24.3728 85.2798 34.0341 -1.9135 3.1943 -9.8890
# 3 53.5604 34.0341 124.5281 -12.6677 6.3485 -2.6367
# 4 -2.0778 -1.9135 -12.6677 29.8545 2.9621 -6.2249
# 5 3.6557 3.1943 6.3485 2.9621 40.2525 6.6247
# 6 5.0936 -9.8890 -2.6367 -6.2249 6.6247 31.8970
#
#
#
# Elastic Compliance Matrix: (Units=1/GPa)
#
#
# Indices 1 2 3 4 5 6 
#
# 1 0.014539 -0.002329 -0.006009 -0.002632 0.000697 -0.004199
# 2 -0.002329 0.014069 -0.002585 0.000814 -0.001374 0.004964
# 3 -0.006009 -0.002585 0.012009 0.005243 -0.001954 0.002580
# 4 -0.002632 0.000814 0.005243 0.038087 -0.005033 0.009584
# 5 0.000697 -0.001374 -0.001954 -0.005033 0.026759 -0.007238
# 6 -0.004199 0.004964 0.002580 0.009584 -0.007238 0.037148
#
#
# Mechanical properties :
#
#
# Convention : Reuss Voigt Hill
#
# Bulk Modulus (GPa) = 53.27622 58.83148 56.05385
# Shear Modulus (GPa) = 29.28875 33.30623 31.29749
#
# Velocity S-wave (km/s) = 3.60272 3.84187 3.72422
# Velocity P-wave (km/s) = 6.39656 6.76400 6.58285
#
# Compressibility (1/GPa) = 0.01877010
#
# Stress axis : x y z
#
# Youngs Moduli (GPa) = 68.78038 71.07854 83.27112
#
# Poissons Ratio (x) = 0.16556 0.50037
# Poissons Ratio (y) = 0.16020 0.21528
# Poissons Ratio (z) = 0.41329 0.18376
#
# Static dielectric constant tensor:
#      x y z
#    x 4.232780 -0.033970 0.151410 
#    y -0.033970 3.919970 0.019650 
#    z 0.151410 0.019650 4.274520 
# 
# 
# High freq. dielectric constant tensor:
#      x y z
#    x 1.907670 -0.003580 0.009940 
#    y -0.003580 1.876830 0.002420 
#    z 0.009940 0.002420 1.902290 
# 
# From -- ./inp_files/515276.got.cif
#   From: 2010.06.25/outbox.cif.g09.slc.cpg/sg2_258_cif.got.tgz:515276.got - 2010.06.27 13:26:56.
