data_PCOD8015837
_publ_section_title
;
Structure prediction by ZEFSAII (Michael W. Deem and Ramdas Pophale) SiO2 
 PCOD8015837
Probable space group: P -1
;
_chemical_formula_sum "Si O2"
_cell_formula_units_Z 16
_cell_length_a 11.890322
_cell_length_b 12.299302
_cell_length_c 14.767004
_cell_angle_alpha 27.793068
_cell_angle_beta 46.616398
_cell_angle_gamma 55.551383
_cell_volume 726.195751
_symmetry_space_group_name_H-M "P -1"
_symmetry_group_IT_number 2
_symmetry_cell_setting 'triclinic'
loop_
_space_group_symop_operation_xyz
x,y,z
-x,-y,-z
loop_
_atom_site_type_symbol
_atom_site_label
_atom_site_fract_x
_atom_site_fract_y
_atom_site_fract_z
Si Si1 0.701908 0.858014 0.248501
Si Si2 0.588535 0.067304 0.572203
Si Si3 0.847885 0.293476 0.962570
Si Si4 0.178664 0.473104 0.915760
Si Si5 0.632267 0.685767 0.591099
Si Si6 0.037991 0.345601 0.507870
Si Si7 0.355986 0.410576 0.039016
Si Si8 0.117817 0.150185 0.025546
O O1 0.524946 0.922358 0.284461
O O2 0.686038 0.636749 0.492554
O O3 0.809309 0.076807 0.075240
O O4 0.773417 0.792142 0.164120
O O5 0.730365 0.273273 0.343953
O O6 0.477608 0.101235 0.519442
O O7 0.652802 0.816895 0.723296
O O8 0.958371 0.497852 0.699212
O O9 0.690138 0.381934 0.023554
O O10 0.947720 0.225539 0.043353
O O11 0.234218 0.363848 0.058588
O O12 0.204931 0.291437 0.955551
O O13 0.000000 0.500000 0.000000
O O14 0.792287 0.751545 0.508218
O O15 0.529906 0.471195 0.856464
O O16 0.000000 0.500000 0.500000
O O17 0.904195 0.125958 0.734624
#
# Coordination Sequence:
#
# PCOD8015837 Si02
#       8
#     2   2   2   2   2   2   2   2
#     4  10  21  43  66  93 130 170 212 268 331 385
#     4   9  23  44  67  92 132 175 215 275 318 385
#     4  12  24  39  68 103 130 174 213 271 331 394
#     4  11  25  46  67  93 131 178 224 269 323 384
#     4   9  22  42  64  96 138 167 211 269 330 390
#     4  12  24  39  68 102 134 170 214 265 335 396
#     4  11  24  44  68  98 131 174 225 263 329 388
#     4  12  24  44  66  95 138 172 215 275 324 382
#
# _framework density 22.032626
#
# number of rings (size 3 to 8) (size 9 to 14) (size 15 to 20)
#    0.750    0.500    3.750    1.875    1.750    4.500 
#    0.000    0.625    0.000    0.000    0.000    0.000 
#    0.000    0.000    0.000    0.000    0.000    0.000 
#
# Total GULP energy -198222.213368 kJ/mol
# GULP energy per Si atom -12388.888336 kJ/mol
# Density = 2.198248 g / cm^3
# Si number density = 22.032626 Si / 1000 Ang^3
#
#
#
# Elastic Constant Matrix: (Units=GPa)
#
#
# Indices 1 2 3 4 5 6 
#
# 1 72.1467 16.2312 8.3884 -8.1954 4.2078 -4.0875
# 2 16.2312 84.7849 28.3929 -2.9512 -5.4734 10.8475
# 3 8.3884 28.3929 116.0475 1.8231 9.5806 -5.2052
# 4 -8.1954 -2.9512 1.8231 29.7692 -8.3340 -0.0075
# 5 4.2078 -5.4734 9.5806 -8.3340 28.8837 6.0636
# 6 -4.0875 10.8475 -5.2052 -0.0075 6.0636 33.2265
#
#
#
# Elastic Compliance Matrix: (Units=1/GPa)
#
#
# Indices 1 2 3 4 5 6 
#
# 1 0.015352 -0.003493 0.000085 0.003098 -0.002778 0.003550
# 2 -0.003493 0.015530 -0.004542 0.002923 0.007389 -0.007559
# 3 0.000085 -0.004542 0.010452 -0.002752 -0.006022 0.004229
# 4 0.003098 0.002923 -0.002752 0.038492 0.012822 -0.003335
# 5 -0.002778 0.007389 -0.006022 0.012822 0.044608 -0.011835
# 6 0.003550 -0.007559 0.004229 -0.003335 -0.011835 0.035823
#
#
# Mechanical properties :
#
#
# Convention : Reuss Voigt Hill
#
# Bulk Modulus (GPa) = 39.31809 42.11155 40.71482
# Shear Modulus (GPa) = 27.08048 33.04033 30.06041
#
# Velocity S-wave (km/s) = 3.50967 3.87668 3.69773
# Velocity P-wave (km/s) = 5.85729 6.26043 6.06221
#
# Compressibility (1/GPa) = 0.02543359
#
# Stress axis : x y z
#
# Youngs Moduli (GPa) = 65.13957 64.39071 95.67148
#
# Poissons Ratio (x) = 0.22491 -0.00811
# Poissons Ratio (y) = 0.22753 0.43456
# Poissons Ratio (z) = -0.00552 0.29247
#
# Static dielectric constant tensor:
#      x y z
#    x 4.009710 -0.143820 0.107540 
#    y -0.143820 3.883290 0.229060 
#    z 0.107540 0.229060 4.163800 
# 
# 
# High freq. dielectric constant tensor:
#      x y z
#    x 1.848810 -0.017220 0.010450 
#    y -0.017220 1.854830 0.023680 
#    z 0.010450 0.023680 1.876890 
# 
# From -- ./inp_files/518552.got.cif
#   From: 2010.06.25/outbox.cif.g09.slc.cpg/sg2_260_cif.got.tgz:518552.got - 2010.06.27 13:26:56.
