data_PCOD8015135
_publ_section_title
;
Structure prediction by ZEFSAII (Michael W. Deem and Ramdas Pophale) SiO2 
 PCOD8015135
Probable space group: P -1
;
_chemical_formula_sum "Si O2"
_cell_formula_units_Z 16
_cell_length_a 9.866469
_cell_length_b 9.051536
_cell_length_c 14.752774
_cell_angle_alpha 71.371572
_cell_angle_beta 94.987343
_cell_angle_gamma 44.551899
_cell_volume 771.631394
_symmetry_space_group_name_H-M "P -1"
_symmetry_group_IT_number 2
_symmetry_cell_setting 'triclinic'
loop_
_space_group_symop_operation_xyz
x,y,z
-x,-y,-z
loop_
_atom_site_type_symbol
_atom_site_label
_atom_site_fract_x
_atom_site_fract_y
_atom_site_fract_z
Si Si1 0.295436 0.382501 0.076173
Si Si2 0.107439 0.869342 0.936494
Si Si3 0.904432 0.922400 0.744168
Si Si4 0.566977 0.556406 0.416348
Si Si5 0.222138 0.085825 0.808526
Si Si6 0.163962 0.869516 0.615676
Si Si7 0.915152 0.567977 0.118583
Si Si8 0.996121 0.326976 0.566331
O O1 0.113578 0.504738 0.116096
O O2 0.535087 0.125952 0.180109
O O3 0.292710 0.570004 0.018098
O O4 0.244999 0.325697 0.994990
O O5 0.925039 0.963098 0.840180
O O6 0.207453 0.934888 0.887933
O O7 0.000000 0.000000 0.000000
O O8 0.052440 0.900780 0.693394
O O9 0.990455 0.672215 0.784114
O O10 0.645026 0.145784 0.667806
O O11 0.500000 0.500000 0.500000
O O12 0.620774 0.417059 0.351032
O O13 0.764529 0.476848 0.485803
O O14 0.223585 0.222675 0.854042
O O15 0.027546 0.291384 0.684163
O O16 0.000000 0.000000 0.500000
O O17 0.189896 0.034601 0.598754
O O18 0.000000 0.500000 0.500000
#
# Coordination Sequence:
#
# PCOD8015135 Si02
#       8
#     2   2   2   2   2   2   2   2
#     4  10  23  43  64  92 127 170 213 259 327 390
#     4  11  22  44  65  97 134 165 221 275 315 395
#     4  11  23  43  66  94 129 176 218 263 327 388
#     4  11  22  44  70  91 125 181 225 257 326 402
#     4  12  23  43  66  91 132 170 208 272 339 368
#     4  10  21  42  66  89 130 172 222 267 312 397
#     4  10  24  41  64  94 128 162 217 266 311 400
#     4  11  26  43  63 102 135 161 221 279 320 390
#
# _framework density 20.735289000000002
#
# number of rings (size 3 to 8) (size 9 to 14) (size 15 to 20)
#    0.000    1.250    5.000    0.750    5.250    1.000 
#    6.750    1.250    0.000    0.000    0.000    0.000 
#    0.000    0.000    0.000    0.000    0.000    0.000 
#
# Total GULP energy -198265.447592 kJ/mol
# GULP energy per Si atom -12391.590474 kJ/mol
# Density = 2.068809 g / cm^3
# Si number density = 20.735289 Si / 1000 Ang^3
#
#
#
# Elastic Constant Matrix: (Units=GPa)
#
#
# Indices 1 2 3 4 5 6 
#
# 1 108.6047 55.5541 37.9007 -11.5811 -13.1327 17.4304
# 2 55.5541 104.2628 48.0303 2.0235 3.0869 3.7343
# 3 37.9007 48.0303 92.5012 -3.7809 -4.4142 1.4671
# 4 -11.5811 2.0235 -3.7809 38.6763 -1.3218 0.6509
# 5 -13.1327 3.0869 -4.4142 -1.3218 34.6873 -5.3901
# 6 17.4304 3.7343 1.4671 0.6509 -5.3901 35.1441
#
#
#
# Elastic Compliance Matrix: (Units=1/GPa)
#
#
# Indices 1 2 3 4 5 6 
#
# 1 0.016139 -0.007722 -0.002010 0.005344 0.005764 -0.006315
# 2 -0.007722 0.016579 -0.005873 -0.003953 -0.005046 0.001613
# 3 -0.002010 -0.005873 0.014802 0.001196 0.001888 0.001270
# 4 0.005344 -0.003953 0.001196 0.027929 0.003234 -0.002301
# 5 0.005764 -0.005046 0.001888 0.003234 0.032209 0.002479
# 6 -0.006315 0.001613 0.001270 -0.002301 0.002479 0.031785
#
#
# Mechanical properties :
#
#
# Convention : Reuss Voigt Hill
#
# Bulk Modulus (GPa) = 61.30296 65.37099 63.33697
# Shear Modulus (GPa) = 28.39464 32.62710 30.51087
#
# Velocity S-wave (km/s) = 3.70454 3.97105 3.84011
# Velocity P-wave (km/s) = 6.92292 7.25400 7.09039
#
# Compressibility (1/GPa) = 0.01631243
#
# Stress axis : x y z
#
# Youngs Moduli (GPa) = 61.96037 60.31610 67.55711
#
# Poissons Ratio (x) = 0.46575 0.13577
# Poissons Ratio (y) = 0.47845 0.39674
# Poissons Ratio (z) = 0.12452 0.35422
#
# Static dielectric constant tensor:
#      x y z
#    x 3.594940 0.283620 -0.119590 
#    y 0.283620 4.516940 0.223830 
#    z -0.119590 0.223830 4.164480 
# 
# 
# High freq. dielectric constant tensor:
#      x y z
#    x 1.804660 0.017720 -0.004550 
#    y 0.017720 1.818360 -0.000370 
#    z -0.004550 -0.000370 1.816540 
# 
# From -- ./inp_files/81192.got.cif
#   From: 2010.06.25/outbox.cif.g09.slc.cpg/sg2_41_cif.got.tgz:81192.got - 2010.06.27 13:26:56.
