data_PCOD8015953
_publ_section_title
;
Structure prediction by ZEFSAII (Michael W. Deem and Ramdas Pophale) SiO2 
 PCOD8015953
Probable space group: P -1
;
_chemical_formula_sum "Si O2"
_cell_formula_units_Z 14
_cell_length_a 14.822642
_cell_length_b 6.941201
_cell_length_c 16.199131
_cell_angle_alpha 125.249859
_cell_angle_beta 149.697764
_cell_angle_gamma 71.199807
_cell_volume 620.932038
_symmetry_space_group_name_H-M "P -1"
_symmetry_group_IT_number 2
_symmetry_cell_setting 'triclinic'
loop_
_space_group_symop_operation_xyz
x,y,z
-x,-y,-z
loop_
_atom_site_type_symbol
_atom_site_label
_atom_site_fract_x
_atom_site_fract_y
_atom_site_fract_z
Si Si1 0.822411 0.577943 0.895198
Si Si2 0.927881 0.829001 0.785151
Si Si3 0.101976 0.894323 0.621175
Si Si4 0.837399 0.603550 0.482649
Si Si5 0.551133 0.837979 0.568762
Si Si6 0.743893 0.313163 0.938161
Si Si7 0.439474 0.425700 0.027507
O O1 0.639384 0.444698 0.651116
O O2 0.743470 0.491232 0.904160
O O3 0.000000 0.500000 0.000000
O O4 0.899688 0.884184 0.022210
O O5 0.824319 0.709997 0.588057
O O6 0.757971 0.823531 0.710349
O O7 0.033962 0.661874 0.867746
O O8 0.096553 0.629229 0.515174
O O9 0.989225 0.839052 0.605591
O O10 0.320500 0.114767 0.864133
O O11 0.000000 0.000000 0.500000
O O12 0.624239 0.498496 0.249363
O O13 0.500000 0.000000 0.500000
O O14 0.587719 0.009080 0.723960
O O15 0.684741 0.418591 0.000448
O O16 0.500000 0.500000 0.000000
#
# Coordination Sequence:
#
# PCOD8015953 Si02
#       7
#     2   2   2   2   2   2   2
#     4  11  23  43  73  97 138 184 220 276 348 405
#     4  12  24  44  69 102 140 178 223 283 345 411
#     4  11  23  46  69  98 136 177 234 291 343 410
#     4  11  25  42  73  98 137 184 227 285 355 406
#     4  10  21  43  67  99 138 173 223 275 335 414
#     4  11  25  45  67 102 141 174 234 286 335 415
#     4  12  25  47  71  98 140 184 236 289 346 410
#
# _framework density 22.546751
#
# number of rings (size 3 to 8) (size 9 to 14) (size 15 to 20)
#    0.000    0.857    4.286    4.286    2.000    0.571 
#    5.143    0.000    0.000    0.000    0.000    0.000 
#    0.000    0.000    0.000    0.000    0.000    0.000 
#
# Total GULP energy -173635.310042 kJ/mol
# GULP energy per Si atom -12402.522146 kJ/mol
# Density = 2.249543 g / cm^3
# Si number density = 22.546751 Si / 1000 Ang^3
#
#
#
# Elastic Constant Matrix: (Units=GPa)
#
#
# Indices 1 2 3 4 5 6 
#
# 1 109.8740 31.4501 25.4466 9.8262 -5.9136 -6.5797
# 2 31.4501 87.1857 33.9613 4.1849 4.3611 5.6284
# 3 25.4466 33.9613 132.1066 13.9807 4.7589 14.1093
# 4 9.8262 4.1849 13.9807 45.1420 -2.8851 11.4523
# 5 -5.9136 4.3611 4.7589 -2.8851 42.0729 -1.0089
# 6 -6.5797 5.6284 14.1093 11.4523 -1.0089 25.4878
#
#
#
# Elastic Compliance Matrix: (Units=1/GPa)
#
#
# Indices 1 2 3 4 5 6 
#
# 1 0.011312 -0.003808 -0.001607 -0.003023 0.002105 0.006092
# 2 -0.003808 0.014097 -0.002597 0.001026 -0.001709 -0.003187
# 3 -0.001607 -0.002597 0.009191 -0.001207 -0.001185 -0.004434
# 4 -0.003023 0.001026 -0.001207 0.026224 0.001114 -0.012078
# 5 0.002105 -0.001709 -0.001185 0.001114 0.024501 0.002046
# 6 0.006092 -0.003187 -0.004434 -0.012078 0.002046 0.049473
#
#
# Mechanical properties :
#
#
# Convention : Reuss Voigt Hill
#
# Bulk Modulus (GPa) = 53.83267 56.76470 55.29868
# Shear Modulus (GPa) = 31.84441 38.42776 35.13609
#
# Velocity S-wave (km/s) = 3.76223 4.13287 3.95190
# Velocity P-wave (km/s) = 6.54220 6.92858 6.73816
#
# Compressibility (1/GPa) = 0.01857608
#
# Stress axis : x y z
#
# Youngs Moduli (GPa) = 88.40250 70.93649 108.80598
#
# Poissons Ratio (x) = 0.27014 0.17480
# Poissons Ratio (y) = 0.33666 0.28258
# Poissons Ratio (z) = 0.14202 0.18423
#
# Static dielectric constant tensor:
#      x y z
#    x 4.124480 -0.125650 -0.048840 
#    y -0.125650 4.279670 0.368200 
#    z -0.048840 0.368200 4.767970 
# 
# 
# High freq. dielectric constant tensor:
#      x y z
#    x 1.879590 -0.004020 -0.004510 
#    y -0.004020 1.892780 -0.002130 
#    z -0.004510 -0.002130 1.913340 
# 
# From -- ./inp_files/525970.got.cif
#   From: 2010.06.25/outbox.cif.g09.slc.cpg/sg2_263_cif.got.tgz:525970.got - 2010.06.27 13:26:56.
