data_PCOD8015783
_publ_section_title
;
Structure prediction by ZEFSAII (Michael W. Deem and Ramdas Pophale) SiO2 
 PCOD8015783
Probable space group: P -1
;
_chemical_formula_sum "Si O2"
_cell_formula_units_Z 16
_cell_length_a 23.555184
_cell_length_b 6.547285
_cell_length_c 17.962247
_cell_angle_alpha 69.339675
_cell_angle_beta 19.280910
_cell_angle_gamma 80.866318
_cell_volume 706.689089
_symmetry_space_group_name_H-M "P -1"
_symmetry_group_IT_number 2
_symmetry_cell_setting 'triclinic'
loop_
_space_group_symop_operation_xyz
x,y,z
-x,-y,-z
loop_
_atom_site_type_symbol
_atom_site_label
_atom_site_fract_x
_atom_site_fract_y
_atom_site_fract_z
Si Si1 0.212425 0.323594 0.762404
Si Si2 0.849670 0.553181 0.412786
Si Si3 0.240356 0.110298 0.603759
Si Si4 0.300193 0.965104 0.789193
Si Si5 0.517389 0.912430 0.297643
Si Si6 0.435712 0.148926 0.914858
Si Si7 0.842250 0.695250 0.712806
Si Si8 0.866636 0.433953 0.575859
O O1 0.282213 0.301112 0.596571
O O2 0.324264 0.630428 0.602666
O O3 0.287225 0.202023 0.746264
O O4 0.964738 0.182106 0.089286
O O5 0.795325 0.770423 0.441139
O O6 0.682267 0.287786 0.607966
O O7 0.829986 0.487779 0.531777
O O8 0.084398 0.681304 0.073749
O O9 0.439054 0.098263 0.350600
O O10 0.500000 0.000000 0.500000
O O11 0.312151 0.967234 0.863720
O O12 0.620512 0.894559 0.097299
O O13 0.381577 0.357895 0.983816
O O14 0.310272 0.869739 0.147315
O O15 0.851555 0.634799 0.622163
O O16 0.906008 0.521511 0.702400
O O17 0.000000 0.000000 0.500000
#
# Coordination Sequence:
#
# PCOD8015783 Si02
#       8
#     2   2   2   2   2   2   2   2
#     4  10  21  43  65  92 133 172 227 289 343 403
#     4  11  25  44  66 103 139 182 229 282 341 411
#     4  10  22  41  65  94 132 176 226 283 344 405
#     4  11  25  43  70 101 136 178 232 291 343 405
#     4  12  24  40  71  96 131 182 226 277 352 404
#     4  11  25  43  69 105 139 184 230 276 343 415
#     4   9  22  44  71  99 135 179 226 284 340 396
#     4  10  23  45  74  99 145 178 228 281 340 403
#
# _framework density 22.640791
#
# number of rings (size 3 to 8) (size 9 to 14) (size 15 to 20)
#    0.000    1.500    2.500    1.125    7.000    2.500 
#    4.500    0.000    0.000    0.000    0.000    0.000 
#    0.000    0.000    0.000    0.000    0.000    0.000 
#
# Total GULP energy -198368.941267 kJ/mol
# GULP energy per Si atom -12398.058829 kJ/mol
# Density = 2.258926 g / cm^3
# Si number density = 22.640791 Si / 1000 Ang^3
#
#
#
# Elastic Constant Matrix: (Units=GPa)
#
#
# Indices 1 2 3 4 5 6 
#
# 1 158.0894 34.2240 42.2275 9.4627 10.7021 -13.1245
# 2 34.2240 83.5362 30.9428 7.6017 1.3290 -5.1518
# 3 42.2275 30.9428 105.3740 5.5617 -12.1052 -0.6505
# 4 9.4627 7.6017 5.5617 35.5348 0.1929 1.8779
# 5 10.7021 1.3290 -12.1052 0.1929 36.8645 -4.7481
# 6 -13.1245 -5.1518 -0.6505 1.8779 -4.7481 32.6631
#
#
#
# Elastic Compliance Matrix: (Units=1/GPa)
#
#
# Indices 1 2 3 4 5 6 
#
# 1 0.007991 -0.001875 -0.002892 -0.001392 -0.002870 0.002520
# 2 -0.001875 0.014303 -0.003434 -0.002094 -0.000905 0.001423
# 3 -0.002892 -0.003434 0.012236 -0.000398 0.004890 -0.000726
# 4 -0.001392 -0.002094 -0.000398 0.029160 -0.000138 -0.002594
# 5 -0.002870 -0.000905 0.004890 -0.000138 0.030007 0.003171
# 6 0.002520 0.001423 -0.000726 -0.002594 0.003171 0.032448
#
#
# Mechanical properties :
#
#
# Convention : Reuss Voigt Hill
#
# Bulk Modulus (GPa) = 55.16145 62.42091 58.79118
# Shear Modulus (GPa) = 33.64974 36.98616 35.31795
#
# Velocity S-wave (km/s) = 3.85937 4.04618 3.95387
# Velocity P-wave (km/s) = 6.65404 7.03269 6.84598
#
# Compressibility (1/GPa) = 0.01812860
#
# Stress axis : x y z
#
# Youngs Moduli (GPa) = 125.14370 69.91357 81.72832
#
# Poissons Ratio (x) = 0.13106 0.23640
# Poissons Ratio (y) = 0.23460 0.28062
# Poissons Ratio (z) = 0.36197 0.24005
#
# Static dielectric constant tensor:
#      x y z
#    x 4.113320 -0.121370 -0.208370 
#    y -0.121370 4.077460 0.022850 
#    z -0.208370 0.022850 4.405060 
# 
# 
# High freq. dielectric constant tensor:
#      x y z
#    x 1.895100 -0.009060 -0.006670 
#    y -0.009060 1.878800 -0.015480 
#    z -0.006670 -0.015480 1.907730 
# 
# From -- ./inp_files/139531.got.cif
#   From: 2010.06.25/outbox.cif.g09.slc.cpg/sg2_70_cif.got.tgz:139531.got - 2010.06.27 13:26:56.
