data_PCOD8015682
_publ_section_title
;
Structure prediction by ZEFSAII (Michael W. Deem and Ramdas Pophale) SiO2 
 PCOD8015682
Probable space group: P -1
;
_chemical_formula_sum "Si O2"
_cell_formula_units_Z 14
_cell_length_a 7.507628
_cell_length_b 11.933090
_cell_length_c 13.902097
_cell_angle_alpha 111.111535
_cell_angle_beta 140.324484
_cell_angle_gamma 60.544362
_cell_volume 692.001029
_symmetry_space_group_name_H-M "P -1"
_symmetry_group_IT_number 2
_symmetry_cell_setting 'triclinic'
loop_
_space_group_symop_operation_xyz
x,y,z
-x,-y,-z
loop_
_atom_site_type_symbol
_atom_site_label
_atom_site_fract_x
_atom_site_fract_y
_atom_site_fract_z
Si Si1 0.127018 0.674071 0.092301
Si Si2 0.293050 0.286422 0.242954
Si Si3 0.208967 0.096572 0.859380
Si Si4 0.596748 0.137107 0.682369
Si Si5 0.578839 0.463488 0.326720
Si Si6 0.309936 0.001770 0.667638
Si Si7 0.185030 0.329999 0.431204
O O1 0.371653 0.744457 0.205143
O O2 0.292187 0.531947 0.160298
O O3 0.866579 0.759166 0.084801
O O4 0.993047 0.664035 0.930136
O O5 0.505967 0.367534 0.339671
O O6 0.481435 0.138230 0.252850
O O7 0.171060 0.304352 0.305318
O O8 0.925384 0.052479 0.750514
O O9 0.253183 0.098902 0.764000
O O10 0.500000 0.000000 0.000000
O O11 0.370272 0.195259 0.518065
O O12 0.477890 0.047749 0.668903
O O13 0.652928 0.568038 0.453518
O O14 0.850880 0.382365 0.347646
O O15 0.000000 0.000000 0.500000
#
# Coordination Sequence:
#
# PCOD8015682 Si02
#       7
#     2   2   2   2   2   2   2
#     4   9  22  44  62  88 129 162 209 250 307 372
#     4  12  23  38  63  96 119 162 211 253 298 379
#     4  10  21  43  62  89 126 170 199 254 313 358
#     4   9  22  43  59  91 129 161 203 256 301 375
#     4  10  22  43  62  87 127 161 204 260 309 361
#     4  12  24  38  66  96 126 163 209 250 316 369
#     4  10  22  42  64  89 123 163 205 257 314 353
#
# _framework density 20.231183000000001
#
# number of rings (size 3 to 8) (size 9 to 14) (size 15 to 20)
#    0.857    0.857    1.429    2.571    0.000    6.286 
#   10.286    0.000    0.000    0.000    0.000    0.000 
#    0.000    0.000    0.000    0.000    0.000    0.000 
#
# Total GULP energy -173593.345119 kJ/mol
# GULP energy per Si atom -12399.524651 kJ/mol
# Density = 2.018514 g / cm^3
# Si number density = 20.231183 Si / 1000 Ang^3
#
#
#
# Elastic Constant Matrix: (Units=GPa)
#
#
# Indices 1 2 3 4 5 6 
#
# 1 107.7053 44.0669 50.5334 -16.2990 -6.0819 -1.9129
# 2 44.0669 77.9209 34.3119 -27.1734 3.4833 3.9012
# 3 50.5334 34.3119 117.4041 -18.9704 -19.7804 -17.6010
# 4 -16.2990 -27.1734 -18.9704 30.9918 -6.2857 4.8615
# 5 -6.0819 3.4833 -19.7804 -6.2857 30.0824 -0.1667
# 6 -1.9129 3.9012 -17.6010 4.8615 -0.1667 37.5155
#
#
#
# Elastic Compliance Matrix: (Units=1/GPa)
#
#
# Indices 1 2 3 4 5 6 
#
# 1 0.013675 -0.006056 -0.004169 -0.000453 0.000627 -0.000567
# 2 -0.006056 0.023691 -0.003111 0.016134 -0.002677 -0.006335
# 3 -0.004169 -0.003111 0.014769 0.005214 0.010354 0.006411
# 4 -0.000453 0.016134 0.005214 0.052845 0.012477 -0.006047
# 5 0.000627 -0.002677 0.010354 0.012477 0.043115 0.003743
# 6 -0.000567 -0.006335 0.006411 -0.006047 0.003743 0.031093
#
#
# Mechanical properties :
#
#
# Convention : Reuss Voigt Hill
#
# Bulk Modulus (GPa) = 39.27097 62.31719 50.79408
# Shear Modulus (GPa) = 23.32647 31.32581 27.32614
#
# Velocity S-wave (km/s) = 3.39926 3.93923 3.67917
# Velocity P-wave (km/s) = 5.90423 7.18049 6.57341
#
# Compressibility (1/GPa) = 0.02546410
#
# Stress axis : x y z
#
# Youngs Moduli (GPa) = 73.12669 42.20928 67.70784
#
# Poissons Ratio (x) = 0.25560 0.28227
# Poissons Ratio (y) = 0.44282 0.21066
# Poissons Ratio (z) = 0.30486 0.13132
#
# Static dielectric constant tensor:
#      x y z
#    x 3.608170 -0.095420 -0.038730 
#    y -0.095420 3.671500 -0.071710 
#    z -0.038730 -0.071710 3.753130 
# 
# 
# High freq. dielectric constant tensor:
#      x y z
#    x 1.780680 -0.005270 0.001010 
#    y -0.005270 1.787050 -0.009000 
#    z 0.001010 -0.009000 1.799870 
# 
# From -- ./inp_files/364904.got.cif
#   From: 2010.06.25/outbox.cif.g09.slc.cpg/sg2_183_cif.got.tgz:364904.got - 2010.06.27 13:26:56.
