data_PCOD8015671
_publ_section_title
;
Structure prediction by ZEFSAII (Michael W. Deem and Ramdas Pophale) SiO2 
 PCOD8015671
Probable space group: P -1
;
_chemical_formula_sum "Si O2"
_cell_formula_units_Z 16
_cell_length_a 17.543777
_cell_length_b 20.939767
_cell_length_c 8.904291
_cell_angle_alpha 114.648414
_cell_angle_beta 56.407656
_cell_angle_gamma 161.218123
_cell_volume 804.781135
_symmetry_space_group_name_H-M "P -1"
_symmetry_group_IT_number 2
_symmetry_cell_setting 'triclinic'
loop_
_space_group_symop_operation_xyz
x,y,z
-x,-y,-z
loop_
_atom_site_type_symbol
_atom_site_label
_atom_site_fract_x
_atom_site_fract_y
_atom_site_fract_z
Si Si1 0.824440 0.935825 0.559271
Si Si2 0.468378 0.189547 0.995536
Si Si3 0.973797 0.796147 0.592909
Si Si4 0.701438 0.224850 0.891709
Si Si5 0.955953 0.432961 0.322394
Si Si6 0.110902 0.978936 0.915184
Si Si7 0.466175 0.042471 0.286446
Si Si8 0.611552 0.709062 0.284136
O O1 0.626640 0.822120 0.792709
O O2 0.621928 0.760654 0.476984
O O3 0.028178 0.144817 0.475373
O O4 0.000000 0.000000 0.500000
O O5 0.452263 0.098074 0.988251
O O6 0.278919 0.052465 0.919293
O O7 0.795655 0.444784 0.847203
O O8 0.693969 0.546870 0.645402
O O9 0.982033 0.837720 0.786953
O O10 0.246201 0.945668 0.419797
O O11 0.001675 0.476158 0.764006
O O12 0.689212 0.144603 0.730171
O O13 0.684476 0.200491 0.063886
O O14 0.645585 0.177053 0.378255
O O15 0.000000 0.500000 0.500000
O O16 0.325305 0.193913 0.830180
O O17 0.852184 0.824615 0.137342
#
# Coordination Sequence:
#
# PCOD8015671 Si02
#       8
#     2   2   2   2   2   2   2   2
#     4  11  22  42  65  91 128 158 207 258 303 365
#     4  10  21  43  61  88 125 163 200 257 313 351
#     4  11  23  39  64  92 120 166 205 246 312 363
#     4   9  23  39  62  88 120 161 209 244 308 360
#     4  10  22  39  61  90 122 161 204 251 304 364
#     4  10  21  43  61  86 129 159 202 259 303 371
#     4  11  21  41  63  87 125 160 204 258 294 367
#     4  10  23  40  66  89 121 166 206 247 313 367
#
# _framework density 19.881181999999999
#
# number of rings (size 3 to 8) (size 9 to 14) (size 15 to 20)
#    0.750    1.000    2.500    1.500    0.000    6.000 
#    2.250    0.000    0.000    0.000    0.000    0.000 
#    0.000    0.000    0.000    0.000    0.000    0.000 
#
# Total GULP energy -198320.655803 kJ/mol
# GULP energy per Si atom -12395.040988 kJ/mol
# Density = 1.983593 g / cm^3
# Si number density = 19.881182 Si / 1000 Ang^3
#
#
#
# Elastic Constant Matrix: (Units=GPa)
#
#
# Indices 1 2 3 4 5 6 
#
# 1 69.3365 11.1542 21.5043 10.9666 -10.6192 10.6950
# 2 11.1542 105.1057 30.9473 3.9044 4.8197 3.7002
# 3 21.5043 30.9473 101.4769 5.7518 -7.8304 1.3850
# 4 10.9666 3.9044 5.7518 25.7955 -2.4279 -2.8439
# 5 -10.6192 4.8197 -7.8304 -2.4279 25.1489 6.0622
# 6 10.6950 3.7002 1.3850 -2.8439 6.0622 25.4608
#
#
#
# Elastic Compliance Matrix: (Units=1/GPa)
#
#
# Indices 1 2 3 4 5 6 
#
# 1 0.019892 -0.001125 -0.002508 -0.008051 0.009777 -0.011283
# 2 -0.001125 0.010801 -0.003288 -0.000779 -0.003609 -0.000146
# 3 -0.002508 -0.003288 0.011670 -0.000737 0.003116 0.000072
# 4 -0.008051 -0.000779 -0.000737 0.043300 -0.001398 0.008705
# 5 0.009777 -0.003609 0.003116 -0.001398 0.049183 -0.015619
# 6 -0.011283 -0.000146 0.000072 0.008705 -0.015619 0.048724
#
#
# Mechanical properties :
#
#
# Convention : Reuss Voigt Hill
#
# Bulk Modulus (GPa) = 35.05974 44.79230 39.92602
# Shear Modulus (GPa) = 24.16404 29.43526 26.79965
#
# Velocity S-wave (km/s) = 3.49007 3.85198 3.67548
# Velocity P-wave (km/s) = 5.82355 6.50865 6.17561
#
# Compressibility (1/GPa) = 0.02852274
#
# Stress axis : x y z
#
# Youngs Moduli (GPa) = 50.27065 92.58150 85.69080
#
# Poissons Ratio (x) = 0.10413 0.21488
# Poissons Ratio (y) = 0.05654 0.28175
# Poissons Ratio (z) = 0.12606 0.30441
#
# Static dielectric constant tensor:
#      x y z
#    x 3.631490 -0.069930 -0.026170 
#    y -0.069930 3.416970 0.088660 
#    z -0.026170 0.088660 3.726140 
# 
# 
# High freq. dielectric constant tensor:
#      x y z
#    x 1.773350 0.001390 -0.001680 
#    y 0.001390 1.759440 0.012210 
#    z -0.001680 0.012210 1.790180 
# 
# From -- ./inp_files/337745.got.cif
#   From: 2010.06.25/outbox.cif.g09.slc.cpg/sg2_169_cif.got.tgz:337745.got - 2010.06.27 13:26:56.
