data_PCOD8015981
_publ_section_title
;
Structure prediction by ZEFSAII (Michael W. Deem and Ramdas Pophale) SiO2 
 PCOD8015981
Probable space group: P -1
;
_chemical_formula_sum "Si O2"
_cell_formula_units_Z 14
_cell_length_a 16.244937
_cell_length_b 11.658051
_cell_length_c 6.406583
_cell_angle_alpha 95.995304
_cell_angle_beta 111.892872
_cell_angle_gamma 133.758064
_cell_volume 684.046245
_symmetry_space_group_name_H-M "P -1"
_symmetry_group_IT_number 2
_symmetry_cell_setting 'triclinic'
loop_
_space_group_symop_operation_xyz
x,y,z
-x,-y,-z
loop_
_atom_site_type_symbol
_atom_site_label
_atom_site_fract_x
_atom_site_fract_y
_atom_site_fract_z
Si Si1 0.512054 0.766549 0.932573
Si Si2 0.973492 0.256532 0.480318
Si Si3 0.126016 0.551958 0.035099
Si Si4 0.215068 0.459177 0.444794
Si Si5 0.743120 0.097870 0.917527
Si Si6 0.398109 0.438103 0.574515
Si Si7 0.266151 0.066879 0.513029
O O1 0.347102 0.645834 0.752421
O O2 0.504368 0.618724 0.864430
O O3 0.589862 0.909082 0.838709
O O4 0.602684 0.875718 0.252221
O O5 0.079572 0.292211 0.436557
O O6 0.872386 0.069375 0.489427
O O7 0.871050 0.229212 0.233860
O O8 0.071424 0.438571 0.749961
O O9 0.175907 0.508617 0.238603
O O10 0.260712 0.776611 0.155703
O O11 0.000000 0.500000 0.000000
O O12 0.271904 0.399577 0.375964
O O13 0.780612 0.041656 0.765613
O O14 0.500000 0.500000 0.500000
O O15 0.317190 0.249288 0.568319
#
# Coordination Sequence:
#
# PCOD8015981 Si02
#       7
#     2   2   2   2   2   2   2
#     4   9  23  40  63  95 126 162 212 254 312 377
#     4  11  23  40  64  95 127 164 218 257 312 379
#     4  12  23  42  68  89 131 171 207 262 322 366
#     4  10  24  41  61 102 125 166 214 255 315 376
#     4  11  22  40  68  95 121 173 214 255 315 375
#     4  10  21  43  68  90 134 166 206 261 314 377
#     4  11  20  40  68  92 123 174 206 256 320 373
#
# _framework density 20.466453999999999
#
# number of rings (size 3 to 8) (size 9 to 14) (size 15 to 20)
#    0.857    0.571    4.286    0.857    0.000    3.429 
#    0.000    4.286    0.000    0.000    0.000    0.000 
#    0.000    0.000    0.000    0.000    0.000    0.000 
#
# Total GULP energy -173473.634297 kJ/mol
# GULP energy per Si atom -12390.973878 kJ/mol
# Density = 2.041987 g / cm^3
# Si number density = 20.466454 Si / 1000 Ang^3
#
#
#
# Elastic Constant Matrix: (Units=GPa)
#
#
# Indices 1 2 3 4 5 6 
#
# 1 66.1598 32.2272 30.8551 -14.1358 8.3985 12.4230
# 2 32.2272 171.5611 38.9352 -9.6701 1.7489 5.0666
# 3 30.8551 38.9352 94.8821 -1.5084 7.2095 -4.5875
# 4 -14.1358 -9.6701 -1.5084 29.0434 -3.5389 3.7195
# 5 8.3985 1.7489 7.2095 -3.5389 27.8789 8.6907
# 6 12.4230 5.0666 -4.5875 3.7195 8.6907 29.0172
#
#
#
# Elastic Compliance Matrix: (Units=1/GPa)
#
#
# Indices 1 2 3 4 5 6 
#
# 1 0.024814 -0.001775 -0.007815 0.012841 0.000442 -0.013328
# 2 -0.001775 0.006820 -0.002369 0.001633 0.001371 -0.001425
# 3 -0.007815 -0.002369 0.014703 -0.005421 -0.004523 0.008134
# 4 0.012841 0.001633 -0.005421 0.043712 0.007496 -0.014488
# 5 0.000442 0.001371 -0.004523 0.007496 0.042385 -0.014799
# 6 -0.013328 -0.001425 0.008134 -0.014488 -0.014799 0.047993
#
#
# Mechanical properties :
#
#
# Convention : Reuss Voigt Hill
#
# Bulk Modulus (GPa) = 44.60090 59.62644 52.11367
# Shear Modulus (GPa) = 23.60516 32.56026 28.08271
#
# Velocity S-wave (km/s) = 3.39980 3.99295 3.70825
# Velocity P-wave (km/s) = 6.10336 7.10318 6.62217
#
# Compressibility (1/GPa) = 0.02242107
#
# Stress axis : x y z
#
# Youngs Moduli (GPa) = 40.29927 146.62863 68.01109
#
# Poissons Ratio (x) = 0.26024 0.53150
# Poissons Ratio (y) = 0.07152 0.16109
# Poissons Ratio (z) = 0.31494 0.34730
#
# Static dielectric constant tensor:
#      x y z
#    x 3.493640 0.060640 -0.005000 
#    y 0.060640 4.110750 0.024830 
#    z -0.005000 0.024830 3.723190 
# 
# 
# High freq. dielectric constant tensor:
#      x y z
#    x 1.772310 0.010650 -0.003150 
#    y 0.010650 1.820190 0.002400 
#    z -0.003150 0.002400 1.799280 
# 
# From -- ./inp_files/95083.got.cif
#   From: 2010.06.25/outbox.cif.g09.slc.cpg/sg2_48_cif.got.tgz:95083.got - 2010.06.27 13:26:56.
