data_PCOD8015864
_publ_section_title
;
Structure prediction by ZEFSAII (Michael W. Deem and Ramdas Pophale) SiO2 
 PCOD8015864
Probable space group: P -1
;
_chemical_formula_sum "Si O2"
_cell_formula_units_Z 16
_cell_length_a 12.191316
_cell_length_b 5.256049
_cell_length_c 24.902528
_cell_angle_alpha 105.045169
_cell_angle_beta 148.833415
_cell_angle_gamma 64.615730
_cell_volume 726.206119
_symmetry_space_group_name_H-M "P -1"
_symmetry_group_IT_number 2
_symmetry_cell_setting 'triclinic'
loop_
_space_group_symop_operation_xyz
x,y,z
-x,-y,-z
loop_
_atom_site_type_symbol
_atom_site_label
_atom_site_fract_x
_atom_site_fract_y
_atom_site_fract_z
Si Si1 0.936778 0.902437 0.281720
Si Si2 0.338570 0.242631 0.670655
Si Si3 0.951767 0.734171 0.157840
Si Si4 0.687654 0.338833 0.025082
Si Si5 0.168675 0.565568 0.510199
Si Si6 0.563835 0.731977 0.667584
Si Si7 0.365179 0.995162 0.496742
Si Si8 0.666132 0.586570 0.207692
O O1 0.795470 0.244948 0.235831
O O2 0.919163 0.775321 0.209724
O O3 0.831379 0.750957 0.271961
O O4 0.203848 0.824023 0.406174
O O5 0.280056 0.470972 0.610632
O O6 0.425642 0.347939 0.765927
O O7 0.099610 0.211803 0.584141
O O8 0.544033 0.944404 0.720508
O O9 0.823922 0.531937 0.075434
O O10 0.224720 0.572065 0.248947
O O11 0.864022 0.030014 0.104512
O O12 0.500000 0.500000 0.000000
O O13 0.562421 0.284759 0.917752
O O14 0.312502 0.726809 0.553711
O O15 0.189683 0.303141 0.465046
O O16 0.579068 0.851565 0.621049
O O17 0.500000 0.000000 0.500000
#
# Coordination Sequence:
#
# PCOD8015864 Si02
#       8
#     2   2   2   2   2   2   2   2
#     4  12  24  41  69 104 136 177 220 282 347 406
#     4  10  23  41  68  99 130 190 229 277 327 405
#     4  12  26  44  72 100 141 177 224 281 357 410
#     4  12  24  47  70 103 131 177 230 290 350 404
#     4  10  21  43  66  96 138 183 232 269 329 412
#     4  11  26  42  66  96 146 186 220 279 339 409
#     4  11  25  38  64 104 144 178 220 272 344 417
#     4  12  25  43  73 100 134 170 237 294 331 399
#
# _framework density 22.032309999999999
#
# number of rings (size 3 to 8) (size 9 to 14) (size 15 to 20)
#    0.000    0.750    3.750    3.000    8.750    1.000 
#    0.000    1.250    0.000    0.000    0.000    0.000 
#    0.000    0.000    0.000    0.000    0.000    0.000 
#
# Total GULP energy -198394.583548 kJ/mol
# GULP energy per Si atom -12399.661472 kJ/mol
# Density = 2.198216 g / cm^3
# Si number density = 22.032310 Si / 1000 Ang^3
#
#
#
# Elastic Constant Matrix: (Units=GPa)
#
#
# Indices 1 2 3 4 5 6 
#
# 1 98.0277 37.2427 36.3073 5.1938 -16.2814 -22.6343
# 2 37.2427 100.6388 36.5409 -15.2767 -4.1761 -6.2530
# 3 36.3073 36.5409 95.4734 0.3232 -15.3207 -22.2926
# 4 5.1938 -15.2767 0.3232 48.5577 -1.5119 4.0108
# 5 -16.2814 -4.1761 -15.3207 -1.5119 33.2466 12.4952
# 6 -22.6343 -6.2530 -22.2926 4.0108 12.4952 29.7276
#
#
#
# Elastic Compliance Matrix: (Units=1/GPa)
#
#
# Indices 1 2 3 4 5 6 
#
# 1 0.015384 -0.005130 -0.001332 -0.003912 0.002706 0.009026
# 2 -0.005130 0.014020 -0.004702 0.005365 -0.000852 -0.004849
# 3 -0.001332 -0.004702 0.015196 -0.002078 0.002411 0.008659
# 4 -0.003912 0.005365 -0.002078 0.023360 0.001577 -0.007223
# 5 0.002706 -0.000852 0.002411 0.001577 0.037021 -0.012085
# 6 0.009026 -0.004849 0.008659 -0.007223 -0.012085 0.052039
#
#
# Mechanical properties :
#
#
# Convention : Reuss Voigt Hill
#
# Bulk Modulus (GPa) = 44.89958 57.14686 51.02322
# Shear Modulus (GPa) = 26.77047 34.57630 30.67338
#
# Velocity S-wave (km/s) = 3.48955 3.96579 3.73527
# Velocity P-wave (km/s) = 6.05468 6.85303 6.46619
#
# Compressibility (1/GPa) = 0.02227192
#
# Stress axis : x y z
#
# Youngs Moduli (GPa) = 65.00096 71.32622 65.80641
#
# Poissons Ratio (x) = 0.36593 0.08765
# Poissons Ratio (y) = 0.33348 0.30942
# Poissons Ratio (z) = 0.08658 0.33538
#
# Static dielectric constant tensor:
#      x y z
#    x 4.047990 -0.088090 -0.130570 
#    y -0.088090 3.979370 0.090240 
#    z -0.130570 0.090240 4.035690 
# 
# 
# High freq. dielectric constant tensor:
#      x y z
#    x 1.870200 -0.000400 -0.013540 
#    y -0.000400 1.868690 0.003920 
#    z -0.013540 0.003920 1.861790 
# 
# From -- ./inp_files/69592.got.cif
#   From: 2010.06.25/outbox.cif.g09.slc.cpg/sg2_35_cif.got.tgz:69592.got - 2010.06.27 13:26:56.
