data_PCOD8015529
_publ_section_title
;
Structure prediction by ZEFSAII (Michael W. Deem and Ramdas Pophale) SiO2 
 PCOD8015529
Probable space group: P -1
;
_chemical_formula_sum "Si O2"
_cell_formula_units_Z 10
_cell_length_a 9.834763
_cell_length_b 8.337052
_cell_length_c 8.736558
_cell_angle_alpha 121.498219
_cell_angle_beta 132.095610
_cell_angle_gamma 54.570272
_cell_volume 422.366563
_symmetry_space_group_name_H-M "P -1"
_symmetry_group_IT_number 2
_symmetry_cell_setting 'triclinic'
loop_
_space_group_symop_operation_xyz
x,y,z
-x,-y,-z
loop_
_atom_site_type_symbol
_atom_site_label
_atom_site_fract_x
_atom_site_fract_y
_atom_site_fract_z
Si Si1 0.298139 0.329280 0.614509
Si Si2 0.646204 0.783546 0.051923
Si Si3 0.329515 0.635153 0.215600
Si Si4 0.069432 0.750654 0.780781
Si Si5 0.001412 0.881506 0.288498
O O1 0.493196 0.285539 0.638603
O O2 0.187290 0.569799 0.665250
O O3 0.158513 0.230989 0.375012
O O4 0.638805 0.770638 0.222546
O O5 0.865189 0.750533 0.143271
O O6 0.586356 0.608577 0.840876
O O7 0.500000 0.000000 0.000000
O O8 0.222301 0.727489 0.339860
O O9 0.162018 0.712647 0.998605
O O10 0.082629 0.956687 0.830145
O O11 0.000000 0.000000 0.500000
#
# Coordination Sequence:
#
# PCOD8015529 Si02
#       5
#     2   2   2   2   2
#     4  10  21  42  71  95 128 173 223 266 324 397
#     4  11  22  43  68  97 135 170 213 276 334 383
#     4  11  24  43  69  98 129 177 224 259 327 400
#     4  10  21  42  70  94 131 173 217 269 327 393
#     4  12  24  43  64  98 137 169 217 279 327 376
#
# _framework density 23.676116
#
# number of rings (size 3 to 8) (size 9 to 14) (size 15 to 20)
#    0.000    1.200    2.000    6.000    0.000    0.800 
#    3.600    2.000    0.000    0.000    0.000    0.000 
#    0.000    0.000    0.000    0.000    0.000    0.000 
#
# Total GULP energy -124047.599178 kJ/mol
# GULP energy per Si atom -12404.759918 kJ/mol
# Density = 2.362223 g / cm^3
# Si number density = 23.676116 Si / 1000 Ang^3
#
#
#
# Elastic Constant Matrix: (Units=GPa)
#
#
# Indices 1 2 3 4 5 6 
#
# 1 201.5605 33.5430 41.3300 5.3473 18.1775 -17.4376
# 2 33.5430 109.5235 7.9818 2.3424 -4.9196 5.1376
# 3 41.3300 7.9818 70.1384 0.1246 3.9198 -10.3326
# 4 5.3473 2.3424 0.1246 15.3511 -8.1771 9.7119
# 5 18.1775 -4.9196 3.9198 -8.1771 31.6963 8.6224
# 6 -17.4376 5.1376 -10.3326 9.7119 8.6224 35.7826
#
#
#
# Elastic Compliance Matrix: (Units=1/GPa)
#
#
# Indices 1 2 3 4 5 6 
#
# 1 0.008458 -0.003161 -0.002251 -0.016109 -0.012281 0.011257
# 2 -0.003161 0.010685 -0.000903 0.008343 0.007768 -0.007472
# 3 -0.002251 -0.000903 0.016855 -0.005376 -0.004043 0.006333
# 4 -0.016109 0.008343 -0.005376 0.147955 0.067607 -0.067048
# 5 -0.012281 0.007768 -0.004043 0.067607 0.069539 -0.043374
# 6 0.011257 -0.007472 0.006333 -0.067048 -0.043374 0.064983
#
#
# Mechanical properties :
#
#
# Convention : Reuss Voigt Hill
#
# Bulk Modulus (GPa) = 42.79288 60.77023 51.78155
# Shear Modulus (GPa) = 14.75388 36.45718 25.60553
#
# Velocity S-wave (km/s) = 2.49901 3.92832 3.29217
# Velocity P-wave (km/s) = 5.14201 6.80431 6.03071
#
# Compressibility (1/GPa) = 0.02336837
#
# Stress axis : x y z
#
# Youngs Moduli (GPa) = 118.23553 93.58506 59.32941
#
# Poissons Ratio (x) = 0.29586 0.13353
# Poissons Ratio (y) = 0.37379 0.05356
# Poissons Ratio (z) = 0.26612 0.08449
#
# Static dielectric constant tensor:
#      x y z
#    x 4.596800 0.114420 0.240560 
#    y 0.114420 4.390480 0.157600 
#    z 0.240560 0.157600 4.172900 
# 
# 
# High freq. dielectric constant tensor:
#      x y z
#    x 1.947400 0.003590 0.012170 
#    y 0.003590 1.944260 0.005940 
#    z 0.012170 0.005940 1.921370 
# 
# From -- ./inp_files/156337.got.cif
#   From: 2010.06.25/outbox.cif.g09.slc.cpg/sg2_79_cif.got.tgz:156337.got - 2010.06.27 13:26:56.
