data_PCOD8015329
_publ_section_title
;
Structure prediction by ZEFSAII (Michael W. Deem and Ramdas Pophale) SiO2 
 PCOD8015329
Probable space group: P -1
;
_chemical_formula_sum "Si O2"
_cell_formula_units_Z 16
_cell_length_a 15.746203
_cell_length_b 16.174877
_cell_length_c 13.139339
_cell_angle_alpha 34.047045
_cell_angle_beta 53.983865
_cell_angle_gamma 27.343196
_cell_volume 703.806216
_symmetry_space_group_name_H-M "P -1"
_symmetry_group_IT_number 2
_symmetry_cell_setting 'triclinic'
loop_
_space_group_symop_operation_xyz
x,y,z
-x,-y,-z
loop_
_atom_site_type_symbol
_atom_site_label
_atom_site_fract_x
_atom_site_fract_y
_atom_site_fract_z
Si Si1 0.369289 0.055817 0.608852
Si Si2 0.880495 0.829326 0.494160
Si Si3 0.986034 0.055498 0.792401
Si Si4 0.498464 0.444835 0.443767
Si Si5 0.576481 0.191245 0.997306
Si Si6 0.238646 0.138236 0.236623
Si Si7 0.941176 0.301129 0.772434
Si Si8 0.399077 0.107984 0.849990
O O1 0.230751 0.110095 0.585789
O O2 0.208035 0.366384 0.469066
O O3 0.500000 0.000000 0.500000
O O4 0.527003 0.773628 0.869669
O O5 0.774151 0.898954 0.600446
O O6 0.848421 0.048669 0.287946
O O7 0.148180 0.480389 0.652770
O O8 0.751418 0.308496 0.645704
O O9 0.917158 0.241902 0.746481
O O10 0.122928 0.736419 0.053626
O O11 0.500000 0.500000 0.500000
O O12 0.693408 0.080282 0.663125
O O13 0.559969 0.496425 0.265083
O O14 0.608686 0.051915 0.016193
O O15 0.809097 0.956473 0.119283
O O16 0.438073 0.009719 0.223930
O O17 0.000000 0.500000 0.000000
O O18 0.500000 0.000000 0.000000
#
# Coordination Sequence:
#
# PCOD8015329 Si02
#       8
#     2   2   2   2   2   2   2   2
#     4  12  25  41  66 105 146 181 231 300 353 424
#     4  12  24  43  72 105 142 188 239 292 358 425
#     4  10  22  41  70  97 134 189 231 284 351 425
#     4  11  26  46  72 102 142 189 237 295 362 427
#     4  11  23  43  68  98 136 190 238 285 355 434
#     4  12  27  45  71 109 140 182 247 296 352 432
#     4  10  21  42  67  98 134 184 237 274 351 428
#     4  12  23  44  73  98 143 194 239 294 362 422
#
# _framework density 22.733529999999998
#
# number of rings (size 3 to 8) (size 9 to 14) (size 15 to 20)
#    0.000    0.750    5.000    2.625    1.750    1.000 
#    0.000    3.750    0.000    0.000    0.000    0.000 
#    0.000    0.000    0.000    0.000    0.000    0.000 
#
# Total GULP energy -198299.322265 kJ/mol
# GULP energy per Si atom -12393.707642 kJ/mol
# Density = 2.268179 g / cm^3
# Si number density = 22.733530 Si / 1000 Ang^3
#
#
#
# Elastic Constant Matrix: (Units=GPa)
#
#
# Indices 1 2 3 4 5 6 
#
# 1 140.7784 24.3818 46.6375 13.7513 9.9138 9.4658
# 2 24.3818 79.9250 33.1944 27.9992 -0.6453 -5.9776
# 3 46.6375 33.1944 116.7307 22.8039 -10.3948 1.5640
# 4 13.7513 27.9992 22.8039 41.6656 -1.7153 -6.2420
# 5 9.9138 -0.6453 -10.3948 -1.7153 41.3430 7.0177
# 6 9.4658 -5.9776 1.5640 -6.2420 7.0177 37.6701
#
#
#
# Elastic Compliance Matrix: (Units=1/GPa)
#
#
# Indices 1 2 3 4 5 6 
#
# 1 0.008768 -0.001263 -0.003222 -0.000673 -0.002640 -0.001890
# 2 -0.001263 0.017520 -0.002686 -0.009656 -0.000798 0.001758
# 3 -0.003222 -0.002686 0.011668 -0.003572 0.003753 -0.001392
# 4 -0.000673 -0.009656 -0.003572 0.033308 -0.000244 0.004350
# 5 -0.002640 -0.000798 0.003753 -0.000244 0.026523 -0.004601
# 6 -0.001890 0.001758 -0.001392 0.004350 -0.004601 0.028936
#
#
# Mechanical properties :
#
#
# Convention : Reuss Voigt Hill
#
# Bulk Modulus (GPa) = 42.34670 60.65129 51.49900
# Shear Modulus (GPa) = 33.57104 39.68378 36.62741
#
# Velocity S-wave (km/s) = 3.84698 4.18258 4.01828
# Velocity P-wave (km/s) = 6.19679 7.07548 6.65066
#
# Compressibility (1/GPa) = 0.02361459
#
# Stress axis : x y z
#
# Youngs Moduli (GPa) = 114.04657 57.07649 85.70142
#
# Poissons Ratio (x) = 0.07211 0.27614
# Poissons Ratio (y) = 0.14410 0.23016
# Poissons Ratio (z) = 0.36748 0.15329
#
# Static dielectric constant tensor:
#      x y z
#    x 4.294070 -0.146560 -0.196110 
#    y -0.146560 4.092530 0.445440 
#    z -0.196110 0.445440 4.163630 
# 
# 
# High freq. dielectric constant tensor:
#      x y z
#    x 1.918910 -0.004200 -0.009170 
#    y -0.004200 1.875370 0.031480 
#    z -0.009170 0.031480 1.911790 
# 
# From -- ./inp_files/455474.got.cif
#   From: 2010.06.25/outbox.cif.g09.slc.cpg/sg2_228_cif.got.tgz:455474.got - 2010.06.27 13:26:56.
