data_PCOD8015178
_publ_section_title
;
Structure prediction by ZEFSAII (Michael W. Deem and Ramdas Pophale) SiO2 
 PCOD8015178
Probable space group: P -1
;
_chemical_formula_sum "Si O2"
_cell_formula_units_Z 16
_cell_length_a 22.465906
_cell_length_b 11.283738
_cell_length_c 9.174285
_cell_angle_alpha 73.230536
_cell_angle_beta 49.530814
_cell_angle_gamma 33.447653
_cell_volume 777.610805
_symmetry_space_group_name_H-M "P -1"
_symmetry_group_IT_number 2
_symmetry_cell_setting 'triclinic'
loop_
_space_group_symop_operation_xyz
x,y,z
-x,-y,-z
loop_
_atom_site_type_symbol
_atom_site_label
_atom_site_fract_x
_atom_site_fract_y
_atom_site_fract_z
Si Si1 0.167759 0.067561 0.115907
Si Si2 0.672347 0.733090 0.235146
Si Si3 0.286601 0.974042 0.408562
Si Si4 0.144065 0.755449 0.972516
Si Si5 0.018553 0.341917 0.963623
Si Si6 0.789448 0.747875 0.826327
Si Si7 0.957534 0.821948 0.437469
Si Si8 0.599661 0.422015 0.238171
O O1 0.184659 0.181862 0.116244
O O2 0.061123 0.132639 0.376013
O O3 0.351999 0.747914 0.901579
O O4 0.072840 0.184587 0.071412
O O5 0.703552 0.542264 0.232674
O O6 0.500000 0.000000 0.500000
O O7 0.841049 0.542276 0.115720
O O8 0.657859 0.830939 0.072253
O O9 0.282106 0.101895 0.266913
O O10 0.231520 0.928795 0.419811
O O11 0.163119 0.148586 0.681315
O O12 0.480150 0.691210 0.255063
O O13 0.229545 0.754473 0.908051
O O14 0.057018 0.796432 0.222460
O O15 0.000000 0.000000 0.000000
O O16 0.000000 0.500000 0.000000
O O17 0.964118 0.426288 0.632900
O O18 0.500000 0.500000 0.500000
#
# Coordination Sequence:
#
# PCOD8015178 Si02
#       8
#     2   2   2   2   2   2   2   2
#     4  11  22  39  67  97 124 168 219 263 317 391
#     4  11  25  42  63 101 131 168 217 269 330 384
#     4  11  21  40  65  93 129 168 213 263 322 384
#     4  11  24  47  66  88 136 181 209 263 335 393
#     4  12  20  37  69  95 123 166 213 260 320 381
#     4  10  21  42  66  94 129 168 209 270 330 383
#     4  10  21  44  67  92 127 170 216 261 333 386
#     4  12  26  40  63  96 133 168 221 269 311 386
#
# _framework density 20.575845999999999
#
# number of rings (size 3 to 8) (size 9 to 14) (size 15 to 20)
#    0.000    1.000    5.000    3.750    3.500    2.500 
#    4.500    1.250    0.000    0.000    0.000    0.000 
#    0.000    0.000    0.000    0.000    0.000    0.000 
#
# Total GULP energy -198263.770486 kJ/mol
# GULP energy per Si atom -12391.485655 kJ/mol
# Density = 2.052901 g / cm^3
# Si number density = 20.575846 Si / 1000 Ang^3
#
#
#
# Elastic Constant Matrix: (Units=GPa)
#
#
# Indices 1 2 3 4 5 6 
#
# 1 80.6664 40.7377 40.2469 -2.5669 6.2165 2.3366
# 2 40.7377 129.2719 75.0720 -10.4964 7.6752 -11.7713
# 3 40.2469 75.0720 148.1169 -6.5080 26.2440 -1.4290
# 4 -2.5669 -10.4964 -6.5080 39.5507 -3.6211 4.9280
# 5 6.2165 7.6752 26.2440 -3.6211 34.6088 -0.7285
# 6 2.3366 -11.7713 -1.4290 4.9280 -0.7285 35.3131
#
#
#
# Elastic Compliance Matrix: (Units=1/GPa)
#
#
# Indices 1 2 3 4 5 6 
#
# 1 0.015530 -0.003775 -0.002284 -0.000100 -0.000281 -0.002370
# 2 -0.003775 0.012590 -0.005671 0.001890 0.002469 0.004004
# 3 -0.002284 -0.005671 0.011479 -0.000241 -0.007091 -0.001387
# 4 -0.000100 0.001890 -0.000241 0.026340 0.002474 -0.002998
# 5 -0.000281 0.002469 -0.007091 0.002474 0.034053 0.000912
# 6 -0.002370 0.004004 -0.001387 -0.002998 0.000912 0.030191
#
#
# Mechanical properties :
#
#
# Convention : Reuss Voigt Hill
#
# Bulk Modulus (GPa) = 61.96315 74.46315 68.21315
# Shear Modulus (GPa) = 31.44229 35.36110 33.40169
#
# Velocity S-wave (km/s) = 3.91335 4.15006 4.03345
# Velocity P-wave (km/s) = 7.11330 7.69625 7.41051
#
# Compressibility (1/GPa) = 0.01613863
#
# Stress axis : x y z
#
# Youngs Moduli (GPa) = 64.39254 79.42703 87.11590
#
# Poissons Ratio (x) = 0.29982 0.19899
# Poissons Ratio (y) = 0.24306 0.49406
# Poissons Ratio (z) = 0.14708 0.45045
#
# Static dielectric constant tensor:
#      x y z
#    x 3.545020 0.108940 0.163490 
#    y 0.108940 4.042010 -0.127810 
#    z 0.163490 -0.127810 3.877400 
# 
# 
# High freq. dielectric constant tensor:
#      x y z
#    x 1.787090 0.002020 0.016630 
#    y 0.002020 1.818880 -0.010410 
#    z 0.016630 -0.010410 1.810000 
# 
# From -- ./inp_files/353467.got.cif
#   From: 2010.06.25/outbox.cif.g09.slc.cpg/sg2_177_cif.got.tgz:353467.got - 2010.06.27 13:26:56.
