data_PCOD8015874
_publ_section_title
;
Structure prediction by ZEFSAII (Michael W. Deem and Ramdas Pophale) SiO2 
 PCOD8015874
Probable space group: P -1
;
_chemical_formula_sum "Si O2"
_cell_formula_units_Z 16
_cell_length_a 5.238593
_cell_length_b 6.684062
_cell_length_c 21.264328
_cell_angle_alpha 98.455716
_cell_angle_beta 78.037392
_cell_angle_gamma 111.190405
_cell_volume 677.024586
_symmetry_space_group_name_H-M "P -1"
_symmetry_group_IT_number 2
_symmetry_cell_setting 'triclinic'
loop_
_space_group_symop_operation_xyz
x,y,z
-x,-y,-z
loop_
_atom_site_type_symbol
_atom_site_label
_atom_site_fract_x
_atom_site_fract_y
_atom_site_fract_z
Si Si1 0.110123 0.413329 0.754869
Si Si2 0.495202 0.357323 0.351575
Si Si3 0.205013 0.100872 0.079758
Si Si4 0.764302 0.334078 0.584313
Si Si5 0.598725 0.837197 0.062665
Si Si6 0.007862 0.944847 0.347868
Si Si7 0.581366 0.491625 0.836177
Si Si8 0.250189 0.774396 0.556301
O O1 0.234910 0.601854 0.704481
O O2 0.312221 0.460127 0.806190
O O3 0.092480 0.180237 0.717819
O O4 0.802223 0.406739 0.786314
O O5 0.476815 0.599608 0.366279
O O6 0.518716 0.281744 0.418142
O O7 0.241364 0.168539 0.325325
O O8 0.274071 0.259179 0.142871
O O9 0.335155 0.916804 0.079180
O O10 0.335423 0.220699 0.013822
O O11 0.872394 0.011772 0.086686
O O12 0.888450 0.207580 0.619785
O O13 0.663623 0.188429 0.519861
O O14 0.967578 0.572648 0.566208
O O15 0.517134 0.625240 0.098433
O O16 0.772700 0.007685 0.401263
#
# Coordination Sequence:
#
# PCOD8015874 Si02
#       8
#     2   2   2   2   2   2   2   2
#     4  12  28  46  65  95 141 181 236 274 319 405
#     4  11  25  43  65  93 130 177 219 285 347 405
#     4  10  22  43  72 106 142 173 219 284 333 389
#     4  10  21  43  66  99 128 157 225 287 355 422
#     4  10  22  43  72 107 139 174 223 277 338 390
#     4  11  25  43  66  92 130 178 219 282 347 410
#     4  12  26  45  69  99 136 188 227 274 325 395
#     4  10  22  40  70  95 125 167 218 286 356 415
#
# _framework density 23.632819999999999
#
# number of rings (size 3 to 8) (size 9 to 14) (size 15 to 20)
#    0.000    1.250    1.250    3.375    5.250    3.500 
#    0.000    5.000    0.000    0.000    0.000    0.000 
#    0.000    0.000    0.000    0.000    0.000    0.000 
#
# Total GULP energy -198415.162275 kJ/mol
# GULP energy per Si atom -12400.947642 kJ/mol
# Density = 2.357903 g / cm^3
# Si number density = 23.632820 Si / 1000 Ang^3
#
#
#
# Elastic Constant Matrix: (Units=GPa)
#
#
# Indices 1 2 3 4 5 6 
#
# 1 76.8943 3.7119 16.1482 4.8817 5.3783 -16.2837
# 2 3.7119 67.8932 31.2477 19.1634 3.3577 -14.4502
# 3 16.1482 31.2477 76.2682 16.1769 11.2286 4.1414
# 4 4.8817 19.1634 16.1769 46.2107 3.5623 7.3091
# 5 5.3783 3.3577 11.2286 3.5623 44.4255 0.2274
# 6 -16.2837 -14.4502 4.1414 7.3091 0.2274 33.0362
#
#
#
# Elastic Compliance Matrix: (Units=1/GPa)
#
#
# Indices 1 2 3 4 5 6 
#
# 1 0.016769 0.005323 -0.005438 -0.003935 -0.000805 0.012152
# 2 0.005323 0.026007 -0.010640 -0.010478 0.000829 0.017646
# 3 -0.005438 -0.010640 0.019681 -0.000093 -0.003454 -0.009757
# 4 -0.003935 -0.010478 -0.000093 0.028532 -0.000930 -0.012817
# 5 -0.000805 0.000829 -0.003454 -0.000930 0.023490 0.000443
# 6 0.012152 0.017646 -0.009757 -0.012817 0.000443 0.048034
#
#
# Mechanical properties :
#
#
# Convention : Reuss Voigt Hill
#
# Bulk Modulus (GPa) = 24.42221 35.91904 30.17063
# Shear Modulus (GPa) = 25.29431 36.06434 30.67932
#
# Velocity S-wave (km/s) = 3.27510 3.91068 3.60692
# Velocity P-wave (km/s) = 4.96570 5.96850 5.49004
#
# Compressibility (1/GPa) = 0.04094633
#
# Stress axis : x y z
#
# Youngs Moduli (GPa) = 59.63219 38.45085 50.81143
#
# Poissons Ratio (x) = -0.20468 0.27632
# Poissons Ratio (y) = -0.31743 0.54065
# Poissons Ratio (z) = 0.32429 0.40913
#
# Static dielectric constant tensor:
#      x y z
#    x 4.276580 0.147630 0.000260 
#    y 0.147630 4.206840 0.114070 
#    z 0.000260 0.114070 4.321350 
# 
# 
# High freq. dielectric constant tensor:
#      x y z
#    x 1.944600 0.011590 0.000750 
#    y 0.011590 1.941230 0.003940 
#    z 0.000750 0.003940 1.937450 
# 
# From -- ./inp_files/120414.got.cif
#   From: 2010.06.25/outbox.cif.g09.slc.cpg/sg2_61_cif.got.tgz:120414.got - 2010.06.27 13:26:56.
