data_PCOD8015711
_publ_section_title
;
Structure prediction by ZEFSAII (Michael W. Deem and Ramdas Pophale) SiO2 
 PCOD8015711
Probable space group: P -1
;
_chemical_formula_sum "Si O2"
_cell_formula_units_Z 16
_cell_length_a 13.461631
_cell_length_b 9.282132
_cell_length_c 22.648268
_cell_angle_alpha 41.387571
_cell_angle_beta 32.294707
_cell_angle_gamma 27.341018
_cell_volume 694.426178
_symmetry_space_group_name_H-M "P -1"
_symmetry_group_IT_number 2
_symmetry_cell_setting 'triclinic'
loop_
_space_group_symop_operation_xyz
x,y,z
-x,-y,-z
loop_
_atom_site_type_symbol
_atom_site_label
_atom_site_fract_x
_atom_site_fract_y
_atom_site_fract_z
Si Si1 0.352845 0.668366 0.169234
Si Si2 0.581838 0.176809 0.393297
Si Si3 0.939149 0.406012 0.732173
Si Si4 0.925235 0.054876 0.358823
Si Si5 0.239765 0.124447 0.994473
Si Si6 0.948454 0.233386 0.998830
Si Si7 0.146497 0.334083 0.179379
Si Si8 0.027267 0.784508 0.506084
O O1 0.327334 0.490066 0.190085
O O2 0.186130 0.751390 0.285757
O O3 0.238892 0.983284 0.098033
O O4 0.653592 0.447849 0.108055
O O5 0.314855 0.538232 0.403122
O O6 0.676357 0.226444 0.388678
O O7 0.500000 0.000000 0.500000
O O8 0.811304 0.970293 0.291103
O O9 0.924131 0.454502 0.794340
O O10 0.958538 0.617017 0.623100
O O11 0.972262 0.263189 0.291616
O O12 0.843293 0.986847 0.479402
O O13 0.000000 0.500000 0.000000
O O14 0.174308 0.033152 0.997738
O O15 0.533887 0.985140 0.882907
O O16 0.947667 0.464082 0.894276
O O17 0.000000 0.000000 0.000000
O O18 0.000000 0.000000 0.500000
#
# Coordination Sequence:
#
# PCOD8015711 Si02
#       8
#     2   2   2   2   2   2   2   2
#     4  10  23  41  62  93 130 166 220 267 315 388
#     4   9  23  43  65  90 127 169 214 264 321 379
#     4  10  21  43  63  92 133 169 210 274 317 373
#     4  11  23  41  67  94 128 169 215 265 323 379
#     4  11  23  41  64  93 133 170 212 268 325 381
#     4  11  23  40  63  92 125 173 214 259 326 386
#     4  11  23  40  63  97 132 165 218 271 315 381
#     4  11  23  44  66  95 129 167 215 267 323 381
#
# _framework density 23.040607000000001
#
# number of rings (size 3 to 8) (size 9 to 14) (size 15 to 20)
#    0.000    1.500    1.250    3.000    0.000   15.000 
#    2.250    1.250    0.000    0.000    0.000    0.000 
#    0.000    0.000    0.000    0.000    0.000    0.000 
#
# Total GULP energy -198299.741640 kJ/mol
# GULP energy per Si atom -12393.733853 kJ/mol
# Density = 2.298817 g / cm^3
# Si number density = 23.040607 Si / 1000 Ang^3
#
#
#
# Elastic Constant Matrix: (Units=GPa)
#
#
# Indices 1 2 3 4 5 6 
#
# 1 95.8323 6.7382 7.4340 -1.2781 -6.4380 12.2316
# 2 6.7382 77.1907 5.7270 3.0885 -4.7959 8.7503
# 3 7.4340 5.7270 62.2352 -2.4731 -4.1361 -5.0142
# 4 -1.2781 3.0885 -2.4731 18.2227 7.6411 0.6151
# 5 -6.4380 -4.7959 -4.1361 7.6411 36.9449 1.7119
# 6 12.2316 8.7503 -5.0142 0.6151 1.7119 39.7584
#
#
#
# Elastic Compliance Matrix: (Units=1/GPa)
#
#
# Indices 1 2 3 4 5 6 
#
# 1 0.011163 -0.000334 -0.001469 -0.000040 0.001914 -0.003628
# 2 -0.000334 0.013739 -0.001455 -0.003459 0.002424 -0.003155
# 3 -0.001469 -0.001455 0.016741 0.001945 0.000897 0.002815
# 4 -0.000040 -0.003459 0.001945 0.061115 -0.012908 0.000629
# 5 0.001914 0.002424 0.000897 -0.012908 0.030584 -0.002126
# 6 -0.003628 -0.003155 0.002815 0.000629 -0.002126 0.027399
#
#
# Mechanical properties :
#
#
# Convention : Reuss Voigt Hill
#
# Bulk Modulus (GPa) = 28.46809 30.56184 29.51496
# Shear Modulus (GPa) = 27.93811 33.34248 30.64030
#
# Velocity S-wave (km/s) = 3.48596 3.80823 3.65065
# Velocity P-wave (km/s) = 5.34649 5.71226 5.53240
#
# Compressibility (1/GPa) = 0.03512705
#
# Stress axis : x y z
#
# Youngs Moduli (GPa) = 89.57793 72.78700 59.73298
#
# Poissons Ratio (x) = 0.02429 0.08778
# Poissons Ratio (y) = 0.02989 0.08691
# Poissons Ratio (z) = 0.13163 0.10590
#
# Static dielectric constant tensor:
#      x y z
#    x 4.638390 -0.201510 -0.101930 
#    y -0.201510 4.215800 0.131050 
#    z -0.101930 0.131050 4.193240 
# 
# 
# High freq. dielectric constant tensor:
#      x y z
#    x 1.929840 0.009720 -0.001750 
#    y 0.009720 1.899790 0.001710 
#    z -0.001750 0.001710 1.907770 
# 
# From -- ./inp_files/37870.got.cif
#   From: 2010.06.25/outbox.cif.g09.slc.cpg/sg2_19_cif.got.tgz:37870.got - 2010.06.27 13:26:56.
