data_PCOD8015242
_publ_section_title
;
Structure prediction by ZEFSAII (Michael W. Deem and Ramdas Pophale) SiO2 
 PCOD8015242
Probable space group: P -1
;
_chemical_formula_sum "Si O2"
_cell_formula_units_Z 16
_cell_length_a 11.569909
_cell_length_b 14.330902
_cell_length_c 9.211024
_cell_angle_alpha 87.910855
_cell_angle_beta 102.963384
_cell_angle_gamma 149.807035
_cell_volume 708.828453
_symmetry_space_group_name_H-M "P -1"
_symmetry_group_IT_number 2
_symmetry_cell_setting 'triclinic'
loop_
_space_group_symop_operation_xyz
x,y,z
-x,-y,-z
loop_
_atom_site_type_symbol
_atom_site_label
_atom_site_fract_x
_atom_site_fract_y
_atom_site_fract_z
Si Si1 0.946317 0.256578 0.267740
Si Si2 0.623128 0.820706 0.743611
Si Si3 0.115973 0.480435 0.029119
Si Si4 0.313850 0.105171 0.914199
Si Si5 0.737082 0.583948 0.384029
Si Si6 0.335708 0.794766 0.605814
Si Si7 0.073011 0.099014 0.662088
Si Si8 0.868830 0.245662 0.694961
O O1 0.767494 0.209525 0.295951
O O2 0.104990 0.418307 0.180657
O O3 0.148927 0.352575 0.427389
O O4 0.776497 0.056913 0.163981
O O5 0.530989 0.650342 0.700893
O O6 0.371509 0.710873 0.663410
O O7 0.740121 0.922402 0.928256
O O8 0.834614 0.985880 0.673514
O O9 0.396061 0.681884 0.043718
O O10 0.000000 0.500000 0.000000
O O11 0.936193 0.305596 0.876020
O O12 0.172496 0.092495 0.802163
O O13 0.715088 0.678686 0.335066
O O14 0.918860 0.671539 0.310285
O O15 0.159645 0.680384 0.419009
O O16 0.611358 0.014147 0.626385
O O17 0.000000 0.000000 0.500000
#
# Coordination Sequence:
#
# PCOD8015242 Si02
#       8
#     2   2   2   2   2   2   2   2
#     4  11  26  43  72 107 148 188 235 286 358 426
#     4  12  26  45  77 105 140 188 236 296 358 423
#     4  12  26  42  71 108 149 185 233 292 357 420
#     4  12  27  49  71 107 145 190 237 297 354 418
#     4  11  25  46  71 105 135 189 243 290 349 426
#     4  10  22  42  74 102 149 186 230 283 358 426
#     4  12  28  50  75 101 142 188 245 299 357 414
#     4  10  21  42  67 103 141 188 229 288 348 425
#
# _framework density 22.572458000000001
#
# number of rings (size 3 to 8) (size 9 to 14) (size 15 to 20)
#    0.000    0.750    3.750    2.625    3.500    4.500 
#    0.000    0.000    0.000    0.000    0.000    0.000 
#    0.000    0.000    0.000    0.000    0.000    0.000 
#
# Total GULP energy -198364.460406 kJ/mol
# GULP energy per Si atom -12397.778775 kJ/mol
# Density = 2.252108 g / cm^3
# Si number density = 22.572458 Si / 1000 Ang^3
#
#
#
# Elastic Constant Matrix: (Units=GPa)
#
#
# Indices 1 2 3 4 5 6 
#
# 1 89.8871 24.7257 39.2330 -8.7892 0.5679 -9.7903
# 2 24.7257 77.6818 35.4273 0.1355 -16.9128 -17.1505
# 3 39.2330 35.4273 127.3868 -12.1157 -33.6782 1.7446
# 4 -8.7892 0.1355 -12.1157 38.7771 -3.8520 1.7441
# 5 0.5679 -16.9128 -33.6782 -3.8520 46.0403 -3.2595
# 6 -9.7903 -17.1505 1.7446 1.7441 -3.2595 39.2530
#
#
#
# Elastic Compliance Matrix: (Units=1/GPa)
#
#
# Indices 1 2 3 4 5 6 
#
# 1 0.014356 -0.002942 -0.004682 0.001268 -0.004430 0.002079
# 2 -0.002942 0.017964 -0.003074 -0.001560 0.004802 0.007720
# 3 -0.004682 -0.003074 0.012779 0.003893 0.008421 -0.002553
# 4 0.001268 -0.001560 0.003893 0.027806 0.004486 -0.001402
# 5 -0.004430 0.004802 0.008421 0.004486 0.030282 0.002934
# 6 0.002079 0.007720 -0.002553 -0.001402 0.002934 0.029787
#
#
# Mechanical properties :
#
#
# Convention : Reuss Voigt Hill
#
# Bulk Modulus (GPa) = 42.18991 54.85861 48.52426
# Shear Modulus (GPa) = 30.81239 37.85208 34.33223
#
# Velocity S-wave (km/s) = 3.69866 4.09946 3.90420
# Velocity P-wave (km/s) = 6.08042 6.83838 6.47051
#
# Compressibility (1/GPa) = 0.02370235
#
# Stress axis : x y z
#
# Youngs Moduli (GPa) = 69.65541 55.66630 78.25441
#
# Poissons Ratio (x) = 0.16375 0.36642
# Poissons Ratio (y) = 0.20490 0.24059
# Poissons Ratio (z) = 0.32615 0.17115
#
# Static dielectric constant tensor:
#      x y z
#    x 4.099110 -0.283990 0.089520 
#    y -0.283990 4.165020 -0.290490 
#    z 0.089520 -0.290490 4.434900 
# 
# 
# High freq. dielectric constant tensor:
#      x y z
#    x 1.893870 -0.005680 -0.003520 
#    y -0.005680 1.900600 -0.007610 
#    z -0.003520 -0.007610 1.900550 
# 
# From -- ./inp_files/186381.got.cif
#   From: 2010.06.25/outbox.cif.g09.slc.cpg/sg2_94_cif.got.tgz:186381.got - 2010.06.27 13:26:56.
