data_PCOD8015920
_publ_section_title
;
Structure prediction by ZEFSAII (Michael W. Deem and Ramdas Pophale) SiO2 
 PCOD8015920
Probable space group: P -1
;
_chemical_formula_sum "Si O2"
_cell_formula_units_Z 14
_cell_length_a 11.138681
_cell_length_b 7.485337
_cell_length_c 7.337532
_cell_angle_alpha 73.354206
_cell_angle_beta 79.562666
_cell_angle_gamma 79.513744
_cell_volume 570.922189
_symmetry_space_group_name_H-M "P -1"
_symmetry_group_IT_number 2
_symmetry_cell_setting 'triclinic'
loop_
_space_group_symop_operation_xyz
x,y,z
-x,-y,-z
loop_
_atom_site_type_symbol
_atom_site_label
_atom_site_fract_x
_atom_site_fract_y
_atom_site_fract_z
Si Si1 0.068353 0.096917 0.610366
Si Si2 0.326086 0.204175 0.001963
Si Si3 0.042250 0.629439 0.695766
Si Si4 0.358648 0.576127 0.030577
Si Si5 0.943411 0.781491 0.042043
Si Si6 0.424288 0.812742 0.251217
Si Si7 0.722842 0.212622 0.364469
O O1 0.013841 0.092141 0.837044
O O2 0.045784 0.312954 0.474499
O O3 0.210964 0.004571 0.595162
O O4 0.000000 0.000000 0.500000
O O5 0.287356 0.393580 0.080527
O O6 0.382366 0.033339 0.163448
O O7 0.203450 0.162273 0.948038
O O8 0.429964 0.241674 0.813538
O O9 0.020711 0.428192 0.828148
O O10 0.185790 0.648425 0.616699
O O11 0.009909 0.786261 0.826453
O O12 0.338916 0.688576 0.192923
O O13 0.500000 0.500000 0.000000
O O14 0.319153 0.729931 0.842528
O O15 0.398749 0.772496 0.480729
#
# Coordination Sequence:
#
# PCOD8015920 Si02
#       7
#     2   2   2   2   2   2   2
#     4  10  23  39  62  95 127 168 217 264 326 388
#     4  10  21  43  67  95 128 179 217 264 335 383
#     4  10  23  40  64  94 126 171 217 265 329 384
#     4  10  22  42  64  95 129 173 220 263 327 390
#     4  11  21  42  63  90 135 167 218 273 320 392
#     4  10  23  42  66  94 136 168 219 274 318 394
#     4  11  22  42  63  98 128 168 220 261 330 387
#
# _framework density 24.521729000000001
#
# number of rings (size 3 to 8) (size 9 to 14) (size 15 to 20)
#    0.000    1.714    1.429    2.143    0.000    6.857 
#    5.143   11.429    0.000    0.000    0.000    0.000 
#    0.000    0.000    0.000    0.000    0.000    0.000 
#
# Total GULP energy -173492.674686 kJ/mol
# GULP energy per Si atom -12392.333906 kJ/mol
# Density = 2.446592 g / cm^3
# Si number density = 24.521729 Si / 1000 Ang^3
#
#
#
# Elastic Constant Matrix: (Units=GPa)
#
#
# Indices 1 2 3 4 5 6 
#
# 1 76.0702 -3.1862 12.3930 7.0457 6.9127 -14.7119
# 2 -3.1862 28.0042 -6.4836 -3.2434 0.7014 -9.0518
# 3 12.3930 -6.4836 105.4842 10.9655 -2.3402 -9.0609
# 4 7.0457 -3.2434 10.9655 29.9643 -12.7647 12.3667
# 5 6.9127 0.7014 -2.3402 -12.7647 39.3401 -4.9392
# 6 -14.7119 -9.0518 -9.0609 12.3667 -4.9392 30.2115
#
#
#
# Elastic Compliance Matrix: (Units=1/GPa)
#
#
# Indices 1 2 3 4 5 6 
#
# 1 0.017678 0.005603 0.000651 -0.012027 -0.005243 0.014548
# 2 0.005603 0.042882 0.004332 -0.006834 -0.001265 0.019466
# 3 0.000651 0.004332 0.011084 -0.007360 -0.000941 0.007798
# 4 -0.012027 -0.006834 -0.007360 0.058160 0.016754 -0.031179
# 5 -0.005243 -0.001265 -0.000941 0.016754 0.031118 -0.004985
# 6 0.014548 0.019466 0.007798 -0.031179 -0.004985 0.060304
#
#
# Mechanical properties :
#
#
# Convention : Reuss Voigt Hill
#
# Bulk Modulus (GPa) = 10.77402 23.88944 17.33173
# Shear Modulus (GPa) = 21.64581 33.69219 27.66900
#
# Velocity S-wave (km/s) = 2.97428 3.71074 3.36273
# Velocity P-wave (km/s) = 4.02472 5.30308 4.70750
#
# Compressibility (1/GPa) = 0.09281588
#
# Stress axis : x y z
#
# Youngs Moduli (GPa) = 56.56621 23.32000 90.22112
#
# Poissons Ratio (x) = -0.13066 -0.05873
# Poissons Ratio (y) = -0.31694 -0.39083
# Poissons Ratio (z) = -0.03682 -0.10102
#
# Static dielectric constant tensor:
#      x y z
#    x 4.192260 0.047200 0.304440 
#    y 0.047200 5.140230 -0.091420 
#    z 0.304440 -0.091420 4.926150 
# 
# 
# High freq. dielectric constant tensor:
#      x y z
#    x 1.948010 -0.008750 0.010000 
#    y -0.008750 2.002200 -0.007580 
#    z 0.010000 -0.007580 1.978650 
# 
# From -- ./inp_files/60393.got.cif
#   From: 2010.06.25/outbox.cif.g09.slc.cpg/sg2_31_cif.got.tgz:60393.got - 2010.06.27 13:26:56.
