data_PCOD8015886
_publ_section_title
;
Structure prediction by ZEFSAII (Michael W. Deem and Ramdas Pophale) SiO2 
 PCOD8015886
Probable space group: P -1
;
_chemical_formula_sum "Si O2"
_cell_formula_units_Z 14
_cell_length_a 9.372528
_cell_length_b 8.978575
_cell_length_c 12.116121
_cell_angle_alpha 125.620651
_cell_angle_beta 45.873730
_cell_angle_gamma 122.301671
_cell_volume 580.240410
_symmetry_space_group_name_H-M "P -1"
_symmetry_group_IT_number 2
_symmetry_cell_setting 'triclinic'
loop_
_space_group_symop_operation_xyz
x,y,z
-x,-y,-z
loop_
_atom_site_type_symbol
_atom_site_label
_atom_site_fract_x
_atom_site_fract_y
_atom_site_fract_z
Si Si1 0.703679 0.344227 0.146858
Si Si2 0.120836 0.408359 0.048970
Si Si3 0.152938 0.740723 0.318252
Si Si4 0.778130 0.897508 0.255525
Si Si5 0.677788 0.249745 0.531640
Si Si6 0.264461 0.341078 0.390887
Si Si7 0.807700 0.042027 0.826445
O O1 0.493604 0.369527 0.327816
O O2 0.876136 0.381503 0.163902
O O3 0.769186 0.489851 0.075067
O O4 0.670188 0.130812 0.024428
O O5 0.194054 0.536853 0.171533
O O6 0.185363 0.204842 0.925182
O O7 0.274613 0.804670 0.392407
O O8 0.231463 0.895951 0.250232
O O9 0.910984 0.731199 0.456667
O O10 0.562896 0.794020 0.379401
O O11 0.956676 0.870554 0.230701
O O12 0.778007 0.119184 0.337896
O O13 0.778205 0.466999 0.552889
O O14 0.243711 0.184457 0.236660
#
# Coordination Sequence:
#
# PCOD8015886 Si02
#       7
#     2   2   2   2   2   2   2
#     4   9  19  38  65  92 123 169 208 252 315 378
#     4   9  19  41  63  92 124 166 209 257 310 370
#     4  11  24  39  65 100 127 158 211 270 310 354
#     4  10  21  43  67  85 128 176 208 237 329 385
#     4  11  24  40  66  93 126 171 208 251 318 378
#     4  12  22  39  65  98 126 164 209 263 307 379
#     4  10  22  42  69  89 128 166 213 258 310 368
#
# _framework density 24.127929000000002
#
# number of rings (size 3 to 8) (size 9 to 14) (size 15 to 20)
#    0.000    1.714    2.857    2.143    0.000    1.143 
#    0.000    0.714    0.000    0.000    0.000    0.000 
#    0.000    0.000    0.000    0.000    0.000    0.000 
#
# Total GULP energy -173513.580357 kJ/mol
# GULP energy per Si atom -12393.827168 kJ/mol
# Density = 2.407301 g / cm^3
# Si number density = 24.127929 Si / 1000 Ang^3
#
#
#
# Elastic Constant Matrix: (Units=GPa)
#
#
# Indices 1 2 3 4 5 6 
#
# 1 43.4869 11.6217 21.8273 8.0147 -14.0025 6.8269
# 2 11.6217 102.7575 26.1801 40.8208 1.3100 3.8729
# 3 21.8273 26.1801 94.6226 39.2226 -19.0625 1.1957
# 4 8.0147 40.8208 39.2226 51.7492 5.3535 -0.2666
# 5 -14.0025 1.3100 -19.0625 5.3535 30.3140 3.1970
# 6 6.8269 3.8729 1.1957 -0.2666 3.1970 22.0514
#
#
#
# Elastic Compliance Matrix: (Units=1/GPa)
#
#
# Indices 1 2 3 4 5 6 
#
# 1 0.031962 -0.001215 -0.002076 -0.004081 0.015482 -0.011863
# 2 -0.001215 0.014739 0.002562 -0.013722 0.003150 -0.002974
# 3 -0.002076 0.002562 0.022185 -0.020277 0.016852 -0.003699
# 4 -0.004081 -0.013722 -0.020277 0.048631 -0.023557 0.008776
# 5 0.015482 0.003150 0.016852 -0.023557 0.056312 -0.014709
# 6 -0.011863 -0.002974 -0.003699 0.008776 -0.014709 0.051983
#
#
# Mechanical properties :
#
#
# Convention : Reuss Voigt Hill
#
# Bulk Modulus (GPa) = 14.83054 40.01391 27.42223
# Shear Modulus (GPa) = 20.02035 32.90546 26.46290
#
# Velocity S-wave (km/s) = 2.88368 3.69696 3.31535
# Velocity P-wave (km/s) = 4.15300 5.90283 5.10347
#
# Compressibility (1/GPa) = 0.06742843
#
# Stress axis : x y z
#
# Youngs Moduli (GPa) = 31.28719 67.84657 45.07516
#
# Poissons Ratio (x) = 0.08243 0.09358
# Poissons Ratio (y) = 0.03801 -0.11549
# Poissons Ratio (z) = 0.06496 -0.17384
#
# Static dielectric constant tensor:
#      x y z
#    x 3.938060 0.297340 -0.313400 
#    y 0.297340 4.318120 0.638990 
#    z -0.313400 0.638990 4.557590 
# 
# 
# High freq. dielectric constant tensor:
#      x y z
#    x 1.928290 0.029910 -0.027660 
#    y 0.029910 1.952260 0.039860 
#    z -0.027660 0.039860 1.961160 
# 
# From -- ./inp_files/159131.got.cif
#   From: 2010.06.25/outbox.cif.g09.slc.cpg/sg2_80_cif.got.tgz:159131.got - 2010.06.27 13:26:56.
