data_PCOD8015835
_publ_section_title
;
Structure prediction by ZEFSAII (Michael W. Deem and Ramdas Pophale) SiO2 
 PCOD8015835
Probable space group: P -1
;
_chemical_formula_sum "Si O2"
_cell_formula_units_Z 14
_cell_length_a 8.930482
_cell_length_b 11.078063
_cell_length_c 11.370772
_cell_angle_alpha 109.403754
_cell_angle_beta 60.724907
_cell_angle_gamma 138.931798
_cell_volume 643.342310
_symmetry_space_group_name_H-M "P -1"
_symmetry_group_IT_number 2
_symmetry_cell_setting 'triclinic'
loop_
_space_group_symop_operation_xyz
x,y,z
-x,-y,-z
loop_
_atom_site_type_symbol
_atom_site_label
_atom_site_fract_x
_atom_site_fract_y
_atom_site_fract_z
Si Si1 0.296989 0.843799 0.157982
Si Si2 0.705037 0.717782 0.973029
Si Si3 0.432683 0.264455 0.420535
Si Si4 0.117268 0.346820 0.561528
Si Si5 0.734800 0.045619 0.453176
Si Si6 0.748371 0.993562 0.173163
Si Si7 0.537429 0.806156 0.872148
O O1 0.533908 0.972093 0.199029
O O2 0.044544 0.696354 0.278509
O O3 0.287969 0.975614 0.137933
O O4 0.312707 0.736730 0.020481
O O5 0.680995 0.768158 0.869359
O O6 0.500000 0.500000 0.000000
O O7 0.661876 0.805226 0.112599
O O8 0.985217 0.817109 0.918527
O O9 0.227486 0.264062 0.505611
O O10 0.666581 0.433097 0.463507
O O11 0.309049 0.072896 0.459800
O O12 0.534025 0.288663 0.258227
O O13 0.954013 0.259176 0.477257
O O14 0.795669 0.007075 0.297781
O O15 0.500000 0.000000 0.500000
#
# Coordination Sequence:
#
# PCOD8015835 Si02
#       7
#     2   2   2   2   2   2   2
#     4  10  21  43  66  93 129 169 216 266 324 378
#     4  10  23  43  66  96 127 165 213 263 321 387
#     4  11  25  42  66  99 128 174 221 261 323 387
#     4  11  24  42  63  97 130 170 223 263 317 387
#     4  12  23  42  68  93 131 172 209 270 321 379
#     4  10  22  42  65  94 128 168 210 262 325 377
#     4  10  21  43  66  93 126 168 212 266 320 382
#
# _framework density 21.761354999999998
#
# number of rings (size 3 to 8) (size 9 to 14) (size 15 to 20)
#    0.000    1.429    2.857    1.286    2.000    4.571 
#   18.000    0.000    0.000    0.000    0.000    0.000 
#    0.000    0.000    0.000    0.000    0.000    0.000 
#
# Total GULP energy -173508.060235 kJ/mol
# GULP energy per Si atom -12393.432874 kJ/mol
# Density = 2.171182 g / cm^3
# Si number density = 21.761355 Si / 1000 Ang^3
#
#
#
# Elastic Constant Matrix: (Units=GPa)
#
#
# Indices 1 2 3 4 5 6 
#
# 1 77.5025 32.5417 21.0696 -3.1299 -2.5439 11.4264
# 2 32.5417 111.0674 29.4811 6.9862 -4.6429 20.6065
# 3 21.0696 29.4811 129.3372 14.3274 7.6873 13.4977
# 4 -3.1299 6.9862 14.3274 30.5171 9.2637 4.5044
# 5 -2.5439 -4.6429 7.6873 9.2637 38.3186 0.6122
# 6 11.4264 20.6065 13.4977 4.5044 0.6122 30.1476
#
#
#
# Elastic Compliance Matrix: (Units=1/GPa)
#
#
# Indices 1 2 3 4 5 6 
#
# 1 0.015569 -0.003745 -0.001776 0.003720 0.000087 -0.003104
# 2 -0.003745 0.011745 -0.001347 -0.002226 0.002074 -0.005715
# 3 -0.001776 -0.001347 0.008979 -0.003440 -0.001221 -0.001887
# 4 0.003720 -0.002226 -0.003440 0.038454 -0.008566 -0.003919
# 5 0.000087 0.002074 -0.001221 -0.008566 0.028673 -0.000207
# 6 -0.003104 -0.005715 -0.001887 -0.003919 -0.000207 0.039688
#
#
# Mechanical properties :
#
#
# Convention : Reuss Voigt Hill
#
# Bulk Modulus (GPa) = 44.33269 53.78800 49.06035
# Shear Modulus (GPa) = 30.42067 35.45098 32.93582
#
# Velocity S-wave (km/s) = 3.74294 4.04056 3.89459
# Velocity P-wave (km/s) = 6.25267 6.82196 6.54351
#
# Compressibility (1/GPa) = 0.02255672
#
# Stress axis : x y z
#
# Youngs Moduli (GPa) = 64.23226 85.13946 111.37428
#
# Poissons Ratio (x) = 0.31881 0.19779
# Poissons Ratio (y) = 0.24052 0.15007
# Poissons Ratio (z) = 0.11407 0.11472
#
# Static dielectric constant tensor:
#      x y z
#    x 4.001820 0.102740 -0.328640 
#    y 0.102740 3.669250 0.057190 
#    z -0.328640 0.057190 3.686980 
# 
# 
# High freq. dielectric constant tensor:
#      x y z
#    x 1.852110 0.011810 -0.008510 
#    y 0.011810 1.835260 0.013060 
#    z -0.008510 0.013060 1.872660 
# 
# From -- ./inp_files/307077.got.cif
#   From: 2010.06.25/outbox.cif.g09.slc.cpg/sg2_154_cif.got.tgz:307077.got - 2010.06.27 13:26:56.
