data_PCOD8015769
_publ_section_title
;
Structure prediction by ZEFSAII (Michael W. Deem and Ramdas Pophale) SiO2 
 PCOD8015769
Probable space group: P -1
;
_chemical_formula_sum "Si O2"
_cell_formula_units_Z 16
_cell_length_a 21.295061
_cell_length_b 21.955684
_cell_length_c 5.338960
_cell_angle_alpha 107.588667
_cell_angle_beta 99.650769
_cell_angle_gamma 19.254533
_cell_volume 727.668231
_symmetry_space_group_name_H-M "P -1"
_symmetry_group_IT_number 2
_symmetry_cell_setting 'triclinic'
loop_
_space_group_symop_operation_xyz
x,y,z
-x,-y,-z
loop_
_atom_site_type_symbol
_atom_site_label
_atom_site_fract_x
_atom_site_fract_y
_atom_site_fract_z
Si Si1 0.900545 0.869185 0.143814
Si Si2 0.857737 0.738233 0.398352
Si Si3 0.103113 0.969146 0.071826
Si Si4 0.790847 0.372859 0.298872
Si Si5 0.397591 0.924382 0.106530
Si Si6 0.318291 0.802362 0.488336
Si Si7 0.830290 0.463443 0.749768
Si Si8 0.317285 0.124872 0.053001
O O1 0.102806 0.716523 0.009270
O O2 0.987167 0.725330 0.167656
O O3 0.767641 0.972756 0.946088
O O4 0.754456 0.055272 0.440057
O O5 0.818899 0.730440 0.607357
O O6 0.686252 0.959111 0.559630
O O7 0.827630 0.728688 0.107081
O O8 0.083722 0.554915 0.353964
O O9 0.927500 0.188465 0.295747
O O10 0.754900 0.171517 0.760358
O O11 0.000000 0.000000 0.000000
O O12 0.233654 0.861836 0.777444
O O13 0.562918 0.564050 0.354386
O O14 0.791326 0.439975 0.522023
O O15 0.616613 0.684356 0.015531
O O16 0.409403 0.964979 0.937092
O O17 0.500000 0.000000 0.000000
#
# Coordination Sequence:
#
# PCOD8015769 Si02
#       8
#     2   2   2   2   2   2   2   2
#     4  11  22  39  60  95 133 160 209 265 323 382
#     4  10  22  41  62  93 127 163 211 265 314 376
#     4  11  26  46  66  94 132 171 217 264 308 375
#     4  11  24  38  67  95 129 170 208 265 323 379
#     4  10  23  37  63  95 124 169 204 263 322 379
#     4  11  25  42  68  97 126 169 216 260 320 375
#     4  12  21  39  64  95 129 165 208 261 331 382
#     4  10  21  43  65  86 128 172 211 263 313 367
#
# _framework density 21.988042
#
# number of rings (size 3 to 8) (size 9 to 14) (size 15 to 20)
#    0.750    0.500    5.000    0.750    1.750    3.000 
#    0.000    1.250    0.000    0.000    0.000    0.000 
#    0.000    0.000    0.000    0.000    0.000    0.000 
#
# Total GULP energy -198274.868428 kJ/mol
# GULP energy per Si atom -12392.179277 kJ/mol
# Density = 2.193800 g / cm^3
# Si number density = 21.988042 Si / 1000 Ang^3
#
#
#
# Elastic Constant Matrix: (Units=GPa)
#
#
# Indices 1 2 3 4 5 6 
#
# 1 63.0292 30.8422 12.6205 1.6084 -11.0946 -24.3893
# 2 30.8422 121.9804 53.5085 4.3965 -12.9622 -27.1204
# 3 12.6205 53.5085 93.7402 -9.4288 -15.9711 -10.9492
# 4 1.6084 4.3965 -9.4288 45.2144 -7.7883 1.0112
# 5 -11.0946 -12.9622 -15.9711 -7.7883 25.2059 -1.2777
# 6 -24.3893 -27.1204 -10.9492 1.0112 -1.2777 33.0892
#
#
#
# Elastic Compliance Matrix: (Units=1/GPa)
#
#
# Indices 1 2 3 4 5 6 
#
# 1 0.025915 -0.002064 0.002283 0.001618 0.013236 0.018626
# 2 -0.002064 0.013520 -0.006560 -0.002521 0.001489 0.007523
# 3 0.002283 -0.006560 0.016624 0.005706 0.010030 0.002019
# 4 0.001618 -0.002521 0.005706 0.025357 0.010900 0.000661
# 5 0.013236 0.001489 0.010030 0.010900 0.056807 0.016156
# 6 0.018626 0.007523 0.002019 0.000661 0.016156 0.051388
#
#
# Mechanical properties :
#
#
# Convention : Reuss Voigt Hill
#
# Bulk Modulus (GPa) = 23.05523 52.52135 37.78829
# Shear Modulus (GPa) = 23.06786 32.82048 27.94417
#
# Velocity S-wave (km/s) = 3.24251 3.86768 3.56881
# Velocity P-wave (km/s) = 4.95243 6.62445 5.84850
#
# Compressibility (1/GPa) = 0.04337411
#
# Stress axis : x y z
#
# Youngs Moduli (GPa) = 38.58823 73.96715 60.15455
#
# Poissons Ratio (x) = 0.15270 -0.13732
# Poissons Ratio (y) = 0.07966 0.39463
# Poissons Ratio (z) = -0.08809 0.48525
#
# Static dielectric constant tensor:
#      x y z
#    x 3.884850 0.005580 -0.073240 
#    y 0.005580 3.865640 0.071200 
#    z -0.073240 0.071200 3.899930 
# 
# 
# High freq. dielectric constant tensor:
#      x y z
#    x 1.857280 -0.016560 -0.006000 
#    y -0.016560 1.856810 0.004170 
#    z -0.006000 0.004170 1.860620 
# 
# From -- ./inp_files/120670.got.cif
#   From: 2010.06.25/outbox.cif.g09.slc.cpg/sg2_61_cif.got.tgz:120670.got - 2010.06.27 13:26:56.
