data_PCOD8015493
_publ_section_title
;
Structure prediction by ZEFSAII (Michael W. Deem and Ramdas Pophale) SiO2 
 PCOD8015493
Probable space group: P -1
;
_chemical_formula_sum "Si O2"
_cell_formula_units_Z 16
_cell_length_a 10.190030
_cell_length_b 9.733498
_cell_length_c 16.702619
_cell_angle_alpha 148.938971
_cell_angle_beta 106.775913
_cell_angle_gamma 60.899325
_cell_volume 716.121136
_symmetry_space_group_name_H-M "P -1"
_symmetry_group_IT_number 2
_symmetry_cell_setting 'triclinic'
loop_
_space_group_symop_operation_xyz
x,y,z
-x,-y,-z
loop_
_atom_site_type_symbol
_atom_site_label
_atom_site_fract_x
_atom_site_fract_y
_atom_site_fract_z
Si Si1 0.327262 0.222511 0.980088
Si Si2 0.209184 0.779031 0.134292
Si Si3 0.836436 0.098131 0.478078
Si Si4 0.134010 0.964231 0.729325
Si Si5 0.182172 0.349949 0.471250
Si Si6 0.820184 0.186603 0.035912
Si Si7 0.681409 0.803126 0.410783
Si Si8 0.323698 0.245006 0.172745
O O1 0.200092 0.136973 0.881644
O O2 0.492663 0.921042 0.860768
O O3 0.334417 0.475335 0.050506
O O4 0.282178 0.352223 0.126774
O O5 0.192238 0.703168 0.002321
O O6 0.266628 0.034672 0.277748
O O7 0.045415 0.905309 0.213995
O O8 0.859535 0.959863 0.324428
O O9 0.749159 0.461647 0.637423
O O10 0.729025 0.990711 0.452483
O O11 0.000000 0.000000 0.500000
O O12 0.234998 0.597749 0.578961
O O13 0.212894 0.266541 0.527615
O O14 0.000000 0.500000 0.500000
O O15 0.747237 0.967786 0.922186
O O16 0.718766 0.480882 0.218945
O O17 0.000000 0.000000 0.000000
O O18 0.500000 0.000000 0.500000
#
# Coordination Sequence:
#
# PCOD8015493 Si02
#       8
#     2   2   2   2   2   2   2   2
#     4  11  24  42  65  96 142 178 232 284 349 407
#     4  11  23  43  71 101 135 181 233 286 345 417
#     4  12  25  47  74 103 140 187 239 287 355 436
#     4  11  23  43  71 101 135 181 233 286 345 417
#     4  10  21  42  69  98 137 183 229 283 352 423
#     4  12  25  47  74 103 140 187 239 287 355 436
#     4  12  28  45  73 109 146 181 238 302 362 416
#     4  11  26  43  69  99 138 187 233 285 351 419
#
# _framework density 22.342590000000001
#
# number of rings (size 3 to 8) (size 9 to 14) (size 15 to 20)
#    0.000    0.750    0.000    8.625    7.000    1.000 
#    4.500    0.000    0.000    0.000    0.000    0.000 
#    0.000    0.000    0.000    0.000    0.000    0.000 
#
# Total GULP energy -198463.790209 kJ/mol
# GULP energy per Si atom -12403.986888 kJ/mol
# Density = 2.229174 g / cm^3
# Si number density = 22.342590 Si / 1000 Ang^3
#
#
#
# Elastic Constant Matrix: (Units=GPa)
#
#
# Indices 1 2 3 4 5 6 
#
# 1 64.0120 17.2535 -4.5328 0.9477 -10.6680 8.9253
# 2 17.2535 138.2592 33.6980 -12.8900 -9.4966 -4.4758
# 3 -4.5328 33.6980 69.9033 3.2887 -9.7431 -6.1669
# 4 0.9477 -12.8900 3.2887 43.5803 10.0709 6.4296
# 5 -10.6680 -9.4966 -9.7431 10.0709 36.5162 0.9682
# 6 8.9253 -4.4758 -6.1669 6.4296 0.9682 22.0709
#
#
#
# Elastic Compliance Matrix: (Units=1/GPa)
#
#
# Indices 1 2 3 4 5 6 
#
# 1 0.018702 -0.003051 0.003016 -0.001928 0.006193 -0.007049
# 2 -0.003051 0.009036 -0.004720 0.003126 -0.000686 0.000867
# 3 0.003016 -0.004720 0.018149 -0.004742 0.005697 0.004026
# 4 -0.001928 0.003126 -0.004742 0.027306 -0.008347 -0.007500
# 5 0.006193 -0.000686 0.005697 -0.008347 0.032840 -0.000061
# 6 -0.007049 0.000867 0.004026 -0.007500 -0.000061 0.051647
#
#
# Mechanical properties :
#
#
# Convention : Reuss Voigt Hill
#
# Bulk Modulus (GPa) = 27.49141 40.55689 34.02415
# Shear Modulus (GPa) = 27.88368 35.48387 31.68378
#
# Velocity S-wave (km/s) = 3.53655 3.98951 3.76984
# Velocity P-wave (km/s) = 5.38585 6.27800 5.84896
#
# Compressibility (1/GPa) = 0.03637499
#
# Stress axis : x y z
#
# Youngs Moduli (GPa) = 53.47137 110.66344 55.10040
#
# Poissons Ratio (x) = 0.33767 -0.16616
# Poissons Ratio (y) = 0.16316 0.26008
# Poissons Ratio (z) = -0.16125 0.52235
#
# Static dielectric constant tensor:
#      x y z
#    x 2.702560 0.622700 0.432170 
#    y 0.622700 4.193750 0.160300 
#    z 0.432170 0.160300 4.544060 
# 
# 
# High freq. dielectric constant tensor:
#      x y z
#    x 1.868640 0.003950 0.010690 
#    y 0.003950 1.899380 0.000670 
#    z 0.010690 0.000670 1.896810 
# 
# From -- ./inp_files/514749.got.cif
#   From: 2010.06.25/outbox.cif.g09.slc.cpg/sg2_258_cif.got.tgz:514749.got - 2010.06.27 13:26:56.
