data_PCOD8015784
_publ_section_title
;
Structure prediction by ZEFSAII (Michael W. Deem and Ramdas Pophale) SiO2 
 PCOD8015784
Probable space group: P -1
;
_chemical_formula_sum "Si O2"
_cell_formula_units_Z 14
_cell_length_a 8.572889
_cell_length_b 12.229057
_cell_length_c 9.567382
_cell_angle_alpha 55.105037
_cell_angle_beta 102.422960
_cell_angle_gamma 123.628084
_cell_volume 677.373597
_symmetry_space_group_name_H-M "P -1"
_symmetry_group_IT_number 2
_symmetry_cell_setting 'triclinic'
loop_
_space_group_symop_operation_xyz
x,y,z
-x,-y,-z
loop_
_atom_site_type_symbol
_atom_site_label
_atom_site_fract_x
_atom_site_fract_y
_atom_site_fract_z
Si Si1 0.694749 0.930666 0.966605
Si Si2 0.075203 0.228463 0.920710
Si Si3 0.501486 0.257096 0.660793
Si Si4 0.870787 0.800254 0.468202
Si Si5 0.465140 0.997319 0.660180
Si Si6 0.869084 0.564138 0.456024
Si Si7 0.035655 0.857643 0.747405
O O1 0.568085 0.924875 0.817013
O O2 0.781203 0.828967 0.015828
O O3 0.561741 0.854571 0.133263
O O4 0.866435 0.107645 0.905006
O O5 0.175190 0.392620 0.735808
O O6 0.047278 0.262100 0.051057
O O7 0.346030 0.293262 0.553083
O O8 0.545161 0.173100 0.605194
O O9 0.685624 0.427719 0.601636
O O10 0.967556 0.724844 0.452205
O O11 0.889517 0.776016 0.652475
O O12 0.960866 0.985385 0.316205
O O13 0.500000 0.000000 0.500000
O O14 0.239601 0.893631 0.717097
O O15 0.000000 0.500000 0.500000
#
# Coordination Sequence:
#
# PCOD8015784 Si02
#       7
#     2   2   2   2   2   2   2
#     4  11  22  40  68  94 129 164 222 268 308 381
#     4  11  22  41  64  98 122 172 217 263 318 379
#     4  11  23  43  65  96 129 175 211 262 324 385
#     4  10  21  43  65  93 126 172 209 267 318 381
#     4  11  25  38  66  99 130 164 217 271 320 370
#     4  12  26  40  66  94 136 168 216 261 324 388
#     4  10  23  40  68  95 131 163 216 272 320 368
#
# _framework density 20.668064000000001
#
# number of rings (size 3 to 8) (size 9 to 14) (size 15 to 20)
#    0.000    1.143    4.286    2.571   12.000    0.000 
#    0.000    2.857    0.000    0.000    0.000    0.000 
#    0.000    0.000    0.000    0.000    0.000    0.000 
#
# Total GULP energy -173578.727494 kJ/mol
# GULP energy per Si atom -12398.480535 kJ/mol
# Density = 2.062102 g / cm^3
# Si number density = 20.668064 Si / 1000 Ang^3
#
#
#
# Elastic Constant Matrix: (Units=GPa)
#
#
# Indices 1 2 3 4 5 6 
#
# 1 93.8270 43.4108 55.4019 6.2683 9.3745 -17.4855
# 2 43.4108 62.2777 49.1113 13.2746 -1.1382 -10.9432
# 3 55.4019 49.1113 141.6388 20.5014 -1.5489 -5.8936
# 4 6.2683 13.2746 20.5014 33.8300 1.9494 -4.1668
# 5 9.3745 -1.1382 -1.5489 1.9494 40.5538 7.0132
# 6 -17.4855 -10.9432 -5.8936 -4.1668 7.0132 33.2641
#
#
#
# Elastic Compliance Matrix: (Units=1/GPa)
#
#
# Indices 1 2 3 4 5 6 
#
# 1 0.019916 -0.009694 -0.004796 0.004443 -0.006726 0.008405
# 2 -0.009694 0.028571 -0.005097 -0.006237 0.002797 0.002030
# 3 -0.004796 -0.005097 0.011236 -0.004442 0.002165 -0.003220
# 4 0.004443 -0.006237 -0.004442 0.034670 -0.003842 0.004649
# 5 -0.006726 0.002797 0.002165 -0.003842 0.028051 -0.008627
# 6 0.008405 0.002030 -0.003220 0.004649 -0.008627 0.036979
#
#
# Mechanical properties :
#
#
# Convention : Reuss Voigt Hill
#
# Bulk Modulus (GPa) = 48.66218 65.95461 57.30840
# Shear Modulus (GPa) = 24.33720 31.51754 27.92737
#
# Velocity S-wave (km/s) = 3.43523 3.90928 3.67990
# Velocity P-wave (km/s) = 6.27138 7.23583 6.77080
#
# Compressibility (1/GPa) = 0.02054984
#
# Stress axis : x y z
#
# Youngs Moduli (GPa) = 50.21004 35.00079 88.99876
#
# Poissons Ratio (x) = 0.33929 0.42684
# Poissons Ratio (y) = 0.48672 0.45363
# Poissons Ratio (z) = 0.24081 0.17840
#
# Static dielectric constant tensor:
#      x y z
#    x 3.970940 -0.029450 -0.159810 
#    y -0.029450 3.531210 0.061150 
#    z -0.159810 0.061150 4.235920 
# 
# 
# High freq. dielectric constant tensor:
#      x y z
#    x 1.822770 -0.009610 0.000500 
#    y -0.009610 1.775410 0.013200 
#    z 0.000500 0.013200 1.815390 
# 
# From -- ./inp_files/175389.got.cif
#   From: 2010.06.25/outbox.cif.g09.slc.cpg/sg2_88_cif.got.tgz:175389.got - 2010.06.27 13:26:56.
