data_PCOD8015346
_publ_section_title
;
Structure prediction by ZEFSAII (Michael W. Deem and Ramdas Pophale) SiO2 
 PCOD8015346
Probable space group: P -1
;
_chemical_formula_sum "Si O2"
_cell_formula_units_Z 14
_cell_length_a 17.263928
_cell_length_b 13.854702
_cell_length_c 10.539008
_cell_angle_alpha 42.252977
_cell_angle_beta 42.958600
_cell_angle_gamma 21.925337
_cell_volume 622.566329
_symmetry_space_group_name_H-M "P -1"
_symmetry_group_IT_number 2
_symmetry_cell_setting 'triclinic'
loop_
_space_group_symop_operation_xyz
x,y,z
-x,-y,-z
loop_
_atom_site_type_symbol
_atom_site_label
_atom_site_fract_x
_atom_site_fract_y
_atom_site_fract_z
Si Si1 0.546551 0.856202 0.466260
Si Si2 0.506280 0.578240 0.784064
Si Si3 0.901637 0.050743 0.700288
Si Si4 0.732105 0.946173 0.894221
Si Si5 0.150182 0.776973 0.926407
Si Si6 0.301495 0.322263 0.126754
Si Si7 0.025342 0.521705 0.770440
O O1 0.446070 0.806913 0.657446
O O2 0.802438 0.576549 0.423639
O O3 0.500000 0.000000 0.500000
O O4 0.419414 0.065846 0.301605
O O5 0.731023 0.343316 0.673564
O O6 0.345803 0.676400 0.783388
O O7 0.500000 0.500000 0.000000
O O8 0.784130 0.026051 0.841512
O O9 0.000000 0.000000 0.500000
O O10 0.067351 0.856646 0.804157
O O11 0.852024 0.823145 0.734076
O O12 0.828187 0.700524 0.079435
O O13 0.477972 0.201160 0.935804
O O14 0.224444 0.534178 0.106228
O O15 0.000000 0.000000 0.000000
O O16 0.094906 0.480416 0.152663
#
# Coordination Sequence:
#
# PCOD8015346 Si02
#       7
#     2   2   2   2   2   2   2
#     4  11  27  42  68 104 139 180 239 300 351 418
#     4  12  26  49  74 102 148 193 242 300 362 439
#     4  12  26  45  73 106 149 189 245 299 361 430
#     4  10  21  42  68 100 138 186 226 290 357 426
#     4  12  26  45  78 105 141 199 243 288 369 432
#     4  11  23  45  73 103 137 185 241 293 355 433
#     4  10  22  42  69  99 140 179 232 288 363 419
#
# _framework density 22.487565
#
# number of rings (size 3 to 8) (size 9 to 14) (size 15 to 20)
#    0.000    0.857    4.286    2.143    4.000    3.429 
#    2.571    0.000    0.000    0.000    0.000    0.000 
#    0.000    0.000    0.000    0.000    0.000    0.000 
#
# Total GULP energy -173498.504009 kJ/mol
# GULP energy per Si atom -12392.750286 kJ/mol
# Density = 2.243638 g / cm^3
# Si number density = 22.487565 Si / 1000 Ang^3
#
#
#
# Elastic Constant Matrix: (Units=GPa)
#
#
# Indices 1 2 3 4 5 6 
#
# 1 133.3358 43.6237 49.3879 2.3125 -23.8538 0.8295
# 2 43.6237 117.2187 47.6930 9.5267 -6.0122 9.0299
# 3 49.3879 47.6930 101.7510 3.8435 -7.1579 4.4185
# 4 2.3125 9.5267 3.8435 30.9613 11.8512 -6.1986
# 5 -23.8538 -6.0122 -7.1579 11.8512 41.0500 5.5237
# 6 0.8295 9.0299 4.4185 -6.1986 5.5237 48.9620
#
#
#
# Elastic Compliance Matrix: (Units=1/GPa)
#
#
# Indices 1 2 3 4 5 6 
#
# 1 0.010604 -0.001925 -0.003735 -0.002070 0.005882 -0.000413
# 2 -0.001925 0.011476 -0.004109 -0.003831 0.001267 -0.002341
# 3 -0.003735 -0.004109 0.013563 -0.000089 -0.000330 -0.000377
# 4 -0.002070 -0.003831 -0.000089 0.040724 -0.014552 0.007547
# 5 0.005882 0.001267 -0.000330 -0.014552 0.032896 -0.005857
# 6 -0.000413 -0.002341 -0.000377 0.007547 -0.005857 0.022513
#
#
# Mechanical properties :
#
#
# Convention : Reuss Voigt Hill
#
# Bulk Modulus (GPa) = 62.09162 70.41275 66.25218
# Shear Modulus (GPa) = 31.91180 38.30139 35.10660
#
# Velocity S-wave (km/s) = 3.77116 4.13149 3.95543
# Velocity P-wave (km/s) = 6.82889 7.35791 7.09833
#
# Compressibility (1/GPa) = 0.01610523
#
# Stress axis : x y z
#
# Youngs Moduli (GPa) = 94.30664 87.13815 73.72873
#
# Poissons Ratio (x) = 0.16774 0.27535
# Poissons Ratio (y) = 0.18153 0.30297
# Poissons Ratio (z) = 0.35220 0.35808
#
# Static dielectric constant tensor:
#      x y z
#    x 5.916480 -4.489250 -0.193290 
#    y -4.489250 15.755540 0.322200 
#    z -0.193290 0.322200 3.667690 
# 
# 
# High freq. dielectric constant tensor:
#      x y z
#    x 1.895900 0.006890 -0.019230 
#    y 0.006890 1.903870 0.009820 
#    z -0.019230 0.009820 1.865650 
# 
# From -- ./inp_files/465775.got.cif
#   From: 2010.06.25/outbox.cif.g09.slc.cpg/sg2_233_cif.got.tgz:465775.got - 2010.06.27 13:26:56.
