data_PCOD8015554
_publ_section_title
;
Structure prediction by ZEFSAII (Michael W. Deem and Ramdas Pophale) SiO2 
 PCOD8015554
Probable space group: P -1
;
_chemical_formula_sum "Si O2"
_cell_formula_units_Z 16
_cell_length_a 5.476392
_cell_length_b 17.608214
_cell_length_c 8.765137
_cell_angle_alpha 91.691739
_cell_angle_beta 54.971373
_cell_angle_gamma 96.610416
_cell_volume 686.823569
_symmetry_space_group_name_H-M "P -1"
_symmetry_group_IT_number 2
_symmetry_cell_setting 'triclinic'
loop_
_space_group_symop_operation_xyz
x,y,z
-x,-y,-z
loop_
_atom_site_type_symbol
_atom_site_label
_atom_site_fract_x
_atom_site_fract_y
_atom_site_fract_z
Si Si1 0.134397 0.924017 0.724153
Si Si2 0.667007 0.907055 0.319215
Si Si3 0.177584 0.225794 0.549443
Si Si4 0.693914 0.483440 0.701188
Si Si5 0.734305 0.661674 0.205318
Si Si6 0.540862 0.214542 0.841138
Si Si7 0.777723 0.432958 0.005859
Si Si8 0.511347 0.838691 0.822428
O O1 0.337975 0.919418 0.500443
O O2 0.271230 0.881769 0.817505
O O3 0.799127 0.891698 0.792081
O O4 0.130938 0.012544 0.776780
O O5 0.827186 0.859074 0.383316
O O6 0.646520 0.862366 0.162508
O O7 0.307403 0.291397 0.623068
O O8 0.376318 0.228434 0.325576
O O9 0.835222 0.235832 0.631622
O O10 0.467868 0.418847 0.693473
O O11 0.750659 0.446247 0.838520
O O12 0.000000 0.500000 0.500000
O O13 0.539784 0.562253 0.790638
O O14 0.641501 0.711897 0.098447
O O15 0.076182 0.646600 0.038871
O O16 0.650735 0.202413 0.974152
O O17 0.000000 0.500000 0.000000
#
# Coordination Sequence:
#
# PCOD8015554 Si02
#       8
#     2   2   2   2   2   2   2   2
#     4  10  22  41  64  98 127 175 229 287 349 399
#     4   9  21  38  67  88 131 174 219 286 346 398
#     4  10  22  43  61  88 132 176 221 274 335 404
#     4  10  21  42  71 101 132 166 216 271 326 396
#     4  10  22  42  65  93 134 178 218 265 340 398
#     4  11  23  41  64  89 130 178 221 274 335 398
#     4   9  20  41  66  95 133 165 206 267 319 397
#     4  11  25  41  65  93 134 172 237 284 334 406
#
# _framework density 23.295646999999999
#
# number of rings (size 3 to 8) (size 9 to 14) (size 15 to 20)
#    0.000    2.000    1.250    0.750    5.250    4.500 
#    0.000   16.250    0.000    0.000    0.000    0.000 
#    0.000    0.000    0.000    0.000    0.000    0.000 
#
# Total GULP energy -198302.369002 kJ/mol
# GULP energy per Si atom -12393.898063 kJ/mol
# Density = 2.324263 g / cm^3
# Si number density = 23.295647 Si / 1000 Ang^3
#
#
#
# Elastic Constant Matrix: (Units=GPa)
#
#
# Indices 1 2 3 4 5 6 
#
# 1 92.1144 25.8577 20.2893 10.3895 -4.0656 -5.5918
# 2 25.8577 109.1388 36.4618 24.1130 -4.9751 -10.6252
# 3 20.2893 36.4618 106.1768 18.3485 -6.6180 -6.8361
# 4 10.3895 24.1130 18.3485 18.7939 -2.5273 -6.6484
# 5 -4.0656 -4.9751 -6.6180 -2.5273 36.7078 4.4315
# 6 -5.5918 -10.6252 -6.8361 -6.6484 4.4315 33.7862
#
#
#
# Elastic Compliance Matrix: (Units=1/GPa)
#
#
# Indices 1 2 3 4 5 6 
#
# 1 0.011986 -0.001711 -0.001096 -0.003088 0.000621 0.000535
# 2 -0.001711 0.013375 -0.001747 -0.014215 0.000240 0.000741
# 3 -0.001096 -0.001747 0.011767 -0.008546 0.001198 -0.000189
# 4 -0.003088 -0.014215 -0.008546 0.085124 0.000853 0.009928
# 5 0.000621 0.000240 0.001198 0.000853 0.027990 -0.003083
# 6 0.000535 0.000741 -0.000189 0.009928 -0.003083 0.032239
#
#
# Mechanical properties :
#
#
# Convention : Reuss Voigt Hill
#
# Bulk Modulus (GPa) = 35.68852 52.51641 44.10247
# Shear Modulus (GPa) = 24.88422 32.84567 28.86494
#
# Velocity S-wave (km/s) = 3.27187 3.75900 3.52386
# Velocity P-wave (km/s) = 5.44303 6.43681 5.96067
#
# Compressibility (1/GPa) = 0.02802021
#
# Stress axis : x y z
#
# Youngs Moduli (GPa) = 83.43115 74.76404 84.98290
#
# Poissons Ratio (x) = 0.12792 0.09315
# Poissons Ratio (y) = 0.14275 0.14847
# Poissons Ratio (z) = 0.09145 0.13062
#
# Static dielectric constant tensor:
#      x y z
#    x 4.305190 -0.261880 -0.006140 
#    y -0.261880 4.275380 0.513730 
#    z -0.006140 0.513730 4.219620 
# 
# 
# High freq. dielectric constant tensor:
#      x y z
#    x 1.933340 -0.003010 -0.000350 
#    y -0.003010 1.913040 0.031080 
#    z -0.000350 0.031080 1.910290 
# 
# From -- ./inp_files/119890.got.cif
#   From: 2010.06.25/outbox.cif.g09.slc.cpg/sg2_60_cif.got.tgz:119890.got - 2010.06.27 13:26:56.
