data_PCOD8015979
_publ_section_title
;
Structure prediction by ZEFSAII (Michael W. Deem and Ramdas Pophale) SiO2 
 PCOD8015979
Probable space group: P -1
;
_chemical_formula_sum "Si O2"
_cell_formula_units_Z 16
_cell_length_a 9.720415
_cell_length_b 15.233653
_cell_length_c 15.035219
_cell_angle_alpha 53.403377
_cell_angle_beta 79.701975
_cell_angle_gamma 127.261452
_cell_volume 761.489979
_symmetry_space_group_name_H-M "P -1"
_symmetry_group_IT_number 2
_symmetry_cell_setting 'triclinic'
loop_
_space_group_symop_operation_xyz
x,y,z
-x,-y,-z
loop_
_atom_site_type_symbol
_atom_site_label
_atom_site_fract_x
_atom_site_fract_y
_atom_site_fract_z
Si Si1 0.131882 0.003295 0.047956
Si Si2 0.759757 0.408212 0.134935
Si Si3 0.766874 0.152132 0.946953
Si Si4 0.191473 0.650207 0.649964
Si Si5 0.025956 0.033750 0.211507
Si Si6 0.065633 0.966145 0.431644
Si Si7 0.692095 0.481538 0.794864
Si Si8 0.734335 0.059859 0.201071
O O1 0.514954 0.300253 0.839327
O O2 0.951085 0.887131 0.234858
O O3 0.060845 0.834421 0.118826
O O4 0.000000 0.000000 0.000000
O O5 0.646505 0.272847 0.322640
O O6 0.446120 0.210634 0.231382
O O7 0.000000 0.500000 0.000000
O O8 0.939024 0.648125 0.987156
O O9 0.030802 0.432934 0.752259
O O10 0.615982 0.018479 0.142513
O O11 0.500000 0.000000 0.000000
O O12 0.929380 0.557533 0.762061
O O13 0.455195 0.887313 0.409533
O O14 0.920695 0.923615 0.387788
O O15 0.822313 0.994992 0.228799
O O16 0.416295 0.326944 0.989760
O O17 0.000000 0.000000 0.500000
O O18 0.890933 0.727977 0.598854
#
# Coordination Sequence:
#
# PCOD8015979 Si02
#       8
#     2   2   2   2   2   2   2   2
#     4  10  21  43  68  89 131 173 208 268 330 382
#     4  11  25  41  64  92 133 173 212 271 333 379
#     4  11  21  43  66  95 131 172 213 271 333 384
#     4  11  24  41  66  98 130 170 223 269 318 405
#     4  10  23  42  64  91 129 172 212 269 323 385
#     4  12  25  41  66  97 128 171 223 269 322 387
#     4  10  23  42  65  93 131 166 226 262 320 401
#     4  11  24  41  64  98 130 165 225 267 325 398
#
# _framework density 21.011437999999998
#
# number of rings (size 3 to 8) (size 9 to 14) (size 15 to 20)
#    0.750    0.500    2.500    3.000    0.000   10.500 
#    2.250    1.250    0.000    0.000    0.000    0.000 
#    0.000    0.000    0.000    0.000    0.000    0.000 
#
# Total GULP energy -198351.425703 kJ/mol
# GULP energy per Si atom -12396.964106 kJ/mol
# Density = 2.096361 g / cm^3
# Si number density = 21.011438 Si / 1000 Ang^3
#
#
#
# Elastic Constant Matrix: (Units=GPa)
#
#
# Indices 1 2 3 4 5 6 
#
# 1 95.9860 9.0009 16.9308 4.3414 6.7808 0.9199
# 2 9.0009 80.2840 24.0273 18.5098 17.9844 2.4909
# 3 16.9308 24.0273 68.1209 9.9662 11.7573 0.0484
# 4 4.3414 18.5098 9.9662 34.4166 -2.1745 1.3523
# 5 6.7808 17.9844 11.7573 -2.1745 37.6805 3.8760
# 6 0.9199 2.4909 0.0484 1.3523 3.8760 37.0664
#
#
#
# Elastic Compliance Matrix: (Units=1/GPa)
#
#
# Indices 1 2 3 4 5 6 
#
# 1 0.010966 -0.000070 -0.002382 -0.000729 -0.001227 -0.000109
# 2 -0.000070 0.017223 -0.003464 -0.008732 -0.007627 -0.000035
# 3 -0.002382 -0.003464 0.017594 -0.003194 -0.003671 0.000769
# 4 -0.000729 -0.008732 -0.003194 0.035299 0.007483 -0.001461
# 5 -0.001227 -0.007627 -0.003671 0.007483 0.032297 -0.003102
# 6 -0.000109 -0.000035 0.000769 -0.001461 -0.003102 0.027360
#
#
# Mechanical properties :
#
#
# Convention : Reuss Voigt Hill
#
# Bulk Modulus (GPa) = 29.45412 38.25654 33.85533
# Shear Modulus (GPa) = 30.50890 34.79483 32.65187
#
# Velocity S-wave (km/s) = 3.81466 4.07381 3.94636
# Velocity P-wave (km/s) = 5.78367 6.35412 6.07559
#
# Compressibility (1/GPa) = 0.03395110
#
# Stress axis : x y z
#
# Youngs Moduli (GPa) = 91.19380 58.06206 56.83809
#
# Poissons Ratio (x) = 0.00407 0.13539
# Poissons Ratio (y) = 0.00639 0.19686
# Poissons Ratio (z) = 0.21723 0.20110
#
# Static dielectric constant tensor:
#      x y z
#    x 3.587220 0.583240 -0.174100 
#    y 0.583240 3.910370 0.229200 
#    z -0.174100 0.229200 3.572670 
# 
# 
# High freq. dielectric constant tensor:
#      x y z
#    x 1.839550 0.000230 0.005760 
#    y 0.000230 1.829380 0.002440 
#    z 0.005760 0.002440 1.805950 
# 
# From -- ./inp_files/504007.got.cif
#   From: 2010.06.25/outbox.cif.g09.slc.cpg/sg2_253_cif.got.tgz:504007.got - 2010.06.27 13:26:56.
