data_PCOD8015994
_publ_section_title
;
Structure prediction by ZEFSAII (Michael W. Deem and Ramdas Pophale) SiO2 
 PCOD8015994
Probable space group: P -1
;
_chemical_formula_sum "Si O2"
_cell_formula_units_Z 12
_cell_length_a 8.122570
_cell_length_b 14.079948
_cell_length_c 9.979741
_cell_angle_alpha 142.846522
_cell_angle_beta 133.209209
_cell_angle_gamma 54.192048
_cell_volume 500.397196
_symmetry_space_group_name_H-M "P -1"
_symmetry_group_IT_number 2
_symmetry_cell_setting 'triclinic'
loop_
_space_group_symop_operation_xyz
x,y,z
-x,-y,-z
loop_
_atom_site_type_symbol
_atom_site_label
_atom_site_fract_x
_atom_site_fract_y
_atom_site_fract_z
Si Si1 0.688616 0.577255 0.851395
Si Si2 0.194718 0.037929 0.047334
Si Si3 0.748533 0.293200 0.380931
Si Si4 0.216560 0.402994 0.762995
Si Si5 0.539333 0.121782 0.540600
Si Si6 0.029455 0.731721 0.020483
O O1 0.695031 0.394169 0.600153
O O2 0.432067 0.653283 0.775952
O O3 0.771084 0.582163 0.053356
O O4 0.859310 0.676666 0.975071
O O5 0.432116 0.058155 0.275496
O O6 0.119595 0.197371 0.105924
O O7 0.250073 0.895286 0.811177
O O8 0.000000 0.000000 0.000000
O O9 0.998796 0.319299 0.498681
O O10 0.432690 0.299595 0.711053
O O11 0.190887 0.579579 0.886447
O O12 0.808182 0.136894 0.687784
O O13 0.500000 0.000000 0.500000
#
# Coordination Sequence:
#
# PCOD8015994 Si02
#       6
#     2   2   2   2   2   2
#     4  10  24  44  71  97 132 173 219 277 325 395
#     4  12  24  43  66  95 136 173 219 274 324 391
#     4  10  21  43  68  94 131 173 219 263 336 380
#     4  11  23  44  70  97 135 171 222 276 322 399
#     4  12  24  43  69  97 135 178 217 275 331 386
#     4  11  25  42  66 103 128 176 226 263 339 383
#
# _framework density 23.98095
#
# number of rings (size 3 to 8) (size 9 to 14) (size 15 to 20)
#    0.000    1.000    3.333    3.500    0.000    6.667 
#    0.000   10.000    0.000    0.000    0.000    0.000 
#    0.000    0.000    0.000    0.000    0.000    0.000 
#
# Total GULP energy -148775.508775 kJ/mol
# GULP energy per Si atom -12397.959065 kJ/mol
# Density = 2.392637 g / cm^3
# Si number density = 23.980950 Si / 1000 Ang^3
#
#
#
# Elastic Constant Matrix: (Units=GPa)
#
#
# Indices 1 2 3 4 5 6 
#
# 1 51.6932 25.3925 40.1285 -3.4657 -3.7757 -0.0547
# 2 25.3925 148.5059 65.8015 -3.1780 0.4569 0.9505
# 3 40.1285 65.8015 162.6693 -13.4910 8.2196 5.5306
# 4 -3.4657 -3.1780 -13.4910 47.1624 -19.0026 3.3966
# 5 -3.7757 0.4569 8.2196 -19.0026 23.4482 1.0847
# 6 -0.0547 0.9505 5.5306 3.3966 1.0847 26.7247
#
#
#
# Elastic Compliance Matrix: (Units=1/GPa)
#
#
# Indices 1 2 3 4 5 6 
#
# 1 0.025628 -0.001775 -0.005771 0.003807 0.009248 0.000451
# 2 -0.001775 0.008355 -0.002997 -0.000317 0.000329 0.000346
# 3 -0.005771 -0.002997 0.009074 0.000735 -0.003376 -0.001739
# 4 0.003807 -0.000317 0.000735 0.033131 0.027463 -0.005458
# 5 0.009248 0.000329 -0.003376 0.027463 0.067826 -0.005538
# 6 0.000451 0.000346 -0.001739 -0.005458 -0.005538 0.038686
#
#
# Mechanical properties :
#
#
# Convention : Reuss Voigt Hill
#
# Bulk Modulus (GPa) = 45.51269 69.50150 57.50710
# Shear Modulus (GPa) = 23.68459 34.90345 29.29402
#
# Velocity S-wave (km/s) = 3.14609 3.81920 3.49886
# Velocity P-wave (km/s) = 5.67600 6.96371 6.35257
#
# Compressibility (1/GPa) = 0.02197190
#
# Stress axis : x y z
#
# Youngs Moduli (GPa) = 39.01991 119.68985 110.20638
#
# Poissons Ratio (x) = 0.21242 0.63601
# Poissons Ratio (y) = 0.06925 0.33024
# Poissons Ratio (z) = 0.22519 0.35865
#
# Static dielectric constant tensor:
#      x y z
#    x 3.906900 -0.339090 0.109570 
#    y -0.339090 4.693700 -0.023950 
#    z 0.109570 -0.023950 4.639790 
# 
# 
# High freq. dielectric constant tensor:
#      x y z
#    x 1.914620 -0.022330 0.012640 
#    y -0.022330 1.968600 -0.006950 
#    z 0.012640 -0.006950 1.974900 
# 
# From -- ./inp_files/230786.got.cif
#   From: 2010.06.25/outbox.cif.g09.slc.cpg/sg2_116_cif.got.tgz:230786.got - 2010.06.27 13:26:56.
