data_PCOD8015096
_publ_section_title
;
Structure prediction by ZEFSAII (Michael W. Deem and Ramdas Pophale) SiO2 
 PCOD8015096
Probable space group: P -1
;
_chemical_formula_sum "Si O2"
_cell_formula_units_Z 16
_cell_length_a 15.342641
_cell_length_b 9.351005
_cell_length_c 9.700228
_cell_angle_alpha 112.696394
_cell_angle_beta 142.330949
_cell_angle_gamma 75.751017
_cell_volume 780.249731
_symmetry_space_group_name_H-M "P -1"
_symmetry_group_IT_number 2
_symmetry_cell_setting 'triclinic'
loop_
_space_group_symop_operation_xyz
x,y,z
-x,-y,-z
loop_
_atom_site_type_symbol
_atom_site_label
_atom_site_fract_x
_atom_site_fract_y
_atom_site_fract_z
Si Si1 0.438481 0.543790 0.792830
Si Si2 0.866501 0.565063 0.226426
Si Si3 0.144367 0.437476 0.479348
Si Si4 0.439228 0.127106 0.062143
Si Si5 0.887400 0.909928 0.422472
Si Si6 0.411037 0.915790 0.482329
Si Si7 0.132687 0.069767 0.285483
Si Si8 0.412107 0.571177 0.296327
O O1 0.265702 0.538217 0.578268
O O2 0.507174 0.707328 0.877693
O O3 0.482013 0.410243 0.695052
O O4 0.500000 0.500000 0.000000
O O5 0.822765 0.500592 0.300006
O O6 0.935130 0.737625 0.413307
O O7 0.984113 0.476302 0.258659
O O8 0.726165 0.553384 0.950884
O O9 0.155469 0.256987 0.390644
O O10 0.485337 0.102528 0.266515
O O11 0.269484 0.095289 0.838699
O O12 0.500000 0.000000 0.000000
O O13 0.895576 0.986841 0.613628
O O14 0.000000 0.000000 0.500000
O O15 0.353982 0.737829 0.307976
O O16 0.500000 0.000000 0.500000
O O17 0.277131 0.009126 0.385988
O O18 0.000000 0.000000 0.000000
O O19 0.500000 0.500000 0.500000
#
# Coordination Sequence:
#
# PCOD8015096 Si02
#       8
#     2   2   2   2   2   2   2   2
#     4  12  23  44  74 100 132 179 230 283 342 402
#     4  10  21  42  65  98 130 171 225 276 333 404
#     4  10  22  40  69  97 128 174 228 276 333 405
#     4  12  26  46  69 103 138 176 236 284 334 421
#     4  11  24  44  69  95 137 179 223 283 347 408
#     4  12  27  43  70 101 139 187 226 281 352 400
#     4  11  24  46  63 100 142 176 229 284 339 415
#     4  12  23  44  67  97 140 171 221 288 335 400
#
# _framework density 20.506257000000002
#
# number of rings (size 3 to 8) (size 9 to 14) (size 15 to 20)
#    0.000    0.750    5.000    2.250    5.250    0.000 
#    2.250    0.625    0.000    0.000    0.000    0.000 
#    0.000    0.000    0.000    0.000    0.000    0.000 
#
# Total GULP energy -198317.376917 kJ/mol
# GULP energy per Si atom -12394.836057 kJ/mol
# Density = 2.045958 g / cm^3
# Si number density = 20.506257 Si / 1000 Ang^3
#
#
#
# Elastic Constant Matrix: (Units=GPa)
#
#
# Indices 1 2 3 4 5 6 
#
# 1 186.6534 72.7667 78.1020 -3.6124 14.7055 -4.6314
# 2 72.7667 99.1334 42.7020 -4.7792 4.6186 -12.1526
# 3 78.1020 42.7020 148.1929 -12.5106 5.5698 7.2225
# 4 -3.6124 -4.7792 -12.5106 33.7058 0.1620 -3.5305
# 5 14.7055 4.6186 5.5698 0.1620 43.2637 -1.3684
# 6 -4.6314 -12.1526 7.2225 -3.5305 -1.3684 47.1318
#
#
#
# Elastic Compliance Matrix: (Units=1/GPa)
#
#
# Indices 1 2 3 4 5 6 
#
# 1 0.008797 -0.005047 -0.003182 -0.000952 -0.002041 -0.000080
# 2 -0.005047 0.015059 -0.001768 0.001331 0.000450 0.003771
# 3 -0.003182 -0.001768 0.009253 0.002635 0.000006 -0.001989
# 4 -0.000952 0.001331 0.002635 0.030960 -0.000205 0.002159
# 5 -0.002041 0.000450 0.000006 -0.000205 0.023778 0.000589
# 6 -0.000080 0.003771 -0.001989 0.002159 0.000589 0.022665
#
#
# Mechanical properties :
#
#
# Convention : Reuss Voigt Hill
#
# Bulk Modulus (GPa) = 76.24131 91.23568 83.73849
# Shear Modulus (GPa) = 37.07068 40.84756 38.95912
#
# Velocity S-wave (km/s) = 4.25641 4.46798 4.36347
# Velocity P-wave (km/s) = 7.83685 8.43832 8.14314
#
# Compressibility (1/GPa) = 0.01311625
#
# Stress axis : x y z
#
# Youngs Moduli (GPa) = 113.67697 66.40516 108.07080
#
# Poissons Ratio (x) = 0.33517 0.34384
# Poissons Ratio (y) = 0.57376 0.19102
# Poissons Ratio (z) = 0.36168 0.11737
#
# Static dielectric constant tensor:
#      x y z
#    x 3.957670 -0.154930 -0.122560 
#    y -0.154930 3.827760 0.115320 
#    z -0.122560 0.115320 3.711120 
# 
# 
# High freq. dielectric constant tensor:
#      x y z
#    x 1.817850 -0.017860 0.000470 
#    y -0.017860 1.803440 0.001260 
#    z 0.000470 0.001260 1.805660 
# 
# From -- ./inp_files/299417.got.cif
#   From: 2010.06.25/outbox.cif.g09.slc.cpg/sg2_150_cif.got.tgz:299417.got - 2010.06.27 13:26:56.
