data_PCOD8015743
_publ_section_title
;
Structure prediction by ZEFSAII (Michael W. Deem and Ramdas Pophale) SiO2 
 PCOD8015743
Probable space group: P -1
;
_chemical_formula_sum "Si O2"
_cell_formula_units_Z 16
_cell_length_a 7.198984
_cell_length_b 13.499049
_cell_length_c 21.136937
_cell_angle_alpha 158.916100
_cell_angle_beta 84.812955
_cell_angle_gamma 95.837987
_cell_volume 735.031637
_symmetry_space_group_name_H-M "P -1"
_symmetry_group_IT_number 2
_symmetry_cell_setting 'triclinic'
loop_
_space_group_symop_operation_xyz
x,y,z
-x,-y,-z
loop_
_atom_site_type_symbol
_atom_site_label
_atom_site_fract_x
_atom_site_fract_y
_atom_site_fract_z
Si Si1 0.360065 0.584028 0.414200
Si Si2 0.586839 0.296656 0.326122
Si Si3 0.951678 0.315631 0.121157
Si Si4 0.465637 0.098866 0.803821
Si Si5 0.313586 0.683233 0.331628
Si Si6 0.784541 0.523326 0.034866
Si Si7 0.974186 0.301487 0.258545
Si Si8 0.294331 0.295738 0.718406
O O1 0.472344 0.320541 0.278240
O O2 0.396877 0.624081 0.363054
O O3 0.140416 0.528109 0.402006
O O4 0.440654 0.850670 0.607325
O O5 0.500000 0.500000 0.500000
O O6 0.805172 0.371369 0.351543
O O7 0.564232 0.993807 0.177418
O O8 0.905774 0.323432 0.201497
O O9 0.794310 0.470162 0.181061
O O10 0.151936 0.461728 0.186321
O O11 0.954817 0.002149 0.910387
O O12 0.312015 0.320329 0.926436
O O13 0.677611 0.224587 0.866303
O O14 0.481468 0.655833 0.260683
O O15 0.235548 0.989967 0.512486
O O16 0.769766 0.695175 0.201976
O O17 0.000000 0.500000 0.000000
#
# Coordination Sequence:
#
# PCOD8015743 Si02
#       8
#     2   2   2   2   2   2   2   2
#     4  10  21  43  64  92 129 164 207 257 315 371
#     4  10  23  39  64  92 123 170 209 253 307 372
#     4  10  23  40  63  98 126 163 207 260 316 372
#     4  10  24  43  61  93 126 166 212 255 309 369
#     4  10  22  42  66  93 128 160 210 263 314 374
#     4  11  26  43  64  94 127 165 207 262 315 370
#     4  10  23  40  64  95 131 162 208 262 309 376
#     4  11  23  41  67  93 121 170 207 259 322 373
#
# _framework density 21.767769999999999
#
# number of rings (size 3 to 8) (size 9 to 14) (size 15 to 20)
#    0.000    1.750    1.250    1.125    5.250    5.000 
#    2.250    3.750    0.000    0.000    0.000    0.000 
#    0.000    0.000    0.000    0.000    0.000    0.000 
#
# Total GULP energy -198424.753085 kJ/mol
# GULP energy per Si atom -12401.547068 kJ/mol
# Density = 2.171823 g / cm^3
# Si number density = 21.767770 Si / 1000 Ang^3
#
#
#
# Elastic Constant Matrix: (Units=GPa)
#
#
# Indices 1 2 3 4 5 6 
#
# 1 122.8359 46.7117 32.4503 3.0636 -9.2962 21.1751
# 2 46.7117 87.9468 22.6970 20.8162 -24.7609 9.9572
# 3 32.4503 22.6970 57.4931 7.2656 -1.9324 5.4618
# 4 3.0636 20.8162 7.2656 33.4644 1.4831 -7.8941
# 5 -9.2962 -24.7609 -1.9324 1.4831 34.2771 6.1394
# 6 21.1751 9.9572 5.4618 -7.8941 6.1394 46.7597
#
#
#
# Elastic Compliance Matrix: (Units=1/GPa)
#
#
# Indices 1 2 3 4 5 6 
#
# 1 0.011902 -0.005598 -0.004570 0.002674 -0.000628 -0.003130
# 2 -0.005598 0.025533 -0.003339 -0.017353 0.018908 -0.007924
# 3 -0.004570 -0.003339 0.021438 -0.001992 -0.002402 0.000256
# 4 0.002674 -0.017353 -0.001992 0.044486 -0.016056 0.012335
# 5 -0.000628 0.018908 -0.002402 -0.016056 0.045395 -0.012132
# 6 -0.003130 -0.007924 0.000256 0.012335 -0.012132 0.028136
#
#
# Mechanical properties :
#
#
# Convention : Reuss Voigt Hill
#
# Bulk Modulus (GPa) = 31.38750 52.44376 41.91563
# Shear Modulus (GPa) = 23.30746 33.99470 28.65108
#
# Velocity S-wave (km/s) = 3.27575 3.95612 3.63190
# Velocity P-wave (km/s) = 5.36265 6.70914 6.07332
#
# Compressibility (1/GPa) = 0.03185982
#
# Stress axis : x y z
#
# Youngs Moduli (GPa) = 84.01808 39.16429 46.64707
#
# Poissons Ratio (x) = 0.21924 0.21316
# Poissons Ratio (y) = 0.47032 0.15576
# Poissons Ratio (z) = 0.38393 0.13078
#
# Static dielectric constant tensor:
#      x y z
#    x 3.880830 -0.198330 -0.059580 
#    y -0.198330 4.416690 0.459890 
#    z -0.059580 0.459890 3.846010 
# 
# 
# High freq. dielectric constant tensor:
#      x y z
#    x 1.855210 -0.000470 -0.000100 
#    y -0.000470 1.869720 0.019620 
#    z -0.000100 0.019620 1.845540 
# 
# From -- ./inp_files/411247.got.cif
#   From: 2010.06.25/outbox.cif.g09.slc.cpg/sg2_206_cif.got.tgz:411247.got - 2010.06.27 13:26:56.
