data_PCOD8015816
_publ_section_title
;
Structure prediction by ZEFSAII (Michael W. Deem and Ramdas Pophale) SiO2 
 PCOD8015816
Probable space group: P -1
;
_chemical_formula_sum "Si O2"
_cell_formula_units_Z 16
_cell_length_a 6.612657
_cell_length_b 5.268944
_cell_length_c 28.550006
_cell_angle_alpha 60.097109
_cell_angle_beta 53.367856
_cell_angle_gamma 72.528611
_cell_volume 691.978945
_symmetry_space_group_name_H-M "P -1"
_symmetry_group_IT_number 2
_symmetry_cell_setting 'triclinic'
loop_
_space_group_symop_operation_xyz
x,y,z
-x,-y,-z
loop_
_atom_site_type_symbol
_atom_site_label
_atom_site_fract_x
_atom_site_fract_y
_atom_site_fract_z
Si Si1 0.145747 0.142612 0.556447
Si Si2 0.201584 0.367847 0.345513
Si Si3 0.253321 0.664989 0.936307
Si Si4 0.652304 0.535788 0.583851
Si Si5 0.810220 0.818457 0.349234
Si Si6 0.719842 0.283854 0.247390
Si Si7 0.905223 0.943334 0.162512
Si Si8 0.483020 0.922836 0.063700
O O1 0.340635 0.216702 0.480873
O O2 0.280748 0.190690 0.583220
O O3 0.891027 0.323932 0.566169
O O4 0.060180 0.807871 0.600658
O O5 0.341292 0.312713 0.380637
O O6 0.412530 0.275024 0.287184
O O7 0.098097 0.693856 0.319178
O O8 0.436588 0.417355 0.911921
O O9 0.210261 0.905739 0.880792
O O10 0.351902 0.840963 0.952042
O O11 0.000000 0.500000 0.000000
O O12 0.393526 0.361607 0.635275
O O13 0.825037 0.136362 0.294165
O O14 0.807794 0.615188 0.206701
O O15 0.823083 0.114517 0.204182
O O16 0.204522 0.951167 0.119309
O O17 0.500000 0.000000 0.000000
#
# Coordination Sequence:
#
# PCOD8015816 Si02
#       8
#     2   2   2   2   2   2   2   2
#     4  10  22  40  70 100 136 176 246 299 382 438
#     4  11  25  43  69  98 138 191 237 304 369 435
#     4  12  26  47  81 116 155 192 235 297 367 424
#     4  10  21  43  66 104 136 178 236 314 373 443
#     4  11  25  43  70  97 138 192 236 303 373 427
#     4  12  28  50  70 101 153 193 254 295 354 435
#     4  12  29  49  75 109 148 200 243 301 352 431
#     4  12  26  47  81 117 153 189 241 294 364 431
#
# _framework density 23.122091000000001
#
# number of rings (size 3 to 8) (size 9 to 14) (size 15 to 20)
#    0.000    0.750    2.500    3.750    7.000    3.500 
#    0.000    0.000    0.000    0.000    0.000    0.000 
#    0.000    0.000    0.000    0.000    0.000    0.000 
#
# Total GULP energy -198396.378080 kJ/mol
# GULP energy per Si atom -12399.773630 kJ/mol
# Density = 2.306946 g / cm^3
# Si number density = 23.122091 Si / 1000 Ang^3
#
#
#
# Elastic Constant Matrix: (Units=GPa)
#
#
# Indices 1 2 3 4 5 6 
#
# 1 94.7678 47.0270 50.5403 -1.5136 0.0646 5.6695
# 2 47.0270 147.2520 69.3572 -1.8967 -2.8655 9.8628
# 3 50.5403 69.3572 139.6762 -4.9518 -5.9114 -15.5515
# 4 -1.5136 -1.8967 -4.9518 48.2285 -2.9086 4.3938
# 5 0.0646 -2.8655 -5.9114 -2.9086 25.1804 -12.3579
# 6 5.6695 9.8628 -15.5515 4.3938 -12.3579 38.1425
#
#
#
# Elastic Compliance Matrix: (Units=1/GPa)
#
#
# Indices 1 2 3 4 5 6 
#
# 1 0.014494 -0.002056 -0.004925 0.000083 -0.003810 -0.004875
# 2 -0.002056 0.010065 -0.004927 0.000142 -0.002510 -0.005135
# 3 -0.004925 -0.004927 0.012764 0.000531 0.007156 0.009467
# 4 0.000083 0.000142 0.000531 0.021057 0.001742 -0.001694
# 5 -0.003810 -0.002510 0.007156 0.001742 0.051426 0.020594
# 6 -0.004875 -0.005135 0.009467 -0.001694 0.020594 0.038997
#
#
# Mechanical properties :
#
#
# Convention : Reuss Voigt Hill
#
# Bulk Modulus (GPa) = 74.03118 79.50501 76.76809
# Shear Modulus (GPa) = 28.22921 36.62837 32.42879
#
# Velocity S-wave (km/s) = 3.49789 3.98443 3.74906
# Velocity P-wave (km/s) = 6.95706 7.45836 7.21207
#
# Compressibility (1/GPa) = 0.01350782
#
# Stress axis : x y z
#
# Youngs Moduli (GPa) = 68.99255 99.35109 78.34669
#
# Poissons Ratio (x) = 0.20426 0.38584
# Poissons Ratio (y) = 0.14184 0.38602
# Poissons Ratio (z) = 0.33978 0.48951
#
# Static dielectric constant tensor:
#      x y z
#    x 4.163020 -0.262700 0.114010 
#    y -0.262700 4.431130 -0.083210 
#    z 0.114010 -0.083210 4.306250 
# 
# 
# High freq. dielectric constant tensor:
#      x y z
#    x 1.926070 -0.011980 0.004120 
#    y -0.011980 1.929600 -0.001840 
#    z 0.004120 -0.001840 1.915180 
# 
# From -- ./inp_files/614835.got.cif
#   From: 2010.06.25/outbox.cif.g09.slc.cpg/sg2_308_cif.got.tgz:614835.got - 2010.06.27 13:26:56.
