data_PCOD8015969
_publ_section_title
;
Structure prediction by ZEFSAII (Michael W. Deem and Ramdas Pophale) SiO2 
 PCOD8015969
Probable space group: P -1
;
_chemical_formula_sum "Si O2"
_cell_formula_units_Z 16
_cell_length_a 6.698128
_cell_length_b 22.673095
_cell_length_c 5.485749
_cell_angle_alpha 94.400332
_cell_angle_beta 109.035141
_cell_angle_gamma 60.169785
_cell_volume 679.478276
_symmetry_space_group_name_H-M "P -1"
_symmetry_group_IT_number 2
_symmetry_cell_setting 'triclinic'
loop_
_space_group_symop_operation_xyz
x,y,z
-x,-y,-z
loop_
_atom_site_type_symbol
_atom_site_label
_atom_site_fract_x
_atom_site_fract_y
_atom_site_fract_z
Si Si1 0.355749 0.439521 0.251927
Si Si2 0.675341 0.340279 0.967303
Si Si3 0.158942 0.589414 0.289483
Si Si4 0.287869 0.339504 0.508521
Si Si5 0.330642 0.150599 0.853219
Si Si6 0.150668 0.233585 0.305816
Si Si7 0.726138 0.965859 0.400081
Si Si8 0.155591 0.942933 0.849521
O O1 0.439923 0.405549 0.010411
O O2 0.162351 0.520385 0.180225
O O3 0.595945 0.429403 0.476738
O O4 0.228427 0.402144 0.323818
O O5 0.854384 0.282462 0.211303
O O6 0.852475 0.365067 0.929686
O O7 0.558404 0.310598 0.720596
O O8 0.920599 0.634847 0.364125
O O9 0.292611 0.276109 0.353277
O O10 0.220285 0.192842 0.574457
O O11 0.294502 0.084905 0.813896
O O12 0.210778 0.189726 0.068474
O O13 0.620932 0.124273 0.960639
O O14 0.978722 0.921765 0.635670
O O15 0.500000 0.000000 0.500000
O O16 0.725557 0.028317 0.284125
O O17 0.000000 0.000000 0.000000
#
# Coordination Sequence:
#
# PCOD8015969 Si02
#       8
#     2   2   2   2   2   2   2   2
#     4  10  22  40  72 103 132 180 244 303 380 433
#     4  11  25  44  70  97 141 192 238 302 368 428
#     4  10  21  43  68 105 137 174 241 313 374 438
#     4  11  25  44  71  96 144 190 236 303 369 422
#     4  12  28  48  76 108 147 199 241 292 351 433
#     4  12  29  49  69 103 152 198 251 288 348 436
#     4  11  24  47  78 112 153 185 228 298 368 415
#     4  11  25  45  80 114 147 181 237 296 365 422
#
# _framework density 23.547478999999999
#
# number of rings (size 3 to 8) (size 9 to 14) (size 15 to 20)
#    0.000    1.000    2.500    2.625    8.750    2.500 
#    0.000    0.000    0.000    0.000    0.000    0.000 
#    0.000    0.000    0.000    0.000    0.000    0.000 
#
# Total GULP energy -198416.008240 kJ/mol
# GULP energy per Si atom -12401.000515 kJ/mol
# Density = 2.349388 g / cm^3
# Si number density = 23.547479 Si / 1000 Ang^3
#
#
#
# Elastic Constant Matrix: (Units=GPa)
#
#
# Indices 1 2 3 4 5 6 
#
# 1 107.7325 34.2415 38.9684 2.7944 -11.5108 1.8554
# 2 34.2415 95.4327 44.9844 13.5148 8.1808 -5.6630
# 3 38.9684 44.9844 103.0740 10.7702 -13.1598 -0.1596
# 4 2.7944 13.5148 10.7702 46.3432 2.3430 3.3822
# 5 -11.5108 8.1808 -13.1598 2.3430 42.5525 12.4976
# 6 1.8554 -5.6630 -0.1596 3.3822 12.4976 31.0100
#
#
#
# Elastic Compliance Matrix: (Units=1/GPa)
#
#
# Indices 1 2 3 4 5 6 
#
# 1 0.011815 -0.003775 -0.002409 0.000973 0.004047 -0.003146
# 2 -0.003775 0.016374 -0.006394 -0.003151 -0.007950 0.006731
# 3 -0.002409 -0.006394 0.014313 -0.001385 0.006028 -0.003228
# 4 0.000973 -0.003151 -0.001385 0.022988 0.000113 -0.003193
# 5 0.004047 -0.007950 0.006028 0.000113 0.032297 -0.014691
# 6 -0.003146 0.006731 -0.003228 -0.003193 -0.014691 0.039918
#
#
# Mechanical properties :
#
#
# Convention : Reuss Voigt Hill
#
# Bulk Modulus (GPa) = 57.65409 60.29197 58.97303
# Shear Modulus (GPa) = 29.64854 36.51746 33.08300
#
# Velocity S-wave (km/s) = 3.55222 3.94229 3.75233
# Velocity P-wave (km/s) = 6.43131 6.81045 6.62359
#
# Compressibility (1/GPa) = 0.01734482
#
# Stress axis : x y z
#
# Youngs Moduli (GPa) = 84.63907 61.07116 69.86819
#
# Poissons Ratio (x) = 0.23055 0.16832
# Poissons Ratio (y) = 0.31952 0.44676
# Poissons Ratio (z) = 0.20390 0.39051
#
# Static dielectric constant tensor:
#      x y z
#    x 4.340710 0.121600 0.306520 
#    y 0.121600 4.351950 0.086760 
#    z 0.306520 0.086760 4.330440 
# 
# 
# High freq. dielectric constant tensor:
#      x y z
#    x 1.941070 -0.001060 0.015790 
#    y -0.001060 1.923990 0.003200 
#    z 0.015790 0.003200 1.947730 
# 
# From -- ./inp_files/13321.got.cif
#   From: 2010.06.25/outbox.cif.g09.slc.cpg/sg2_7_cif.got.tgz:13321.got - 2010.06.27 13:26:56.
