data_PCOD8015818
_publ_section_title
;
Structure prediction by ZEFSAII (Michael W. Deem and Ramdas Pophale) SiO2 
 PCOD8015818
Probable space group: P -1
;
_chemical_formula_sum "Si O2"
_cell_formula_units_Z 14
_cell_length_a 14.048151
_cell_length_b 14.328779
_cell_length_c 8.434548
_cell_angle_alpha 128.289984
_cell_angle_beta 83.998838
_cell_angle_gamma 138.218140
_cell_volume 648.021989
_symmetry_space_group_name_H-M "P -1"
_symmetry_group_IT_number 2
_symmetry_cell_setting 'triclinic'
loop_
_space_group_symop_operation_xyz
x,y,z
-x,-y,-z
loop_
_atom_site_type_symbol
_atom_site_label
_atom_site_fract_x
_atom_site_fract_y
_atom_site_fract_z
Si Si1 0.411218 0.451335 0.132108
Si Si2 0.510382 0.234474 0.373436
Si Si3 0.605513 0.934128 0.361483
Si Si4 0.029056 0.011799 0.325834
Si Si5 0.600351 0.455548 0.262790
Si Si6 0.283400 0.705110 0.394164
Si Si7 0.133807 0.856860 0.183440
O O1 0.470393 0.652400 0.360513
O O2 0.493939 0.467330 0.283562
O O3 0.500000 0.500000 0.000000
O O4 0.180585 0.195277 0.932653
O O5 0.564463 0.349038 0.318613
O O6 0.657327 0.282611 0.428946
O O7 0.280363 0.950698 0.129481
O O8 0.449491 0.834069 0.387615
O O9 0.710387 0.145001 0.450152
O O10 0.777846 0.057580 0.563449
O O11 0.485335 0.710155 0.043878
O O12 0.169124 0.266820 0.501160
O O13 0.113274 0.970420 0.246361
O O14 0.000000 0.000000 0.500000
O O15 0.071248 0.432622 0.088927
#
# Coordination Sequence:
#
# PCOD8015818 Si02
#       7
#     2   2   2   2   2   2   2
#     4  12  22  40  61  89 126 158 208 252 299 366
#     4  11  24  40  60  92 129 167 197 257 312 365
#     4  10  23  40  65  92 119 162 209 265 300 358
#     4  12  22  35  65  91 120 162 199 251 308 367
#     4  12  25  39  59  95 133 159 201 251 318 373
#     4  10  21  43  66  88 119 161 219 255 302 359
#     4  11  21  39  65  89 121 160 213 252 305 361
#
# _framework density 21.604206000000001
#
# number of rings (size 3 to 8) (size 9 to 14) (size 15 to 20)
#    0.000    0.857    4.286    4.286    0.000    2.286 
#    0.000    0.714    0.000    0.000    0.000    0.000 
#    0.000    0.000    0.000    0.000    0.000    0.000 
#
# Total GULP energy -173507.318107 kJ/mol
# GULP energy per Si atom -12393.379865 kJ/mol
# Density = 2.155503 g / cm^3
# Si number density = 21.604206 Si / 1000 Ang^3
#
#
#
# Elastic Constant Matrix: (Units=GPa)
#
#
# Indices 1 2 3 4 5 6 
#
# 1 87.9080 45.9214 35.9765 19.0888 24.4958 -16.4843
# 2 45.9214 77.1628 14.4199 5.3344 22.1164 -26.7969
# 3 35.9765 14.4199 72.4347 31.0136 19.5429 -1.7034
# 4 19.0888 5.3344 31.0136 29.3751 0.1442 -1.1497
# 5 24.4958 22.1164 19.5429 0.1442 38.8191 5.3347
# 6 -16.4843 -26.7969 -1.7034 -1.1497 5.3347 35.1884
#
#
#
# Elastic Compliance Matrix: (Units=1/GPa)
#
#
# Indices 1 2 3 4 5 6 
#
# 1 0.022077 -0.007367 -0.002629 -0.009966 -0.009152 0.005666
# 2 -0.007367 0.029280 0.005359 -0.005254 -0.017681 0.021614
# 3 -0.002629 0.005359 0.034714 -0.035571 -0.019610 0.006340
# 4 -0.009966 -0.005254 -0.035571 0.078411 0.028570 -0.012161
# 5 -0.009152 -0.017681 -0.019610 0.028570 0.054962 -0.026100
# 6 0.005666 0.021614 0.006340 -0.012161 -0.026100 0.051399
#
#
# Mechanical properties :
#
#
# Convention : Reuss Voigt Hill
#
# Bulk Modulus (GPa) = 13.02157 47.79345 30.40751
# Shear Modulus (GPa) = 16.35503 30.08905 23.22204
#
# Velocity S-wave (km/s) = 2.75440 3.73599 3.28210
# Velocity P-wave (km/s) = 4.01946 6.38596 5.33557
#
# Compressibility (1/GPa) = 0.07679564
#
# Stress axis : x y z
#
# Youngs Moduli (GPa) = 45.29679 34.15319 28.80667
#
# Poissons Ratio (x) = 0.25162 0.07573
# Poissons Ratio (y) = 0.33371 -0.15436
# Poissons Ratio (z) = 0.11908 -0.18301
#
# Static dielectric constant tensor:
#      x y z
#    x 3.915650 -0.253440 0.158350 
#    y -0.253440 3.744550 0.194040 
#    z 0.158350 0.194040 3.738600 
# 
# 
# High freq. dielectric constant tensor:
#      x y z
#    x 1.857850 -0.017800 0.015140 
#    y -0.017800 1.839770 0.028080 
#    z 0.015140 0.028080 1.843970 
# 
# From -- ./inp_files/255571.got.cif
#   From: 2010.06.25/outbox.cif.g09.slc.cpg/sg2_128_cif.got.tgz:255571.got - 2010.06.27 13:26:56.
