data_PCOD8015486
_publ_section_title
;
Structure prediction by ZEFSAII (Michael W. Deem and Ramdas Pophale) SiO2 
 PCOD8015486
Probable space group: P -1
;
_chemical_formula_sum "Si O2"
_cell_formula_units_Z 16
_cell_length_a 11.885661
_cell_length_b 12.896269
_cell_length_c 11.580985
_cell_angle_alpha 111.002565
_cell_angle_beta 97.413216
_cell_angle_gamma 141.289751
_cell_volume 740.105530
_symmetry_space_group_name_H-M "P -1"
_symmetry_group_IT_number 2
_symmetry_cell_setting 'triclinic'
loop_
_space_group_symop_operation_xyz
x,y,z
-x,-y,-z
loop_
_atom_site_type_symbol
_atom_site_label
_atom_site_fract_x
_atom_site_fract_y
_atom_site_fract_z
Si Si1 0.333250 0.115979 0.963055
Si Si2 0.480637 0.546273 0.696004
Si Si3 0.950753 0.265786 0.029512
Si Si4 0.301275 0.747873 0.933897
Si Si5 0.913353 0.085238 0.381505
Si Si6 0.598483 0.830498 0.663972
Si Si7 0.520286 0.335909 0.669410
Si Si8 0.102596 0.487726 0.578582
O O1 0.156151 0.888285 0.932061
O O2 0.168215 0.024750 0.801727
O O3 0.468440 0.332880 0.137155
O O4 0.547197 0.222385 0.976069
O O5 0.609728 0.713384 0.665858
O O6 0.604034 0.534253 0.727739
O O7 0.183035 0.271266 0.525376
O O8 0.861887 0.317177 0.027785
O O9 0.252359 0.526535 0.180141
O O10 0.858082 0.121156 0.843993
O O11 0.110369 0.528097 0.728775
O O12 0.500000 0.000000 0.000000
O O13 0.915003 0.220493 0.433913
O O14 0.718969 0.868323 0.361535
O O15 0.548814 0.792181 0.506482
O O16 0.380635 0.700863 0.656241
O O17 0.000000 0.500000 0.500000
#
# Coordination Sequence:
#
# PCOD8015486 Si02
#       8
#     2   2   2   2   2   2   2   2
#     4  10  20  39  66  87 115 156 221 248 288 358
#     4  10  22  43  64  86 114 168 216 250 289 358
#     4  10  21  38  61  94 117 157 203 251 309 352
#     4  10  16  36  64  89 115 147 204 260 283 347
#     4  11  24  39  60  93 120 162 204 247 310 364
#     4  10  21  39  61  92 120 155 206 251 303 355
#     4  12  25  39  58  90 135 157 194 255 316 363
#     4  11  19  37  68  88 117 160 210 249 289 360
#
# _framework density 21.618541
#
# number of rings (size 3 to 8) (size 9 to 14) (size 15 to 20)
#    0.000    1.500    5.000    4.500    0.000    4.500 
#    0.000    3.125    0.000    0.000    0.000    0.000 
#    0.000    0.000    0.000    0.000    0.000    0.000 
#
# Total GULP energy -198398.792467 kJ/mol
# GULP energy per Si atom -12399.924529 kJ/mol
# Density = 2.156934 g / cm^3
# Si number density = 21.618541 Si / 1000 Ang^3
#
#
#
# Elastic Constant Matrix: (Units=GPa)
#
#
# Indices 1 2 3 4 5 6 
#
# 1 68.5754 -11.4756 15.7969 0.6288 2.3820 -2.3983
# 2 -11.4756 27.2877 17.5758 -6.2095 -4.3760 4.7298
# 3 15.7969 17.5758 148.7759 -10.8678 2.6711 11.9204
# 4 0.6288 -6.2095 -10.8678 12.1875 5.3018 2.4371
# 5 2.3820 -4.3760 2.6711 5.3018 21.2643 -0.2402
# 6 -2.3983 4.7298 11.9204 2.4371 -0.2402 19.6452
#
#
#
# Elastic Compliance Matrix: (Units=1/GPa)
#
#
# Indices 1 2 3 4 5 6 
#
# 1 0.016773 0.008819 -0.002908 0.000644 0.000159 0.001611
# 2 0.008819 0.050852 -0.004563 0.021616 0.004536 -0.011024
# 3 -0.002908 -0.004563 0.008702 0.008390 -0.003862 -0.005625
# 4 0.000644 0.021616 0.008390 0.116872 -0.026100 -0.025034
# 5 0.000159 0.004536 -0.003862 -0.026100 0.054994 0.005181
# 6 0.001611 -0.011024 -0.005625 -0.025034 0.005181 0.060336
#
#
# Mechanical properties :
#
#
# Convention : Reuss Voigt Hill
#
# Bulk Modulus (GPa) = 12.65432 32.04812 22.35122
# Shear Modulus (GPa) = 15.05240 25.46887 20.26063
#
# Velocity S-wave (km/s) = 2.64156 3.43607 3.06467
# Velocity P-wave (km/s) = 3.89486 5.53161 4.78376
#
# Compressibility (1/GPa) = 0.07902441
#
# Stress axis : x y z
#
# Youngs Moduli (GPa) = 59.61934 19.66505 114.91380
#
# Poissons Ratio (x) = -0.17344 0.33414
# Poissons Ratio (y) = -0.52581 0.52435
# Poissons Ratio (z) = 0.17336 0.08973
#
# Static dielectric constant tensor:
#      x y z
#    x 4.247860 -0.136520 0.017390 
#    y -0.136520 3.385460 -0.021270 
#    z 0.017390 -0.021270 4.190520 
# 
# 
# High freq. dielectric constant tensor:
#      x y z
#    x 1.851040 -0.007700 -0.000550 
#    y -0.007700 1.803080 -0.002520 
#    z -0.000550 -0.002520 1.868610 
# 
# From -- ./inp_files/257808.got.cif
#   From: 2010.06.25/outbox.cif.g09.slc.cpg/sg2_129_cif.got.tgz:257808.got - 2010.06.27 13:26:56.
