data_PCOD8015256
_publ_section_title
;
Structure prediction by ZEFSAII (Michael W. Deem and Ramdas Pophale) SiO2 
 PCOD8015256
Probable space group: P -1
;
_chemical_formula_sum "Si O2"
_cell_formula_units_Z 16
_cell_length_a 26.376148
_cell_length_b 18.913812
_cell_length_c 17.003226
_cell_angle_alpha 26.555670
_cell_angle_beta 162.814040
_cell_angle_gamma 161.769749
_cell_volume 776.405088
_symmetry_space_group_name_H-M "P -1"
_symmetry_group_IT_number 2
_symmetry_cell_setting 'triclinic'
loop_
_space_group_symop_operation_xyz
x,y,z
-x,-y,-z
loop_
_atom_site_type_symbol
_atom_site_label
_atom_site_fract_x
_atom_site_fract_y
_atom_site_fract_z
Si Si1 0.618891 0.674793 0.726921
Si Si2 0.085796 0.615678 0.704752
Si Si3 0.146861 0.900221 0.640647
Si Si4 0.147695 0.502951 0.281328
Si Si5 0.392673 0.776019 0.525490
Si Si6 0.436128 0.569688 0.263347
Si Si7 0.022446 0.814659 0.294209
Si Si8 0.747044 0.756015 0.092537
O O1 0.364668 0.538486 0.531510
O O2 0.565187 0.552488 0.688185
O O3 0.797306 0.672384 0.040618
O O4 0.746624 0.930377 0.648715
O O5 0.228207 0.829339 0.763248
O O6 0.799067 0.432243 0.490709
O O7 0.104837 0.691036 0.566384
O O8 0.178996 0.495458 0.968285
O O9 0.060953 0.748069 0.741340
O O10 0.918931 0.865739 0.315113
O O11 0.373936 0.162543 0.737912
O O12 0.263356 0.698300 0.324917
O O13 0.000000 0.500000 0.000000
O O14 0.500000 0.000000 0.500000
O O15 0.654759 0.862369 0.820441
O O16 0.500000 0.500000 0.500000
O O17 0.928969 0.818052 0.234127
O O18 0.500000 0.500000 0.000000
#
# Coordination Sequence:
#
# PCOD8015256 Si02
#       8
#     2   2   2   2   2   2   2   2
#     4  11  25  41  67  92 131 171 212 270 325 386
#     4  10  23  42  66  92 126 170 215 268 328 384
#     4  10  23  42  70  90 125 176 211 268 326 393
#     4  11  25  44  65  94 137 175 212 258 339 396
#     4  11  24  39  71  99 125 166 224 275 309 382
#     4  12  27  41  63  98 133 166 220 267 323 398
#     4  10  21  42  67  90 124 173 213 262 330 384
#     4  11  17  41  68  92 119 165 219 262 319 378
#
# _framework density 20.607797999999999
#
# number of rings (size 3 to 8) (size 9 to 14) (size 15 to 20)
#    0.000    1.250    5.000    1.875    8.750    1.000 
#    2.250    0.000    0.000    0.000    0.000    0.000 
#    0.000    0.000    0.000    0.000    0.000    0.000 
#
# Total GULP energy -198224.704382 kJ/mol
# GULP energy per Si atom -12389.044024 kJ/mol
# Density = 2.056089 g / cm^3
# Si number density = 20.607798 Si / 1000 Ang^3
#
#
#
# Elastic Constant Matrix: (Units=GPa)
#
#
# Indices 1 2 3 4 5 6 
#
# 1 94.3575 34.7587 38.6778 -5.5645 -19.7936 -1.6385
# 2 34.7587 65.5362 28.9242 -1.3198 -14.3110 -1.5585
# 3 38.6778 28.9242 95.4328 -18.0293 -20.7912 -2.5288
# 4 -5.5645 -1.3198 -18.0293 29.6328 8.3840 -3.2691
# 5 -19.7936 -14.3110 -20.7912 8.3840 39.7237 -2.2319
# 6 -1.6385 -1.5585 -2.5288 -3.2691 -2.2319 36.1155
#
#
#
# Elastic Compliance Matrix: (Units=1/GPa)
#
#
# Indices 1 2 3 4 5 6 
#
# 1 0.014855 -0.005454 -0.003691 -0.000700 0.003673 0.000344
# 2 -0.005454 0.020557 -0.003925 -0.003421 0.003371 0.000263
# 3 -0.003691 -0.003925 0.015381 0.007751 0.003254 0.001643
# 4 -0.000700 -0.003421 0.007751 0.040224 -0.005810 0.003645
# 5 0.003673 0.003371 0.003254 -0.005810 0.031257 0.001946
# 6 0.000344 0.000263 0.001643 0.003645 0.001946 0.028281
#
#
# Mechanical properties :
#
#
# Convention : Reuss Voigt Hill
#
# Bulk Modulus (GPa) = 40.56208 51.11641 45.83924
# Shear Modulus (GPa) = 27.03996 31.29213 29.16604
#
# Velocity S-wave (km/s) = 3.62625 3.90097 3.76612
# Velocity P-wave (km/s) = 6.10398 6.71925 6.41899
#
# Compressibility (1/GPa) = 0.02465357
#
# Stress axis : x y z
#
# Youngs Moduli (GPa) = 67.31786 48.64492 65.01676
#
# Poissons Ratio (x) = 0.26530 0.23995
# Poissons Ratio (y) = 0.36714 0.25520
# Poissons Ratio (z) = 0.24844 0.19094
#
# Static dielectric constant tensor:
#      x y z
#    x 3.848810 0.332260 0.002120 
#    y 0.332260 3.014750 1.086000 
#    z 0.002120 1.086000 2.289940 
# 
# 
# High freq. dielectric constant tensor:
#      x y z
#    x 1.794760 0.015520 -0.003930 
#    y 0.015520 1.800620 0.001970 
#    z -0.003930 0.001970 1.824900 
# 
# From -- ./inp_files/543162.got.cif
#   From: 2010.06.25/outbox.cif.g09.slc.cpg/sg2_272_cif.got.tgz:543162.got - 2010.06.27 13:26:56.
