data_PCOD8015926
_publ_section_title
;
Structure prediction by ZEFSAII (Michael W. Deem and Ramdas Pophale) SiO2 
 PCOD8015926
Probable space group: P -1
;
_chemical_formula_sum "Si O2"
_cell_formula_units_Z 16
_cell_length_a 9.445624
_cell_length_b 11.951000
_cell_length_c 11.966767
_cell_angle_alpha 47.448813
_cell_angle_beta 57.904305
_cell_angle_gamma 44.057448
_cell_volume 689.286396
_symmetry_space_group_name_H-M "P -1"
_symmetry_group_IT_number 2
_symmetry_cell_setting 'triclinic'
loop_
_space_group_symop_operation_xyz
x,y,z
-x,-y,-z
loop_
_atom_site_type_symbol
_atom_site_label
_atom_site_fract_x
_atom_site_fract_y
_atom_site_fract_z
Si Si1 0.431354 0.143717 0.534720
Si Si2 0.689078 0.591144 0.090852
Si Si3 0.141429 0.379841 0.331920
Si Si4 0.021939 0.975624 0.874433
Si Si5 0.829496 0.301007 0.561185
Si Si6 0.952744 0.679580 0.045496
Si Si7 0.420818 0.651342 0.564467
Si Si8 0.549539 0.159443 0.166878
O O1 0.221743 0.341277 0.452621
O O2 0.600091 0.183989 0.464682
O O3 0.500000 0.000000 0.500000
O O4 0.392168 0.051985 0.718686
O O5 0.640244 0.468279 0.264814
O O6 0.751580 0.698339 0.072767
O O7 0.866623 0.454690 0.024025
O O8 0.484275 0.753814 0.001399
O O9 0.004263 0.594344 0.207453
O O10 0.337833 0.283281 0.235890
O O11 0.014564 0.291014 0.428573
O O12 0.268493 0.847959 0.838724
O O13 0.921561 0.875504 0.935076
O O14 0.910668 0.169065 0.724460
O O15 0.000000 0.000000 0.000000
O O16 0.658163 0.514184 0.522875
O O17 0.726000 0.244721 0.550807
#
# Coordination Sequence:
#
# PCOD8015926 Si02
#       8
#     2   2   2   2   2   2   2   2
#     4  10  23  41  67 102 129 173 221 277 335 393
#     4  10  22  44  67 100 133 175 222 278 340 387
#     4  10  21  43  67  95 136 172 227 273 328 400
#     4  12  27  45  66 100 138 179 223 275 339 401
#     4  11  25  46  66  99 134 181 225 272 340 401
#     4  10  24  41  70  98 133 176 225 277 330 402
#     4  11  25  44  71  96 138 177 224 278 334 404
#     4  10  23  41  65 101 136 173 221 274 335 391
#
# _framework density 23.212410999999999
#
# number of rings (size 3 to 8) (size 9 to 14) (size 15 to 20)
#    0.000    1.500    2.500    0.750    8.750    2.500 
#    0.000    4.375    0.000    0.000    0.000    0.000 
#    0.000    0.000    0.000    0.000    0.000    0.000 
#
# Total GULP energy -198255.057630 kJ/mol
# GULP energy per Si atom -12390.941102 kJ/mol
# Density = 2.315958 g / cm^3
# Si number density = 23.212411 Si / 1000 Ang^3
#
#
#
# Elastic Constant Matrix: (Units=GPa)
#
#
# Indices 1 2 3 4 5 6 
#
# 1 157.9424 34.9688 51.3117 -8.2625 -6.3432 9.6221
# 2 34.9688 31.4252 17.7909 -3.6333 -4.9735 5.7023
# 3 51.3117 17.7909 125.4555 -15.4030 7.6085 -1.8810
# 4 -8.2625 -3.6333 -15.4030 15.5680 -3.7845 2.2260
# 5 -6.3432 -4.9735 7.6085 -3.7845 50.3434 -15.4093
# 6 9.6221 5.7023 -1.8810 2.2260 -15.4093 35.1822
#
#
#
# Elastic Compliance Matrix: (Units=1/GPa)
#
#
# Indices 1 2 3 4 5 6 
#
# 1 0.009121 -0.008387 -0.002500 0.000670 0.000401 -0.001135
# 2 -0.008387 0.044300 -0.002510 0.004670 0.002798 -0.004090
# 3 -0.002500 -0.002510 0.010421 0.007987 -0.001372 0.000542
# 4 0.000670 0.004670 0.007987 0.075036 0.003891 -0.003556
# 5 0.000401 0.002798 -0.001372 0.003891 0.023582 0.009446
# 6 -0.001135 -0.004090 0.000542 -0.003556 0.009446 0.033788
#
#
# Mechanical properties :
#
#
# Convention : Reuss Voigt Hill
#
# Bulk Modulus (GPa) = 26.99147 58.10733 42.54940
# Shear Modulus (GPa) = 21.24117 34.26881 27.75499
#
# Velocity S-wave (km/s) = 3.02831 3.84645 3.46164
# Velocity P-wave (km/s) = 4.88680 6.69434 5.86067
#
# Compressibility (1/GPa) = 0.03704873
#
# Stress axis : x y z
#
# Youngs Moduli (GPa) = 109.63814 22.57330 95.95605
#
# Poissons Ratio (x) = 0.18932 0.23992
# Poissons Ratio (y) = 0.91953 0.24081
# Poissons Ratio (z) = 0.27413 0.05665
#
# Static dielectric constant tensor:
#      x y z
#    x 4.686410 -0.376900 0.433830 
#    y -0.376900 3.883600 -0.359840 
#    z 0.433830 -0.359840 5.275210 
# 
# 
# High freq. dielectric constant tensor:
#      x y z
#    x 1.931650 -0.017480 0.003850 
#    y -0.017480 1.879100 -0.009730 
#    z 0.003850 -0.009730 1.940100 
# 
# From -- ./inp_files/392005.got.cif
#   From: 2010.06.25/outbox.cif.g09.slc.cpg/sg2_197_cif.got.tgz:392005.got - 2010.06.27 13:26:56.
