data_PCOD8015941
_publ_section_title
;
Structure prediction by ZEFSAII (Michael W. Deem and Ramdas Pophale) SiO2 
 PCOD8015941
Probable space group: P -1
;
_chemical_formula_sum "Si O2"
_cell_formula_units_Z 16
_cell_length_a 13.422558
_cell_length_b 8.143709
_cell_length_c 9.528808
_cell_angle_alpha 136.030798
_cell_angle_beta 90.170989
_cell_angle_gamma 72.046288
_cell_volume 649.061771
_symmetry_space_group_name_H-M "P -1"
_symmetry_group_IT_number 2
_symmetry_cell_setting 'triclinic'
loop_
_space_group_symop_operation_xyz
x,y,z
-x,-y,-z
loop_
_atom_site_type_symbol
_atom_site_label
_atom_site_fract_x
_atom_site_fract_y
_atom_site_fract_z
Si Si1 0.839429 0.334143 0.567603
Si Si2 0.353083 0.781900 0.557662
Si Si3 0.937182 0.847292 0.080595
Si Si4 0.851636 0.471627 0.947375
Si Si5 0.627000 0.909460 0.474267
Si Si6 0.711886 0.206412 0.861984
Si Si7 0.609939 0.432953 0.279444
Si Si8 0.896995 0.742421 0.714852
O O1 0.721559 0.334174 0.590905
O O2 0.898076 0.293446 0.695926
O O3 0.813274 0.625102 0.692808
O O4 0.916113 0.121627 0.322307
O O5 0.479801 0.591282 0.401779
O O6 0.333789 0.773357 0.719809
O O7 0.321279 0.075111 0.670591
O O8 0.060876 0.636088 0.991609
O O9 0.843468 0.761855 0.088473
O O10 0.931731 0.870907 0.926223
O O11 0.735569 0.459165 0.980216
O O12 0.671184 0.627555 0.379794
O O13 0.500000 0.000000 0.500000
O O14 0.645309 0.128616 0.698378
O O15 0.834365 0.967185 0.738570
O O16 0.635117 0.263117 0.034114
O O17 0.000000 0.500000 0.500000
#
# Coordination Sequence:
#
# PCOD8015941 Si02
#       8
#     2   2   2   2   2   2   2   2
#     4  11  21  42  65  92 133 179 222 276 344 414
#     4  10  21  43  67  97 140 180 228 286 342 400
#     4  10  23  42  64  96 129 179 225 274 350 403
#     4  10  23  39  63  97 130 172 227 283 331 413
#     4  10  23  44  66 101 138 181 228 288 343 401
#     4  12  24  43  69 101 132 183 232 276 352 418
#     4  10  24  43  67 100 138 181 232 286 342 415
#     4  11  26  43  66  99 138 175 230 289 345 416
#
# _framework density 24.650969
#
# number of rings (size 3 to 8) (size 9 to 14) (size 15 to 20)
#    0.000    1.500    1.250    2.625    1.750    8.000 
#    0.000   10.000    0.000    0.000    0.000    0.000 
#    0.000    0.000    0.000    0.000    0.000    0.000 
#
# Total GULP energy -198251.003827 kJ/mol
# GULP energy per Si atom -12390.687739 kJ/mol
# Density = 2.459486 g / cm^3
# Si number density = 24.650969 Si / 1000 Ang^3
#
#
#
# Elastic Constant Matrix: (Units=GPa)
#
#
# Indices 1 2 3 4 5 6 
#
# 1 68.0217 13.3789 2.0152 -6.7245 26.4698 17.9030
# 2 13.3789 117.3460 20.7483 -10.2611 20.7650 19.1803
# 3 2.0152 20.7483 91.6358 -19.3182 14.0548 8.9567
# 4 -6.7245 -10.2611 -19.3182 36.7038 3.7985 3.9827
# 5 26.4698 20.7650 14.0548 3.7985 43.0061 -2.8991
# 6 17.9030 19.1803 8.9567 3.9827 -2.8991 33.3823
#
#
#
# Elastic Compliance Matrix: (Units=1/GPa)
#
#
# Indices 1 2 3 4 5 6 
#
# 1 0.036027 0.006793 0.010066 0.020565 -0.032665 -0.031216
# 2 0.006793 0.012582 0.002082 0.008634 -0.012613 -0.013556
# 3 0.010066 0.002082 0.016941 0.014428 -0.014966 -0.014161
# 4 0.020565 0.008634 0.014428 0.046895 -0.027561 -0.027850
# 5 -0.032665 -0.012613 -0.014966 -0.027561 0.059282 0.037217
# 6 -0.031216 -0.013556 -0.014161 -0.027850 0.037217 0.064840
#
#
# Mechanical properties :
#
#
# Convention : Reuss Voigt Hill
#
# Bulk Modulus (GPa) = 9.66816 38.80981 24.23899
# Shear Modulus (GPa) = 21.44426 38.67586 30.06006
#
# Velocity S-wave (km/s) = 2.95263 3.96528 3.49582
# Velocity P-wave (km/s) = 3.94393 6.06156 5.11356
#
# Compressibility (1/GPa) = 0.10343228
#
# Stress axis : x y z
#
# Youngs Moduli (GPa) = 27.75717 79.47871 59.02696
#
# Poissons Ratio (x) = -0.53993 -0.59417
# Poissons Ratio (y) = -0.18857 -0.12287
# Poissons Ratio (z) = -0.27941 -0.16544
#
# Static dielectric constant tensor:
#      x y z
#    x 4.441930 0.589210 0.271780 
#    y 0.589210 5.642440 -0.056360 
#    z 0.271780 -0.056360 4.209950 
# 
# 
# High freq. dielectric constant tensor:
#      x y z
#    x 1.983120 0.025530 0.010700 
#    y 0.025530 1.995770 -0.010400 
#    z 0.010700 -0.010400 1.973380 
# 
# From -- ./inp_files/299854.got.cif
#   From: 2010.06.25/outbox.cif.g09.slc.cpg/sg2_150_cif.got.tgz:299854.got - 2010.06.27 13:26:56.
