data_PCOD8015590
_publ_section_title
;
Structure prediction by ZEFSAII (Michael W. Deem and Ramdas Pophale) SiO2 
 PCOD8015590
Probable space group: P -1
;
_chemical_formula_sum "Si O2"
_cell_formula_units_Z 16
_cell_length_a 7.901286
_cell_length_b 7.482759
_cell_length_c 15.949389
_cell_angle_alpha 97.563718
_cell_angle_beta 103.440481
_cell_angle_gamma 127.349950
_cell_volume 682.254225
_symmetry_space_group_name_H-M "P -1"
_symmetry_group_IT_number 2
_symmetry_cell_setting 'triclinic'
loop_
_space_group_symop_operation_xyz
x,y,z
-x,-y,-z
loop_
_atom_site_type_symbol
_atom_site_label
_atom_site_fract_x
_atom_site_fract_y
_atom_site_fract_z
Si Si1 0.574901 0.991346 0.726619
Si Si2 0.650301 0.630447 0.107482
Si Si3 0.292748 0.528559 0.190517
Si Si4 0.440911 0.799703 0.877450
Si Si5 0.173934 0.937146 0.935636
Si Si6 0.337065 0.320652 0.345626
Si Si7 0.176472 0.356945 0.497723
Si Si8 0.285738 0.832742 0.527088
O O1 0.728317 0.270751 0.785011
O O2 0.453961 0.816892 0.781059
O O3 0.721074 0.928005 0.698119
O O4 0.373014 0.917848 0.637069
O O5 0.519738 0.635021 0.170834
O O6 0.729866 0.485206 0.136762
O O7 0.855291 0.904445 0.117231
O O8 0.500000 0.500000 0.000000
O O9 0.272483 0.413287 0.269806
O O10 0.075685 0.321414 0.094548
O O11 0.345589 0.921760 0.906090
O O12 0.700580 0.936440 0.953097
O O13 0.186182 0.246938 0.407267
O O14 0.610756 0.541414 0.409612
O O15 0.186384 0.568728 0.479886
O O16 0.926014 0.165066 0.505317
O O17 0.500000 0.000000 0.500000
#
# Coordination Sequence:
#
# PCOD8015590 Si02
#       8
#     2   2   2   2   2   2   2   2
#     4  11  23  41  65  98 139 169 224 275 332 401
#     4  10  22  43  65  92 129 174 225 282 330 385
#     4  12  24  41  67  96 136 178 224 276 327 405
#     4  10  21  44  63  95 133 175 220 282 325 394
#     4  10  24  42  66  91 133 178 226 270 339 384
#     4  10  22  43  66 101 134 177 224 274 338 406
#     4   9  21  43  70  91 137 177 215 279 337 399
#     4  10  21  42  71  99 132 176 221 273 337 405
#
# _framework density 23.451668000000002
#
# number of rings (size 3 to 8) (size 9 to 14) (size 15 to 20)
#    0.000    1.750    2.500    0.750    1.750    3.500 
#    2.250   12.500    0.000    0.000    0.000    0.000 
#    0.000    0.000    0.000    0.000    0.000    0.000 
#
# Total GULP energy -198296.843258 kJ/mol
# GULP energy per Si atom -12393.552704 kJ/mol
# Density = 2.339829 g / cm^3
# Si number density = 23.451668 Si / 1000 Ang^3
#
#
#
# Elastic Constant Matrix: (Units=GPa)
#
#
# Indices 1 2 3 4 5 6 
#
# 1 82.1315 29.1011 25.9089 -3.0296 -10.9168 5.3035
# 2 29.1011 101.8965 26.0174 1.5246 -3.4305 -15.7515
# 3 25.9089 26.0174 87.3548 -14.6847 -12.4410 -1.2328
# 4 -3.0296 1.5246 -14.6847 27.9176 -7.2075 -3.7353
# 5 -10.9168 -3.4305 -12.4410 -7.2075 36.1719 2.3858
# 6 5.3035 -15.7515 -1.2328 -3.7353 2.3858 45.2444
#
#
#
# Elastic Compliance Matrix: (Units=1/GPa)
#
#
# Indices 1 2 3 4 5 6 
#
# 1 0.015205 -0.004080 -0.002648 0.000984 0.003711 -0.003389
# 2 -0.004080 0.012477 -0.003175 -0.002687 -0.001980 0.004618
# 3 -0.002648 -0.003175 0.015713 0.009778 0.006245 0.000111
# 4 0.000984 -0.002687 0.009778 0.044657 0.012154 0.002261
# 5 0.003711 -0.001980 0.006245 0.012154 0.033260 -0.001704
# 6 -0.003389 0.004618 0.000111 0.002261 -0.001704 0.024387
#
#
# Mechanical properties :
#
#
# Convention : Reuss Voigt Hill
#
# Bulk Modulus (GPa) = 42.39165 48.15974 45.27570
# Shear Modulus (GPa) = 28.84019 34.55713 31.69866
#
# Velocity S-wave (km/s) = 3.51061 3.84285 3.68048
# Velocity P-wave (km/s) = 5.87775 6.34589 6.11630
#
# Compressibility (1/GPa) = 0.02358955
#
# Stress axis : x y z
#
# Youngs Moduli (GPa) = 65.76740 80.14679 63.63996
#
# Poissons Ratio (x) = 0.32700 0.16855
# Poissons Ratio (y) = 0.26833 0.20203
# Poissons Ratio (z) = 0.17418 0.25443
#
# Static dielectric constant tensor:
#      x y z
#    x 4.520150 -0.319080 -0.043330 
#    y -0.319080 4.440070 0.052120 
#    z -0.043330 0.052120 4.307080 
# 
# 
# High freq. dielectric constant tensor:
#      x y z
#    x 1.922970 -0.021370 -0.015140 
#    y -0.021370 1.922050 -0.000540 
#    z -0.015140 -0.000540 1.930540 
# 
# From -- ./inp_files/493204.got.cif
#   From: 2010.06.25/outbox.cif.g09.slc.cpg/sg2_247_cif.got.tgz:493204.got - 2010.06.27 13:26:56.
