data_PCOD8015805
_publ_section_title
;
Structure prediction by ZEFSAII (Michael W. Deem and Ramdas Pophale) SiO2 
 PCOD8015805
Probable space group: P -1
;
_chemical_formula_sum "Si O2"
_cell_formula_units_Z 14
_cell_length_a 11.067446
_cell_length_b 17.385840
_cell_length_c 8.514145
_cell_angle_alpha 53.426252
_cell_angle_beta 48.104770
_cell_angle_gamma 30.193580
_cell_volume 612.535764
_symmetry_space_group_name_H-M "P -1"
_symmetry_group_IT_number 2
_symmetry_cell_setting 'triclinic'
loop_
_space_group_symop_operation_xyz
x,y,z
-x,-y,-z
loop_
_atom_site_type_symbol
_atom_site_label
_atom_site_fract_x
_atom_site_fract_y
_atom_site_fract_z
Si Si1 0.603046 0.184630 0.509347
Si Si2 0.845880 0.914436 0.430959
Si Si3 0.353278 0.685992 0.437510
Si Si4 0.635063 0.838780 0.033830
Si Si5 0.522291 0.869450 0.769472
Si Si6 0.773187 0.446023 0.150449
Si Si7 0.248474 0.403056 0.294695
O O1 0.734208 0.186603 0.530118
O O2 0.364048 0.234167 0.732091
O O3 0.492261 0.302098 0.323364
O O4 0.800796 0.015170 0.480292
O O5 0.665600 0.905427 0.621260
O O6 0.152278 0.755466 0.382742
O O7 0.759349 0.994387 0.237229
O O8 0.631996 0.579738 0.240122
O O9 0.380707 0.583235 0.658597
O O10 0.473345 0.862960 0.001036
O O11 0.930230 0.715449 0.868764
O O12 0.500000 0.000000 0.000000
O O13 0.712080 0.708864 0.711394
O O14 0.759048 0.497927 0.925483
O O15 0.000000 0.500000 0.500000
#
# Coordination Sequence:
#
# PCOD8015805 Si02
#       7
#     2   2   2   2   2   2   2
#     4  11  23  40  69  99 135 178 229 279 331 403
#     4  10  21  43  65  99 132 176 224 277 343 392
#     4  11  24  44  67  97 145 180 217 278 346 418
#     4  12  22  42  70 103 127 176 238 280 329 397
#     4  10  22  39  70  96 131 175 230 285 326 393
#     4  11  25  43  65 101 137 181 225 275 347 399
#     4  11  24  41  66 102 135 177 231 280 332 393
#
# _framework density 22.855809000000001
#
# number of rings (size 3 to 8) (size 9 to 14) (size 15 to 20)
#    0.000    1.143    4.286    1.286    2.000    1.714 
#    0.000    9.286    0.000    0.000    0.000    0.000 
#    0.000    0.000    0.000    0.000    0.000    0.000 
#
# Total GULP energy -173447.461459 kJ/mol
# GULP energy per Si atom -12389.104390 kJ/mol
# Density = 2.280379 g / cm^3
# Si number density = 22.855809 Si / 1000 Ang^3
#
#
#
# Elastic Constant Matrix: (Units=GPa)
#
#
# Indices 1 2 3 4 5 6 
#
# 1 122.2585 60.1034 30.4131 1.3409 21.1103 1.3897
# 2 60.1034 120.7701 43.5425 1.5450 12.8367 -4.1225
# 3 30.4131 43.5425 120.6432 -10.3328 24.1443 -11.7835
# 4 1.3409 1.5450 -10.3328 27.3130 -0.1601 0.2158
# 5 21.1103 12.8367 24.1443 -0.1601 29.1906 2.3518
# 6 1.3897 -4.1225 -11.7835 0.2158 2.3518 31.4234
#
#
#
# Elastic Compliance Matrix: (Units=1/GPa)
#
#
# Indices 1 2 3 4 5 6 
#
# 1 0.011847 -0.005279 0.000076 -0.000285 -0.006252 -0.000718
# 2 -0.005279 0.012022 -0.003360 -0.001688 0.001263 0.000468
# 3 0.000076 -0.003360 0.012145 0.004691 -0.008980 0.004750
# 4 -0.000285 -0.001688 0.004691 0.038468 -0.002841 0.001499
# 5 -0.006252 0.001263 -0.008980 -0.002841 0.046148 -0.006359
# 6 -0.000718 0.000468 0.004750 0.001499 -0.006359 0.034163
#
#
# Mechanical properties :
#
#
# Convention : Reuss Voigt Hill
#
# Bulk Modulus (GPa) = 52.94638 70.19888 61.57263
# Shear Modulus (GPa) = 28.05568 32.89290 30.47429
#
# Velocity S-wave (km/s) = 3.50738 3.79773 3.65544
# Velocity P-wave (km/s) = 6.29428 7.07183 6.69435
#
# Compressibility (1/GPa) = 0.01888703
#
# Stress axis : x y z
#
# Youngs Moduli (GPa) = 84.41090 83.17918 82.33597
#
# Poissons Ratio (x) = 0.43913 -0.00622
# Poissons Ratio (y) = 0.44564 0.27664
# Poissons Ratio (z) = -0.00638 0.27947
#
# Static dielectric constant tensor:
#      x y z
#    x 4.083230 0.003170 0.400210 
#    y 0.003170 4.208780 -0.216790 
#    z 0.400210 -0.216790 4.186780 
# 
# 
# High freq. dielectric constant tensor:
#      x y z
#    x 1.888580 0.002940 0.020220 
#    y 0.002940 1.914870 -0.015650 
#    z 0.020220 -0.015650 1.897500 
# 
# From -- ./inp_files/278930.got.cif
#   From: 2010.06.25/outbox.cif.g09.slc.cpg/sg2_140_cif.got.tgz:278930.got - 2010.06.27 13:26:56.
