data_PCOD8015802
_publ_section_title
;
Structure prediction by ZEFSAII (Michael W. Deem and Ramdas Pophale) SiO2 
 PCOD8015802
Probable space group: P -1
;
_chemical_formula_sum "Si O2"
_cell_formula_units_Z 16
_cell_length_a 13.087917
_cell_length_b 16.904198
_cell_length_c 7.840684
_cell_angle_alpha 80.847528
_cell_angle_beta 87.999945
_cell_angle_gamma 26.762728
_cell_volume 748.452499
_symmetry_space_group_name_H-M "P -1"
_symmetry_group_IT_number 2
_symmetry_cell_setting 'triclinic'
loop_
_space_group_symop_operation_xyz
x,y,z
-x,-y,-z
loop_
_atom_site_type_symbol
_atom_site_label
_atom_site_fract_x
_atom_site_fract_y
_atom_site_fract_z
Si Si1 0.378295 0.508279 0.427294
Si Si2 0.859783 0.774360 0.859216
Si Si3 0.206021 0.914702 0.965027
Si Si4 0.101094 0.159674 0.839068
Si Si5 0.445043 0.863439 0.382992
Si Si6 0.237439 0.869860 0.589035
Si Si7 0.514138 0.916171 0.655869
Si Si8 0.334204 0.415668 0.756244
O O1 0.500000 0.500000 0.500000
O O2 0.560949 0.338676 0.347143
O O3 0.299735 0.503869 0.580542
O O4 0.149516 0.689705 0.270593
O O5 0.701739 0.805540 0.830850
O O6 0.103453 0.581413 0.824494
O O7 0.721965 0.947098 0.731177
O O8 0.908274 0.757611 0.061135
O O9 0.217377 0.919265 0.760807
O O10 0.177211 0.027347 0.990476
O O11 0.446020 0.712021 0.097619
O O12 0.000000 0.000000 0.000000
O O13 0.269720 0.066276 0.707098
O O14 0.281428 0.905055 0.430494
O O15 0.587715 0.790154 0.571268
O O16 0.625388 0.702590 0.284461
O O17 0.000000 0.000000 0.500000
O O18 0.500000 0.000000 0.500000
#
# Coordination Sequence:
#
# PCOD8015802 Si02
#       8
#     2   2   2   2   2   2   2   2
#     4  11  24  40  64 100 129 179 230 267 333 409
#     4  11  24  42  70  98 133 176 228 278 342 390
#     4  12  24  42  65 100 137 176 219 275 341 398
#     4  12  23  44  70  95 143 173 222 284 333 401
#     4  10  21  43  65  98 136 177 217 283 332 399
#     4  11  23  39  65  93 137 178 222 271 339 397
#     4  10  22  42  72  97 129 180 227 279 340 391
#     4  11  24  42  66  98 138 173 226 277 333 401
#
# _framework density 21.377441999999999
#
# number of rings (size 3 to 8) (size 9 to 14) (size 15 to 20)
#    0.000    1.000    2.500    5.625    1.750    0.500 
#    0.000    4.375    0.000    0.000    0.000    0.000 
#    0.000    0.000    0.000    0.000    0.000    0.000 
#
# Total GULP energy -198340.185949 kJ/mol
# GULP energy per Si atom -12396.261622 kJ/mol
# Density = 2.132879 g / cm^3
# Si number density = 21.377442 Si / 1000 Ang^3
#
#
#
# Elastic Constant Matrix: (Units=GPa)
#
#
# Indices 1 2 3 4 5 6 
#
# 1 111.4009 46.6558 19.3642 2.3511 20.8288 -3.7593
# 2 46.6558 132.5789 31.4123 10.4617 7.5801 -2.8822
# 3 19.3642 31.4123 68.9467 6.1379 19.4759 1.9330
# 4 2.3511 10.4617 6.1379 38.2959 2.8895 5.6788
# 5 20.8288 7.5801 19.4759 2.8895 48.2721 2.2437
# 6 -3.7593 -2.8822 1.9330 5.6788 2.2437 27.2713
#
#
#
# Elastic Compliance Matrix: (Units=1/GPa)
#
#
# Indices 1 2 3 4 5 6 
#
# 1 0.011433 -0.003688 -0.000403 0.000476 -0.004288 0.001468
# 2 -0.003688 0.009827 -0.003744 -0.002146 0.001636 0.001108
# 3 -0.000403 -0.003744 0.018297 -0.001253 -0.006501 -0.000952
# 4 0.000476 -0.002146 -0.001253 0.027787 -0.000757 -0.005796
# 5 -0.004288 0.001636 -0.006501 -0.000757 0.025064 -0.001862
# 6 0.001468 0.001108 -0.000952 -0.005796 -0.001862 0.038416
#
#
# Mechanical properties :
#
#
# Convention : Reuss Voigt Hill
#
# Bulk Modulus (GPa) = 41.86171 56.42122 49.14147
# Shear Modulus (GPa) = 32.37159 37.13414 34.75287
#
# Velocity S-wave (km/s) = 3.89561 4.17234 4.03635
# Velocity P-wave (km/s) = 6.31340 7.04708 6.69031
#
# Compressibility (1/GPa) = 0.02388818
#
# Stress axis : x y z
#
# Youngs Moduli (GPa) = 87.46969 101.75529 54.65239
#
# Poissons Ratio (x) = 0.37530 0.02201
# Poissons Ratio (y) = 0.32261 0.20460
# Poissons Ratio (z) = 0.03523 0.38093
#
# Static dielectric constant tensor:
#      x y z
#    x 4.277240 0.238950 0.467470 
#    y 0.238950 4.027020 0.197560 
#    z 0.467470 0.197560 4.193630 
# 
# 
# High freq. dielectric constant tensor:
#      x y z
#    x 1.848440 0.005290 0.017330 
#    y 0.005290 1.837600 0.011990 
#    z 0.017330 0.011990 1.843740 
# 
# From -- ./inp_files/272899.got.cif
#   From: 2010.06.25/outbox.cif.g09.slc.cpg/sg2_137_cif.got.tgz:272899.got - 2010.06.27 13:26:56.
