data_PCOD8015704
_publ_section_title
;
Structure prediction by ZEFSAII (Michael W. Deem and Ramdas Pophale) SiO2 
 PCOD8015704
Probable space group: P -1
;
_chemical_formula_sum "Si O2"
_cell_formula_units_Z 16
_cell_length_a 8.498251
_cell_length_b 25.710221
_cell_length_c 17.302751
_cell_angle_alpha 18.136127
_cell_angle_beta 37.908957
_cell_angle_gamma 38.923189
_cell_volume 715.122462
_symmetry_space_group_name_H-M "P -1"
_symmetry_group_IT_number 2
_symmetry_cell_setting 'triclinic'
loop_
_space_group_symop_operation_xyz
x,y,z
-x,-y,-z
loop_
_atom_site_type_symbol
_atom_site_label
_atom_site_fract_x
_atom_site_fract_y
_atom_site_fract_z
Si Si1 0.711996 0.028401 0.038876
Si Si2 0.502599 0.662720 0.217523
Si Si3 0.148105 0.248081 0.167447
Si Si4 0.348769 0.764124 0.539799
Si Si5 0.106914 0.671707 0.222318
Si Si6 0.107804 0.973568 0.192173
Si Si7 0.544817 0.619412 0.007375
Si Si8 0.465402 0.059493 0.517104
O O1 0.592987 0.853947 0.341859
O O2 0.719452 0.087511 0.862954
O O3 0.521901 0.174292 0.948679
O O4 0.000000 0.000000 0.000000
O O5 0.500000 0.500000 0.500000
O O6 0.256541 0.679960 0.232752
O O7 0.773406 0.647672 0.084979
O O8 0.156495 0.763922 0.688684
O O9 0.304637 0.058626 0.360954
O O10 0.211720 0.347770 0.080240
O O11 0.449824 0.573549 0.744902
O O12 0.199440 0.864668 0.384803
O O13 0.291457 0.689117 0.054806
O O14 0.000000 0.500000 0.500000
O O15 0.871217 0.826979 0.087516
O O16 0.804492 0.969204 0.299598
O O17 0.526166 0.738221 0.769915
O O18 0.500000 0.000000 0.500000
#
# Coordination Sequence:
#
# PCOD8015704 Si02
#       8
#     2   2   2   2   2   2   2   2
#     4  12  27  47  61  91 145 184 216 267 343 403
#     4  11  26  45  67  95 133 182 215 268 333 402
#     4  10  20  42  67  97 133 172 220 277 338 382
#     4  12  25  38  71 103 132 169 231 285 321 391
#     4  11  22  40  68  93 131 173 224 268 320 393
#     4  12  22  41  69 100 131 177 222 274 334 386
#     4  10  20  35  62 104 129 158 213 286 325 375
#     4  10  16  37  64  96 131 164 207 277 341 379
#
# _framework density 22.373792000000002
#
# number of rings (size 3 to 8) (size 9 to 14) (size 15 to 20)
#    0.000    1.000    7.500    1.500    5.250    0.500 
#    0.000    0.000    0.000    3.750    0.000    0.000 
#    0.000    0.000    0.000    0.000    0.000    0.000 
#
# Total GULP energy -198354.812477 kJ/mol
# GULP energy per Si atom -12397.175780 kJ/mol
# Density = 2.232287 g / cm^3
# Si number density = 22.373792 Si / 1000 Ang^3
#
#
#
# Elastic Constant Matrix: (Units=GPa)
#
#
# Indices 1 2 3 4 5 6 
#
# 1 48.3103 32.1874 43.5129 0.7628 -8.0897 -7.6555
# 2 32.1874 114.3628 52.4112 8.9121 -5.8166 7.7453
# 3 43.5129 52.4112 176.6162 -6.9607 1.4758 15.0441
# 4 0.7628 8.9121 -6.9607 51.3325 -1.3508 -2.2420
# 5 -8.0897 -5.8166 1.4758 -1.3508 37.8953 5.4471
# 6 -7.6555 7.7453 15.0441 -2.2420 5.4471 16.0471
#
#
#
# Elastic Compliance Matrix: (Units=1/GPa)
#
#
# Indices 1 2 3 4 5 6 
#
# 1 0.042085 -0.009238 -0.010456 0.001104 0.003211 0.033403
# 2 -0.009238 0.012657 -0.000680 -0.002583 0.001448 -0.010731
# 3 -0.010456 -0.000680 0.009616 0.000977 -0.000768 -0.013277
# 4 0.001104 -0.002583 0.000977 0.020206 -0.000008 0.003683
# 5 0.003211 0.001448 -0.000768 -0.000008 0.028493 -0.008120
# 6 0.033403 -0.010731 -0.013277 0.003683 -0.008120 0.099150
#
#
# Mechanical properties :
#
#
# Convention : Reuss Voigt Hill
#
# Bulk Modulus (GPa) = 42.35313 66.16802 54.26058
# Shear Modulus (GPa) = 19.16992 35.13350 27.15171
#
# Velocity S-wave (km/s) = 2.93029 3.96700 3.48738
# Velocity P-wave (km/s) = 5.51541 7.11483 6.36555
#
# Compressibility (1/GPa) = 0.02361100
#
# Stress axis : x y z
#
# Youngs Moduli (GPa) = 23.76121 79.00458 103.99742
#
# Poissons Ratio (x) = 0.72985 1.08736
# Poissons Ratio (y) = 0.21951 0.07071
# Poissons Ratio (z) = 0.24844 0.05372
#
# Static dielectric constant tensor:
#      x y z
#    x 3.738510 -0.053780 0.126490 
#    y -0.053780 4.192900 0.163320 
#    z 0.126490 0.163320 4.629910 
# 
# 
# High freq. dielectric constant tensor:
#      x y z
#    x 1.837610 -0.008580 -0.000050 
#    y -0.008580 1.889810 0.012650 
#    z -0.000050 0.012650 1.903190 
# 
# From -- ./inp_files/508038.got.cif
#   From: 2010.06.25/outbox.cif.g09.slc.cpg/sg2_255_cif.got.tgz:508038.got - 2010.06.27 13:26:56.
