data_PCOD8015117
_publ_section_title
;
Structure prediction by ZEFSAII (Michael W. Deem and Ramdas Pophale) SiO2 
 PCOD8015117
Probable space group: P -1
;
_chemical_formula_sum "Si O2"
_cell_formula_units_Z 14
_cell_length_a 13.634474
_cell_length_b 9.485288
_cell_length_c 19.328200
_cell_angle_alpha 136.371741
_cell_angle_beta 26.564418
_cell_angle_gamma 146.474471
_cell_volume 614.991086
_symmetry_space_group_name_H-M "P -1"
_symmetry_group_IT_number 2
_symmetry_cell_setting 'triclinic'
loop_
_space_group_symop_operation_xyz
x,y,z
-x,-y,-z
loop_
_atom_site_type_symbol
_atom_site_label
_atom_site_fract_x
_atom_site_fract_y
_atom_site_fract_z
Si Si1 0.614102 0.689850 0.432803
Si Si2 0.786129 0.387641 0.158287
Si Si3 0.217439 0.462099 0.151835
Si Si4 0.743241 0.421020 0.679620
Si Si5 0.747127 0.168175 0.250081
Si Si6 0.779568 0.885479 0.785397
Si Si7 0.465273 0.972644 0.116473
O O1 0.500000 0.500000 0.500000
O O2 0.666129 0.552079 0.291108
O O3 0.396448 0.748300 0.577324
O O4 0.895471 0.963393 0.371949
O O5 0.875465 0.356901 0.167740
O O6 0.552753 0.093858 0.180400
O O7 0.000000 0.500000 0.000000
O O8 0.127568 0.494727 0.294828
O O9 0.247981 0.670402 0.154907
O O10 0.985147 0.203885 0.163072
O O11 0.500000 0.500000 0.000000
O O12 0.638407 0.589753 0.786004
O O13 0.000000 0.500000 0.500000
O O14 0.474248 0.127029 0.737645
O O15 0.663168 0.900420 0.792194
O O16 0.722560 0.029076 0.929888
#
# Coordination Sequence:
#
# PCOD8015117 Si02
#       7
#     2   2   2   2   2   2   2
#     4  10  21  42  66 101 143 184 233 296 356 423
#     4  11  22  40  73 111 141 185 249 295 360 431
#     4  12  27  50  73 103 146 192 243 302 366 428
#     4  12  26  49  74 109 148 191 243 292 364 439
#     4  11  26  48  72 103 151 192 236 301 366 429
#     4  11  23  43  70 105 150 184 238 306 352 428
#     4  11  23  43  70 107 143 187 241 302 358 422
#
# _framework density 22.764558999999998
#
# number of rings (size 3 to 8) (size 9 to 14) (size 15 to 20)
#    0.000    0.857    5.714    1.714    2.000    2.286 
#    5.143    2.857    0.000    0.000    0.000    0.000 
#    0.000    0.000    0.000    0.000    0.000    0.000 
#
# Total GULP energy -173434.574891 kJ/mol
# GULP energy per Si atom -12388.183921 kJ/mol
# Density = 2.271275 g / cm^3
# Si number density = 22.764559 Si / 1000 Ang^3
#
#
#
# Elastic Constant Matrix: (Units=GPa)
#
#
# Indices 1 2 3 4 5 6 
#
# 1 147.3470 51.6750 52.7034 -0.5576 0.0612 11.3478
# 2 51.6750 108.6395 25.1388 1.4053 -1.6858 -0.2060
# 3 52.7034 25.1388 111.2359 1.8491 6.1965 3.9065
# 4 -0.5576 1.4053 1.8491 37.6536 -3.0965 0.4164
# 5 0.0612 -1.6858 6.1965 -3.0965 37.1382 3.7093
# 6 11.3478 -0.2060 3.9065 0.4164 3.7093 43.7163
#
#
#
# Elastic Compliance Matrix: (Units=1/GPa)
#
#
# Indices 1 2 3 4 5 6 
#
# 1 0.009572 -0.003705 -0.003667 0.000542 0.000697 -0.002239
# 2 -0.003705 0.011174 -0.000829 -0.000401 0.000513 0.001049
# 3 -0.003667 -0.000829 0.011030 -0.000727 -0.001946 0.000134
# 4 0.000542 -0.000401 -0.000727 0.026819 0.002392 -0.000536
# 5 0.000697 0.000513 -0.001946 0.002392 0.027710 -0.002379
# 6 -0.002239 0.001049 0.000134 -0.000536 -0.002379 0.023656
#
#
# Mechanical properties :
#
#
# Convention : Reuss Voigt Hill
#
# Bulk Modulus (GPa) = 65.04061 69.58407 67.31234
# Shear Modulus (GPa) = 38.02650 39.54863 38.78757
#
# Velocity S-wave (km/s) = 4.09152 4.17260 4.13226
# Velocity P-wave (km/s) = 7.13819 7.33808 7.23882
#
# Compressibility (1/GPa) = 0.01537501
#
# Stress axis : x y z
#
# Youngs Moduli (GPa) = 104.47371 89.49469 90.65867
#
# Poissons Ratio (x) = 0.33156 0.33245
# Poissons Ratio (y) = 0.38705 0.07513
# Poissons Ratio (z) = 0.38311 0.07416
#
# Static dielectric constant tensor:
#      x y z
#    x 4.019410 0.113940 0.244910 
#    y 0.113940 4.325890 0.202950 
#    z 0.244910 0.202950 4.461650 
# 
# 
# High freq. dielectric constant tensor:
#      x y z
#    x 1.883750 -0.000790 0.011550 
#    y -0.000790 1.912310 0.002610 
#    z 0.011550 0.002610 1.901800 
# 
# From -- ./inp_files/566908.got.cif
#   From: 2010.06.25/outbox.cif.g09.slc.cpg/sg2_284_cif.got.tgz:566908.got - 2010.06.27 13:26:56.
