data_PCOD8015503
_publ_section_title
;
Structure prediction by ZEFSAII (Michael W. Deem and Ramdas Pophale) SiO2 
 PCOD8015503
Probable space group: P -1
;
_chemical_formula_sum "Si O2"
_cell_formula_units_Z 16
_cell_length_a 21.728300
_cell_length_b 8.456876
_cell_length_c 8.947460
_cell_angle_alpha 97.645555
_cell_angle_beta 141.367331
_cell_angle_gamma 56.548464
_cell_volume 702.955244
_symmetry_space_group_name_H-M "P -1"
_symmetry_group_IT_number 2
_symmetry_cell_setting 'triclinic'
loop_
_space_group_symop_operation_xyz
x,y,z
-x,-y,-z
loop_
_atom_site_type_symbol
_atom_site_label
_atom_site_fract_x
_atom_site_fract_y
_atom_site_fract_z
Si Si1 0.348311 0.148704 0.652353
Si Si2 0.159741 0.556269 0.789978
Si Si3 0.632749 0.393550 0.557034
Si Si4 0.915469 0.369184 0.657332
Si Si5 0.920500 0.990972 0.580825
Si Si6 0.670573 0.348493 0.956457
Si Si7 0.830903 0.943571 0.700252
Si Si8 0.630546 0.776278 0.630459
O O1 0.233227 0.412587 0.520056
O O2 0.291005 0.040476 0.570795
O O3 0.361130 0.140305 0.497446
O O4 0.500000 0.000000 0.000000
O O5 0.081484 0.565420 0.500463
O O6 0.057991 0.793119 0.717701
O O7 0.284196 0.518488 0.944728
O O8 0.231368 0.349942 0.016976
O O9 0.666979 0.284584 0.773069
O O10 0.482682 0.491506 0.234515
O O11 0.619887 0.599607 0.557519
O O12 0.756871 0.189741 0.656068
O O13 0.929301 0.163593 0.664375
O O14 0.054269 0.272324 0.996263
O O15 0.918215 0.885701 0.710328
O O16 0.781157 0.115748 0.233659
O O17 0.500000 0.000000 0.500000
#
# Coordination Sequence:
#
# PCOD8015503 Si02
#       8
#     2   2   2   2   2   2   2   2
#     4  12  29  45  64  95 142 180 221 275 341 393
#     4  10  21  42  70 100 127 170 224 274 331 393
#     4  10  22  40  68  98 131 167 229 270 334 387
#     4  11  22  45  69  98 135 175 219 277 337 391
#     4  11  22  40  71  98 133 169 229 268 333 394
#     4   9  20  36  66  99 129 162 218 277 325 383
#     4  12  26  42  69  99 136 179 224 274 328 401
#     4  11  24  44  67  95 134 176 217 273 336 393
#
# _framework density 22.761050999999998
#
# number of rings (size 3 to 8) (size 9 to 14) (size 15 to 20)
#    0.000    1.250    0.000    6.750   10.500    0.500 
#    0.000    1.250    0.000    0.000    0.000    0.000 
#    0.000    0.000    0.000    0.000    0.000    0.000 
#
# Total GULP energy -198393.959303 kJ/mol
# GULP energy per Si atom -12399.622456 kJ/mol
# Density = 2.270925 g / cm^3
# Si number density = 22.761051 Si / 1000 Ang^3
#
#
#
# Elastic Constant Matrix: (Units=GPa)
#
#
# Indices 1 2 3 4 5 6 
#
# 1 85.5875 17.9847 29.9072 3.8166 -11.9610 -15.2327
# 2 17.9847 89.9321 25.0750 -14.6472 6.7705 -19.7624
# 3 29.9072 25.0750 153.7561 -3.6250 -8.2259 0.4633
# 4 3.8166 -14.6472 -3.6250 32.1358 -5.0153 8.1052
# 5 -11.9610 6.7705 -8.2259 -5.0153 41.5203 -1.2289
# 6 -15.2327 -19.7624 0.4633 8.1052 -1.2289 28.8755
#
#
#
# Elastic Compliance Matrix: (Units=1/GPa)
#
#
# Indices 1 2 3 4 5 6 
#
# 1 0.015120 -0.001425 -0.002631 -0.004268 0.003800 0.008403
# 2 -0.001425 0.014641 -0.002169 0.004187 -0.002484 0.008023
# 3 -0.002631 -0.002169 0.007467 0.001166 0.001119 -0.003272
# 4 -0.004268 0.004187 0.001166 0.036450 0.002439 -0.009532
# 5 0.003800 -0.002484 0.001119 0.002439 0.026122 0.000713
# 6 0.008403 0.008023 -0.003272 -0.009532 0.000713 0.047314
#
#
# Mechanical properties :
#
#
# Convention : Reuss Voigt Hill
#
# Bulk Modulus (GPa) = 40.35923 52.80105 46.58014
# Shear Modulus (GPa) = 29.79360 37.59356 33.69358
#
# Velocity S-wave (km/s) = 3.62190 4.06847 3.85166
# Velocity P-wave (km/s) = 5.93810 6.73189 6.34742
#
# Compressibility (1/GPa) = 0.02477748
#
# Stress axis : x y z
#
# Youngs Moduli (GPa) = 66.13890 68.30115 133.93063
#
# Poissons Ratio (x) = 0.09731 0.35241
# Poissons Ratio (y) = 0.09423 0.29049
# Poissons Ratio (z) = 0.17403 0.14814
#
# Static dielectric constant tensor:
#      x y z
#    x 4.012190 -0.247530 -0.152680 
#    y -0.247530 3.861210 0.072640 
#    z -0.152680 0.072640 4.690120 
# 
# 
# High freq. dielectric constant tensor:
#      x y z
#    x 1.888540 -0.020340 -0.003500 
#    y -0.020340 1.883840 -0.002400 
#    z -0.003500 -0.002400 1.920820 
# 
# From -- ./inp_files/335646.got.cif
#   From: 2010.06.25/outbox.cif.g09.slc.cpg/sg2_168_cif.got.tgz:335646.got - 2010.06.27 13:26:56.
