data_PCOD8015576
_publ_section_title
;
Structure prediction by ZEFSAII (Michael W. Deem and Ramdas Pophale) SiO2 
 PCOD8015576
Probable space group: P -1
;
_chemical_formula_sum "Si O2"
_cell_formula_units_Z 16
_cell_length_a 8.484384
_cell_length_b 11.949888
_cell_length_c 21.654610
_cell_angle_alpha 148.954813
_cell_angle_beta 139.739382
_cell_angle_gamma 55.265227
_cell_volume 708.098844
_symmetry_space_group_name_H-M "P -1"
_symmetry_group_IT_number 2
_symmetry_cell_setting 'triclinic'
loop_
_space_group_symop_operation_xyz
x,y,z
-x,-y,-z
loop_
_atom_site_type_symbol
_atom_site_label
_atom_site_fract_x
_atom_site_fract_y
_atom_site_fract_z
Si Si1 0.580160 0.746539 0.667368
Si Si2 0.012512 0.072018 0.333981
Si Si3 0.159623 0.640098 0.168576
Si Si4 0.548701 0.154904 0.188527
Si Si5 0.894329 0.279152 0.165553
Si Si6 0.643564 0.527508 0.299859
Si Si7 0.383133 0.139333 0.781520
Si Si8 0.134198 0.496796 0.858007
O O1 0.500000 0.500000 0.500000
O O2 0.480598 0.740382 0.704299
O O3 0.884124 0.829530 0.796138
O O4 0.462888 0.921097 0.674080
O O5 0.842520 0.142700 0.262222
O O6 0.208918 0.284034 0.520647
O O7 0.800211 0.940674 0.254447
O O8 0.171205 0.898362 0.277955
O O9 0.443754 0.613860 0.239265
O O10 0.053271 0.569435 0.171814
O O11 0.000000 0.500000 0.000000
O O12 0.492884 0.314245 0.193482
O O13 0.360620 0.911869 0.009746
O O14 0.847830 0.463698 0.286314
O O15 0.995860 0.411397 0.194859
O O16 0.236915 0.282341 0.762759
O O17 0.634456 0.303933 0.959104
#
# Coordination Sequence:
#
# PCOD8015576 Si02
#       8
#     2   2   2   2   2   2   2   2
#     4  11  23  41  64  96 135 168 214 268 326 388
#     4  10  21  45  65  92 133 168 213 271 325 383
#     4  11  25  43  68  96 129 168 219 264 326 391
#     4  11  23  44  64  93 131 171 219 270 320 384
#     4  12  23  41  67  96 128 170 224 266 314 391
#     4  12  26  41  64  96 135 173 212 267 334 382
#     4   9  20  39  69  90 125 160 218 260 326 362
#     4  10  21  42  71  94 122 167 219 276 310 376
#
# _framework density 22.595715999999999
#
# number of rings (size 3 to 8) (size 9 to 14) (size 15 to 20)
#    0.000    1.250    2.500    4.500    5.250    0.000 
#    2.250    6.875    0.000    0.000    0.000    0.000 
#    0.000    0.000    0.000    0.000    0.000    0.000 
#
# Total GULP energy -198307.880767 kJ/mol
# GULP energy per Si atom -12394.242548 kJ/mol
# Density = 2.254429 g / cm^3
# Si number density = 22.595716 Si / 1000 Ang^3
#
#
#
# Elastic Constant Matrix: (Units=GPa)
#
#
# Indices 1 2 3 4 5 6 
#
# 1 64.6714 35.3296 11.9209 6.7046 -4.0408 -5.9230
# 2 35.3296 170.1283 74.8764 18.3611 10.8196 -36.2108
# 3 11.9209 74.8764 111.5107 15.1926 -1.7717 -3.1062
# 4 6.7046 18.3611 15.1926 40.0346 -9.0959 0.5625
# 5 -4.0408 10.8196 -1.7717 -9.0959 34.1343 0.4494
# 6 -5.9230 -36.2108 -3.1062 0.5625 0.4494 31.4603
#
#
#
# Elastic Compliance Matrix: (Units=1/GPa)
#
#
# Indices 1 2 3 4 5 6 
#
# 1 0.018043 -0.005163 0.001579 -0.000357 0.003791 -0.002438
# 2 -0.005163 0.015022 -0.008583 -0.004638 -0.007260 0.015658
# 3 0.001579 -0.008583 0.014515 -0.000921 0.003523 -0.008182
# 4 -0.000357 -0.004638 -0.000921 0.029733 0.009384 -0.006162
# 5 0.003791 -0.007260 0.003523 0.009384 0.034834 -0.007960
# 6 -0.002438 0.015658 -0.008182 -0.006162 -0.007960 0.048765
#
#
# Mechanical properties :
#
#
# Convention : Reuss Voigt Hill
#
# Bulk Modulus (GPa) = 43.01535 65.61824 54.31680
# Shear Modulus (GPa) = 25.90714 36.07140 30.98927
#
# Velocity S-wave (km/s) = 3.38975 3.99981 3.70735
# Velocity P-wave (km/s) = 5.86505 7.10172 6.51281
#
# Compressibility (1/GPa) = 0.02324751
#
# Stress axis : x y z
#
# Youngs Moduli (GPa) = 55.42284 66.56708 68.89217
#
# Poissons Ratio (x) = 0.34372 -0.10880
# Poissons Ratio (y) = 0.28617 0.59127
# Poissons Ratio (z) = -0.08753 0.57131
#
# Static dielectric constant tensor:
#      x y z
#    x 3.759610 -0.160600 -0.075760 
#    y -0.160600 4.912820 0.246380 
#    z -0.075760 0.246380 3.847340 
# 
# 
# High freq. dielectric constant tensor:
#      x y z
#    x 1.874880 -0.018150 0.006990 
#    y -0.018150 1.914490 0.013360 
#    z 0.006990 0.013360 1.881150 
# 
# From -- ./inp_files/418971.got.cif
#   From: 2010.06.25/outbox.cif.g09.slc.cpg/sg2_210_cif.got.tgz:418971.got - 2010.06.27 13:26:56.
