data_PCOD8015378
_publ_section_title
;
Structure prediction by ZEFSAII (Michael W. Deem and Ramdas Pophale) SiO2 
 PCOD8015378
Probable space group: P -1
;
_chemical_formula_sum "Si O2"
_cell_formula_units_Z 16
_cell_length_a 15.438610
_cell_length_b 19.652020
_cell_length_c 9.571035
_cell_angle_alpha 141.074080
_cell_angle_beta 141.200543
_cell_angle_gamma 25.591132
_cell_volume 755.108664
_symmetry_space_group_name_H-M "P -1"
_symmetry_group_IT_number 2
_symmetry_cell_setting 'triclinic'
loop_
_space_group_symop_operation_xyz
x,y,z
-x,-y,-z
loop_
_atom_site_type_symbol
_atom_site_label
_atom_site_fract_x
_atom_site_fract_y
_atom_site_fract_z
Si Si1 0.454929 0.264224 0.063712
Si Si2 0.189990 0.809824 0.975167
Si Si3 0.553010 0.720863 0.425016
Si Si4 0.362321 0.179468 0.558900
Si Si5 0.314342 0.676014 0.618856
Si Si6 0.939356 0.369813 0.743090
Si Si7 0.608633 0.831890 0.925383
Si Si8 0.071523 0.646372 0.625314
O O1 0.664718 0.216582 0.251537
O O2 0.255853 0.441903 0.161939
O O3 0.493168 0.135180 0.999120
O O4 0.399329 0.262557 0.834727
O O5 0.329942 0.685626 0.821446
O O6 0.097326 0.760035 0.858671
O O7 0.334469 0.790794 0.232822
O O8 0.000000 0.000000 0.000000
O O9 0.579032 0.812499 0.508151
O O10 0.556049 0.760094 0.649684
O O11 0.736056 0.525257 0.330561
O O12 0.125832 0.278350 0.415480
O O13 0.500000 0.000000 0.500000
O O14 0.500000 0.500000 0.500000
O O15 0.101913 0.730920 0.417592
O O16 0.965546 0.360713 0.594900
O O17 0.143118 0.294617 0.955349
O O18 0.500000 0.000000 0.000000
#
# Coordination Sequence:
#
# PCOD8015378 Si02
#       8
#     2   2   2   2   2   2   2   2
#     4  11  20  43  68  90 127 174 219 259 329 398
#     4  11  24  43  71 100 135 174 221 279 349 394
#     4  12  25  43  64 102 134 171 226 277 330 402
#     4  12  24  40  64  97 136 173 219 272 335 385
#     4   9  21  40  71  93 123 174 224 261 318 414
#     4  10  21  42  68  94 122 175 221 260 329 392
#     4  12  25  40  65  97 134 171 221 275 325 392
#     4  11  23  42  68  95 132 176 223 269 326 407
#
# _framework density 21.189003
#
# number of rings (size 3 to 8) (size 9 to 14) (size 15 to 20)
#    0.000    1.000    3.750    3.375    3.500    0.000 
#    0.000    0.625    0.000    0.000    0.000    0.000 
#    0.000    0.000    0.000    0.000    0.000    0.000 
#
# Total GULP energy -198330.775879 kJ/mol
# GULP energy per Si atom -12395.673492 kJ/mol
# Density = 2.114078 g / cm^3
# Si number density = 21.189003 Si / 1000 Ang^3
#
#
#
# Elastic Constant Matrix: (Units=GPa)
#
#
# Indices 1 2 3 4 5 6 
#
# 1 74.8026 2.7300 31.6264 -4.4714 19.9825 10.7294
# 2 2.7300 92.5318 25.3627 -10.0533 13.8010 15.5309
# 3 31.6264 25.3627 119.7841 -21.7716 25.3422 -6.2704
# 4 -4.4714 -10.0533 -21.7716 30.7096 3.4423 6.2150
# 5 19.9825 13.8010 25.3422 3.4423 38.7536 8.1996
# 6 10.7294 15.5309 -6.2704 6.2150 8.1996 30.4480
#
#
#
# Elastic Compliance Matrix: (Units=1/GPa)
#
#
# Indices 1 2 3 4 5 6 
#
# 1 0.017885 0.003106 -0.003822 0.003172 -0.006509 -0.007569
# 2 0.003106 0.014026 -0.002512 0.005467 -0.003551 -0.008926
# 3 -0.003822 -0.002512 0.013219 0.007670 -0.007700 0.005859
# 4 0.003172 0.005467 0.007670 0.043120 -0.010683 -0.008252
# 5 -0.006509 -0.003551 -0.007700 -0.010683 0.037554 -0.005414
# 6 -0.007569 -0.008926 0.005859 -0.008252 -0.005414 0.044412
#
#
# Mechanical properties :
#
#
# Convention : Reuss Voigt Hill
#
# Bulk Modulus (GPa) = 25.85783 45.17299 35.51541
# Shear Modulus (GPa) = 26.37623 35.14220 30.75922
#
# Velocity S-wave (km/s) = 3.53201 4.07690 3.81420
# Velocity P-wave (km/s) = 5.37246 6.59749 6.01624
#
# Compressibility (1/GPa) = 0.03867301
#
# Stress axis : x y z
#
# Youngs Moduli (GPa) = 55.91184 71.29744 75.64678
#
# Poissons Ratio (x) = -0.22144 0.28915
# Poissons Ratio (y) = -0.17365 0.19004
# Poissons Ratio (z) = 0.21371 0.17911
#
# Static dielectric constant tensor:
#      x y z
#    x 4.027190 0.020140 0.511750 
#    y 0.020140 3.768440 0.120310 
#    z 0.511750 0.120310 3.825400 
# 
# 
# High freq. dielectric constant tensor:
#      x y z
#    x 1.841860 0.000460 0.018130 
#    y 0.000460 1.807580 0.011910 
#    z 0.018130 0.011910 1.848010 
# 
# From -- ./inp_files/263071.got.cif
#   From: 2010.06.25/outbox.cif.g09.slc.cpg/sg2_132_cif.got.tgz:263071.got - 2010.06.27 13:26:56.
