data_PCOD8015041
_publ_section_title
;
Structure prediction by ZEFSAII (Michael W. Deem and Ramdas Pophale) SiO2 
 PCOD8015041
Probable space group: P -1
;
_chemical_formula_sum "Si O2"
_cell_formula_units_Z 16
_cell_length_a 12.158198
_cell_length_b 12.066958
_cell_length_c 14.444073
_cell_angle_alpha 118.861750
_cell_angle_beta 30.507897
_cell_angle_gamma 98.182904
_cell_volume 742.737731
_symmetry_space_group_name_H-M "P -1"
_symmetry_group_IT_number 2
_symmetry_cell_setting 'triclinic'
loop_
_space_group_symop_operation_xyz
x,y,z
-x,-y,-z
loop_
_atom_site_type_symbol
_atom_site_label
_atom_site_fract_x
_atom_site_fract_y
_atom_site_fract_z
Si Si1 0.758385 0.676654 0.709775
Si Si2 0.147742 0.098946 0.842787
Si Si3 0.226896 0.942093 0.542447
Si Si4 0.863102 0.150219 0.728163
Si Si5 0.097743 0.340231 0.608707
Si Si6 0.815581 0.696740 0.972383
Si Si7 0.628556 0.121597 0.234453
Si Si8 0.088757 0.171560 0.207536
O O1 0.752171 0.684573 0.607019
O O2 0.815851 0.797125 0.754501
O O3 0.000000 0.500000 0.500000
O O4 0.467198 0.735409 0.985382
O O5 0.291844 0.024626 0.608297
O O6 0.320238 0.955677 0.733678
O O7 0.123745 0.253857 0.954133
O O8 0.834659 0.163399 0.086146
O O9 0.170210 0.826802 0.585405
O O10 0.490959 0.831072 0.240552
O O11 0.968538 0.081884 0.727133
O O12 0.945489 0.261249 0.682668
O O13 0.000000 0.000000 0.500000
O O14 0.313991 0.275492 0.510301
O O15 0.874419 0.527780 0.868965
O O16 0.988815 0.696705 0.762124
O O17 0.665207 0.001838 0.080477
#
# Coordination Sequence:
#
# PCOD8015041 Si02
#       8
#     2   2   2   2   2   2   2   2
#     4  12  25  42  67  96 132 173 213 270 334 384
#     4   9  19  40  66  90 123 172 223 256 317 392
#     4  11  23  42  70  92 126 174 224 259 314 395
#     4  12  27  45  69  98 131 175 224 267 319 393
#     4  12  26  41  65  98 137 164 216 278 332 379
#     4  11  23  39  64  96 131 170 208 275 329 376
#     4   9  19  39  66  92 124 168 216 264 319 383
#     4  10  21  42  65  89 124 170 215 260 316 395
#
# _framework density 21.541924999999999
#
# number of rings (size 3 to 8) (size 9 to 14) (size 15 to 20)
#    0.000    1.250    1.250    6.375    1.750    2.500 
#    0.000    2.500    0.000    0.000    0.000    0.000 
#    0.000    0.000    0.000    0.000    0.000    0.000 
#
# Total GULP energy -198399.816814 kJ/mol
# GULP energy per Si atom -12399.988551 kJ/mol
# Density = 2.149289 g / cm^3
# Si number density = 21.541925 Si / 1000 Ang^3
#
#
#
# Elastic Constant Matrix: (Units=GPa)
#
#
# Indices 1 2 3 4 5 6 
#
# 1 115.3410 33.0729 40.9970 11.8806 5.2916 2.7327
# 2 33.0729 126.9175 48.8609 0.3873 3.0474 17.0030
# 3 40.9970 48.8609 113.3241 1.0644 -5.5554 4.6376
# 4 11.8806 0.3873 1.0644 30.7456 -0.2991 5.5319
# 5 5.2916 3.0474 -5.5554 -0.2991 33.1388 -0.1297
# 6 2.7327 17.0030 4.6376 5.5319 -0.1297 27.5967
#
#
#
# Elastic Compliance Matrix: (Units=1/GPa)
#
#
# Indices 1 2 3 4 5 6 
#
# 1 0.010841 -0.001662 -0.003327 -0.004320 -0.002170 0.001365
# 2 -0.001662 0.010624 -0.003813 0.001723 -0.001359 -0.006092
# 3 -0.003327 -0.003813 0.011782 0.000856 0.002867 0.000540
# 4 -0.004320 0.001723 0.000856 0.035575 0.000965 -0.007904
# 5 -0.002170 -0.001359 0.002867 0.000965 0.031139 0.000523
# 6 0.001365 -0.006092 0.000540 -0.007904 0.000523 0.041351
#
#
# Mechanical properties :
#
#
# Convention : Reuss Voigt Hill
#
# Bulk Modulus (GPa) = 63.92429 66.82714 65.37572
# Shear Modulus (GPa) = 30.46387 33.80634 32.13510
#
# Velocity S-wave (km/s) = 3.76462 3.96577 3.86650
# Velocity P-wave (km/s) = 6.97390 7.21519 7.09557
#
# Compressibility (1/GPa) = 0.01564351
#
# Stress axis : x y z
#
# Youngs Moduli (GPa) = 92.24054 94.13079 84.87373
#
# Poissons Ratio (x) = 0.15643 0.28239
# Poissons Ratio (y) = 0.15328 0.32360
# Poissons Ratio (z) = 0.30690 0.35890
#
# Static dielectric constant tensor:
#      x y z
#    x 4.036010 0.161240 0.081520 
#    y 0.161240 3.951560 -0.096610 
#    z 0.081520 -0.096610 3.785340 
# 
# 
# High freq. dielectric constant tensor:
#      x y z
#    x 1.855780 0.011680 0.004480 
#    y 0.011680 1.844360 -0.015370 
#    z 0.004480 -0.015370 1.836750 
# 
# From -- ./inp_files/519796.got.cif
#   From: 2010.06.25/outbox.cif.g09.slc.cpg/sg2_260_cif.got.tgz:519796.got - 2010.06.27 13:26:56.
