data_PCOD8015964
_publ_section_title
;
Structure prediction by ZEFSAII (Michael W. Deem and Ramdas Pophale) SiO2 
 PCOD8015964
Probable space group: P -1
;
_chemical_formula_sum "Si O2"
_cell_formula_units_Z 16
_cell_length_a 18.464200
_cell_length_b 12.078308
_cell_length_c 16.728818
_cell_angle_alpha 30.068965
_cell_angle_beta 22.694108
_cell_angle_gamma 43.325183
_cell_volume 670.860681
_symmetry_space_group_name_H-M "P -1"
_symmetry_group_IT_number 2
_symmetry_cell_setting 'triclinic'
loop_
_space_group_symop_operation_xyz
x,y,z
-x,-y,-z
loop_
_atom_site_type_symbol
_atom_site_label
_atom_site_fract_x
_atom_site_fract_y
_atom_site_fract_z
Si Si1 0.448467 0.624676 0.724765
Si Si2 0.743166 0.228741 0.732897
Si Si3 0.004928 0.897818 0.322324
Si Si4 0.141482 0.953866 0.986718
Si Si5 0.434101 0.290097 0.812549
Si Si6 0.449187 0.386076 0.034830
Si Si7 0.188008 0.421698 0.851423
Si Si8 0.048735 0.690667 0.088292
O O1 0.629248 0.868754 0.368183
O O2 0.468010 0.396427 0.801631
O O3 0.447402 0.582119 0.847975
O O4 0.246730 0.652770 0.878264
O O5 0.841439 0.460119 0.431909
O O6 0.937343 0.202586 0.593226
O O7 0.602203 0.264635 0.924112
O O8 0.635247 0.996154 0.933738
O O9 0.766289 0.823443 0.609811
O O10 0.097577 0.813627 0.203037
O O11 0.114581 0.180741 0.026921
O O12 0.982518 0.089020 0.060214
O O13 0.083015 0.743572 0.114369
O O14 0.269503 0.376701 0.882871
O O15 0.638793 0.379445 0.497929
O O16 0.500000 0.500000 0.000000
O O17 0.000000 0.500000 0.000000
#
# Coordination Sequence:
#
# PCOD8015964 Si02
#       8
#     2   2   2   2   2   2   2   2
#     4  12  25  46  68 105 142 184 234 293 350 417
#     4  11  24  47  69 102 144 183 229 294 351 418
#     4  11  24  43  71 101 134 185 233 284 354 414
#     4  11  25  45  69 101 136 185 241 288 348 419
#     4  10  24  42  70 104 143 180 235 285 352 422
#     4  12  27  44  70 103 139 185 239 287 354 414
#     4  10  21  43  68 102 138 185 229 285 346 418
#     4  11  25  44  68  99 140 185 234 289 352 410
#
# _framework density 23.849961
#
# number of rings (size 3 to 8) (size 9 to 14) (size 15 to 20)
#    0.000    1.000    3.750    1.875    5.250    3.000 
#    0.000    0.000    0.000    0.000    0.000    0.000 
#    0.000    0.000    0.000    0.000    0.000    0.000 
#
# Total GULP energy -198415.378286 kJ/mol
# GULP energy per Si atom -12400.961143 kJ/mol
# Density = 2.379568 g / cm^3
# Si number density = 23.849961 Si / 1000 Ang^3
#
#
#
# Elastic Constant Matrix: (Units=GPa)
#
#
# Indices 1 2 3 4 5 6 
#
# 1 64.1895 7.3104 12.2664 12.2759 -11.4052 17.7709
# 2 7.3104 83.0178 19.3826 4.1088 -13.9354 -4.8559
# 3 12.2664 19.3826 119.4364 5.3159 -21.9875 -6.3501
# 4 12.2759 4.1088 5.3159 38.5728 0.4757 -7.6715
# 5 -11.4052 -13.9354 -21.9875 0.4757 35.0302 5.4241
# 6 17.7709 -4.8559 -6.3501 -7.6715 5.4241 24.5426
#
#
#
# Elastic Compliance Matrix: (Units=1/GPa)
#
#
# Indices 1 2 3 4 5 6 
#
# 1 0.029238 -0.001052 -0.001327 -0.014995 0.013006 -0.029284
# 2 -0.001052 0.013211 -0.001193 -0.000549 0.003855 0.002044
# 3 -0.001327 -0.001193 0.009731 -0.000450 0.004894 0.002020
# 4 -0.014995 -0.000549 -0.000450 0.035689 -0.009569 0.023903
# 5 0.013006 0.003855 0.004894 -0.009569 0.040510 -0.019332
# 6 -0.029284 0.002044 0.002020 0.023903 -0.019332 0.074621
#
#
# Mechanical properties :
#
#
# Convention : Reuss Voigt Hill
#
# Bulk Modulus (GPa) = 22.20536 38.28472 30.24504
# Shear Modulus (GPa) = 22.20674 34.80807 28.50740
#
# Velocity S-wave (km/s) = 3.05471 3.82443 3.46103
# Velocity P-wave (km/s) = 4.66608 5.96564 5.35543
#
# Compressibility (1/GPa) = 0.04503418
#
# Stress axis : x y z
#
# Youngs Moduli (GPa) = 34.20200 75.69668 102.76344
#
# Poissons Ratio (x) = 0.07966 0.13640
# Poissons Ratio (y) = 0.03599 0.12260
# Poissons Ratio (z) = 0.04540 0.09031
#
# Static dielectric constant tensor:
#      x y z
#    x 4.367610 0.159520 -0.284970 
#    y 0.159520 4.581670 -0.092370 
#    z -0.284970 -0.092370 4.253040 
# 
# 
# High freq. dielectric constant tensor:
#      x y z
#    x 1.950520 -0.000820 -0.015550 
#    y -0.000820 1.943750 0.001970 
#    z -0.015550 0.001970 1.953810 
# 
# From -- ./inp_files/348962.got.cif
#   From: 2010.06.25/outbox.cif.g09.slc.cpg/sg2_175_cif.got.tgz:348962.got - 2010.06.27 13:26:56.
