data_PCOD8015826
_publ_section_title
;
Structure prediction by ZEFSAII (Michael W. Deem and Ramdas Pophale) SiO2 
 PCOD8015826
Probable space group: P -1
;
_chemical_formula_sum "Si O2"
_cell_formula_units_Z 12
_cell_length_a 11.830106
_cell_length_b 14.499814
_cell_length_c 7.003966
_cell_angle_alpha 88.105801
_cell_angle_beta 85.126199
_cell_angle_gamma 151.362550
_cell_volume 558.957667
_symmetry_space_group_name_H-M "P -1"
_symmetry_group_IT_number 2
_symmetry_cell_setting 'triclinic'
loop_
_space_group_symop_operation_xyz
x,y,z
-x,-y,-z
loop_
_atom_site_type_symbol
_atom_site_label
_atom_site_fract_x
_atom_site_fract_y
_atom_site_fract_z
Si Si1 0.333532 0.464348 0.350106
Si Si2 0.503616 0.199759 0.239119
Si Si3 0.871209 0.554632 0.929273
Si Si4 0.739507 0.231539 0.437203
Si Si5 0.063244 0.747471 0.294315
Si Si6 0.716816 0.777388 0.567678
O O1 0.278169 0.475928 0.161599
O O2 0.593325 0.684958 0.381321
O O3 0.336880 0.357896 0.310037
O O4 0.126097 0.332194 0.546415
O O5 0.654322 0.275443 0.403671
O O6 0.398802 0.224937 0.290417
O O7 0.306558 0.982337 0.227510
O O8 0.686927 0.338823 0.022760
O O9 0.100752 0.684581 0.771445
O O10 0.960847 0.663046 0.105717
O O11 0.884801 0.316267 0.608239
O O12 0.500000 0.000000 0.500000
O O13 0.000000 0.000000 0.500000
#
# Coordination Sequence:
#
# PCOD8015826 Si02
#       6
#     2   2   2   2   2   2
#     4  10  23  43  64  92 128 165 208 261 317 362
#     4  11  22  40  64  98 124 167 216 251 311 374
#     4  11  23  42  65  97 126 163 208 263 311 376
#     4   9  22  42  64  94 130 166 205 255 318 372
#     4  10  21  43  66  91 131 166 202 261 317 367
#     4  11  22  42  69  88 126 171 210 258 310 373
#
# _framework density 21.468532
#
# number of rings (size 3 to 8) (size 9 to 14) (size 15 to 20)
#    0.000    1.667    3.333    0.500    0.000    5.333 
#    3.000    1.667    0.000    0.000    0.000    0.000 
#    0.000    0.000    0.000    0.000    0.000    0.000 
#
# Total GULP energy -148741.378283 kJ/mol
# GULP energy per Si atom -12395.114857 kJ/mol
# Density = 2.141967 g / cm^3
# Si number density = 21.468532 Si / 1000 Ang^3
#
#
#
# Elastic Constant Matrix: (Units=GPa)
#
#
# Indices 1 2 3 4 5 6 
#
# 1 113.2534 36.3719 48.1241 -8.4176 22.1552 22.4656
# 2 36.3719 118.6461 69.0377 -14.3502 20.9426 25.3296
# 3 48.1241 69.0377 119.8860 -5.6557 22.9707 8.9567
# 4 -8.4176 -14.3502 -5.6557 35.6903 10.9772 3.4971
# 5 22.1552 20.9426 22.9707 10.9772 35.1248 3.2615
# 6 22.4656 25.3296 8.9567 3.4971 3.2615 20.8551
#
#
#
# Elastic Compliance Matrix: (Units=1/GPa)
#
#
# Indices 1 2 3 4 5 6 
#
# 1 0.017786 0.007763 -0.006543 0.012871 -0.013188 -0.025874
# 2 0.007763 0.024456 -0.011008 0.017766 -0.014672 -0.034023
# 3 -0.006543 -0.011008 0.015896 -0.005020 0.000531 0.014350
# 4 0.012871 0.017766 -0.005020 0.049495 -0.027433 -0.037297
# 5 -0.013188 -0.014672 0.000531 -0.027433 0.051126 0.028404
# 6 -0.025874 -0.034023 0.014350 -0.037297 0.028404 0.112794
#
#
# Mechanical properties :
#
#
# Convention : Reuss Voigt Hill
#
# Bulk Modulus (GPa) = 25.93188 73.20587 49.56888
# Shear Modulus (GPa) = 16.44826 31.55082 23.99954
#
# Velocity S-wave (km/s) = 2.77096 3.83774 3.34712
# Velocity P-wave (km/s) = 4.72682 7.33558 6.17064
#
# Compressibility (1/GPa) = 0.03856257
#
# Stress axis : x y z
#
# Youngs Moduli (GPa) = 56.22408 40.88910 62.90763
#
# Poissons Ratio (x) = -0.31743 0.41160
# Poissons Ratio (y) = -0.43648 0.69252
# Poissons Ratio (z) = 0.36787 0.45013
#
# Static dielectric constant tensor:
#      x y z
#    x 4.375160 0.298110 0.313430 
#    y 0.298110 4.182890 -0.285130 
#    z 0.313430 -0.285130 3.841240 
# 
# 
# High freq. dielectric constant tensor:
#      x y z
#    x 1.861620 0.015040 0.015380 
#    y 0.015040 1.858410 -0.013740 
#    z 0.015380 -0.013740 1.823770 
# 
# From -- ./inp_files/35224.got.cif
#   From: 2010.06.25/outbox.cif.g09.slc.cpg/sg2_18_cif.got.tgz:35224.got - 2010.06.27 13:26:56.
