data_PCOD8015619
_publ_section_title
;
Structure prediction by ZEFSAII (Michael W. Deem and Ramdas Pophale) SiO2 
 PCOD8015619
Probable space group: P -1
;
_chemical_formula_sum "Si O2"
_cell_formula_units_Z 14
_cell_length_a 15.114994
_cell_length_b 29.305260
_cell_length_c 15.362044
_cell_angle_alpha 161.944364
_cell_angle_beta 18.756941
_cell_angle_gamma 163.013949
_cell_volume 560.457794
_symmetry_space_group_name_H-M "P -1"
_symmetry_group_IT_number 2
_symmetry_cell_setting 'triclinic'
loop_
_space_group_symop_operation_xyz
x,y,z
-x,-y,-z
loop_
_atom_site_type_symbol
_atom_site_label
_atom_site_fract_x
_atom_site_fract_y
_atom_site_fract_z
Si Si1 0.242307 0.208576 0.668731
Si Si2 0.244300 0.714653 0.805255
Si Si3 0.368508 0.009953 0.913332
Si Si4 0.579774 0.508967 0.662713
Si Si5 0.075914 0.711120 0.219322
Si Si6 0.358710 0.217961 0.774141
Si Si7 0.850996 0.603617 0.406524
O O1 0.596144 0.276671 0.420577
O O2 0.279735 0.256147 0.821490
O O3 0.000000 0.000000 0.500000
O O4 0.109819 0.316168 0.939162
O O5 0.201711 0.555136 0.613473
O O6 0.470985 0.902714 0.985047
O O7 0.569461 0.146435 0.894934
O O8 0.383048 0.838328 0.574731
O O9 0.982020 0.941363 0.150227
O O10 0.802247 0.652046 0.637672
O O11 0.241796 0.326032 0.608905
O O12 0.479795 0.603553 0.996156
O O13 0.081046 0.764114 0.413522
O O14 0.006308 0.516385 0.931986
O O15 0.500000 0.500000 0.500000
#
# Coordination Sequence:
#
# PCOD8015619 Si02
#       7
#     2   2   2   2   2   2   2
#     4  12  23  42  65  98 131 179 228 279 322 393
#     4  12  23  41  72  91 129 181 238 264 319 404
#     4  12  23  43  68 101 127 185 223 273 324 412
#     4  11  25  43  66 102 135 175 218 284 338 392
#     4  10  21  42  72  96 129 174 231 265 321 417
#     4  12  28  41  67  99 145 170 221 284 347 372
#     4   9  20  39  71  98 127 169 227 270 326 396
#
# _framework density 24.979578
#
# number of rings (size 3 to 8) (size 9 to 14) (size 15 to 20)
#    0.000    0.857    4.286    3.000    4.000    1.143 
#    0.000    1.429    0.000    0.000    0.000    0.000 
#    0.000    0.000    0.000    0.000    0.000    0.000 
#
# Total GULP energy -173552.321318 kJ/mol
# GULP energy per Si atom -12396.594380 kJ/mol
# Density = 2.492272 g / cm^3
# Si number density = 24.979578 Si / 1000 Ang^3
#
#
#
# Elastic Constant Matrix: (Units=GPa)
#
#
# Indices 1 2 3 4 5 6 
#
# 1 124.7576 24.4995 28.9370 4.6849 28.9534 -29.3867
# 2 24.4995 53.3686 3.2223 -9.2716 15.5225 -22.9505
# 3 28.9370 3.2223 98.9452 -0.9385 22.5725 -4.8881
# 4 4.6849 -9.2716 -0.9385 37.5426 1.3003 9.3529
# 5 28.9534 15.5225 22.5725 1.3003 40.8077 -5.6675
# 6 -29.3867 -22.9505 -4.8881 9.3529 -5.6675 26.5174
#
#
#
# Elastic Compliance Matrix: (Units=1/GPa)
#
#
# Indices 1 2 3 4 5 6 
#
# 1 0.013963 0.002466 -0.001678 -0.005310 -0.007301 0.017611
# 2 0.002466 0.033779 0.002347 0.001164 -0.011842 0.029459
# 3 -0.001678 0.002347 0.011997 0.001149 -0.006287 0.000634
# 4 -0.005310 0.001164 0.001149 0.031601 -0.000529 -0.015924
# 5 -0.007301 -0.011842 -0.006287 -0.000529 0.036073 -0.011603
# 6 0.017611 0.029459 0.000634 -0.015924 -0.011603 0.085977
#
#
# Mechanical properties :
#
#
# Convention : Reuss Voigt Hill
#
# Bulk Modulus (GPa) = 15.14980 43.37656 29.26318
# Shear Modulus (GPa) = 21.82227 35.66772 28.74499
#
# Velocity S-wave (km/s) = 2.95889 3.78282 3.39594
# Velocity P-wave (km/s) = 4.21324 6.04005 5.20738
#
# Compressibility (1/GPa) = 0.06600745
#
# Stress axis : x y z
#
# Youngs Moduli (GPa) = 71.61992 29.60418 83.35113
#
# Poissons Ratio (x) = -0.07300 0.13990
# Poissons Ratio (y) = -0.17661 -0.19560
# Poissons Ratio (z) = 0.12021 -0.06947
#
# Static dielectric constant tensor:
#      x y z
#    x 5.098430 -0.304640 0.104760 
#    y -0.304640 4.255400 -0.596280 
#    z 0.104760 -0.596280 5.149300 
# 
# 
# High freq. dielectric constant tensor:
#      x y z
#    x 2.004400 -0.023830 0.004770 
#    y -0.023830 1.957690 -0.029880 
#    z 0.004770 -0.029880 2.006660 
# 
# From -- ./inp_files/135631.got.cif
#   From: 2010.06.25/outbox.cif.g09.slc.cpg/sg2_68_cif.got.tgz:135631.got - 2010.06.27 13:26:56.
