data_PCOD8015019
_publ_section_title
;
Structure prediction by ZEFSAII (Michael W. Deem and Ramdas Pophale) SiO2 
 PCOD8015019
Probable space group: P -1
;
_chemical_formula_sum "Si O2"
_cell_formula_units_Z 16
_cell_length_a 5.288420
_cell_length_b 9.040940
_cell_length_c 21.857257
_cell_angle_alpha 58.715619
_cell_angle_beta 121.719987
_cell_angle_gamma 123.170952
_cell_volume 703.613561
_symmetry_space_group_name_H-M "P -1"
_symmetry_group_IT_number 2
_symmetry_cell_setting 'triclinic'
loop_
_space_group_symop_operation_xyz
x,y,z
-x,-y,-z
loop_
_atom_site_type_symbol
_atom_site_label
_atom_site_fract_x
_atom_site_fract_y
_atom_site_fract_z
Si Si1 0.329330 0.482043 0.284049
Si Si2 0.775755 0.193831 0.854135
Si Si3 0.023814 0.065470 0.804267
Si Si4 0.723054 0.512811 0.082542
Si Si5 0.531649 0.925294 0.454061
Si Si6 0.986941 0.336571 0.641983
Si Si7 0.261324 0.351428 0.173547
Si Si8 0.963799 0.721929 0.597263
O O1 0.140293 0.615924 0.216019
O O2 0.438676 0.419396 0.246879
O O3 0.116957 0.304052 0.335215
O O4 0.637155 0.596520 0.340331
O O5 0.407179 0.114893 0.846142
O O6 0.875502 0.051078 0.856794
O O7 0.027483 0.269315 0.926153
O O8 0.925433 0.213607 0.722006
O O9 0.845127 0.868775 0.792921
O O10 0.501975 0.449016 0.128475
O O11 0.931999 0.388705 0.121566
O O12 0.500000 0.500000 0.000000
O O13 0.198476 0.788257 0.411865
O O14 0.747081 0.801333 0.511898
O O15 0.500000 0.000000 0.500000
O O16 0.682612 0.114819 0.392607
O O17 0.917205 0.523707 0.603500
#
# Coordination Sequence:
#
# PCOD8015019 Si02
#       8
#     2   2   2   2   2   2   2   2
#     4  10  23  41  67  95 127 177 222 292 339 402
#     4  10  21  42  64  99 136 173 226 279 340 402
#     4  11  23  41  66 102 135 175 226 296 340 390
#     4  11  23  45  71  99 142 192 224 268 343 418
#     4  11  27  44  63  94 133 175 229 286 341 428
#     4  11  24  42  66  92 132 178 224 281 359 406
#     4  11  25  41  70 105 140 172 241 283 334 408
#     4  11  24  44  65  91 130 174 229 276 359 407
#
# _framework density 22.739754999999999
#
# number of rings (size 3 to 8) (size 9 to 14) (size 15 to 20)
#    0.000    1.250    1.250    4.500    5.250    5.000 
#    0.000    3.750    0.000    0.000    0.000    0.000 
#    0.000    0.000    0.000    0.000    0.000    0.000 
#
# Total GULP energy -198303.117673 kJ/mol
# GULP energy per Si atom -12393.944855 kJ/mol
# Density = 2.268800 g / cm^3
# Si number density = 22.739755 Si / 1000 Ang^3
#
#
#
# Elastic Constant Matrix: (Units=GPa)
#
#
# Indices 1 2 3 4 5 6 
#
# 1 121.3592 43.0786 33.2842 11.9938 -7.4428 -1.4975
# 2 43.0786 151.9647 47.8177 26.5461 2.0322 -2.2527
# 3 33.2842 47.8177 67.6614 27.8280 -7.2929 12.0621
# 4 11.9938 26.5461 27.8280 37.3993 5.9152 1.5554
# 5 -7.4428 2.0322 -7.2929 5.9152 33.2167 -1.6969
# 6 -1.4975 -2.2527 12.0621 1.5554 -1.6969 36.6314
#
#
#
# Elastic Compliance Matrix: (Units=1/GPa)
#
#
# Indices 1 2 3 4 5 6 
#
# 1 0.010015 -0.001629 -0.004295 0.000856 0.001338 0.001749
# 2 -0.001629 0.009145 -0.005596 -0.001626 -0.001745 0.002327
# 3 -0.004295 -0.005596 0.031389 -0.019057 0.009174 -0.009621
# 4 0.000856 -0.001626 -0.019057 0.043447 -0.011434 0.003836
# 5 0.001338 -0.001745 0.009174 -0.011434 0.034512 -0.000989
# 6 0.001749 0.002327 -0.009621 0.003836 -0.000989 0.030473
#
#
# Mechanical properties :
#
#
# Convention : Reuss Voigt Hill
#
# Bulk Modulus (GPa) = 36.35139 65.48294 50.91716
# Shear Modulus (GPa) = 26.15200 35.90314 31.02757
#
# Velocity S-wave (km/s) = 3.39493 3.97781 3.69787
# Velocity P-wave (km/s) = 5.60249 7.06799 6.37748
#
# Compressibility (1/GPa) = 0.02750927
#
# Stress axis : x y z
#
# Youngs Moduli (GPa) = 99.84735 109.35132 31.85845
#
# Poissons Ratio (x) = 0.17814 0.13684
# Poissons Ratio (y) = 0.16266 0.17827
# Poissons Ratio (z) = 0.42886 0.61189
#
# Static dielectric constant tensor:
#      x y z
#    x 4.165950 0.114110 0.053550 
#    y 0.114110 4.369530 0.036380 
#    z 0.053550 0.036380 4.015060 
# 
# 
# High freq. dielectric constant tensor:
#      x y z
#    x 1.904750 0.001640 0.004550 
#    y 0.001640 1.910260 0.006080 
#    z 0.004550 0.006080 1.879840 
# 
# From -- ./inp_files/350897.got.cif
#   From: 2010.06.25/outbox.cif.g09.slc.cpg/sg2_176_cif.got.tgz:350897.got - 2010.06.27 13:26:56.
