data_PCOD8015738
_publ_section_title
;
Structure prediction by ZEFSAII (Michael W. Deem and Ramdas Pophale) SiO2 
 PCOD8015738
Probable space group: P -1
;
_chemical_formula_sum "Si O2"
_cell_formula_units_Z 12
_cell_length_a 14.830975
_cell_length_b 5.796903
_cell_length_c 9.671875
_cell_angle_alpha 48.787606
_cell_angle_beta 112.794719
_cell_angle_gamma 107.081670
_cell_volume 575.791774
_symmetry_space_group_name_H-M "P -1"
_symmetry_group_IT_number 2
_symmetry_cell_setting 'triclinic'
loop_
_space_group_symop_operation_xyz
x,y,z
-x,-y,-z
loop_
_atom_site_type_symbol
_atom_site_label
_atom_site_fract_x
_atom_site_fract_y
_atom_site_fract_z
Si Si1 0.115445 0.525589 0.066380
Si Si2 0.242851 0.603617 0.849804
Si Si3 0.591152 0.551409 0.632819
Si Si4 0.240215 0.975429 0.438602
Si Si5 0.451852 0.687499 0.023458
Si Si6 0.255811 0.901469 0.170074
O O1 0.149416 0.777135 0.101105
O O2 0.154251 0.201560 0.265905
O O3 0.158383 0.638126 0.899316
O O4 0.000000 0.500000 0.000000
O O5 0.204949 0.726075 0.631267
O O6 0.344114 0.788583 0.876039
O O7 0.269812 0.252718 0.997725
O O8 0.500000 0.500000 0.500000
O O9 0.553516 0.577561 0.757106
O O10 0.656376 0.256288 0.790866
O O11 0.660068 0.848228 0.516185
O O12 0.262899 0.815605 0.370135
O O13 0.500000 0.500000 0.000000
O O14 0.500000 0.000000 0.000000
#
# Coordination Sequence:
#
# PCOD8015738 Si02
#       6
#     2   2   2   2   2   2
#     4  10  23  45  69  92 129 169 219 285 347 405
#     4  11  23  42  64  96 134 171 223 278 335 405
#     4  11  23  41  61  94 136 180 225 275 332 404
#     4  10  23  40  64  94 128 173 219 273 340 405
#     4  12  25  40  65 100 137 186 233 278 341 406
#     4  10  21  43  64  90 134 168 223 274 341 397
#
# _framework density 20.840868
#
# number of rings (size 3 to 8) (size 9 to 14) (size 15 to 20)
#    0.000    1.333    5.000    2.000    2.333    6.667 
#    0.000    1.667    0.000    0.000    0.000    0.000 
#    0.000    0.000    0.000    0.000    0.000    0.000 
#
# Total GULP energy -148716.807932 kJ/mol
# GULP energy per Si atom -12393.067328 kJ/mol
# Density = 2.079343 g / cm^3
# Si number density = 20.840868 Si / 1000 Ang^3
#
#
#
# Elastic Constant Matrix: (Units=GPa)
#
#
# Indices 1 2 3 4 5 6 
#
# 1 142.0112 55.4976 50.9488 20.9562 -4.4461 17.5400
# 2 55.4976 115.5303 33.4047 16.3749 -2.9719 1.1452
# 3 50.9488 33.4047 160.6710 21.5263 -29.9202 0.3419
# 4 20.9562 16.3749 21.5263 26.7260 4.4659 0.5002
# 5 -4.4461 -2.9719 -29.9202 4.4659 28.4383 16.9622
# 6 17.5400 1.1452 0.3419 0.5002 16.9622 30.2552
#
#
#
# Elastic Compliance Matrix: (Units=1/GPa)
#
#
# Indices 1 2 3 4 5 6 
#
# 1 0.011583 -0.004076 0.000159 -0.008162 0.010018 -0.012044
# 2 -0.004076 0.011198 -0.001116 -0.002464 -0.002168 0.003208
# 3 0.000159 -0.001116 0.012316 -0.012860 0.022342 -0.012502
# 4 -0.008162 -0.002464 -0.012860 0.061998 -0.040794 0.026816
# 5 0.010018 -0.002168 0.022342 -0.040794 0.104536 -0.063910
# 6 -0.012044 0.003208 -0.012502 0.026816 -0.063910 0.075442
#
#
# Mechanical properties :
#
#
# Convention : Reuss Voigt Hill
#
# Bulk Modulus (GPa) = 39.95132 77.54608 58.74870
# Shear Modulus (GPa) = 16.92144 35.64132 26.28138
#
# Velocity S-wave (km/s) = 2.85254 4.13990 3.55498
# Velocity P-wave (km/s) = 5.48276 7.75507 6.71572
#
# Compressibility (1/GPa) = 0.02503046
#
# Stress axis : x y z
#
# Youngs Moduli (GPa) = 86.33117 89.29971 81.19825
#
# Poissons Ratio (x) = 0.36402 -0.01292
# Poissons Ratio (y) = 0.35192 0.09062
# Poissons Ratio (z) = -0.01373 0.09966
#
# Static dielectric constant tensor:
#      x y z
#    x 3.598040 -0.031640 -0.141200 
#    y -0.031640 4.139210 0.354730 
#    z -0.141200 0.354730 3.843890 
# 
# 
# High freq. dielectric constant tensor:
#      x y z
#    x 1.803400 -0.002260 -0.010200 
#    y -0.002260 1.823110 0.013890 
#    z -0.010200 0.013890 1.819560 
# 
# From -- ./inp_files/29576.got.cif
#   From: 2010.06.25/outbox.cif.g09.slc.cpg/sg2_15_cif.got.tgz:29576.got - 2010.06.27 13:26:56.
