data_PCOD8015345
_publ_section_title
;
Structure prediction by ZEFSAII (Michael W. Deem and Ramdas Pophale) SiO2 
 PCOD8015345
Probable space group: P -1
;
_chemical_formula_sum "Si O2"
_cell_formula_units_Z 14
_cell_length_a 5.366066
_cell_length_b 25.610478
_cell_length_c 9.041722
_cell_angle_alpha 149.424566
_cell_angle_beta 88.638997
_cell_angle_gamma 89.912987
_cell_volume 631.298565
_symmetry_space_group_name_H-M "P -1"
_symmetry_group_IT_number 2
_symmetry_cell_setting 'triclinic'
loop_
_space_group_symop_operation_xyz
x,y,z
-x,-y,-z
loop_
_atom_site_type_symbol
_atom_site_label
_atom_site_fract_x
_atom_site_fract_y
_atom_site_fract_z
Si Si1 0.264882 0.913727 0.144330
Si Si2 0.166275 0.770778 0.236371
Si Si3 0.498764 0.272697 0.137327
Si Si4 0.857176 0.876577 0.271637
Si Si5 0.741536 0.066017 0.138335
Si Si6 0.499230 0.511328 0.204049
Si Si7 0.003677 0.440355 0.197301
O O1 0.981397 0.907875 0.192314
O O2 0.346708 0.032024 0.458892
O O3 0.433842 0.832811 0.034317
O O4 0.264493 0.885654 0.905870
O O5 0.294701 0.829829 0.511688
O O6 0.040515 0.867410 0.386573
O O7 0.359349 0.710151 0.976046
O O8 0.987806 0.682718 0.082235
O O9 0.522515 0.367146 0.474255
O O10 0.219844 0.243203 0.028028
O O11 0.500000 0.000000 0.000000
O O12 0.000000 0.000000 0.000000
O O13 0.256034 0.462002 0.157143
O O14 0.755228 0.469910 0.176762
O O15 0.500000 0.500000 0.000000
O O16 0.000000 0.500000 0.500000
#
# Coordination Sequence:
#
# PCOD8015345 Si02
#       7
#     2   2   2   2   2   2   2
#     4  10  23  40  65  99 137 182 225 281 352 412
#     4  11  25  42  74 102 137 188 234 292 356 420
#     4  11  24  42  72  97 140 184 239 284 360 427
#     4  10  21  42  68 100 138 178 236 279 349 429
#     4  12  27  45  67 102 146 181 233 289 347 420
#     4  12  29  49  73 108 149 188 243 310 365 431
#     4  12  26  50  78 107 144 189 251 305 363 431
#
# _framework density 22.176511999999999
#
# number of rings (size 3 to 8) (size 9 to 14) (size 15 to 20)
#    0.000    0.857    2.857    3.000    8.000    1.143 
#    0.000    0.000    0.000    0.000    0.000    0.000 
#    0.000    0.000    0.000    0.000    0.000    0.000 
#
# Total GULP energy -173449.515075 kJ/mol
# GULP energy per Si atom -12389.251077 kJ/mol
# Density = 2.212604 g / cm^3
# Si number density = 22.176512 Si / 1000 Ang^3
#
#
#
# Elastic Constant Matrix: (Units=GPa)
#
#
# Indices 1 2 3 4 5 6 
#
# 1 112.1552 50.5873 34.3697 -4.8245 11.3395 11.6487
# 2 50.5873 150.5662 68.4910 -19.0355 13.2545 11.0786
# 3 34.3697 68.4910 175.1298 -8.8494 23.2613 15.3158
# 4 -4.8245 -19.0355 -8.8494 46.0493 1.8574 4.5667
# 5 11.3395 13.2545 23.2613 1.8574 35.0818 5.7080
# 6 11.6487 11.0786 15.3158 4.5667 5.7080 32.6796
#
#
#
# Elastic Compliance Matrix: (Units=1/GPa)
#
#
# Indices 1 2 3 4 5 6 
#
# 1 0.010878 -0.003107 -0.000497 0.000055 -0.001639 -0.002313
# 2 -0.003107 0.009488 -0.002739 0.003214 -0.000748 -0.001144
# 3 -0.000497 -0.002739 0.007543 0.000596 -0.003529 -0.001897
# 4 0.000055 0.003214 0.000596 0.023681 -0.002178 -0.004317
# 5 -0.001639 -0.000748 -0.003529 -0.002178 0.032234 -0.002834
# 6 -0.002313 -0.001144 -0.001897 -0.004317 -0.002834 0.033799
#
#
# Mechanical properties :
#
#
# Convention : Reuss Voigt Hill
#
# Bulk Modulus (GPa) = 65.68909 82.74968 74.21938
# Shear Modulus (GPa) = 36.93188 41.72236 39.32712
#
# Velocity S-wave (km/s) = 4.08531 4.34219 4.21571
# Velocity P-wave (km/s) = 7.20683 7.90788 7.56548
#
# Compressibility (1/GPa) = 0.01522323
#
# Stress axis : x y z
#
# Youngs Moduli (GPa) = 91.92512 105.39765 132.56503
#
# Poissons Ratio (x) = 0.32752 0.06586
# Poissons Ratio (y) = 0.28566 0.36309
# Poissons Ratio (z) = 0.04567 0.28868
#
# Static dielectric constant tensor:
#      x y z
#    x 4.322640 0.113160 0.097650 
#    y 0.113160 4.146060 -0.015290 
#    z 0.097650 -0.015290 4.088050 
# 
# 
# High freq. dielectric constant tensor:
#      x y z
#    x 1.872400 -0.000400 0.012190 
#    y -0.000400 1.888930 0.003340 
#    z 0.012190 0.003340 1.880950 
# 
# From -- ./inp_files/36222.got.cif
#   From: 2010.06.25/outbox.cif.g09.slc.cpg/sg2_19_cif.got.tgz:36222.got - 2010.06.27 13:26:56.
