data_PCOD8015265
_publ_section_title
;
Structure prediction by ZEFSAII (Michael W. Deem and Ramdas Pophale) SiO2 
 PCOD8015265
Probable space group: P -1
;
_chemical_formula_sum "Si O2"
_cell_formula_units_Z 10
_cell_length_a 12.688649
_cell_length_b 5.323158
_cell_length_c 5.480833
_cell_angle_alpha 99.037992
_cell_angle_beta 102.191491
_cell_angle_gamma 97.932072
_cell_volume 351.691011
_symmetry_space_group_name_H-M "P -1"
_symmetry_group_IT_number 2
_symmetry_cell_setting 'triclinic'
loop_
_space_group_symop_operation_xyz
x,y,z
-x,-y,-z
loop_
_atom_site_type_symbol
_atom_site_label
_atom_site_fract_x
_atom_site_fract_y
_atom_site_fract_z
Si Si1 0.929201 0.978964 0.214204
Si Si2 0.721281 0.210292 0.472382
Si Si3 0.550142 0.342731 0.698131
Si Si4 0.124043 0.577179 0.998283
Si Si5 0.331300 0.328914 0.814746
O O1 0.843507 0.697343 0.121978
O O2 0.864318 0.223544 0.197644
O O3 0.000000 0.000000 0.500000
O O4 0.000000 0.000000 0.000000
O O5 0.608120 0.121142 0.565432
O O6 0.704366 0.458516 0.348336
O O7 0.745051 0.955993 0.297868
O O8 0.821388 0.287487 0.715522
O O9 0.500000 0.500000 0.500000
O O10 0.453995 0.253597 0.830980
O O11 0.658247 0.531287 0.895726
O O12 0.000000 0.500000 0.000000
#
# Coordination Sequence:
#
# PCOD8015265 Si02
#       5
#     2   2   2   2   2
#     4  10  21  42  67  91 125 173 225 272 332 388
#     4  11  22  41  62  92 129 162 219 257 322 388
#     4   9  21  40  64  91 126 162 208 261 326 392
#     4  10  22  42  63  92 130 172 217 273 322 387
#     4  10  22  39  64  93 124 165 205 267 325 385
#
# _framework density 28.434051
#
# number of rings (size 3 to 8) (size 9 to 14) (size 15 to 20)
#    0.000    2.000    0.000    2.400    0.000   10.400 
#   21.600    0.000    0.000    0.000    0.000    0.000 
#    0.000    0.000    0.000    0.000    0.000    0.000 
#
# Total GULP energy -123912.706824 kJ/mol
# GULP energy per Si atom -12391.270682 kJ/mol
# Density = 2.836933 g / cm^3
# Si number density = 28.434051 Si / 1000 Ang^3
#
#
#
# Elastic Constant Matrix: (Units=GPa)
#
#
# Indices 1 2 3 4 5 6 
#
# 1 80.7581 48.5080 9.8997 6.0090 -10.0347 -23.7797
# 2 48.5080 221.0963 78.2240 13.7109 -1.1972 -24.3469
# 3 9.8997 78.2240 219.7921 -3.0991 25.1174 -9.2643
# 4 6.0090 13.7109 -3.0991 54.4313 -6.2245 -11.4827
# 5 -10.0347 -1.1972 25.1174 -6.2245 44.4688 6.1385
# 6 -23.7797 -24.3469 -9.2643 -11.4827 6.1385 46.2062
#
#
#
# Elastic Compliance Matrix: (Units=1/GPa)
#
#
# Indices 1 2 3 4 5 6 
#
# 1 0.016405 -0.002999 0.000326 0.000685 0.002601 0.006752
# 2 -0.002999 0.006076 -0.002045 -0.001078 0.000362 0.000932
# 3 0.000326 -0.002045 0.005672 0.000604 -0.003212 0.000804
# 4 0.000685 -0.001078 0.000604 0.019785 0.001923 0.004567
# 5 0.002601 0.000362 -0.003212 0.001923 0.025446 -0.002017
# 6 0.006752 0.000932 0.000804 0.004567 -0.002017 0.027172
#
#
# Mechanical properties :
#
#
# Convention : Reuss Voigt Hill
#
# Bulk Modulus (GPa) = 53.42948 88.32332 70.87640
# Shear Modulus (GPa) = 43.01749 54.68892 48.85320
#
# Velocity S-wave (km/s) = 3.89380 4.39037 4.14952
# Velocity P-wave (km/s) = 6.24877 7.53860 6.92378
#
# Compressibility (1/GPa) = 0.01871626
#
# Stress axis : x y z
#
# Youngs Moduli (GPa) = 60.95827 164.58960 176.29774
#
# Poissons Ratio (x) = 0.49363 -0.05739
# Poissons Ratio (y) = 0.18282 0.36045
# Poissons Ratio (z) = -0.01984 0.33651
#
# Static dielectric constant tensor:
#      x y z
#    x 5.965140 3.616690 1.432480 
#    y 3.616690 -1.885980 -3.344380 
#    z 1.432480 -3.344380 3.766420 
# 
# 
# High freq. dielectric constant tensor:
#      x y z
#    x 2.231550 -0.009690 -0.006920 
#    y -0.009690 2.159710 0.020660 
#    z -0.006920 0.020660 2.158770 
# 
# From -- ./inp_files/2293.got.cif
#   From: 2010.06.25/outbox.cif.g09.slc.cpg/sg2_2_cif.got.tgz:2293.got - 2010.06.27 13:26:56.
