data_PCOD8015861
_publ_section_title
;
Structure prediction by ZEFSAII (Michael W. Deem and Ramdas Pophale) SiO2 
 PCOD8015861
Probable space group: P -1
;
_chemical_formula_sum "Si O2"
_cell_formula_units_Z 16
_cell_length_a 12.153436
_cell_length_b 8.885154
_cell_length_c 15.831923
_cell_angle_alpha 56.173727
_cell_angle_beta 69.657405
_cell_angle_gamma 116.061075
_cell_volume 776.351604
_symmetry_space_group_name_H-M "P -1"
_symmetry_group_IT_number 2
_symmetry_cell_setting 'triclinic'
loop_
_space_group_symop_operation_xyz
x,y,z
-x,-y,-z
loop_
_atom_site_type_symbol
_atom_site_label
_atom_site_fract_x
_atom_site_fract_y
_atom_site_fract_z
Si Si1 0.219951 0.744351 0.596342
Si Si2 0.050614 0.268096 0.926613
Si Si3 0.327677 0.103613 0.754019
Si Si4 0.286250 0.176155 0.555973
Si Si5 0.358422 0.177522 0.178758
Si Si6 0.102237 0.588170 0.356350
Si Si7 0.974930 0.882377 0.453531
Si Si8 0.569867 0.159971 0.249362
O O1 0.127032 0.464288 0.761477
O O2 0.051089 0.592891 0.623046
O O3 0.286878 0.995222 0.557939
O O4 0.419609 0.922926 0.440499
O O5 0.221500 0.495645 0.881066
O O6 0.851023 0.114962 0.062401
O O7 0.000000 0.000000 0.000000
O O8 0.247614 0.076740 0.694183
O O9 0.505481 0.456763 0.628748
O O10 0.398240 0.984712 0.765771
O O11 0.103834 0.076605 0.607783
O O12 0.474822 0.193913 0.206192
O O13 0.279949 0.958668 0.188048
O O14 0.186739 0.067348 0.309709
O O15 0.500000 0.500000 0.000000
O O16 0.000000 0.500000 0.500000
O O17 0.181779 0.481136 0.376445
O O18 0.000000 0.000000 0.500000
#
# Coordination Sequence:
#
# PCOD8015861 Si02
#       8
#     2   2   2   2   2   2   2   2
#     4  12  24  45  72  99 138 183 230 282 341 413
#     4  12  29  43  69 103 141 178 231 290 343 395
#     4  11  27  45  69 105 136 182 229 284 343 407
#     4  11  24  43  74 100 140 179 232 275 348 408
#     4  11  26  42  68 102 134 180 223 279 340 399
#     4  10  21  43  66  96 132 176 229 265 339 402
#     4  11  21  42  70  99 132 176 227 277 330 408
#     4  12  24  47  70  99 142 181 231 276 345 416
#
# _framework density 20.609220000000001
#
# number of rings (size 3 to 8) (size 9 to 14) (size 15 to 20)
#    0.000    0.750    5.000    2.250    8.750    0.000 
#    0.000    0.625    0.000    0.000    0.000    0.000 
#    0.000    0.000    0.000    0.000    0.000    0.000 
#
# Total GULP energy -198391.769615 kJ/mol
# GULP energy per Si atom -12399.485601 kJ/mol
# Density = 2.056231 g / cm^3
# Si number density = 20.609220 Si / 1000 Ang^3
#
#
#
# Elastic Constant Matrix: (Units=GPa)
#
#
# Indices 1 2 3 4 5 6 
#
# 1 139.8090 44.5105 60.9528 3.2821 7.2390 -14.1020
# 2 44.5105 125.0028 55.4979 -12.6347 15.9884 -19.9092
# 3 60.9528 55.4979 137.1645 -8.3550 9.5760 -21.2802
# 4 3.2821 -12.6347 -8.3550 32.7169 -8.7068 2.2995
# 5 7.2390 15.9884 9.5760 -8.7068 26.6060 -1.8413
# 6 -14.1020 -19.9092 -21.2802 2.2995 -1.8413 43.9710
#
#
#
# Elastic Compliance Matrix: (Units=1/GPa)
#
#
# Indices 1 2 3 4 5 6 
#
# 1 0.009438 -0.001890 -0.003433 -0.002889 -0.001099 0.000615
# 2 -0.001890 0.011140 -0.002794 0.002472 -0.004173 0.002782
# 3 -0.003433 -0.002794 0.010481 0.001642 -0.000442 0.002602
# 4 -0.002889 0.002472 0.001642 0.034951 0.010119 -0.000417
# 5 -0.001099 -0.004173 -0.000442 0.010119 0.043783 -0.001152
# 6 0.000615 0.002782 0.002602 -0.000417 -0.001152 0.025432
#
#
# Mechanical properties :
#
#
# Convention : Reuss Voigt Hill
#
# Bulk Modulus (GPa) = 67.45473 80.43319 73.94396
# Shear Modulus (GPa) = 31.96927 36.72644 34.34785
#
# Velocity S-wave (km/s) = 3.94282 4.22600 4.08686
# Velocity P-wave (km/s) = 7.31636 7.93250 7.63065
#
# Compressibility (1/GPa) = 0.01482476
#
# Stress axis : x y z
#
# Youngs Moduli (GPa) = 105.95707 89.76784 95.40949
#
# Poissons Ratio (x) = 0.16965 0.32756
# Poissons Ratio (y) = 0.20024 0.26658
# Poissons Ratio (z) = 0.36377 0.25081
#
# Static dielectric constant tensor:
#      x y z
#    x 3.614140 0.429520 -0.055550 
#    y 0.429520 3.466300 0.056200 
#    z -0.055550 0.056200 3.740300 
# 
# 
# High freq. dielectric constant tensor:
#      x y z
#    x 1.821650 -0.004650 0.007480 
#    y -0.004650 1.827540 -0.013200 
#    z 0.007480 -0.013200 1.797150 
# 
# From -- ./inp_files/274894.got.cif
#   From: 2010.06.25/outbox.cif.g09.slc.cpg/sg2_138_cif.got.tgz:274894.got - 2010.06.27 13:26:56.
