data_PCOD8015260
_publ_section_title
;
Structure prediction by ZEFSAII (Michael W. Deem and Ramdas Pophale) SiO2 
 PCOD8015260
Probable space group: P -1
;
_chemical_formula_sum "Si O2"
_cell_formula_units_Z 14
_cell_length_a 17.464558
_cell_length_b 20.270768
_cell_length_c 8.949228
_cell_angle_alpha 40.353521
_cell_angle_beta 54.616899
_cell_angle_gamma 22.358896
_cell_volume 671.050800
_symmetry_space_group_name_H-M "P -1"
_symmetry_group_IT_number 2
_symmetry_cell_setting 'triclinic'
loop_
_space_group_symop_operation_xyz
x,y,z
-x,-y,-z
loop_
_atom_site_type_symbol
_atom_site_label
_atom_site_fract_x
_atom_site_fract_y
_atom_site_fract_z
Si Si1 0.679615 0.073226 0.511335
Si Si2 0.576244 0.180063 0.116164
Si Si3 0.167456 0.664392 0.572205
Si Si4 0.770355 0.427695 0.690991
Si Si5 0.084307 0.296462 0.616275
Si Si6 0.251774 0.192414 0.925195
Si Si7 0.125732 0.923013 0.131818
O O1 0.534185 0.204708 0.295990
O O2 0.506250 0.303836 0.424904
O O3 0.902402 0.920616 0.486790
O O4 0.766289 0.879789 0.810674
O O5 0.733112 0.929922 0.317341
O O6 0.324320 0.429048 0.892634
O O7 0.685968 0.180091 0.949339
O O8 0.186427 0.613898 0.464475
O O9 0.242449 0.707925 0.449557
O O10 0.869475 0.431544 0.649180
O O11 0.919391 0.184208 0.010261
O O12 0.228718 0.171342 0.820512
O O13 0.968694 0.513840 0.305407
O O14 0.500000 0.000000 0.000000
O O15 0.000000 0.000000 0.000000
#
# Coordination Sequence:
#
# PCOD8015260 Si02
#       7
#     2   2   2   2   2   2   2
#     4  12  24  40  65  98 125 165 216 263 309 374
#     4  11  23  40  67  94 130 168 209 258 315 375
#     4  11  23  43  65  93 131 172 209 256 313 376
#     4  10  21  42  67  90 133 163 208 265 313 368
#     4  10  22  44  66  91 124 172 204 257 326 373
#     4  11  24  41  68  93 127 164 213 262 320 378
#     4   9  18  42  65  90 130 173 204 255 316 369
#
# _framework density 20.862801000000001
#
# number of rings (size 3 to 8) (size 9 to 14) (size 15 to 20)
#    0.000    1.429    5.714    1.286    2.000    1.143 
#    0.000    2.143    0.000    0.000    0.000    0.000 
#    0.000    0.000    0.000    0.000    0.000    0.000 
#
# Total GULP energy -173511.232504 kJ/mol
# GULP energy per Si atom -12393.659465 kJ/mol
# Density = 2.081532 g / cm^3
# Si number density = 20.862801 Si / 1000 Ang^3
#
#
#
# Elastic Constant Matrix: (Units=GPa)
#
#
# Indices 1 2 3 4 5 6 
#
# 1 90.2030 31.0318 36.7645 -0.2862 -2.9101 1.8540
# 2 31.0318 121.4628 38.1871 -9.1713 -0.7443 9.0025
# 3 36.7645 38.1871 132.5714 -5.9314 -0.9112 11.2219
# 4 -0.2862 -9.1713 -5.9314 28.4148 -2.7050 -4.0210
# 5 -2.9101 -0.7443 -0.9112 -2.7050 33.4269 -11.9998
# 6 1.8540 9.0025 11.2219 -4.0210 -11.9998 14.8047
#
#
#
# Elastic Compliance Matrix: (Units=1/GPa)
#
#
# Indices 1 2 3 4 5 6 
#
# 1 0.013359 -0.002729 -0.003299 -0.000571 0.002543 0.004393
# 2 -0.002729 0.009968 -0.001573 0.001895 -0.001898 -0.005551
# 3 -0.003299 -0.001573 0.009601 -0.000020 -0.003082 -0.008411
# 4 -0.000571 0.001895 -0.000020 0.039096 0.009287 0.017081
# 5 0.002543 -0.001898 -0.003082 0.009287 0.046270 0.043198
# 6 0.004393 -0.005551 -0.008411 0.017081 0.043198 0.116400
#
#
# Mechanical properties :
#
#
# Convention : Reuss Voigt Hill
#
# Bulk Modulus (GPa) = 56.41191 61.80045 59.10618
# Shear Modulus (GPa) = 19.54627 31.21286 25.37956
#
# Velocity S-wave (km/s) = 3.06420 3.87214 3.49162
# Velocity P-wave (km/s) = 6.29422 7.04826 6.68189
#
# Compressibility (1/GPa) = 0.01772675
#
# Stress axis : x y z
#
# Youngs Moduli (GPa) = 74.85379 100.32544 104.15808
#
# Poissons Ratio (x) = 0.27381 0.34358
# Poissons Ratio (y) = 0.20429 0.16381
# Poissons Ratio (z) = 0.24691 0.15778
#
# Static dielectric constant tensor:
#      x y z
#    x 4.330180 -0.141320 -0.452980 
#    y -0.141320 3.676570 -0.208700 
#    z -0.452980 -0.208700 4.406090 
# 
# 
# High freq. dielectric constant tensor:
#      x y z
#    x 1.814290 -0.002030 -0.005860 
#    y -0.002030 1.804310 -0.025220 
#    z -0.005860 -0.025220 1.829130 
# 
# From -- ./inp_files/315304.got.cif
#   From: 2010.06.25/outbox.cif.g09.slc.cpg/sg2_158_cif.got.tgz:315304.got - 2010.06.27 13:26:56.
