data_PCOD8015465
_publ_section_title
;
Structure prediction by ZEFSAII (Michael W. Deem and Ramdas Pophale) SiO2 
 PCOD8015465
Probable space group: P -1
;
_chemical_formula_sum "Si O2"
_cell_formula_units_Z 16
_cell_length_a 19.834605
_cell_length_b 8.573673
_cell_length_c 14.976906
_cell_angle_alpha 130.041467
_cell_angle_beta 21.342773
_cell_angle_gamma 129.827923
_cell_volume 701.818934
_symmetry_space_group_name_H-M "P -1"
_symmetry_group_IT_number 2
_symmetry_cell_setting 'triclinic'
loop_
_space_group_symop_operation_xyz
x,y,z
-x,-y,-z
loop_
_atom_site_type_symbol
_atom_site_label
_atom_site_fract_x
_atom_site_fract_y
_atom_site_fract_z
Si Si1 0.023315 0.240703 0.579700
Si Si2 0.467237 0.052060 0.233331
Si Si3 0.548454 0.071463 0.331605
Si Si4 0.463422 0.359358 0.079148
Si Si5 0.708662 0.417361 0.967312
Si Si6 0.907867 0.804624 0.190706
Si Si7 0.751575 0.858102 0.147187
Si Si8 0.121933 0.613905 0.004209
O O1 0.239699 0.335613 0.362430
O O2 0.910105 0.334579 0.672201
O O3 0.905884 0.292349 0.829904
O O4 0.000000 0.000000 0.500000
O O5 0.557832 0.982249 0.187491
O O6 0.264232 0.092413 0.525910
O O7 0.574874 0.257168 0.133530
O O8 0.468052 0.862436 0.095525
O O9 0.340081 0.110387 0.631319
O O10 0.612336 0.907188 0.259011
O O11 0.681943 0.290727 0.248322
O O12 0.500000 0.500000 0.000000
O O13 0.591950 0.462617 0.039732
O O14 0.771125 0.621941 0.023004
O O15 0.960376 0.680805 0.166634
O O16 0.878627 0.633924 0.084269
O O17 0.054285 0.993046 0.043883
#
# Coordination Sequence:
#
# PCOD8015465 Si02
#       8
#     2   2   2   2   2   2   2   2
#     4  12  26  46  75 104 142 186 237 291 347 422
#     4  12  24  44  70 101 136 185 234 291 343 424
#     4  10  21  42  69  93 145 177 228 281 357 410
#     4  12  29  49  70 104 144 186 238 294 356 414
#     4  12  26  46  74 103 138 190 238 288 352 420
#     4  10  24  39  70 101 140 180 231 288 351 414
#     4  10  24  43  65 105 141 184 225 289 354 418
#     4  10  21  44  67 102 135 183 230 287 349 416
#
# _framework density 22.797902000000001
#
# number of rings (size 3 to 8) (size 9 to 14) (size 15 to 20)
#    0.000    1.000    2.500    2.625    5.250    8.000 
#    0.000    0.000    0.000    0.000    0.000    0.000 
#    0.000    0.000    0.000    0.000    0.000    0.000 
#
# Total GULP energy -198330.882873 kJ/mol
# GULP energy per Si atom -12395.680180 kJ/mol
# Density = 2.274601 g / cm^3
# Si number density = 22.797902 Si / 1000 Ang^3
#
#
#
# Elastic Constant Matrix: (Units=GPa)
#
#
# Indices 1 2 3 4 5 6 
#
# 1 73.6432 -2.1102 27.7106 -5.9208 -1.3594 1.0853
# 2 -2.1102 132.9442 54.3365 2.5725 5.7248 6.1852
# 3 27.7106 54.3365 135.1918 4.4375 -11.0606 1.4822
# 4 -5.9208 2.5725 4.4375 22.8809 -1.4243 1.7931
# 5 -1.3594 5.7248 -11.0606 -1.4243 37.4060 -2.7400
# 6 1.0853 6.1852 1.4822 1.7931 -2.7400 30.8207
#
#
#
# Elastic Compliance Matrix: (Units=1/GPa)
#
#
# Indices 1 2 3 4 5 6 
#
# 1 0.015588 0.001961 -0.004196 0.004658 -0.000877 -0.001090
# 2 0.001961 0.009597 -0.004480 0.000280 -0.002862 -0.002050
# 3 -0.004196 -0.004480 0.010421 -0.002458 0.003595 0.001008
# 4 0.004658 0.000280 -0.002458 0.045623 0.000941 -0.002672
# 5 -0.000877 -0.002862 0.003595 0.000941 0.028452 0.002907
# 6 -0.001090 -0.002050 0.001008 -0.002672 0.002907 0.033261
#
#
# Mechanical properties :
#
#
# Convention : Reuss Voigt Hill
#
# Bulk Modulus (GPa) = 45.09294 55.73923 50.41608
# Shear Modulus (GPa) = 30.53145 35.67768 33.10457
#
# Velocity S-wave (km/s) = 3.66351 3.96024 3.81476
# Velocity P-wave (km/s) = 6.14145 6.73897 6.44714
#
# Compressibility (1/GPa) = 0.02217642
#
# Stress axis : x y z
#
# Youngs Moduli (GPa) = 64.15037 104.19504 95.95684
#
# Poissons Ratio (x) = -0.20429 0.40263
# Poissons Ratio (y) = -0.12578 0.42990
# Poissons Ratio (z) = 0.26917 0.46681
#
# Static dielectric constant tensor:
#      x y z
#    x 4.450370 0.023470 -0.172530 
#    y 0.023470 4.053490 -0.023860 
#    z -0.172530 -0.023860 4.302810 
# 
# 
# High freq. dielectric constant tensor:
#      x y z
#    x 1.914300 -0.003280 -0.010870 
#    y -0.003280 1.904780 0.001750 
#    z -0.010870 0.001750 1.902240 
# 
# From -- ./inp_files/245034.got.cif
#   From: 2010.06.25/outbox.cif.g09.slc.cpg/sg2_123_cif.got.tgz:245034.got - 2010.06.27 13:26:56.
