data_PCOD8015650
_publ_section_title
;
Structure prediction by ZEFSAII (Michael W. Deem and Ramdas Pophale) SiO2 
 PCOD8015650
Probable space group: P -1
;
_chemical_formula_sum "Si O2"
_cell_formula_units_Z 12
_cell_length_a 15.204488
_cell_length_b 9.288866
_cell_length_c 18.964700
_cell_angle_alpha 37.660908
_cell_angle_beta 160.464032
_cell_angle_gamma 143.354171
_cell_volume 526.072884
_symmetry_space_group_name_H-M "P -1"
_symmetry_group_IT_number 2
_symmetry_cell_setting 'triclinic'
loop_
_space_group_symop_operation_xyz
x,y,z
-x,-y,-z
loop_
_atom_site_type_symbol
_atom_site_label
_atom_site_fract_x
_atom_site_fract_y
_atom_site_fract_z
Si Si1 0.505447 0.451756 0.831427
Si Si2 0.190227 0.788522 0.073486
Si Si3 0.427465 0.690288 0.818984
Si Si4 0.405392 0.421756 0.303960
Si Si5 0.008848 0.055733 0.567904
Si Si6 0.110392 0.470025 0.275583
O O1 0.376652 0.581915 0.744199
O O2 0.520702 0.603508 0.711798
O O3 0.317279 0.175574 0.782425
O O4 0.810491 0.454798 0.085508
O O5 0.366972 0.696153 0.182969
O O6 0.162952 0.591601 0.192171
O O7 0.324614 0.063278 0.091669
O O8 0.884149 0.774542 0.820227
O O9 0.152812 0.743681 0.617885
O O10 0.500000 0.500000 0.000000
O O11 0.651884 0.372107 0.554828
O O12 0.871425 0.810399 0.604005
O O13 0.000000 0.000000 0.500000
#
# Coordination Sequence:
#
# PCOD8015650 Si02
#       6
#     2   2   2   2   2   2
#     4  11  25  43  67 105 139 178 223 276 350 403
#     4  10  23  44  69 104 129 179 236 275 337 396
#     4  12  27  46  67  99 146 179 220 282 345 410
#     4  10  21  42  73  99 133 175 231 285 323 397
#     4  12  23  45  73  99 133 180 233 277 332 400
#     4  11  22  42  78  98 133 176 232 288 323 396
#
# _framework density 22.810528000000001
#
# number of rings (size 3 to 8) (size 9 to 14) (size 15 to 20)
#    0.000    1.000    3.333    2.500    0.000    6.667 
#    3.000    1.667    0.000    0.000    0.000    0.000 
#    0.000    0.000    0.000    0.000    0.000    0.000 
#
# Total GULP energy -148807.451650 kJ/mol
# GULP energy per Si atom -12400.620971 kJ/mol
# Density = 2.275861 g / cm^3
# Si number density = 22.810528 Si / 1000 Ang^3
#
#
#
# Elastic Constant Matrix: (Units=GPa)
#
#
# Indices 1 2 3 4 5 6 
#
# 1 141.4338 47.0699 46.4203 0.1167 2.2561 -22.2527
# 2 47.0699 122.2701 38.0166 15.3068 -11.5019 1.1310
# 3 46.4203 38.0166 146.5763 26.8067 1.4766 -2.5716
# 4 0.1167 15.3068 26.8067 49.7110 -3.0949 -4.6936
# 5 2.2561 -11.5019 1.4766 -3.0949 25.6631 0.5595
# 6 -22.2527 1.1310 -2.5716 -4.6936 0.5595 42.5540
#
#
#
# Elastic Compliance Matrix: (Units=1/GPa)
#
#
# Indices 1 2 3 4 5 6 
#
# 1 0.010068 -0.003671 -0.002653 0.002928 -0.002146 0.005554
# 2 -0.003671 0.010800 -0.001264 -0.002573 0.004983 -0.002632
# 3 -0.002653 -0.001264 0.008817 -0.004567 -0.001363 -0.001307
# 4 0.002928 -0.002573 -0.004567 0.023838 0.001641 0.003931
# 5 -0.002146 0.004983 -0.001363 0.001641 0.041702 -0.001704
# 6 0.005554 -0.002632 -0.001307 0.003931 -0.001704 0.026851
#
#
# Mechanical properties :
#
#
# Convention : Reuss Voigt Hill
#
# Bulk Modulus (GPa) = 68.92434 74.81041 71.86738
# Shear Modulus (GPa) = 35.18934 42.17051 38.67993
#
# Velocity S-wave (km/s) = 3.93196 4.30435 4.12236
# Velocity P-wave (km/s) = 7.13410 7.58755 7.36431
#
# Compressibility (1/GPa) = 0.01450866
#
# Stress axis : x y z
#
# Youngs Moduli (GPa) = 99.31993 92.59112 113.42295
#
# Poissons Ratio (x) = 0.33989 0.30091
# Poissons Ratio (y) = 0.36460 0.14341
# Poissons Ratio (z) = 0.26350 0.11707
#
# Static dielectric constant tensor:
#      x y z
#    x 4.047610 0.013730 0.093490 
#    y 0.013730 4.063320 0.382340 
#    z 0.093490 0.382340 4.334320 
# 
# 
# High freq. dielectric constant tensor:
#      x y z
#    x 1.902510 0.002530 0.003190 
#    y 0.002530 1.887420 0.031460 
#    z 0.003190 0.031460 1.909490 
# 
# From -- ./inp_files/174649.got.cif
#   From: 2010.06.25/outbox.cif.g09.slc.cpg/sg2_88_cif.got.tgz:174649.got - 2010.06.27 13:26:56.
