data_PCOD8015836
_publ_section_title
;
Structure prediction by ZEFSAII (Michael W. Deem and Ramdas Pophale) SiO2 
 PCOD8015836
Probable space group: P -1
;
_chemical_formula_sum "Si O2"
_cell_formula_units_Z 14
_cell_length_a 14.711815
_cell_length_b 9.240647
_cell_length_c 5.223146
_cell_angle_alpha 69.880569
_cell_angle_beta 89.780962
_cell_angle_gamma 75.989655
_cell_volume 644.440362
_symmetry_space_group_name_H-M "P -1"
_symmetry_group_IT_number 2
_symmetry_cell_setting 'triclinic'
loop_
_space_group_symop_operation_xyz
x,y,z
-x,-y,-z
loop_
_atom_site_type_symbol
_atom_site_label
_atom_site_fract_x
_atom_site_fract_y
_atom_site_fract_z
Si Si1 0.047426 0.814774 0.091373
Si Si2 0.101846 0.297929 0.061947
Si Si3 0.605792 0.501554 0.951481
Si Si4 0.130606 0.600630 0.625111
Si Si5 0.229795 0.793565 0.852846
Si Si6 0.789596 0.845946 0.348229
Si Si7 0.681128 0.617401 0.390680
O O1 0.040044 0.701141 0.403738
O O2 0.159412 0.795140 0.088303
O O3 0.001556 0.740468 0.895460
O O4 0.000000 0.000000 0.000000
O O5 0.159577 0.248937 0.347880
O O6 0.904207 0.516129 0.104413
O O7 0.144771 0.187940 0.882857
O O8 0.611913 0.587024 0.629796
O O9 0.500000 0.500000 0.000000
O O10 0.667023 0.320083 0.033655
O O11 0.641894 0.594647 0.123730
O O12 0.178420 0.731024 0.660641
O O13 0.211825 0.489984 0.511771
O O14 0.240504 0.968952 0.690253
O O15 0.692555 0.796747 0.316569
#
# Coordination Sequence:
#
# PCOD8015836 Si02
#       7
#     2   2   2   2   2   2   2
#     4  12  23  39  60  93 133 171 222 265 313 366
#     4  11  25  39  63  90 131 176 221 261 303 378
#     4  11  23  44  71  98 122 162 212 262 320 386
#     4  10  23  40  61  91 126 175 220 262 315 371
#     4  11  24  40  65  90 133 168 213 268 321 375
#     4  11  23  42  63  94 130 173 209 259 322 370
#     4  10  21  43  66  93 128 163 208 264 314 382
#
# _framework density 21.724276
#
# number of rings (size 3 to 8) (size 9 to 14) (size 15 to 20)
#    0.000    1.143    2.857    4.286    4.000    1.714 
#    0.000    1.429    0.000    0.000    0.000    0.000 
#    0.000    0.000    0.000    0.000    0.000    0.000 
#
# Total GULP energy -173519.853412 kJ/mol
# GULP energy per Si atom -12394.275244 kJ/mol
# Density = 2.167483 g / cm^3
# Si number density = 21.724276 Si / 1000 Ang^3
#
#
#
# Elastic Constant Matrix: (Units=GPa)
#
#
# Indices 1 2 3 4 5 6 
#
# 1 104.0972 50.1967 22.2736 -18.9387 1.9772 4.7328
# 2 50.1967 144.6899 35.4882 -9.7103 -0.0286 24.4145
# 3 22.2736 35.4882 93.3228 5.5906 -3.1577 2.0282
# 4 -18.9387 -9.7103 5.5906 30.4735 4.6005 -2.4054
# 5 1.9772 -0.0286 -3.1577 4.6005 29.6129 -0.2120
# 6 4.7328 24.4145 2.0282 -2.4054 -0.2120 32.2063
#
#
#
# Elastic Compliance Matrix: (Units=1/GPa)
#
#
# Indices 1 2 3 4 5 6 
#
# 1 0.013371 -0.003806 -0.002341 0.008016 -0.002380 0.001650
# 2 -0.003806 0.010157 -0.002865 0.000887 -0.000229 -0.006896
# 3 -0.002341 -0.002865 0.012707 -0.004936 0.002285 0.001362
# 4 0.008016 0.000887 -0.004936 0.040199 -0.007296 0.001414
# 5 -0.002380 -0.000229 0.002285 -0.007296 0.035305 0.000067
# 6 0.001650 -0.006896 0.001362 0.001414 0.000067 0.036055
#
#
# Mechanical properties :
#
#
# Convention : Reuss Voigt Hill
#
# Bulk Modulus (GPa) = 54.90819 62.00300 58.45559
# Shear Modulus (GPa) = 29.08868 34.06865 31.57866
#
# Velocity S-wave (km/s) = 3.66320 3.96438 3.81676
# Velocity P-wave (km/s) = 6.57434 7.03974 6.81102
#
# Compressibility (1/GPa) = 0.01821222
#
# Stress axis : x y z
#
# Youngs Moduli (GPa) = 74.78946 98.45018 78.69549
#
# Poissons Ratio (x) = 0.37466 0.18420
# Poissons Ratio (y) = 0.28462 0.22549
# Poissons Ratio (z) = 0.17506 0.28209
#
# Static dielectric constant tensor:
#      x y z
#    x 3.888310 0.101860 -0.131290 
#    y 0.101860 4.167240 0.056630 
#    z -0.131290 0.056630 3.788610 
# 
# 
# High freq. dielectric constant tensor:
#      x y z
#    x 1.835550 0.017510 -0.013440 
#    y 0.017510 1.867720 0.009970 
#    z -0.013440 0.009970 1.853420 
# 
# From -- ./inp_files/89915.got.cif
#   From: 2010.06.25/outbox.cif.g09.slc.cpg/sg2_45_cif.got.tgz:89915.got - 2010.06.27 13:26:56.
