data_PCOD8015553
_publ_section_title
;
Structure prediction by ZEFSAII (Michael W. Deem and Ramdas Pophale) SiO2 
 PCOD8015553
Probable space group: P -1
;
_chemical_formula_sum "Si O2"
_cell_formula_units_Z 16
_cell_length_a 17.620747
_cell_length_b 13.986364
_cell_length_c 26.146601
_cell_angle_alpha 21.332040
_cell_angle_beta 159.201959
_cell_angle_gamma 158.393480
_cell_volume 740.607012
_symmetry_space_group_name_H-M "P -1"
_symmetry_group_IT_number 2
_symmetry_cell_setting 'triclinic'
loop_
_space_group_symop_operation_xyz
x,y,z
-x,-y,-z
loop_
_atom_site_type_symbol
_atom_site_label
_atom_site_fract_x
_atom_site_fract_y
_atom_site_fract_z
Si Si1 0.398333 0.456234 0.093144
Si Si2 0.829153 0.349138 0.064857
Si Si3 0.333722 0.624777 0.857966
Si Si4 0.434521 0.317649 0.757794
Si Si5 0.143937 0.852183 0.191966
Si Si6 0.237671 0.278128 0.318916
Si Si7 0.516963 0.781096 0.400209
Si Si8 0.141589 0.320824 0.663119
O O1 0.668529 0.645952 0.189458
O O2 0.349168 0.115603 0.223340
O O3 0.196445 0.438811 0.014815
O O4 0.367311 0.618828 0.942792
O O5 0.105828 0.468450 0.162037
O O6 0.738863 0.022606 0.195350
O O7 0.675660 0.335905 0.925100
O O8 0.056927 0.421662 0.766624
O O9 0.393388 0.950888 0.716302
O O10 0.500000 0.500000 0.000000
O O11 0.517192 0.516073 0.659748
O O12 0.292810 0.436078 0.647982
O O13 0.256891 0.718522 0.288412
O O14 0.000000 0.000000 0.000000
O O15 0.305407 0.136719 0.480435
O O16 0.051081 0.021259 0.292597
O O17 0.500000 0.500000 0.500000
O O18 0.000000 0.500000 0.500000
#
# Coordination Sequence:
#
# PCOD8015553 Si02
#       8
#     2   2   2   2   2   2   2   2
#     4  10  21  42  71 101 131 176 234 272 336 416
#     4   9  20  38  65  92 132 169 224 273 331 407
#     4  11  24  46  73  96 135 186 232 280 336 401
#     4   9  20  41  59  95 130 177 216 272 333 410
#     4  10  22  45  69  94 135 175 229 278 332 400
#     4  11  24  41  64  94 141 171 218 284 349 392
#     4  12  28  45  66 107 139 179 233 284 342 408
#     4  10  22  42  66  98 134 167 221 283 339 401
#
# _framework density 21.603901
#
# number of rings (size 3 to 8) (size 9 to 14) (size 15 to 20)
#    0.000    1.750    2.500    1.875    5.250    3.000 
#    4.500    0.000    0.000    0.000    0.000    0.000 
#    0.000    0.000    0.000    0.000    0.000    0.000 
#
# Total GULP energy -198358.772429 kJ/mol
# GULP energy per Si atom -12397.423277 kJ/mol
# Density = 2.155473 g / cm^3
# Si number density = 21.603901 Si / 1000 Ang^3
#
#
#
# Elastic Constant Matrix: (Units=GPa)
#
#
# Indices 1 2 3 4 5 6 
#
# 1 117.0709 51.3617 49.4464 -8.6169 20.7819 7.4908
# 2 51.3617 117.1809 37.4475 -11.3600 1.1036 4.2236
# 3 49.4464 37.4475 94.4049 -6.3701 20.0966 1.6253
# 4 -8.6169 -11.3600 -6.3701 36.6916 0.5554 0.9291
# 5 20.7819 1.1036 20.0966 0.5554 49.8369 3.7196
# 6 7.4908 4.2236 1.6253 0.9291 3.7196 39.1536
#
#
#
# Elastic Compliance Matrix: (Units=1/GPa)
#
#
# Indices 1 2 3 4 5 6 
#
# 1 0.012966 -0.004105 -0.004322 0.001116 -0.003469 -0.001555
# 2 -0.004105 0.011421 -0.002785 0.002065 0.002606 -0.000628
# 3 -0.004322 -0.002785 0.014894 0.000750 -0.004217 0.000892
# 4 0.001116 0.002065 0.000750 0.028328 -0.001051 -0.001040
# 5 -0.003469 0.002606 -0.004217 -0.001051 0.023288 -0.001630
# 6 -0.001555 -0.000628 0.000892 -0.001040 -0.001630 0.026048
#
#
# Mechanical properties :
#
#
# Convention : Reuss Voigt Hill
#
# Bulk Modulus (GPa) = 59.32258 67.24089 63.28174
# Shear Modulus (GPa) = 34.48542 37.82982 36.15762
#
# Velocity S-wave (km/s) = 3.99966 4.18911 4.09548
# Velocity P-wave (km/s) = 6.98917 7.38852 7.19162
#
# Compressibility (1/GPa) = 0.01685699
#
# Stress axis : x y z
#
# Youngs Moduli (GPa) = 77.12623 87.55553 67.14050
#
# Poissons Ratio (x) = 0.35941 0.29020
# Poissons Ratio (y) = 0.31660 0.18699
# Poissons Ratio (z) = 0.33336 0.24384
#
# Static dielectric constant tensor:
#      x y z
#    x 3.841000 -0.142030 0.237470 
#    y -0.142030 4.199080 0.134560 
#    z 0.237470 0.134560 3.906440 
# 
# 
# High freq. dielectric constant tensor:
#      x y z
#    x 1.852050 0.002200 0.018710 
#    y 0.002200 1.842670 0.010680 
#    z 0.018710 0.010680 1.843560 
# 
# From -- ./inp_files/620471.got.cif
#   From: 2010.06.25/outbox.cif.g09.slc.cpg/sg2_311_cif.got.tgz:620471.got - 2010.06.27 13:26:56.
