data_PCOD8015604
_publ_section_title
;
Structure prediction by ZEFSAII (Michael W. Deem and Ramdas Pophale) SiO2 
 PCOD8015604
Probable space group: P -1
;
_chemical_formula_sum "Si O2"
_cell_formula_units_Z 16
_cell_length_a 8.812885
_cell_length_b 18.832593
_cell_length_c 11.362882
_cell_angle_alpha 49.439906
_cell_angle_beta 43.904342
_cell_angle_gamma 83.655510
_cell_volume 728.929986
_symmetry_space_group_name_H-M "P -1"
_symmetry_group_IT_number 2
_symmetry_cell_setting 'triclinic'
loop_
_space_group_symop_operation_xyz
x,y,z
-x,-y,-z
loop_
_atom_site_type_symbol
_atom_site_label
_atom_site_fract_x
_atom_site_fract_y
_atom_site_fract_z
Si Si1 0.935779 0.258238 0.162697
Si Si2 0.713634 0.472673 0.223352
Si Si3 0.611609 0.749217 0.169590
Si Si4 0.349799 0.995139 0.833558
Si Si5 0.038720 0.996547 0.800948
Si Si6 0.396949 0.380143 0.253727
Si Si7 0.395067 0.744277 0.860574
Si Si8 0.739063 0.234653 0.837141
O O1 0.838735 0.275676 0.075157
O O2 0.639177 0.146691 0.523548
O O3 0.171667 0.390674 0.957352
O O4 0.106850 0.211732 0.096738
O O5 0.552012 0.378159 0.526382
O O6 0.500918 0.409939 0.298138
O O7 0.000000 0.500000 0.000000
O O8 0.384014 0.728884 0.228090
O O9 0.744826 0.870731 0.041511
O O10 0.083434 0.950368 0.115612
O O11 0.451212 0.916679 0.878386
O O12 0.204531 0.964671 0.818508
O O13 0.294358 0.110139 0.449830
O O14 0.528259 0.333947 0.152517
O O15 0.043758 0.280998 0.567102
O O16 0.500000 0.500000 0.000000
O O17 0.238013 0.699442 0.124841
#
# Coordination Sequence:
#
# PCOD8015604 Si02
#       8
#     2   2   2   2   2   2   2   2
#     4  11  24  43  70 103 134 188 233 286 341 413
#     4  12  24  47  72  99 138 182 240 282 343 418
#     4  12  27  43  68 105 142 184 231 285 347 414
#     4  10  21  42  74 101 138 178 232 289 348 412
#     4  10  21  42  72 104 131 184 235 283 348 413
#     4  12  27  48  73 104 141 184 231 290 350 412
#     4  11  24  46  74 102 139 183 235 286 351 412
#     4  12  27  46  69 106 147 181 227 292 350 413
#
# _framework density 21.949981999999999
#
# number of rings (size 3 to 8) (size 9 to 14) (size 15 to 20)
#    0.000    0.750    2.500    4.875    3.500    5.000 
#    0.000    0.000    0.000    0.000    0.000    0.000 
#    0.000    0.000    0.000    0.000    0.000    0.000 
#
# Total GULP energy -198356.982507 kJ/mol
# GULP energy per Si atom -12397.311407 kJ/mol
# Density = 2.190002 g / cm^3
# Si number density = 21.949982 Si / 1000 Ang^3
#
#
#
# Elastic Constant Matrix: (Units=GPa)
#
#
# Indices 1 2 3 4 5 6 
#
# 1 113.7797 47.8576 27.1715 -3.8592 0.8289 -21.1793
# 2 47.8576 111.1800 29.3656 -3.0685 3.3631 -7.3404
# 3 27.1715 29.3656 69.4837 -6.7453 -1.7718 -4.6292
# 4 -3.8592 -3.0685 -6.7453 35.9158 -3.4303 -7.1973
# 5 0.8289 3.3631 -1.7718 -3.4303 34.5326 2.2259
# 6 -21.1793 -7.3404 -4.6292 -7.1973 2.2259 26.3140
#
#
#
# Elastic Compliance Matrix: (Units=1/GPa)
#
#
# Indices 1 2 3 4 5 6 
#
# 1 0.013028 -0.004254 -0.002430 0.002462 -0.000396 0.009578
# 2 -0.004254 0.011699 -0.003397 -0.000361 -0.001199 -0.000755
# 3 -0.002430 -0.003397 0.017159 0.002976 0.001514 0.000801
# 4 0.002462 -0.000361 0.002976 0.031015 0.002522 0.010674
# 5 -0.000396 -0.001199 0.001514 0.002522 0.029554 -0.002197
# 6 0.009578 -0.000755 0.000801 0.010674 -0.002197 0.048748
#
#
# Mechanical properties :
#
#
# Convention : Reuss Voigt Hill
#
# Bulk Modulus (GPa) = 46.03062 55.91475 50.97269
# Shear Modulus (GPa) = 27.99481 32.02240 30.00860
#
# Velocity S-wave (km/s) = 3.57514 3.82367 3.70149
# Velocity P-wave (km/s) = 6.16914 6.70992 6.44520
#
# Compressibility (1/GPa) = 0.02172467
#
# Stress axis : x y z
#
# Youngs Moduli (GPa) = 76.75983 85.47682 58.28004
#
# Poissons Ratio (x) = 0.36359 0.14160
# Poissons Ratio (y) = 0.32651 0.19797
# Poissons Ratio (z) = 0.18650 0.29035
#
# Static dielectric constant tensor:
#      x y z
#    x 3.772960 -0.149330 -0.026690 
#    y -0.149330 3.841310 0.144530 
#    z -0.026690 0.144530 3.877190 
# 
# 
# High freq. dielectric constant tensor:
#      x y z
#    x 1.852840 -0.008810 -0.004880 
#    y -0.008810 1.874240 0.004820 
#    z -0.004880 0.004820 1.876010 
# 
# From -- ./inp_files/180377.got.cif
#   From: 2010.06.25/outbox.cif.g09.slc.cpg/sg2_91_cif.got.tgz:180377.got - 2010.06.27 13:26:56.
