data_PCOD8015350
_publ_section_title
;
Structure prediction by ZEFSAII (Michael W. Deem and Ramdas Pophale) SiO2 
 PCOD8015350
Probable space group: P -1
;
_chemical_formula_sum "Si O2"
_cell_formula_units_Z 16
_cell_length_a 19.451581
_cell_length_b 19.285807
_cell_length_c 9.458637
_cell_angle_alpha 34.325660
_cell_angle_beta 155.193150
_cell_angle_gamma 151.740286
_cell_volume 698.657943
_symmetry_space_group_name_H-M "P -1"
_symmetry_group_IT_number 2
_symmetry_cell_setting 'triclinic'
loop_
_space_group_symop_operation_xyz
x,y,z
-x,-y,-z
loop_
_atom_site_type_symbol
_atom_site_label
_atom_site_fract_x
_atom_site_fract_y
_atom_site_fract_z
Si Si1 0.225635 0.075570 0.821635
Si Si2 0.657345 0.656697 0.589955
Si Si3 0.620699 0.891822 0.634542
Si Si4 0.795196 0.205919 0.295108
Si Si5 0.044204 0.657325 0.345749
Si Si6 0.067243 0.393348 0.259178
Si Si7 0.466026 0.677007 0.478640
Si Si8 0.771153 0.182574 0.843086
O O1 0.345582 0.238813 0.709298
O O2 0.255844 0.075067 0.047561
O O3 0.000000 0.000000 0.500000
O O4 0.285968 0.983826 0.994019
O O5 0.500000 0.500000 0.500000
O O6 0.599416 0.686453 0.583539
O O7 0.866617 0.677884 0.956524
O O8 0.611356 0.762879 0.739673
O O9 0.394791 0.821927 0.368686
O O10 0.710855 0.038329 0.461486
O O11 0.884897 0.313304 0.413074
O O12 0.976283 0.262327 0.427055
O O13 0.627928 0.227380 0.887051
O O14 0.000000 0.500000 0.500000
O O15 0.223984 0.770101 0.389518
O O16 0.304762 0.502493 0.506104
O O17 0.000000 0.500000 0.000000
O O18 0.981751 0.307897 0.094101
#
# Coordination Sequence:
#
# PCOD8015350 Si02
#       8
#     2   2   2   2   2   2   2   2
#     4  12  27  49  70 105 150 191 238 297 369 423
#     4  12  27  49  72 106 145 192 241 300 365 430
#     4  12  25  44  72 112 141 188 244 293 350 437
#     4  11  22  43  68 106 144 188 239 288 358 423
#     4  12  26  44  74 105 141 188 244 299 358 431
#     4  10  21  42  68 102 149 189 234 293 356 416
#     4  11  25  45  71 110 147 186 240 299 361 421
#     4  12  23  44  74 105 145 190 249 292 349 426
#
# _framework density 22.901049
#
# number of rings (size 3 to 8) (size 9 to 14) (size 15 to 20)
#    0.000    0.500    5.000    4.500    5.250    0.000 
#    2.250    2.500    0.000    0.000    0.000    0.000 
#    0.000    0.000    0.000    0.000    0.000    0.000 
#
# Total GULP energy -198367.028981 kJ/mol
# GULP energy per Si atom -12397.939311 kJ/mol
# Density = 2.284892 g / cm^3
# Si number density = 22.901049 Si / 1000 Ang^3
#
#
#
# Elastic Constant Matrix: (Units=GPa)
#
#
# Indices 1 2 3 4 5 6 
#
# 1 131.5047 42.9656 43.0128 -5.2201 -14.1180 3.8215
# 2 42.9656 136.1370 48.2087 -0.7387 -8.4162 3.0441
# 3 43.0128 48.2087 51.7575 -3.8523 -12.3165 -7.6043
# 4 -5.2201 -0.7387 -3.8523 31.5797 -9.8788 -11.7013
# 5 -14.1180 -8.4162 -12.3165 -9.8788 26.7946 10.1325
# 6 3.8215 3.0441 -7.6043 -11.7013 10.1325 54.8629
#
#
#
# Elastic Compliance Matrix: (Units=1/GPa)
#
#
# Indices 1 2 3 4 5 6 
#
# 1 0.010828 -0.000219 -0.008358 0.000853 0.002966 -0.002266
# 2 -0.000219 0.011380 -0.011408 -0.002634 -0.001841 -0.002419
# 3 -0.008358 -0.011408 0.041494 0.009719 0.012096 0.006805
# 4 0.000853 -0.002634 0.009719 0.040689 0.016414 0.007081
# 5 0.002966 -0.001841 0.012096 0.016414 0.051603 -0.004458
# 6 -0.002266 -0.002419 0.006805 0.007081 -0.004458 0.021796
#
#
# Mechanical properties :
#
#
# Convention : Reuss Voigt Hill
#
# Bulk Modulus (GPa) = 42.13584 65.30815 53.72199
# Shear Modulus (GPa) = 22.15627 34.99491 28.57559
#
# Velocity S-wave (km/s) = 3.11381 3.91332 3.53623
# Velocity P-wave (km/s) = 5.60060 6.99987 6.33897
#
# Compressibility (1/GPa) = 0.02373277
#
# Stress axis : x y z
#
# Youngs Moduli (GPa) = 92.35526 87.87157 24.09994
#
# Poissons Ratio (x) = 0.01923 0.20143
# Poissons Ratio (y) = 0.02021 0.27492
# Poissons Ratio (z) = 0.77192 1.00240
#
# Static dielectric constant tensor:
#      x y z
#    x 5.173860 -0.495900 -0.501070 
#    y -0.495900 3.733240 0.932100 
#    z -0.501070 0.932100 3.758120 
# 
# 
# High freq. dielectric constant tensor:
#      x y z
#    x 1.925590 -0.002350 -0.013170 
#    y -0.002350 1.927800 0.005100 
#    z -0.013170 0.005100 1.878040 
# 
# From -- ./inp_files/336646.got.cif
#   From: 2010.06.25/outbox.cif.g09.slc.cpg/sg2_169_cif.got.tgz:336646.got - 2010.06.27 13:26:56.
