data_PCOD8015623
_publ_section_title
;
Structure prediction by ZEFSAII (Michael W. Deem and Ramdas Pophale) SiO2 
 PCOD8015623
Probable space group: P -1
;
_chemical_formula_sum "Si O2"
_cell_formula_units_Z 16
_cell_length_a 19.035382
_cell_length_b 9.011811
_cell_length_c 13.179219
_cell_angle_alpha 113.513893
_cell_angle_beta 152.250207
_cell_angle_gamma 51.844808
_cell_volume 757.335072
_symmetry_space_group_name_H-M "P -1"
_symmetry_group_IT_number 2
_symmetry_cell_setting 'triclinic'
loop_
_space_group_symop_operation_xyz
x,y,z
-x,-y,-z
loop_
_atom_site_type_symbol
_atom_site_label
_atom_site_fract_x
_atom_site_fract_y
_atom_site_fract_z
Si Si1 0.970331 0.757938 0.147308
Si Si2 0.128762 0.491011 0.941987
Si Si3 0.890865 0.421166 0.293389
Si Si4 0.803365 0.851995 0.743981
Si Si5 0.488318 0.560785 0.887380
Si Si6 0.931154 0.023609 0.533625
Si Si7 0.373160 0.368307 0.539413
Si Si8 0.512031 0.303637 0.481836
O O1 0.952747 0.633920 0.178583
O O2 0.181376 0.593816 0.324605
O O3 0.820731 0.841013 0.886238
O O4 0.946263 0.942114 0.225741
O O5 0.116348 0.555379 0.829255
O O6 0.012195 0.698501 0.917570
O O7 0.347131 0.332592 0.212983
O O8 0.000000 0.500000 0.500000
O O9 0.025896 0.183833 0.431753
O O10 0.673402 0.545709 0.090790
O O11 0.672558 0.784967 0.525286
O O12 0.709907 0.080170 0.643511
O O13 0.486162 0.394488 0.776291
O O14 0.295318 0.793788 0.690143
O O15 0.500000 0.500000 0.000000
O O16 0.000000 0.000000 0.500000
O O17 0.502824 0.273342 0.580425
O O18 0.500000 0.500000 0.500000
#
# Coordination Sequence:
#
# PCOD8015623 Si02
#       8
#     2   2   2   2   2   2   2   2
#     4  10  21  42  72  97 133 181 231 272 332 411
#     4  11  24  44  63  99 139 169 223 287 340 396
#     4  12  28  47  70 102 140 177 226 292 351 399
#     4  11  23  41  70  97 130 188 221 272 338 404
#     4  11  25  45  75 101 133 180 234 285 337 414
#     4  11  24  45  74 104 131 184 233 276 344 412
#     4  10  21  43  66  98 134 170 233 274 329 412
#     4  12  25  38  62  98 137 174 221 275 343 399
#
# _framework density 21.126712000000001
#
# number of rings (size 3 to 8) (size 9 to 14) (size 15 to 20)
#    0.000    1.000    3.750    2.625    7.000    4.000 
#    2.250    0.000    0.000    0.000    0.000    0.000 
#    0.000    0.000    0.000    0.000    0.000    0.000 
#
# Total GULP energy -198382.676123 kJ/mol
# GULP energy per Si atom -12398.917258 kJ/mol
# Density = 2.107863 g / cm^3
# Si number density = 21.126712 Si / 1000 Ang^3
#
#
#
# Elastic Constant Matrix: (Units=GPa)
#
#
# Indices 1 2 3 4 5 6 
#
# 1 122.6388 40.4884 54.3749 0.6777 -18.8676 6.9035
# 2 40.4884 151.1562 61.4947 -1.8672 -5.5515 15.3826
# 3 54.3749 61.4947 124.0586 10.6775 -6.0051 -3.3408
# 4 0.6777 -1.8672 10.6775 41.7279 -1.2371 -2.6385
# 5 -18.8676 -5.5515 -6.0051 -1.2371 37.3539 1.1407
# 6 6.9035 15.3826 -3.3408 -2.6385 1.1407 25.0979
#
#
#
# Elastic Compliance Matrix: (Units=1/GPa)
#
#
# Indices 1 2 3 4 5 6 
#
# 1 0.011367 -0.000621 -0.004601 0.000894 0.005046 -0.003494
# 2 -0.000621 0.009293 -0.004576 0.001232 0.000557 -0.006030
# 3 -0.004601 -0.004576 0.012698 -0.003068 -0.001232 0.005494
# 4 0.000894 0.001232 -0.003068 0.024892 0.000930 0.001165
# 5 0.005046 0.000557 -0.001232 0.000930 0.029331 -0.003128
# 6 -0.003494 -0.006030 0.005494 0.001165 -0.003128 0.045497
#
#
# Mechanical properties :
#
#
# Convention : Reuss Voigt Hill
#
# Bulk Modulus (GPa) = 72.66248 78.95218 75.80733
# Shear Modulus (GPa) = 31.79454 36.93565 34.36510
#
# Velocity S-wave (km/s) = 3.88357 4.18579 4.03751
# Velocity P-wave (km/s) = 7.38768 7.79827 7.59575
#
# Compressibility (1/GPa) = 0.01376226
#
# Stress axis : x y z
#
# Youngs Moduli (GPa) = 87.97333 107.61023 78.75329
#
# Poissons Ratio (x) = 0.06682 0.36235
# Poissons Ratio (y) = 0.05463 0.36035
# Poissons Ratio (z) = 0.40478 0.49239
#
# Static dielectric constant tensor:
#      x y z
#    x 4.136950 -0.336210 0.565810 
#    y -0.336210 4.094470 -0.380000 
#    z 0.565810 -0.380000 4.963870 
# 
# 
# High freq. dielectric constant tensor:
#      x y z
#    x 1.822980 -0.006060 -0.002060 
#    y -0.006060 1.837400 -0.002580 
#    z -0.002060 -0.002580 1.835440 
# 
# From -- ./inp_files/447876.got.cif
#   From: 2010.06.25/outbox.cif.g09.slc.cpg/sg2_224_cif.got.tgz:447876.got - 2010.06.27 13:26:56.
