data_PCOD8015030
_publ_section_title
;
Structure prediction by ZEFSAII (Michael W. Deem and Ramdas Pophale) SiO2 
 PCOD8015030
Probable space group: P -1
;
_chemical_formula_sum "Si O2"
_cell_formula_units_Z 16
_cell_length_a 9.086411
_cell_length_b 18.869140
_cell_length_c 19.923407
_cell_angle_alpha 158.958938
_cell_angle_beta 139.025216
_cell_angle_gamma 50.346529
_cell_volume 771.447841
_symmetry_space_group_name_H-M "P -1"
_symmetry_group_IT_number 2
_symmetry_cell_setting 'triclinic'
loop_
_space_group_symop_operation_xyz
x,y,z
-x,-y,-z
loop_
_atom_site_type_symbol
_atom_site_label
_atom_site_fract_x
_atom_site_fract_y
_atom_site_fract_z
Si Si1 0.081107 0.796369 0.611514
Si Si2 0.542047 0.085994 0.694637
Si Si3 0.513311 0.965703 0.840230
Si Si4 0.007522 0.993867 0.893785
Si Si5 0.127745 0.981786 0.367849
Si Si6 0.359934 0.316396 0.051332
Si Si7 0.477592 0.219755 0.458871
Si Si8 0.761680 0.349240 0.114424
O O1 0.351196 0.806283 0.696679
O O2 0.938749 0.570145 0.384627
O O3 0.085209 0.968226 0.821477
O O4 0.972580 0.846340 0.548630
O O5 0.712227 0.084719 0.690627
O O6 0.284916 0.076229 0.570003
O O7 0.512578 0.896678 0.569920
O O8 0.664180 0.304007 0.965192
O O9 0.437351 0.893038 0.673704
O O10 0.783717 0.987325 0.965657
O O11 0.455734 0.185113 0.024349
O O12 0.795105 0.790382 0.657179
O O13 0.903177 0.186897 0.039021
O O14 0.914485 0.791935 0.152856
O O15 0.371482 0.544642 0.281420
O O16 0.524494 0.326548 0.053148
#
# Coordination Sequence:
#
# PCOD8015030 Si02
#       8
#     2   2   2   2   2   2   2   2
#     4  11  23  42  62  91 122 158 204 250 296 358
#     4  10  21  42  65  86 123 160 194 250 304 353
#     4  11  25  39  62  92 120 161 206 245 300 355
#     4  11  22  42  63  85 127 160 199 253 296 353
#     4  10  22  41  64  90 119 158 202 246 300 358
#     4  11  23  39  63  91 123 158 201 247 297 359
#     4  11  22  41  61  89 126 156 199 251 297 355
#     4  11  22  40  64  87 124 162 195 248 306 349
#
# _framework density 20.740220999999998
#
# number of rings (size 3 to 8) (size 9 to 14) (size 15 to 20)
#    0.000    1.250    6.250    0.750    1.750    3.500 
#    0.000    0.000    0.000    0.000    0.000    0.000 
#    0.000    0.000    0.000    0.000    0.000    0.000 
#
# Total GULP energy -198266.544913 kJ/mol
# GULP energy per Si atom -12391.659057 kJ/mol
# Density = 2.069302 g / cm^3
# Si number density = 20.740221 Si / 1000 Ang^3
#
#
#
# Elastic Constant Matrix: (Units=GPa)
#
#
# Indices 1 2 3 4 5 6 
#
# 1 81.0498 3.5488 16.2979 3.2090 13.1915 5.1664
# 2 3.5488 62.1013 26.3880 -10.7394 -4.5942 -1.1573
# 3 16.2979 26.3880 74.1630 4.2848 2.9543 0.8699
# 4 3.2090 -10.7394 4.2848 31.7497 -1.7475 1.6923
# 5 13.1915 -4.5942 2.9543 -1.7475 36.5948 -5.5400
# 6 5.1664 -1.1573 0.8699 1.6923 -5.5400 21.9365
#
#
#
# Elastic Compliance Matrix: (Units=1/GPa)
#
#
# Indices 1 2 3 4 5 6 
#
# 1 0.014152 -0.000436 -0.002599 -0.001296 -0.005704 -0.004593
# 2 -0.000436 0.021444 -0.008218 0.008534 0.004218 0.001967
# 3 -0.002599 -0.008218 0.017343 -0.004927 -0.001819 -0.000589
# 4 -0.001296 0.008534 -0.004927 0.035419 0.003492 -0.000900
# 5 -0.005704 0.004218 -0.001819 0.003492 0.031643 0.009360
# 6 -0.004593 0.001967 -0.000589 -0.000900 0.009360 0.049228
#
#
# Mechanical properties :
#
#
# Convention : Reuss Voigt Hill
#
# Bulk Modulus (GPa) = 32.85930 34.42039 33.63984
# Shear Modulus (GPa) = 24.76707 29.46148 27.11428
#
# Velocity S-wave (km/s) = 3.45941 3.77304 3.61962
# Velocity P-wave (km/s) = 5.64219 5.96767 5.80721
#
# Compressibility (1/GPa) = 0.03043278
#
# Stress axis : x y z
#
# Youngs Moduli (GPa) = 70.66012 46.63229 57.65959
#
# Poissons Ratio (x) = 0.02034 0.14985
# Poissons Ratio (y) = 0.03082 0.47387
# Poissons Ratio (z) = 0.18364 0.38325
#
# Static dielectric constant tensor:
#      x y z
#    x 3.934770 -0.054330 0.128970 
#    y -0.054330 3.598670 -0.154710 
#    z 0.128970 -0.154710 3.907460 
# 
# 
# High freq. dielectric constant tensor:
#      x y z
#    x 1.831480 -0.005920 0.008330 
#    y -0.005920 1.786980 -0.010380 
#    z 0.008330 -0.010380 1.808630 
# 
# From -- ./inp_files/206148.got.cif
#   From: 2010.06.25/outbox.cif.g09.slc.cpg/sg2_104_cif.got.tgz:206148.got - 2010.06.27 13:26:56.
