data_PCOD8015776
_publ_section_title
;
Structure prediction by ZEFSAII (Michael W. Deem and Ramdas Pophale) SiO2 
 PCOD8015776
Probable space group: P -1
;
_chemical_formula_sum "Si O2"
_cell_formula_units_Z 16
_cell_length_a 12.086166
_cell_length_b 10.400786
_cell_length_c 7.567234
_cell_angle_alpha 83.448373
_cell_angle_beta 86.122762
_cell_angle_gamma 131.864328
_cell_volume 690.376368
_symmetry_space_group_name_H-M "P -1"
_symmetry_group_IT_number 2
_symmetry_cell_setting 'triclinic'
loop_
_space_group_symop_operation_xyz
x,y,z
-x,-y,-z
loop_
_atom_site_type_symbol
_atom_site_label
_atom_site_fract_x
_atom_site_fract_y
_atom_site_fract_z
Si Si1 0.077697 0.631170 0.197420
Si Si2 0.559485 0.406502 0.474169
Si Si3 0.785292 0.279408 0.196776
Si Si4 0.552792 0.296090 0.106351
Si Si5 0.769131 0.519613 0.735998
Si Si6 0.725736 0.958247 0.382167
Si Si7 0.980708 0.927294 0.707037
Si Si8 0.214350 0.002389 0.231437
O O1 0.162269 0.569497 0.262320
O O2 0.129214 0.797246 0.274778
O O3 0.895696 0.465975 0.262848
O O4 0.116824 0.696008 0.981101
O O5 0.500000 0.500000 0.500000
O O6 0.573976 0.400593 0.262554
O O7 0.716619 0.510032 0.543832
O O8 0.445379 0.216817 0.616502
O O9 0.630779 0.221572 0.156528
O O10 0.739513 0.123091 0.346022
O O11 0.377252 0.130957 0.093846
O O12 0.634497 0.425664 0.909484
O O13 0.893286 0.722049 0.746668
O O14 0.747621 0.930575 0.584262
O O15 0.851919 0.979494 0.250356
O O16 0.896283 0.969072 0.830817
O O17 0.000000 0.000000 0.500000
#
# Coordination Sequence:
#
# PCOD8015776 Si02
#       8
#     2   2   2   2   2   2   2   2
#     4  10  23  40  63  97 123 169 219 261 321 384
#     4  11  25  42  65  98 130 171 220 262 319 392
#     4  10  22  41  62  91 135 160 213 274 318 379
#     4  10  25  42  64  99 134 162 215 273 317 385
#     4  11  23  43  71  91 131 179 208 264 331 377
#     4  10  22  40  64  90 128 171 206 273 324 371
#     4  10  21  43  65  90 131 168 215 265 319 386
#     4  10  23  39  64  95 126 165 217 267 316 385
#
# _framework density 23.175764000000001
#
# number of rings (size 3 to 8) (size 9 to 14) (size 15 to 20)
#    0.000    1.750    1.250    2.250    5.250    7.500 
#    0.000    0.625    0.000    0.000    0.000    0.000 
#    0.000    0.000    0.000    0.000    0.000    0.000 
#
# Total GULP energy -198317.940623 kJ/mol
# GULP energy per Si atom -12394.871289 kJ/mol
# Density = 2.312301 g / cm^3
# Si number density = 23.175764 Si / 1000 Ang^3
#
#
#
# Elastic Constant Matrix: (Units=GPa)
#
#
# Indices 1 2 3 4 5 6 
#
# 1 80.0100 15.2542 -7.1549 2.2536 -13.7875 -8.2296
# 2 15.2542 88.9061 2.2575 -8.8322 -9.8770 -15.7525
# 3 -7.1549 2.2575 36.6786 -3.3343 -4.0164 -4.6106
# 4 2.2536 -8.8322 -3.3343 27.6189 3.8812 -0.0893
# 5 -13.7875 -9.8770 -4.0164 3.8812 25.1741 -2.4174
# 6 -8.2296 -15.7525 -4.6106 -0.0893 -2.4174 36.7739
#
#
#
# Elastic Compliance Matrix: (Units=1/GPa)
#
#
# Indices 1 2 3 4 5 6 
#
# 1 0.015203 -0.001208 0.004348 -0.002396 0.009303 0.004036
# 2 -0.001208 0.013370 0.000529 0.003804 0.004642 0.005837
# 3 0.004348 0.000529 0.029800 0.002376 0.007499 0.005435
# 4 -0.002396 0.003804 0.002376 0.038653 -0.005291 0.001137
# 5 0.009303 0.004642 0.007499 -0.005291 0.049444 0.008248
# 6 0.004036 0.005837 0.005435 0.001137 0.008248 0.031823
#
#
# Mechanical properties :
#
#
# Convention : Reuss Voigt Hill
#
# Bulk Modulus (GPa) = 15.21812 25.14538 20.18175
# Shear Modulus (GPa) = 25.92570 30.92924 28.42747
#
# Velocity S-wave (km/s) = 3.34826 3.65711 3.50609
# Velocity P-wave (km/s) = 4.63987 5.35780 5.01171
#
# Compressibility (1/GPa) = 0.06571114
#
# Stress axis : x y z
#
# Youngs Moduli (GPa) = 65.77461 74.79629 33.55729
#
# Poissons Ratio (x) = 0.09039 -0.14592
# Poissons Ratio (y) = 0.07949 -0.01776
# Poissons Ratio (z) = -0.28601 -0.03959
#
# Static dielectric constant tensor:
#      x y z
#    x 4.935080 0.525450 -0.116010 
#    y 0.525450 4.424720 0.001890 
#    z -0.116010 0.001890 4.165480 
# 
# 
# High freq. dielectric constant tensor:
#      x y z
#    x 1.930350 0.005200 -0.002220 
#    y 0.005200 1.914960 -0.014980 
#    z -0.002220 -0.014980 1.898430 
# 
# From -- ./inp_files/243552.got.cif
#   From: 2010.06.25/outbox.cif.g09.slc.cpg/sg2_122_cif.got.tgz:243552.got - 2010.06.27 13:26:56.
