data_PCOD8015403
_publ_section_title
;
Structure prediction by ZEFSAII (Michael W. Deem and Ramdas Pophale) SiO2 
 PCOD8015403
Probable space group: P -1
;
_chemical_formula_sum "Si O2"
_cell_formula_units_Z 16
_cell_length_a 8.504640
_cell_length_b 8.213518
_cell_length_c 13.573928
_cell_angle_alpha 61.238576
_cell_angle_beta 65.890713
_cell_angle_gamma 62.913251
_cell_volume 717.918338
_symmetry_space_group_name_H-M "P -1"
_symmetry_group_IT_number 2
_symmetry_cell_setting 'triclinic'
loop_
_space_group_symop_operation_xyz
x,y,z
-x,-y,-z
loop_
_atom_site_type_symbol
_atom_site_label
_atom_site_fract_x
_atom_site_fract_y
_atom_site_fract_z
Si Si1 0.401037 0.188838 0.407126
Si Si2 0.880449 0.402313 0.994507
Si Si3 0.002984 0.737623 0.202796
Si Si4 0.579323 0.781525 0.949100
Si Si5 0.010315 0.383545 0.431309
Si Si6 0.313209 0.878640 0.815880
Si Si7 0.346199 0.833325 0.176765
Si Si8 0.361591 0.576775 0.426059
O O1 0.517764 0.185773 0.281785
O O2 0.370313 0.389693 0.413366
O O3 0.195198 0.195843 0.429146
O O4 0.500000 0.000000 0.500000
O O5 0.988895 0.267864 0.916414
O O6 0.711811 0.572284 0.939420
O O7 0.807989 0.264052 0.124038
O O8 0.000000 0.500000 0.000000
O O9 0.169655 0.789008 0.194661
O O10 0.999455 0.527516 0.300545
O O11 0.814140 0.899601 0.235984
O O12 0.395914 0.857608 0.910241
O O13 0.693767 0.933209 0.871887
O O14 0.518724 0.750637 0.084507
O O15 0.832225 0.315455 0.501807
O O16 0.000000 0.500000 0.500000
O O17 0.405040 0.735373 0.297616
O O18 0.500000 0.500000 0.500000
#
# Coordination Sequence:
#
# PCOD8015403 Si02
#       8
#     2   2   2   2   2   2   2   2
#     4  11  24  43  69 103 136 184 239 285 352 423
#     4  12  27  44  67 104 141 177 237 290 355 415
#     4  12  24  44  71  98 139 188 228 286 358 420
#     4  11  26  42  70 104 140 183 228 294 347 425
#     4  10  21  42  68  97 134 178 228 282 348 412
#     4  12  25  43  73  99 140 187 233 289 354 419
#     4  11  24  44  71  98 144 180 237 276 361 421
#     4  11  25  45  72 105 140 185 231 294 352 419
#
# _framework density 22.286657999999999
#
# number of rings (size 3 to 8) (size 9 to 14) (size 15 to 20)
#    0.000    0.750    3.750    4.500    7.000    1.000 
#    0.000    1.875    0.000    0.000    0.000    0.000 
#    0.000    0.000    0.000    0.000    0.000    0.000 
#
# Total GULP energy -198419.693072 kJ/mol
# GULP energy per Si atom -12401.230817 kJ/mol
# Density = 2.223593 g / cm^3
# Si number density = 22.286658 Si / 1000 Ang^3
#
#
#
# Elastic Constant Matrix: (Units=GPa)
#
#
# Indices 1 2 3 4 5 6 
#
# 1 111.3837 32.9427 59.9020 4.0937 -2.0220 -20.9062
# 2 32.9427 103.2542 37.7248 -1.5097 -9.9750 -30.5261
# 3 59.9020 37.7248 153.0941 -4.1727 -16.2435 -19.0020
# 4 4.0937 -1.5097 -4.1727 36.6672 -2.5962 2.7009
# 5 -2.0220 -9.9750 -16.2435 -2.5962 36.4506 -0.2364
# 6 -20.9062 -30.5261 -19.0020 2.7009 -0.2364 40.5769
#
#
#
# Elastic Compliance Matrix: (Units=1/GPa)
#
#
# Indices 1 2 3 4 5 6 
#
# 1 0.012456 -0.001626 -0.004318 -0.002322 -0.001822 0.003316
# 2 -0.001626 0.013571 -0.001283 0.000169 0.003121 0.008778
# 3 -0.004318 -0.001283 0.009083 0.001645 0.003581 0.000975
# 4 -0.002322 0.000169 0.001645 0.028071 0.002636 -0.002152
# 5 -0.001822 0.003121 0.003581 0.002636 0.029991 0.003085
# 6 0.003316 0.008778 0.000975 -0.002152 0.003085 0.033575
#
#
# Mechanical properties :
#
#
# Convention : Reuss Voigt Hill
#
# Bulk Modulus (GPa) = 48.40902 69.87456 59.14179
# Shear Modulus (GPa) = 33.76404 38.54976 36.15690
#
# Velocity S-wave (km/s) = 3.89651 4.16351 4.03222
# Velocity P-wave (km/s) = 6.48166 7.38470 6.94787
#
# Compressibility (1/GPa) = 0.02065731
#
# Stress axis : x y z
#
# Youngs Moduli (GPa) = 80.28406 73.68406 110.09159
#
# Poissons Ratio (x) = 0.11980 0.47538
# Poissons Ratio (y) = 0.13053 0.14122
# Poissons Ratio (z) = 0.34667 0.09452
#
# Static dielectric constant tensor:
#      x y z
#    x 4.572560 1.049540 -3.018240 
#    y 1.049540 6.599790 -6.011640 
#    z -3.018240 -6.011640 18.128380 
# 
# 
# High freq. dielectric constant tensor:
#      x y z
#    x 1.878790 -0.016070 -0.007740 
#    y -0.016070 1.872740 -0.003530 
#    z -0.007740 -0.003530 1.889210 
# 
# From -- ./inp_files/381311.got.cif
#   From: 2010.06.25/outbox.cif.g09.slc.cpg/sg2_191_cif.got.tgz:381311.got - 2010.06.27 13:26:56.
