data_PCOD8015210
_publ_section_title
;
Structure prediction by ZEFSAII (Michael W. Deem and Ramdas Pophale) SiO2 
 PCOD8015210
Probable space group: P -1
;
_chemical_formula_sum "Si O2"
_cell_formula_units_Z 14
_cell_length_a 9.063157
_cell_length_b 11.342341
_cell_length_c 8.927074
_cell_angle_alpha 124.275229
_cell_angle_beta 70.121478
_cell_angle_gamma 80.913047
_cell_volume 636.974122
_symmetry_space_group_name_H-M "P -1"
_symmetry_group_IT_number 2
_symmetry_cell_setting 'triclinic'
loop_
_space_group_symop_operation_xyz
x,y,z
-x,-y,-z
loop_
_atom_site_type_symbol
_atom_site_label
_atom_site_fract_x
_atom_site_fract_y
_atom_site_fract_z
Si Si1 0.475103 0.358421 0.480472
Si Si2 0.575740 0.610886 0.131704
Si Si3 0.226814 0.876722 0.405475
Si Si4 0.134676 0.293142 0.972836
Si Si5 0.825403 0.037449 0.183519
Si Si6 0.042246 0.218434 0.635013
Si Si7 0.890873 0.562740 0.433265
O O1 0.500000 0.500000 0.500000
O O2 0.406537 0.412320 0.712184
O O3 0.651394 0.188688 0.287482
O O4 0.321160 0.350687 0.426356
O O5 0.434334 0.794090 0.286305
O O6 0.745162 0.611595 0.992938
O O7 0.500000 0.500000 0.000000
O O8 0.136158 0.923504 0.634241
O O9 0.157773 0.758542 0.266033
O O10 0.171273 0.031793 0.433602
O O11 0.098502 0.285633 0.806010
O O12 0.210650 0.119820 0.904319
O O13 0.951008 0.409059 0.194920
O O14 0.000000 0.000000 0.000000
O O15 0.053796 0.304853 0.544909
O O16 0.000000 0.500000 0.500000
#
# Coordination Sequence:
#
# PCOD8015210 Si02
#       7
#     2   2   2   2   2   2   2
#     4  11  26  45  68  98 138 184 219 283 348 400
#     4  11  24  42  69 100 137 173 234 284 337 409
#     4   9  22  39  70  97 130 172 224 286 338 400
#     4  11  24  43  71  98 131 184 230 283 343 401
#     4  10  23  45  71 100 138 177 228 286 348 408
#     4  10  21  42  66  97 128 176 228 278 338 395
#     4  12  27  42  66  96 142 179 229 279 336 404
#
# _framework density 21.978915000000001
#
# number of rings (size 3 to 8) (size 9 to 14) (size 15 to 20)
#    0.000    1.429    1.429    2.143   12.000    1.714 
#    2.571    0.714    0.000    0.000    0.000    0.000 
#    0.000    0.000    0.000    0.000    0.000    0.000 
#
# Total GULP energy -173475.041598 kJ/mol
# GULP energy per Si atom -12391.074400 kJ/mol
# Density = 2.192889 g / cm^3
# Si number density = 21.978915 Si / 1000 Ang^3
#
#
#
# Elastic Constant Matrix: (Units=GPa)
#
#
# Indices 1 2 3 4 5 6 
#
# 1 130.7440 64.3581 42.9771 6.2270 -0.9460 -9.0806
# 2 64.3581 179.1116 38.7944 1.7261 -5.8256 -5.6812
# 3 42.9771 38.7944 59.3276 -0.4095 -17.7056 6.6637
# 4 6.2270 1.7261 -0.4095 22.7374 -1.5221 2.4689
# 5 -0.9460 -5.8256 -17.7056 -1.5221 32.0176 11.0510
# 6 -9.0806 -5.6812 6.6637 2.4689 11.0510 40.8480
#
#
#
# Elastic Compliance Matrix: (Units=1/GPa)
#
#
# Indices 1 2 3 4 5 6 
#
# 1 0.013354 -0.002244 -0.011883 -0.005139 -0.009401 0.007449
# 2 -0.002244 0.007178 -0.003610 -0.000237 -0.001267 0.001446
# 3 -0.011883 -0.003610 0.037472 0.007750 0.025853 -0.016719
# 4 -0.005139 -0.000237 0.007750 0.046984 0.008985 -0.007710
# 5 -0.009401 -0.001267 0.025853 0.008985 0.052804 -0.021312
# 6 0.007449 0.001446 -0.016719 -0.007710 -0.021312 0.035297
#
#
# Mechanical properties :
#
#
# Convention : Reuss Voigt Hill
#
# Bulk Modulus (GPa) = 44.39003 73.49358 58.94181
# Shear Modulus (GPa) = 21.17976 33.99084 27.58530
#
# Velocity S-wave (km/s) = 3.10762 3.93685 3.54655
# Velocity P-wave (km/s) = 5.75473 7.36042 6.60654
#
# Compressibility (1/GPa) = 0.02252758
#
# Stress axis : x y z
#
# Youngs Moduli (GPa) = 74.88633 139.30655 26.68686
#
# Poissons Ratio (x) = 0.31264 0.31713
# Poissons Ratio (y) = 0.16807 0.09635
# Poissons Ratio (z) = 0.88991 0.50294
#
# Static dielectric constant tensor:
#      x y z
#    x 3.895830 -0.123440 -0.249850 
#    y -0.123440 4.244090 0.252490 
#    z -0.249850 0.252490 3.913580 
# 
# 
# High freq. dielectric constant tensor:
#      x y z
#    x 1.871140 -0.006030 -0.003910 
#    y -0.006030 1.886970 0.015260 
#    z -0.003910 0.015260 1.846980 
# 
# From -- ./inp_files/182255.got.cif
#   From: 2010.06.25/outbox.cif.g09.slc.cpg/sg2_92_cif.got.tgz:182255.got - 2010.06.27 13:26:56.
