data_PCOD8015208
_publ_section_title
;
Structure prediction by ZEFSAII (Michael W. Deem and Ramdas Pophale) SiO2 
 PCOD8015208
Probable space group: P -1
;
_chemical_formula_sum "Si O2"
_cell_formula_units_Z 16
_cell_length_a 9.058778
_cell_length_b 11.163537
_cell_length_c 13.180512
_cell_angle_alpha 136.758997
_cell_angle_beta 99.459755
_cell_angle_gamma 60.532321
_cell_volume 751.778083
_symmetry_space_group_name_H-M "P -1"
_symmetry_group_IT_number 2
_symmetry_cell_setting 'triclinic'
loop_
_space_group_symop_operation_xyz
x,y,z
-x,-y,-z
loop_
_atom_site_type_symbol
_atom_site_label
_atom_site_fract_x
_atom_site_fract_y
_atom_site_fract_z
Si Si1 0.102851 0.673596 0.870439
Si Si2 0.971647 0.599321 0.167191
Si Si3 0.583374 0.603671 0.406874
Si Si4 0.190930 0.715837 0.592696
Si Si5 0.677924 0.997118 0.286956
Si Si6 0.135471 0.032900 0.152391
Si Si7 0.491472 0.107292 0.961863
Si Si8 0.283461 0.555161 0.291623
O O1 0.021775 0.570253 0.862789
O O2 0.268724 0.473655 0.709841
O O3 0.951605 0.847467 0.888085
O O4 0.163848 0.804066 0.022327
O O5 0.787467 0.828202 0.284140
O O6 0.121417 0.643735 0.247725
O O7 0.000000 0.500000 0.000000
O O8 0.657692 0.427555 0.394915
O O9 0.391589 0.667721 0.376475
O O10 0.523436 0.826910 0.587244
O O11 0.208612 0.574292 0.410345
O O12 0.989745 0.820933 0.679044
O O13 0.216770 0.900190 0.678025
O O14 0.662232 0.876176 0.115456
O O15 0.329168 0.999110 0.152114
O O16 0.440624 0.329380 0.132782
O O17 0.500000 0.000000 0.000000
#
# Coordination Sequence:
#
# PCOD8015208 Si02
#       8
#     2   2   2   2   2   2   2   2
#     4  10  22  40  64  92 130 168 206 265 320 374
#     4  12  25  42  59  89 131 174 216 256 311 378
#     4  10  21  42  66  97 126 161 212 270 321 371
#     4  10  22  42  67  98 130 160 208 268 325 373
#     4  11  24  40  64  91 131 169 208 262 315 376
#     4  10  22  39  67  97 125 162 212 264 325 372
#     4  12  22  37  65  98 121 159 215 262 317 373
#     4  11  22  40  64  92 127 170 208 258 314 378
#
# _framework density 21.282876000000002
#
# number of rings (size 3 to 8) (size 9 to 14) (size 15 to 20)
#    0.000    1.250    2.500    4.500    3.500    3.500 
#    0.000    6.875    0.000    0.000    0.000    0.000 
#    0.000    0.000    0.000    0.000    0.000    0.000 
#
# Total GULP energy -198261.713451 kJ/mol
# GULP energy per Si atom -12391.357091 kJ/mol
# Density = 2.123444 g / cm^3
# Si number density = 21.282876 Si / 1000 Ang^3
#
#
#
# Elastic Constant Matrix: (Units=GPa)
#
#
# Indices 1 2 3 4 5 6 
#
# 1 88.3992 31.9098 37.8753 -7.0621 -11.7755 -9.9245
# 2 31.9098 73.0551 25.4051 2.4189 3.1846 -12.0374
# 3 37.8753 25.4051 106.9375 -8.7874 -17.3247 -3.2721
# 4 -7.0621 2.4189 -8.7874 38.7474 -3.5155 6.5930
# 5 -11.7755 3.1846 -17.3247 -3.5155 38.6304 -3.3123
# 6 -9.9245 -12.0374 -3.2721 6.5930 -3.3123 27.9390
#
#
#
# Elastic Compliance Matrix: (Units=1/GPa)
#
#
# Indices 1 2 3 4 5 6 
#
# 1 0.015805 -0.005561 -0.003307 0.002392 0.004248 0.002770
# 2 -0.005561 0.018658 -0.003386 -0.004414 -0.004626 0.006160
# 3 -0.003307 -0.003386 0.012346 0.003086 0.004975 -0.001326
# 4 0.002392 -0.004414 0.003086 0.028811 0.004502 -0.006956
# 5 0.004248 -0.004626 0.004975 0.004502 0.030430 0.002644
# 6 0.002770 0.006160 -0.001326 -0.006956 0.002644 0.041230
#
#
# Mechanical properties :
#
#
# Convention : Reuss Voigt Hill
#
# Bulk Modulus (GPa) = 44.84493 50.97468 47.90980
# Shear Modulus (GPa) = 27.89828 32.61013 30.25421
#
# Velocity S-wave (km/s) = 3.62447 3.91861 3.77441
# Velocity P-wave (km/s) = 6.21549 6.66911 6.44629
#
# Compressibility (1/GPa) = 0.02229907
#
# Stress axis : x y z
#
# Youngs Moduli (GPa) = 63.27241 53.59684 80.99775
#
# Poissons Ratio (x) = 0.29807 0.26786
# Poissons Ratio (y) = 0.35188 0.27429
# Poissons Ratio (z) = 0.20924 0.18150
#
# Static dielectric constant tensor:
#      x y z
#    x 3.696890 -0.084060 -0.170370 
#    y -0.084060 3.698970 -0.136320 
#    z -0.170370 -0.136320 3.941080 
# 
# 
# High freq. dielectric constant tensor:
#      x y z
#    x 1.825670 -0.010940 -0.010770 
#    y -0.010940 1.809180 0.002630 
#    z -0.010770 0.002630 1.858110 
# 
# From -- ./inp_files/501002.got.cif
#   From: 2010.06.25/outbox.cif.g09.slc.cpg/sg2_251_cif.got.tgz:501002.got - 2010.06.27 13:26:56.
