data_PCOD8015840
_publ_section_title
;
Structure prediction by ZEFSAII (Michael W. Deem and Ramdas Pophale) SiO2 
 PCOD8015840
Probable space group: P -1
;
_chemical_formula_sum "Si O2"
_cell_formula_units_Z 16
_cell_length_a 14.323342
_cell_length_b 11.590215
_cell_length_c 18.586891
_cell_angle_alpha 49.463016
_cell_angle_beta 31.271988
_cell_angle_gamma 30.242468
_cell_volume 759.171148
_symmetry_space_group_name_H-M "P -1"
_symmetry_group_IT_number 2
_symmetry_cell_setting 'triclinic'
loop_
_space_group_symop_operation_xyz
x,y,z
-x,-y,-z
loop_
_atom_site_type_symbol
_atom_site_label
_atom_site_fract_x
_atom_site_fract_y
_atom_site_fract_z
Si Si1 0.196821 0.834046 0.506051
Si Si2 0.734842 0.656075 0.777758
Si Si3 0.735391 0.903455 0.561325
Si Si4 0.853684 0.376831 0.259666
Si Si5 0.186597 0.763850 0.925083
Si Si6 0.132112 0.024007 0.092072
Si Si7 0.079920 0.372009 0.801531
Si Si8 0.208011 0.636831 0.248203
O O1 0.521508 0.578498 0.371701
O O2 0.073098 0.774893 0.657438
O O3 0.198251 0.976033 0.499835
O O4 0.000000 0.000000 0.500000
O O5 0.829871 0.712220 0.632168
O O6 0.755225 0.471381 0.808591
O O7 0.953529 0.534386 0.748263
O O8 0.409186 0.906545 0.915469
O O9 0.920175 0.763558 0.423927
O O10 0.400995 0.104104 0.680395
O O11 0.922434 0.505655 0.181453
O O12 0.050778 0.200268 0.134435
O O13 0.521258 0.579623 0.791376
O O14 0.125235 0.829136 0.854832
O O15 0.122423 0.633317 0.041553
O O16 0.000000 0.000000 0.000000
O O17 0.199001 0.821411 0.167441
#
# Coordination Sequence:
#
# PCOD8015840 Si02
#       8
#     2   2   2   2   2   2   2   2
#     4  10  21  43  66  93 134 179 215 272 332 396
#     4  12  24  43  69  97 135 178 218 278 339 388
#     4  11  24  43  66 101 133 169 227 274 330 400
#     4  10  24  41  65  99 134 169 226 272 329 399
#     4  12  24  44  69  97 135 179 222 276 333 394
#     4  12  24  42  68  98 134 177 220 276 333 395
#     4  11  24  44  66  97 138 172 219 278 332 393
#     4  12  25  44  69 100 133 175 231 272 330 406
#
# _framework density 21.075616
#
# number of rings (size 3 to 8) (size 9 to 14) (size 15 to 20)
#    0.000    0.750    5.000    2.250    1.750    2.500 
#    0.000    0.000    0.000    0.000    0.000    0.000 
#    0.000    0.000    0.000    0.000    0.000    0.000 
#
# Total GULP energy -198518.521078 kJ/mol
# GULP energy per Si atom -12407.407567 kJ/mol
# Density = 2.102765 g / cm^3
# Si number density = 21.075616 Si / 1000 Ang^3
#
#
#
# Elastic Constant Matrix: (Units=GPa)
#
#
# Indices 1 2 3 4 5 6 
#
# 1 94.2136 32.9992 23.5418 20.0571 13.5542 -3.3463
# 2 32.9992 87.1875 22.7482 5.1123 7.3834 0.6615
# 3 23.5418 22.7482 88.1804 13.2020 14.4383 13.9906
# 4 20.0571 5.1123 13.2020 35.6487 4.6944 -1.1708
# 5 13.5542 7.3834 14.4383 4.6944 26.8780 1.2025
# 6 -3.3463 0.6615 13.9906 -1.1708 1.2025 48.5734
#
#
#
# Elastic Compliance Matrix: (Units=1/GPa)
#
#
# Indices 1 2 3 4 5 6 
#
# 1 0.014535 -0.004431 -0.001277 -0.006450 -0.004362 0.001382
# 2 -0.004431 0.013763 -0.002572 0.001540 -0.000447 0.000296
# 3 -0.001277 -0.002572 0.014473 -0.003673 -0.005596 -0.004172
# 4 -0.006450 0.001540 -0.003673 0.033001 -0.001025 0.001413
# 5 -0.004362 -0.000447 -0.005596 -0.001025 0.042702 0.000236
# 6 0.001382 0.000296 -0.004172 0.001413 0.000236 0.021908
#
#
# Mechanical properties :
#
#
# Convention : Reuss Voigt Hill
#
# Bulk Modulus (GPa) = 38.15182 47.57333 42.86257
# Shear Modulus (GPa) = 30.17891 34.90616 32.54253
#
# Velocity S-wave (km/s) = 3.78820 4.07410 3.93375
# Velocity P-wave (km/s) = 6.10537 6.68975 6.40423
#
# Compressibility (1/GPa) = 0.02621107
#
# Stress axis : x y z
#
# Youngs Moduli (GPa) = 68.79969 72.65892 69.09556
#
# Poissons Ratio (x) = 0.32195 0.08822
# Poissons Ratio (y) = 0.30485 0.17771
# Poissons Ratio (z) = 0.08784 0.18688
#
# Static dielectric constant tensor:
#      x y z
#    x 3.818180 -0.033080 -0.035690 
#    y -0.033080 4.021760 0.108110 
#    z -0.035690 0.108110 3.711180 
# 
# 
# High freq. dielectric constant tensor:
#      x y z
#    x 1.828020 0.000440 -0.000680 
#    y 0.000440 1.843330 -0.000330 
#    z -0.000680 -0.000330 1.819330 
# 
# From -- ./inp_files/186360.got.cif
#   From: 2010.06.25/outbox.cif.g09.slc.cpg/sg2_94_cif.got.tgz:186360.got - 2010.06.27 13:26:56.
