data_PCOD8015813
_publ_section_title
;
Structure prediction by ZEFSAII (Michael W. Deem and Ramdas Pophale) SiO2 
 PCOD8015813
Probable space group: P -1
;
_chemical_formula_sum "Si O2"
_cell_formula_units_Z 16
_cell_length_a 15.632352
_cell_length_b 12.123208
_cell_length_c 9.296390
_cell_angle_alpha 61.486344
_cell_angle_beta 61.098323
_cell_angle_gamma 27.541787
_cell_volume 707.975444
_symmetry_space_group_name_H-M "P -1"
_symmetry_group_IT_number 2
_symmetry_cell_setting 'triclinic'
loop_
_space_group_symop_operation_xyz
x,y,z
-x,-y,-z
loop_
_atom_site_type_symbol
_atom_site_label
_atom_site_fract_x
_atom_site_fract_y
_atom_site_fract_z
Si Si1 0.175430 0.973640 0.535459
Si Si2 0.266741 0.442432 0.090037
Si Si3 0.859249 0.997146 0.780615
Si Si4 0.431084 0.053089 0.685878
Si Si5 0.215674 0.649773 0.274789
Si Si6 0.927646 0.674145 0.074222
Si Si7 0.721753 0.404714 0.274625
Si Si8 0.508308 0.741004 0.485950
O O1 0.231250 0.903455 0.365577
O O2 0.250117 0.769634 0.687863
O O3 0.281937 0.973844 0.524925
O O4 0.952897 0.228106 0.573305
O O5 0.428672 0.185087 0.189946
O O6 0.189899 0.632998 0.142809
O O7 0.100574 0.532433 0.118398
O O8 0.354857 0.425202 0.898079
O O9 0.783408 0.199581 0.807934
O O10 0.080915 0.758983 0.729122
O O11 0.814323 0.915925 0.948004
O O12 0.500000 0.000000 0.500000
O O13 0.219845 0.232670 0.757507
O O14 0.433781 0.188013 0.668948
O O15 0.407642 0.380027 0.349249
O O16 0.000000 0.500000 0.000000
O O17 0.583513 0.556072 0.427810
#
# Coordination Sequence:
#
# PCOD8015813 Si02
#       8
#     2   2   2   2   2   2   2   2
#     4  11  23  38  73 101 132 181 225 276 348 417
#     4  11  27  45  71 100 140 183 221 295 348 398
#     4  10  21  43  70 104 133 180 229 279 342 416
#     4  12  28  47  66 101 141 184 238 281 343 421
#     4  11  23  44  68 101 140 174 224 290 344 405
#     4  11  28  47  73 103 140 184 235 284 346 416
#     4  10  21  43  66 102 135 169 230 282 342 410
#     4  12  24  41  68  96 134 180 231 279 338 412
#
# _framework density 22.599653
#
# number of rings (size 3 to 8) (size 9 to 14) (size 15 to 20)
#    0.000    1.000    3.750    2.625    5.250    6.000 
#    0.000    1.250    0.000    0.000    0.000    0.000 
#    0.000    0.000    0.000    0.000    0.000    0.000 
#
# Total GULP energy -198374.415676 kJ/mol
# GULP energy per Si atom -12398.400980 kJ/mol
# Density = 2.254822 g / cm^3
# Si number density = 22.599653 Si / 1000 Ang^3
#
#
#
# Elastic Constant Matrix: (Units=GPa)
#
#
# Indices 1 2 3 4 5 6 
#
# 1 125.9792 30.6693 39.2557 -1.8066 3.3271 1.0463
# 2 30.6693 63.4280 28.0877 -16.1502 5.1304 5.1198
# 3 39.2557 28.0877 104.7889 -9.1393 0.3573 -3.5391
# 4 -1.8066 -16.1502 -9.1393 41.7023 2.0356 -0.8318
# 5 3.3271 5.1304 0.3573 2.0356 42.0496 0.1368
# 6 1.0463 5.1198 -3.5391 -0.8318 0.1368 31.5861
#
#
#
# Elastic Compliance Matrix: (Units=1/GPa)
#
#
# Indices 1 2 3 4 5 6 
#
# 1 0.009723 -0.003895 -0.002746 -0.001680 -0.000189 -0.000042
# 2 -0.003895 0.021758 -0.003834 0.007475 -0.002664 -0.003619
# 3 -0.002746 -0.003834 0.011753 0.000987 0.000531 0.002053
# 4 -0.001680 0.007475 0.000987 0.027114 -0.002099 -0.000322
# 5 -0.000189 -0.002664 0.000531 -0.002099 0.024217 0.000337
# 6 -0.000042 -0.003619 0.002053 -0.000322 0.000337 0.032468
#
#
# Mechanical properties :
#
#
# Convention : Reuss Voigt Hill
#
# Bulk Modulus (GPa) = 44.87415 54.46906 49.67160
# Shear Modulus (GPa) = 32.17304 36.14649 34.15976
#
# Velocity S-wave (km/s) = 3.77717 4.00362 3.89204
# Velocity P-wave (km/s) = 6.23874 6.74730 6.49800
#
# Compressibility (1/GPa) = 0.02228455
#
# Stress axis : x y z
#
# Youngs Moduli (GPa) = 102.85133 45.96046 85.08518
#
# Poissons Ratio (x) = 0.17899 0.23362
# Poissons Ratio (y) = 0.40056 0.32624
# Poissons Ratio (z) = 0.28240 0.17622
#
# Static dielectric constant tensor:
#      x y z
#    x 4.376410 0.070280 -0.178080 
#    y 0.070280 3.978030 -0.083070 
#    z -0.178080 -0.083070 4.124810 
# 
# 
# High freq. dielectric constant tensor:
#      x y z
#    x 1.902970 -0.001700 -0.004600 
#    y -0.001700 1.886510 -0.010100 
#    z -0.004600 -0.010100 1.883930 
# 
# From -- ./inp_files/285763.got.cif
#   From: 2010.06.25/outbox.cif.g09.slc.cpg/sg2_143_cif.got.tgz:285763.got - 2010.06.27 13:26:56.
