data_PCOD8015372
_publ_section_title
;
Structure prediction by ZEFSAII (Michael W. Deem and Ramdas Pophale) SiO2 
 PCOD8015372
Probable space group: P -1
;
_chemical_formula_sum "Si O2"
_cell_formula_units_Z 16
_cell_length_a 14.300986
_cell_length_b 9.391767
_cell_length_c 11.031538
_cell_angle_alpha 84.504926
_cell_angle_beta 149.303625
_cell_angle_gamma 89.363285
_cell_volume 740.053011
_symmetry_space_group_name_H-M "P -1"
_symmetry_group_IT_number 2
_symmetry_cell_setting 'triclinic'
loop_
_space_group_symop_operation_xyz
x,y,z
-x,-y,-z
loop_
_atom_site_type_symbol
_atom_site_label
_atom_site_fract_x
_atom_site_fract_y
_atom_site_fract_z
Si Si1 0.846158 0.986216 0.678662
Si Si2 0.193254 0.500555 0.151338
Si Si3 0.711451 0.012949 0.256378
Si Si4 0.835944 0.497657 0.159569
Si Si5 0.225373 0.829050 0.191628
Si Si6 0.416247 0.222107 0.533325
Si Si7 0.429485 0.713151 0.046486
Si Si8 0.805464 0.696606 0.328332
O O1 0.759762 0.030300 0.448906
O O2 0.754990 0.862667 0.653173
O O3 0.811452 0.130327 0.711849
O O4 0.065455 0.920355 0.920561
O O5 0.242599 0.658506 0.203946
O O6 0.352028 0.386913 0.403698
O O7 0.188320 0.452678 0.009901
O O8 0.000000 0.500000 0.000000
O O9 0.831616 0.865317 0.346817
O O10 0.500000 0.000000 0.000000
O O11 0.734516 0.161697 0.202493
O O12 0.833063 0.641370 0.225601
O O13 0.034948 0.391257 0.400757
O O14 0.664796 0.424199 0.019368
O O15 0.422145 0.865254 0.364978
O O16 0.493482 0.221680 0.754308
O O17 0.604404 0.671000 0.153896
#
# Coordination Sequence:
#
# PCOD8015372 Si02
#       8
#     2   2   2   2   2   2   2   2
#     4  11  23  47  65  95 138 168 220 278 324 390
#     4  12  24  45  68  95 134 175 216 274 328 389
#     4  10  21  42  68  93 127 173 209 266 329 378
#     4  11  24  43  65  96 128 170 217 264 328 387
#     4  11  25  43  67  99 129 177 221 270 330 392
#     4  12  23  42  68  94 132 175 219 270 330 391
#     4  11  23  42  66  95 128 172 213 266 328 380
#     4  10  22  44  65  94 133 165 212 273 319 387
#
# _framework density 21.620072
#
# number of rings (size 3 to 8) (size 9 to 14) (size 15 to 20)
#    0.000    1.000    5.000    2.625    0.000    2.500 
#    9.000    0.000    0.000    0.000    0.000    0.000 
#    0.000    0.000    0.000    0.000    0.000    0.000 
#
# Total GULP energy -198436.239741 kJ/mol
# GULP energy per Si atom -12402.264984 kJ/mol
# Density = 2.157086 g / cm^3
# Si number density = 21.620072 Si / 1000 Ang^3
#
#
#
# Elastic Constant Matrix: (Units=GPa)
#
#
# Indices 1 2 3 4 5 6 
#
# 1 99.6041 27.8912 54.8650 -15.3875 -10.6568 -12.9908
# 2 27.8912 31.2906 27.7208 -5.7688 -11.3457 -22.8882
# 3 54.8650 27.7208 122.4207 -15.5493 -12.7217 -16.3875
# 4 -15.3875 -5.7688 -15.5493 32.6063 -2.9828 0.2945
# 5 -10.6568 -11.3457 -12.7217 -2.9828 47.8679 1.3591
# 6 -12.9908 -22.8882 -16.3875 0.2945 1.3591 28.3279
#
#
#
# Elastic Compliance Matrix: (Units=1/GPa)
#
#
# Indices 1 2 3 4 5 6 
#
# 1 0.016396 -0.017070 -0.004460 0.002563 -0.001171 -0.008823
# 2 -0.017070 0.133288 -0.005386 0.014341 0.024545 0.095423
# 3 -0.004460 -0.005386 0.011894 0.002707 0.001049 0.000405
# 4 0.002563 0.014341 0.002707 0.036183 0.006557 0.013638
# 5 -0.001171 0.024545 0.001049 0.006557 0.026608 0.018557
# 6 -0.008823 0.095423 0.000405 0.013638 0.018557 0.107556
#
#
# Mechanical properties :
#
#
# Convention : Reuss Voigt Hill
#
# Bulk Modulus (GPa) = 9.28101 52.69661 30.98881
# Shear Modulus (GPa) = 11.85753 31.28296 21.57025
#
# Velocity S-wave (km/s) = 2.34444 3.80799 3.16206
# Velocity P-wave (km/s) = 3.41037 6.61523 5.26269
#
# Compressibility (1/GPa) = 0.10774689
#
# Stress axis : x y z
#
# Youngs Moduli (GPa) = 60.98898 7.50256 84.07563
#
# Poissons Ratio (x) = 0.12807 0.37500
# Poissons Ratio (y) = 1.04105 0.45282
# Poissons Ratio (z) = 0.27203 0.04041
#
# Static dielectric constant tensor:
#      x y z
#    x 4.023750 0.075820 0.079470 
#    y 0.075820 4.127260 -0.083050 
#    z 0.079470 -0.083050 4.041920 
# 
# 
# High freq. dielectric constant tensor:
#      x y z
#    x 1.848380 -0.009480 0.005200 
#    y -0.009480 1.846870 0.000560 
#    z 0.005200 0.000560 1.863740 
# 
# From -- ./inp_files/447401.got.cif
#   From: 2010.06.25/outbox.cif.g09.slc.cpg/sg2_224_cif.got.tgz:447401.got - 2010.06.27 13:26:56.
