data_PCOD8015251
_publ_section_title
;
Structure prediction by ZEFSAII (Michael W. Deem and Ramdas Pophale) SiO2 
 PCOD8015251
Probable space group: P -1
;
_chemical_formula_sum "Si O2"
_cell_formula_units_Z 16
_cell_length_a 9.082708
_cell_length_b 12.028483
_cell_length_c 14.759153
_cell_angle_alpha 134.187337
_cell_angle_beta 51.394463
_cell_angle_gamma 142.454522
_cell_volume 695.150878
_symmetry_space_group_name_H-M "P -1"
_symmetry_group_IT_number 2
_symmetry_cell_setting 'triclinic'
loop_
_space_group_symop_operation_xyz
x,y,z
-x,-y,-z
loop_
_atom_site_type_symbol
_atom_site_label
_atom_site_fract_x
_atom_site_fract_y
_atom_site_fract_z
Si Si1 0.056017 0.567667 0.721959
Si Si2 0.700143 0.554196 0.330598
Si Si3 0.749346 0.123773 0.529026
Si Si4 0.600566 0.814372 0.040439
Si Si5 0.788261 0.799935 0.610482
Si Si6 0.154642 0.423899 0.906387
Si Si7 0.047531 0.196223 0.993611
Si Si8 0.438293 0.045098 0.302713
O O1 0.171903 0.540339 0.747078
O O2 0.285688 0.742375 0.670580
O O3 0.870426 0.359463 0.619567
O O4 0.914635 0.640706 0.858532
O O5 0.772719 0.722270 0.470432
O O6 0.405879 0.380010 0.348373
O O7 0.803761 0.647292 0.244101
O O8 0.943656 0.103982 0.398325
O O9 0.500000 0.000000 0.500000
O O10 0.695770 0.022642 0.589221
O O11 0.729765 0.803812 0.072013
O O12 0.436173 0.868572 0.169451
O O13 0.426134 0.601284 0.938276
O O14 0.793860 0.975160 0.983470
O O15 0.725603 0.948046 0.704666
O O16 0.032760 0.241150 0.920554
O O17 0.000000 0.500000 0.000000
#
# Coordination Sequence:
#
# PCOD8015251 Si02
#       8
#     2   2   2   2   2   2   2   2
#     4   9  19  41  67  87 132 171 207 268 337 390
#     4   9  19  40  68  96 126 170 220 269 324 387
#     4  11  23  40  63  99 127 159 223 276 325 393
#     4  10  24  43  65  95 137 176 220 261 333 402
#     4   9  20  43  66  88 131 178 212 261 334 390
#     4  12  23  39  68 105 129 165 224 284 327 381
#     4  10  21  45  66  94 132 182 211 263 341 391
#     4  10  21  42  67  89 123 181 217 262 325 392
#
# _framework density 23.016586
#
# number of rings (size 3 to 8) (size 9 to 14) (size 15 to 20)
#    0.000    2.000    1.250    2.250    1.750    1.000 
#   11.250    0.000    0.000    0.000    0.000    0.000 
#    0.000    0.000    0.000    0.000    0.000    0.000 
#
# Total GULP energy -198367.479037 kJ/mol
# GULP energy per Si atom -12397.967440 kJ/mol
# Density = 2.296420 g / cm^3
# Si number density = 23.016586 Si / 1000 Ang^3
#
#
#
# Elastic Constant Matrix: (Units=GPa)
#
#
# Indices 1 2 3 4 5 6 
#
# 1 98.0923 31.1020 24.0789 -14.6263 -22.0171 7.2296
# 2 31.1020 93.6127 11.0023 -15.6852 3.3018 1.3506
# 3 24.0789 11.0023 61.0899 -20.4983 -16.6906 -2.9326
# 4 -14.6263 -15.6852 -20.4983 29.7452 -2.1298 -0.1764
# 5 -22.0171 3.3018 -16.6906 -2.1298 36.2393 -1.0307
# 6 7.2296 1.3506 -2.9326 -0.1764 -1.0307 44.5397
#
#
#
# Elastic Compliance Matrix: (Units=1/GPa)
#
#
# Indices 1 2 3 4 5 6 
#
# 1 0.014717 -0.004233 -0.000985 0.004965 0.009105 -0.002095
# 2 -0.004233 0.012966 -0.000153 0.004396 -0.003559 0.000219
# 3 -0.000985 -0.000153 0.026721 0.018786 0.012892 0.002297
# 4 0.004965 0.004396 0.018786 0.052358 0.014369 0.000838
# 5 0.009105 -0.003559 0.012892 0.014369 0.040246 0.000467
# 6 -0.002095 0.000219 0.002297 0.000838 0.000467 0.022951
#
#
# Mechanical properties :
#
#
# Convention : Reuss Voigt Hill
#
# Bulk Modulus (GPa) = 22.90388 42.79570 32.84979
# Shear Modulus (GPa) = 25.60761 34.54563 30.07662
#
# Velocity S-wave (km/s) = 3.33914 3.87835 3.61880
# Velocity P-wave (km/s) = 4.98389 6.22007 5.63597
#
# Compressibility (1/GPa) = 0.04366073
#
# Stress axis : x y z
#
# Youngs Moduli (GPa) = 67.94933 77.12693 37.42360
#
# Poissons Ratio (x) = 0.32646 0.03687
# Poissons Ratio (y) = 0.28761 0.00574
# Poissons Ratio (z) = 0.06695 0.01183
#
# Static dielectric constant tensor:
#      x y z
#    x 4.133820 0.040700 -0.318550 
#    y 0.040700 4.389060 -0.097880 
#    z -0.318550 -0.097880 4.041790 
# 
# 
# High freq. dielectric constant tensor:
#      x y z
#    x 1.892340 0.003040 -0.026270 
#    y 0.003040 1.927100 -0.010750 
#    z -0.026270 -0.010750 1.895070 
# 
# From -- ./inp_files/500802.got.cif
#   From: 2010.06.25/outbox.cif.g09.slc.cpg/sg2_251_cif.got.tgz:500802.got - 2010.06.27 13:26:56.
