data_PCOD8015069
_publ_section_title
;
Structure prediction by ZEFSAII (Michael W. Deem and Ramdas Pophale) SiO2 
 PCOD8015069
Probable space group: P -1
;
_chemical_formula_sum "Si O2"
_cell_formula_units_Z 16
_cell_length_a 8.284774
_cell_length_b 11.529385
_cell_length_c 13.806880
_cell_angle_alpha 66.031185
_cell_angle_beta 132.219147
_cell_angle_gamma 131.278069
_cell_volume 732.365161
_symmetry_space_group_name_H-M "P -1"
_symmetry_group_IT_number 2
_symmetry_cell_setting 'triclinic'
loop_
_space_group_symop_operation_xyz
x,y,z
-x,-y,-z
loop_
_atom_site_type_symbol
_atom_site_label
_atom_site_fract_x
_atom_site_fract_y
_atom_site_fract_z
Si Si1 0.094232 0.044951 0.163634
Si Si2 0.748441 0.092486 0.887684
Si Si3 0.943502 0.419228 0.289588
Si Si4 0.483980 0.409226 0.189294
Si Si5 0.059337 0.447610 0.945004
Si Si6 0.236723 0.091260 0.420841
Si Si7 0.198595 0.904349 0.648583
Si Si8 0.286285 0.582054 0.535709
O O1 0.307259 0.225092 0.163098
O O2 0.091418 0.009561 0.288464
O O3 0.148664 0.933738 0.163656
O O4 0.811592 0.011882 0.026401
O O5 0.870194 0.269134 0.901407
O O6 0.437675 0.021120 0.776990
O O7 0.770541 0.482880 0.232137
O O8 0.980477 0.451374 0.180390
O O9 0.784615 0.239790 0.310060
O O10 0.226310 0.506530 0.430554
O O11 0.529424 0.445128 0.311768
O O12 0.357947 0.491419 0.061418
O O13 0.000000 0.500000 0.000000
O O14 0.542706 0.232149 0.475378
O O15 0.076907 0.149399 0.392642
O O16 0.231662 0.969460 0.531347
O O17 0.000000 0.500000 0.500000
#
# Coordination Sequence:
#
# PCOD8015069 Si02
#       8
#     2   2   2   2   2   2   2   2
#     4   9  19  40  70  91 122 175 220 278 313 387
#     4  10  21  42  65  94 127 169 231 265 335 388
#     4  11  22  41  64  94 129 174 220 270 329 392
#     4   9  19  42  64  95 128 162 221 269 327 387
#     4  11  25  42  64  95 129 175 218 274 331 392
#     4  10  23  43  63  97 140 171 220 274 327 400
#     4  11  24  41  63 100 138 179 215 268 338 392
#     4   9  20  41  70  95 125 172 218 273 328 383
#
# _framework density 21.847024999999999
#
# number of rings (size 3 to 8) (size 9 to 14) (size 15 to 20)
#    0.000    2.000    1.250    1.125    5.250    1.500 
#   11.250    0.000    0.000    0.000    0.000    0.000 
#    0.000    0.000    0.000    0.000    0.000    0.000 
#
# Total GULP energy -198250.358291 kJ/mol
# GULP energy per Si atom -12390.647393 kJ/mol
# Density = 2.179730 g / cm^3
# Si number density = 21.847025 Si / 1000 Ang^3
#
#
#
# Elastic Constant Matrix: (Units=GPa)
#
#
# Indices 1 2 3 4 5 6 
#
# 1 79.7241 42.7533 46.3286 -1.0697 -12.3535 1.1565
# 2 42.7533 89.0519 68.6555 -8.5671 -8.6267 1.4649
# 3 46.3286 68.6555 179.4132 7.5735 -26.2204 -0.9427
# 4 -1.0697 -8.5671 7.5735 26.0299 1.3542 -0.8384
# 5 -12.3535 -8.6267 -26.2204 1.3542 41.0489 -0.9612
# 6 1.1565 1.4649 -0.9427 -0.8384 -0.9612 22.4877
#
#
#
# Elastic Compliance Matrix: (Units=1/GPa)
#
#
# Indices 1 2 3 4 5 6 
#
# 1 0.017671 -0.007376 -0.001238 -0.001511 0.003018 -0.000408
# 2 -0.007376 0.020503 -0.006666 0.008480 -0.002473 -0.001025
# 3 -0.001238 -0.006666 0.009303 -0.005150 0.004360 0.000882
# 4 -0.001511 0.008480 -0.005150 0.042844 -0.003358 0.000763
# 5 0.003018 -0.002473 0.004360 -0.003358 0.027674 0.001246
# 6 -0.000408 -0.001025 0.000882 0.000763 0.001246 0.044675
#
#
# Mechanical properties :
#
#
# Convention : Reuss Voigt Hill
#
# Bulk Modulus (GPa) = 59.10812 73.74045 66.42429
# Shear Modulus (GPa) = 25.14211 30.61008 27.87610
#
# Velocity S-wave (km/s) = 3.39606 3.74720 3.57594
# Velocity P-wave (km/s) = 6.51858 7.24903 6.89348
#
# Compressibility (1/GPa) = 0.01691815
#
# Stress axis : x y z
#
# Youngs Moduli (GPa) = 56.58908 48.77411 107.48789
#
# Poissons Ratio (x) = 0.35975 0.13307
# Poissons Ratio (y) = 0.41739 0.71649
# Poissons Ratio (z) = 0.07006 0.32512
#
# Static dielectric constant tensor:
#      x y z
#    x 3.675400 -0.003280 -0.032940 
#    y -0.003280 3.666180 0.116940 
#    z -0.032940 0.116940 4.773580 
# 
# 
# High freq. dielectric constant tensor:
#      x y z
#    x 1.836610 -0.001190 -0.004660 
#    y -0.001190 1.834290 0.006570 
#    z -0.004660 0.006570 1.893650 
# 
# From -- ./inp_files/499079.got.cif
#   From: 2010.06.25/outbox.cif.g09.slc.cpg/sg2_250_cif.got.tgz:499079.got - 2010.06.27 13:26:56.
