data_PCOD8015614
_publ_section_title
;
Structure prediction by ZEFSAII (Michael W. Deem and Ramdas Pophale) SiO2 
 PCOD8015614
Probable space group: P -1
;
_chemical_formula_sum "Si O2"
_cell_formula_units_Z 14
_cell_length_a 9.241241
_cell_length_b 12.103687
_cell_length_c 11.911765
_cell_angle_alpha 71.325239
_cell_angle_beta 40.349144
_cell_angle_gamma 52.249164
_cell_volume 653.584007
_symmetry_space_group_name_H-M "P -1"
_symmetry_group_IT_number 2
_symmetry_cell_setting 'triclinic'
loop_
_space_group_symop_operation_xyz
x,y,z
-x,-y,-z
loop_
_atom_site_type_symbol
_atom_site_label
_atom_site_fract_x
_atom_site_fract_y
_atom_site_fract_z
Si Si1 0.450391 0.370183 0.287661
Si Si2 0.054210 0.714799 0.123118
Si Si3 0.171138 0.423945 0.812775
Si Si4 0.035881 0.296347 0.566933
Si Si5 0.346912 0.144042 0.870615
Si Si6 0.837188 0.315696 0.277346
Si Si7 0.061508 0.114465 0.411653
O O1 0.219067 0.541891 0.367449
O O2 0.616310 0.328269 0.319848
O O3 0.320438 0.281657 0.391668
O O4 0.643110 0.330348 0.077125
O O5 0.999831 0.750594 0.274424
O O6 0.030365 0.582149 0.154217
O O7 0.824619 0.854395 0.136160
O O8 0.424756 0.255606 0.752678
O O9 0.262162 0.521603 0.680467
O O10 0.000000 0.500000 0.000000
O O11 0.042224 0.184760 0.518122
O O12 0.615109 0.981479 0.791125
O O13 0.145497 0.214902 0.074236
O O14 0.849521 0.237845 0.408581
O O15 0.000000 0.000000 0.500000
#
# Coordination Sequence:
#
# PCOD8015614 Si02
#       7
#     2   2   2   2   2   2   2
#     4  10  23  44  66 103 125 174 222 273 337 384
#     4   9  20  42  69  95 133 173 213 275 336 383
#     4   8  16  35  72  97 122 167 224 273 310 387
#     4  11  26  41  65  98 140 166 221 278 329 400
#     4   8  20  42  65  96 127 169 223 261 330 389
#     4  10  21  42  72  92 128 176 227 273 317 391
#     4  12  28  43  60  99 136 177 217 273 336 393
#
# _framework density 21.420352999999999
#
# number of rings (size 3 to 8) (size 9 to 14) (size 15 to 20)
#    0.857    1.429    1.429    0.857    8.000    1.143 
#    5.143    1.429    0.000    0.000    0.000    0.000 
#    0.000    0.000    0.000    0.000    0.000    0.000 
#
# Total GULP energy -173464.613323 kJ/mol
# GULP energy per Si atom -12390.329523 kJ/mol
# Density = 2.137160 g / cm^3
# Si number density = 21.420353 Si / 1000 Ang^3
#
#
#
# Elastic Constant Matrix: (Units=GPa)
#
#
# Indices 1 2 3 4 5 6 
#
# 1 100.4305 26.4768 39.6167 -27.9345 13.3919 9.8695
# 2 26.4768 64.9064 7.6850 -28.8792 5.4975 -0.6720
# 3 39.6167 7.6850 72.8534 -32.1460 0.7948 11.7603
# 4 -27.9345 -28.8792 -32.1460 17.2051 3.0856 -1.6593
# 5 13.3919 5.4975 0.7948 3.0856 34.0626 0.9821
# 6 9.8695 -0.6720 11.7603 -1.6593 0.9821 29.7603
#
#
#
# Elastic Compliance Matrix: (Units=1/GPa)
#
#
# Indices 1 2 3 4 5 6 
#
# 1 0.014559 -0.007442 -0.009805 -0.006650 -0.003652 -0.001372
# 2 -0.007442 -0.000496 -0.017286 -0.045910 0.007381 0.006484
# 3 -0.009805 -0.017286 0.000695 -0.045597 0.010768 -0.000311
# 4 -0.006650 -0.045910 -0.045597 -0.117617 0.021399 0.011923
# 5 -0.003652 0.007381 0.010768 0.021399 0.027487 -0.002591
# 6 -0.001372 0.006484 -0.000311 0.011923 -0.002591 0.035076
#
#
# Mechanical properties :
#
#
# Convention : Reuss Voigt Hill
#
# Bulk Modulus (GPa) = -18.41387 42.86081 12.22347
# Shear Modulus (GPa) = 468.77054 27.16638 247.96846
#
# Velocity S-wave (km/s) = 14.80941 3.56511 10.77099
# Velocity P-wave (km/s) = 16.84665 6.08273 12.66509
#
# Compressibility (1/GPa) = -0.05430689
#
# Stress axis : x y z
#
# Youngs Moduli (GPa) = 68.68683 -2016.56246 1439.32120
#
# Poissons Ratio (x) = -15.00681 14.11251
# Poissons Ratio (y) = 0.51115 24.87946
# Poissons Ratio (z) = 0.67347 -34.85739
#
# Static dielectric constant tensor:
#      x y z
#    x 0.000000 0.000000 0.000000 
#    y 0.000000 0.000000 0.000000 
#    z 0.000000 0.000000 0.000000 
# 
# 
# High freq. dielectric constant tensor:
#      x y z
#    x 1.833760 -0.007420 -0.001130 
#    y -0.007420 1.826110 0.000590 
#    z -0.001130 0.000590 1.848730 
# 
# From -- ./inp_files/392434.got.cif
#   From: 2010.06.25/outbox.cif.g09.slc.cpg/sg2_197_cif.got.tgz:392434.got - 2010.06.27 13:26:56.
