data_PCOD8015282
_publ_section_title
;
Structure prediction by ZEFSAII (Michael W. Deem and Ramdas Pophale) SiO2 
 PCOD8015282
Probable space group: P -1
;
_chemical_formula_sum "Si O2"
_cell_formula_units_Z 14
_cell_length_a 8.519621
_cell_length_b 8.857452
_cell_length_c 11.079880
_cell_angle_alpha 75.869189
_cell_angle_beta 42.503885
_cell_angle_gamma 74.357646
_cell_volume 542.664746
_symmetry_space_group_name_H-M "P -1"
_symmetry_group_IT_number 2
_symmetry_cell_setting 'triclinic'
loop_
_space_group_symop_operation_xyz
x,y,z
-x,-y,-z
loop_
_atom_site_type_symbol
_atom_site_label
_atom_site_fract_x
_atom_site_fract_y
_atom_site_fract_z
Si Si1 0.514399 0.116174 0.079032
Si Si2 0.935362 0.681475 0.972354
Si Si3 0.750881 0.091373 0.190704
Si Si4 0.618174 0.675697 0.516925
Si Si5 0.533548 0.341373 0.663528
Si Si6 0.985438 0.145569 0.733052
Si Si7 0.999463 0.172278 0.343459
O O1 0.622958 0.032647 0.156331
O O2 0.255686 0.204733 0.240978
O O3 0.714454 0.219895 0.899484
O O4 0.500000 0.000000 0.000000
O O5 0.649679 0.722172 0.126636
O O6 0.041093 0.723878 0.774995
O O7 0.000000 0.500000 0.000000
O O8 0.067221 0.784739 0.970814
O O9 0.557095 0.171236 0.377406
O O10 0.897833 0.940347 0.196950
O O11 0.569122 0.518893 0.644628
O O12 0.600612 0.654204 0.388349
O O13 0.877623 0.708836 0.403452
O O14 0.787152 0.232263 0.544051
O O15 0.001535 0.014024 0.642279
#
# Coordination Sequence:
#
# PCOD8015282 Si02
#       7
#     2   2   2   2   2   2   2
#     4  10  23  43  61  90 134 172 215 266 325 384
#     4  11  20  40  70  97 127 168 219 263 320 383
#     4  11  21  40  68  96 126 167 224 269 315 385
#     4  11  21  38  65  99 128 159 219 272 319 378
#     4  11  21  39  66  97 133 166 206 270 326 381
#     4  10  21  42  67  94 124 168 219 273 319 376
#     4  10  23  44  63  96 134 167 216 265 325 385
#
# _framework density 25.798617
#
# number of rings (size 3 to 8) (size 9 to 14) (size 15 to 20)
#    0.000    1.429    4.286    2.571    0.000    2.286 
#    2.571    5.000    0.000    0.000    0.000    0.000 
#    0.000    0.000    0.000    0.000    0.000    0.000 
#
# Total GULP energy -173489.774338 kJ/mol
# GULP energy per Si atom -12392.126738 kJ/mol
# Density = 2.573990 g / cm^3
# Si number density = 25.798617 Si / 1000 Ang^3
#
#
#
# Elastic Constant Matrix: (Units=GPa)
#
#
# Indices 1 2 3 4 5 6 
#
# 1 97.6629 18.9222 22.7907 5.8976 -37.0855 13.6102
# 2 18.9222 60.5290 23.5412 -5.0796 -8.9711 14.5078
# 3 22.7907 23.5412 131.7011 8.7431 -55.6822 13.8764
# 4 5.8976 -5.0796 8.7431 42.8815 0.5592 -13.7579
# 5 -37.0855 -8.9711 -55.6822 0.5592 52.2457 2.3358
# 6 13.6102 14.5078 13.8764 -13.7579 2.3358 26.5718
#
#
#
# Elastic Compliance Matrix: (Units=1/GPa)
#
#
# Indices 1 2 3 4 5 6 
#
# 1 0.028130 -0.002776 0.017752 -0.019891 0.040232 -0.035999
# 2 -0.002776 0.020210 -0.003012 0.001041 -0.001392 -0.007378
# 3 0.017752 -0.003012 0.030044 -0.021882 0.046060 -0.038516
# 4 -0.019891 0.001041 -0.021882 0.046818 -0.039945 0.048799
# 5 0.040232 -0.001392 0.046060 -0.039945 0.100258 -0.073395
# 6 -0.035999 -0.007378 -0.038516 0.048799 -0.073395 0.111933
#
#
# Mechanical properties :
#
#
# Convention : Reuss Voigt Hill
#
# Bulk Modulus (GPa) = 9.77419 46.71124 28.24271
# Shear Modulus (GPa) = 14.38563 39.31571 26.85067
#
# Velocity S-wave (km/s) = 2.36394 3.90801 3.22961
# Velocity P-wave (km/s) = 3.35378 6.20555 4.98782
#
# Compressibility (1/GPa) = 0.10231030
#
# Stress axis : x y z
#
# Youngs Moduli (GPa) = 35.54928 49.48101 33.28456
#
# Poissons Ratio (x) = 0.13736 -0.59086
# Poissons Ratio (y) = 0.09869 0.10027
# Poissons Ratio (z) = -0.63106 0.14906
#
# Static dielectric constant tensor:
#      x y z
#    x 4.955120 0.273710 -0.695820 
#    y 0.273710 4.401770 -0.014700 
#    z -0.695820 -0.014700 5.238120 
# 
# 
# High freq. dielectric constant tensor:
#      x y z
#    x 2.025040 0.017060 -0.028150 
#    y 0.017060 1.996850 0.002320 
#    z -0.028150 0.002320 2.053720 
# 
# From -- ./inp_files/244102.got.cif
#   From: 2010.06.25/outbox.cif.g09.slc.cpg/sg2_123_cif.got.tgz:244102.got - 2010.06.27 13:26:56.
