data_PCOD8015440
_publ_section_title
;
Structure prediction by ZEFSAII (Michael W. Deem and Ramdas Pophale) SiO2 
 PCOD8015440
Probable space group: P -1
;
_chemical_formula_sum "Si O2"
_cell_formula_units_Z 10
_cell_length_a 18.370170
_cell_length_b 12.560079
_cell_length_c 8.889673
_cell_angle_alpha 142.044064
_cell_angle_beta 35.175509
_cell_angle_gamma 161.159736
_cell_volume 380.356656
_symmetry_space_group_name_H-M "P -1"
_symmetry_group_IT_number 2
_symmetry_cell_setting 'triclinic'
loop_
_space_group_symop_operation_xyz
x,y,z
-x,-y,-z
loop_
_atom_site_type_symbol
_atom_site_label
_atom_site_fract_x
_atom_site_fract_y
_atom_site_fract_z
Si Si1 0.783937 0.748608 0.370553
Si Si2 0.285086 0.218768 0.159828
Si Si3 0.296615 0.838122 0.769617
Si Si4 0.683949 0.292510 0.853866
Si Si5 0.089485 0.762134 0.435604
O O1 0.640842 0.617010 0.620539
O O2 0.757587 0.883388 0.452932
O O3 0.678983 0.458189 0.145910
O O4 0.064222 0.061977 0.285315
O O5 0.500000 0.500000 0.000000
O O6 0.226478 0.949055 0.965267
O O7 0.045521 0.440401 0.722308
O O8 0.500000 0.000000 0.500000
O O9 0.409507 0.957010 0.878568
O O10 0.728139 0.176005 0.752084
O O11 0.885912 0.549236 0.670097
#
# Coordination Sequence:
#
# PCOD8015440 Si02
#       5
#     2   2   2   2   2
#     4  11  24  45  73 104 142 192 236 295 360 423
#     4  11  24  45  71 104 143 189 240 296 359 425
#     4  10  21  42  69 102 142 187 233 289 361 416
#     4  10  21  42  69 107 144 187 234 292 356 424
#     4  10  21  42  70 103 147 183 234 295 354 426
#
# _framework density 26.291112999999999
#
# number of rings (size 3 to 8) (size 9 to 14) (size 15 to 20)
#    0.000    1.600    2.000    3.000    0.000    1.600 
#    7.200    1.000    0.000    0.000    0.000    0.000 
#    0.000    0.000    0.000    0.000    0.000    0.000 
#
# Total GULP energy -124041.306086 kJ/mol
# GULP energy per Si atom -12404.130609 kJ/mol
# Density = 2.623127 g / cm^3
# Si number density = 26.291113 Si / 1000 Ang^3
#
#
#
# Elastic Constant Matrix: (Units=GPa)
#
#
# Indices 1 2 3 4 5 6 
#
# 1 172.5393 58.1166 74.9312 7.1685 -11.3833 -5.4553
# 2 58.1166 71.7422 53.7512 0.1095 7.6453 -4.9489
# 3 74.9312 53.7512 155.7467 33.6753 -9.1754 -13.1023
# 4 7.1685 0.1095 33.6753 38.6494 4.6110 0.6470
# 5 -11.3833 7.6453 -9.1754 4.6110 49.6688 2.1828
# 6 -5.4553 -4.9489 -13.1023 0.6470 2.1828 39.2882
#
#
#
# Elastic Compliance Matrix: (Units=1/GPa)
#
#
# Indices 1 2 3 4 5 6 
#
# 1 0.008853 -0.005925 -0.002062 -0.000131 0.002587 -0.000347
# 2 -0.005925 0.026047 -0.008672 0.009520 -0.007846 -0.000155
# 3 -0.002062 -0.008672 0.013497 -0.011921 0.004327 0.003078
# 4 -0.000131 0.009520 -0.011921 0.037145 -0.007013 -0.003017
# 5 0.002587 -0.007846 0.004327 -0.007013 0.023401 -0.000371
# 6 -0.000347 -0.000155 0.003078 -0.003017 -0.000371 0.026482
#
#
# Mechanical properties :
#
#
# Convention : Reuss Voigt Hill
#
# Bulk Modulus (GPa) = 66.32735 85.95847 76.14291
# Shear Modulus (GPa) = 28.77346 39.73656 34.25501
#
# Velocity S-wave (km/s) = 3.31179 3.89190 3.61350
# Velocity P-wave (km/s) = 6.31718 7.27748 6.81427
#
# Compressibility (1/GPa) = 0.01507674
#
# Stress axis : x y z
#
# Youngs Moduli (GPa) = 112.96231 38.39168 74.08827
#
# Poissons Ratio (x) = 0.22748 0.15281
# Poissons Ratio (y) = 0.66934 0.64252
# Poissons Ratio (z) = 0.23298 0.33295
#
# Static dielectric constant tensor:
#      x y z
#    x 5.313480 0.404900 0.043900 
#    y 0.404900 4.530620 -0.050610 
#    z 0.043900 -0.050610 5.207890 
# 
# 
# High freq. dielectric constant tensor:
#      x y z
#    x 2.067330 0.011710 -0.002550 
#    y 0.011710 2.055290 -0.012680 
#    z -0.002550 -0.012680 2.083830 
# 
# From -- ./inp_files/144050.got.cif
#   From: 2010.06.25/outbox.cif.g09.slc.cpg/sg2_73_cif.got.tgz:144050.got - 2010.06.27 13:26:56.
