data_PCOD8015914
_publ_section_title
;
Structure prediction by ZEFSAII (Michael W. Deem and Ramdas Pophale) SiO2 
 PCOD8015914
Probable space group: P -1
;
_chemical_formula_sum "Si O2"
_cell_formula_units_Z 14
_cell_length_a 10.517747
_cell_length_b 11.076846
_cell_length_c 12.115152
_cell_angle_alpha 97.715159
_cell_angle_beta 126.764539
_cell_angle_gamma 125.123398
_cell_volume 631.645247
_symmetry_space_group_name_H-M "P -1"
_symmetry_group_IT_number 2
_symmetry_cell_setting 'triclinic'
loop_
_space_group_symop_operation_xyz
x,y,z
-x,-y,-z
loop_
_atom_site_type_symbol
_atom_site_label
_atom_site_fract_x
_atom_site_fract_y
_atom_site_fract_z
Si Si1 0.624758 0.893361 0.618458
Si Si2 0.472629 0.565000 0.823195
Si Si3 0.304860 0.322575 0.283051
Si Si4 0.913306 0.721751 0.226810
Si Si5 0.277835 0.703614 0.738490
Si Si6 0.971339 0.480721 0.186894
Si Si7 0.759519 0.127049 0.922379
O O1 0.748359 0.853642 0.740785
O O2 0.301429 0.670780 0.397409
O O3 0.691601 0.051137 0.751255
O O4 0.777934 0.023269 0.597846
O O5 0.524921 0.545447 0.726338
O O6 0.174784 0.332167 0.695878
O O7 0.478853 0.713954 0.839173
O O8 0.715031 0.680082 0.045911
O O9 0.500000 0.500000 0.500000
O O10 0.004596 0.197855 0.109357
O O11 0.891872 0.571457 0.148324
O O12 0.184018 0.680041 0.809311
O O13 0.000000 0.500000 0.500000
O O14 0.465748 0.929858 0.812364
O O15 0.861691 0.333146 0.006779
#
# Coordination Sequence:
#
# PCOD8015914 Si02
#       7
#     2   2   2   2   2   2   2
#     4  12  22  43  68  99 131 176 220 276 336 387
#     4  10  21  43  67  94 131 178 217 270 335 391
#     4  12  23  42  71 100 132 167 230 281 326 394
#     4  10  23  41  68  93 138 179 219 265 331 405
#     4  11  21  40  69  96 130 170 221 278 332 384
#     4  11  24  41  62 100 133 175 225 265 331 403
#     4  12  23  39  69  97 135 170 215 283 331 384
#
# _framework density 22.164341
#
# number of rings (size 3 to 8) (size 9 to 14) (size 15 to 20)
#    0.000    0.857    5.714    2.143    0.000    0.571 
#    0.000    0.714    0.000    0.000    0.000    0.000 
#    0.000    0.000    0.000    0.000    0.000    0.000 
#
# Total GULP energy -173574.226470 kJ/mol
# GULP energy per Si atom -12398.159034 kJ/mol
# Density = 2.211389 g / cm^3
# Si number density = 22.164341 Si / 1000 Ang^3
#
#
#
# Elastic Constant Matrix: (Units=GPa)
#
#
# Indices 1 2 3 4 5 6 
#
# 1 83.4517 40.0849 25.1525 17.9556 3.5657 7.8417
# 2 40.0849 99.3563 24.3560 13.7028 3.8274 20.0286
# 3 25.1525 24.3560 78.0915 25.9397 -0.8895 -0.7499
# 4 17.9556 13.7028 25.9397 27.4464 1.8429 9.2118
# 5 3.5657 3.8274 -0.8895 1.8429 39.1651 -3.3329
# 6 7.8417 20.0286 -0.7499 9.2118 -3.3329 47.7339
#
#
#
# Elastic Compliance Matrix: (Units=1/GPa)
#
#
# Indices 1 2 3 4 5 6 
#
# 1 0.016480 -0.005534 -0.001201 -0.007159 -0.000570 0.000938
# 2 -0.005534 0.014011 -0.003166 0.001535 -0.001471 -0.005418
# 3 -0.001201 -0.003166 0.020644 -0.019216 0.002278 0.005718
# 4 -0.007159 0.001535 -0.019216 0.062863 -0.003929 -0.012176
# 5 -0.000570 -0.001471 0.002278 -0.003929 0.026249 0.003337
# 6 0.000938 -0.005418 0.005718 -0.012176 0.003337 0.025741
#
#
# Mechanical properties :
#
#
# Convention : Reuss Voigt Hill
#
# Bulk Modulus (GPa) = 31.91651 48.89846 40.40749
# Shear Modulus (GPa) = 25.47967 34.28948 29.88457
#
# Velocity S-wave (km/s) = 3.39422 3.93753 3.67593
# Velocity P-wave (km/s) = 5.45822 6.54078 6.02387
#
# Compressibility (1/GPa) = 0.03133174
#
# Stress axis : x y z
#
# Youngs Moduli (GPa) = 60.67996 71.37393 48.44096
#
# Poissons Ratio (x) = 0.39497 0.05820
# Poissons Ratio (y) = 0.33580 0.15337
# Poissons Ratio (z) = 0.07290 0.22597
#
# Static dielectric constant tensor:
#      x y z
#    x 4.334110 0.235170 0.204870 
#    y 0.235170 4.336360 0.048680 
#    z 0.204870 0.048680 3.770670 
# 
# 
# High freq. dielectric constant tensor:
#      x y z
#    x 1.877410 0.013530 0.019660 
#    y 0.013530 1.882880 0.001850 
#    z 0.019660 0.001850 1.856710 
# 
# From -- ./inp_files/425922.got.cif
#   From: 2010.06.25/outbox.cif.g09.slc.cpg/sg2_213_cif.got.tgz:425922.got - 2010.06.27 13:26:56.
