data_PCOD8015862
_publ_section_title
;
Structure prediction by ZEFSAII (Michael W. Deem and Ramdas Pophale) SiO2 
 PCOD8015862
Probable space group: P -1
;
_chemical_formula_sum "Si O2"
_cell_formula_units_Z 16
_cell_length_a 8.677514
_cell_length_b 21.393664
_cell_length_c 15.814038
_cell_angle_alpha 17.967061
_cell_angle_beta 123.956086
_cell_angle_gamma 125.405897
_cell_volume 737.802101
_symmetry_space_group_name_H-M "P -1"
_symmetry_group_IT_number 2
_symmetry_cell_setting 'triclinic'
loop_
_space_group_symop_operation_xyz
x,y,z
-x,-y,-z
loop_
_atom_site_type_symbol
_atom_site_label
_atom_site_fract_x
_atom_site_fract_y
_atom_site_fract_z
Si Si1 0.336974 0.105260 0.773659
Si Si2 0.979087 0.419960 0.503141
Si Si3 0.441070 0.715492 0.694099
Si Si4 0.285039 0.885188 0.579005
Si Si5 0.657463 0.702452 0.300987
Si Si6 0.377522 0.849373 0.324286
Si Si7 0.963625 0.149986 0.105053
Si Si8 0.805389 0.068452 0.336768
O O1 0.289320 0.263316 0.626689
O O2 0.436548 0.218119 0.574471
O O3 0.150733 0.946833 0.888963
O O4 0.500000 0.000000 0.000000
O O5 0.159348 0.326551 0.655139
O O6 0.000000 0.500000 0.500000
O O7 0.801901 0.233238 0.683352
O O8 0.950910 0.610381 0.190484
O O9 0.285211 0.727242 0.704842
O O10 0.336074 0.742062 0.540151
O O11 0.632778 0.881787 0.539088
O O12 0.500000 0.500000 0.000000
O O13 0.224983 0.777866 0.791313
O O14 0.500000 0.000000 0.500000
O O15 0.139410 0.038107 0.319063
O O16 0.500000 0.500000 0.500000
O O17 0.590335 0.900981 0.983373
O O18 0.815773 0.149717 0.139251
O O19 0.000000 0.000000 0.500000
#
# Coordination Sequence:
#
# PCOD8015862 Si02
#       8
#     2   2   2   2   2   2   2   2
#     4  10  21  43  66  96 135 175 223 279 325 401
#     4  12  26  41  66 101 136 177 224 272 337 405
#     4  11  24  42  67  99 135 172 219 282 344 391
#     4   9  22  42  68  96 131 171 226 285 328 402
#     4  11  24  44  67  97 134 175 226 277 333 400
#     4  11  24  42  68  96 139 173 219 281 336 399
#     4  11  22  43  72  97 134 186 219 276 344 394
#     4   9  20  43  67  92 128 170 224 276 325 398
#
# _framework density 21.686032000000001
#
# number of rings (size 3 to 8) (size 9 to 14) (size 15 to 20)
#    0.000    1.500    1.250    4.125    8.750    0.000 
#    2.250    2.500    0.000    0.000    0.000    0.000 
#    0.000    0.000    0.000    0.000    0.000    0.000 
#
# Total GULP energy -198222.361450 kJ/mol
# GULP energy per Si atom -12388.897591 kJ/mol
# Density = 2.163667 g / cm^3
# Si number density = 21.686032 Si / 1000 Ang^3
#
#
#
# Elastic Constant Matrix: (Units=GPa)
#
#
# Indices 1 2 3 4 5 6 
#
# 1 133.8025 42.1423 29.5889 -1.4761 8.9043 -31.6376
# 2 42.1423 117.7052 30.8379 5.3219 -1.5538 -18.6276
# 3 29.5889 30.8379 101.2536 -1.6778 -2.3787 -18.6560
# 4 -1.4761 5.3219 -1.6778 28.8458 4.6626 -4.6493
# 5 8.9043 -1.5538 -2.3787 4.6626 26.4313 0.4152
# 6 -31.6376 -18.6276 -18.6560 -4.6493 0.4152 63.2551
#
#
#
# Elastic Compliance Matrix: (Units=1/GPa)
#
#
# Indices 1 2 3 4 5 6 
#
# 1 0.009850 -0.002695 -0.001396 0.002205 -0.004053 0.003910
# 2 -0.002695 0.010297 -0.002188 -0.002303 0.001709 0.000858
# 3 -0.001396 -0.002188 0.011381 0.001149 0.001130 0.002091
# 4 0.002205 -0.002303 0.001149 0.037031 -0.007363 0.003534
# 5 -0.004053 0.001709 0.001130 -0.007363 0.040732 -0.001999
# 6 0.003910 0.000858 0.002091 0.003534 -0.001999 0.018907
#
#
# Mechanical properties :
#
#
# Convention : Reuss Voigt Hill
#
# Bulk Modulus (GPa) = 52.71686 61.98884 57.35285
# Shear Modulus (GPa) = 33.99526 40.38593 37.19059
#
# Velocity S-wave (km/s) = 3.96360 4.32012 4.14570
# Velocity P-wave (km/s) = 6.73118 7.31651 7.02994
#
# Compressibility (1/GPa) = 0.01896926
#
# Stress axis : x y z
#
# Youngs Moduli (GPa) = 101.52521 97.11941 87.86266
#
# Poissons Ratio (x) = 0.26177 0.12263
# Poissons Ratio (y) = 0.27364 0.19226
# Poissons Ratio (z) = 0.14170 0.21251
#
# Static dielectric constant tensor:
#      x y z
#    x 4.738400 -0.399640 -0.373160 
#    y -0.399640 4.523140 -0.151930 
#    z -0.373160 -0.151930 3.926970 
# 
# 
# High freq. dielectric constant tensor:
#      x y z
#    x 1.876400 -0.012480 -0.008090 
#    y -0.012480 1.870800 0.010730 
#    z -0.008090 0.010730 1.815550 
# 
# From -- ./inp_files/508092.got.cif
#   From: 2010.06.25/outbox.cif.g09.slc.cpg/sg2_255_cif.got.tgz:508092.got - 2010.06.27 13:26:56.
