data_PCOD8015111
_publ_section_title
;
Structure prediction by ZEFSAII (Michael W. Deem and Ramdas Pophale) SiO2 
 PCOD8015111
Probable space group: P -1
;
_chemical_formula_sum "Si O2"
_cell_formula_units_Z 14
_cell_length_a 5.174891
_cell_length_b 8.353005
_cell_length_c 13.099130
_cell_angle_alpha 90.570138
_cell_angle_beta 98.838894
_cell_angle_gamma 79.473248
_cell_volume 549.985074
_symmetry_space_group_name_H-M "P -1"
_symmetry_group_IT_number 2
_symmetry_cell_setting 'triclinic'
loop_
_space_group_symop_operation_xyz
x,y,z
-x,-y,-z
loop_
_atom_site_type_symbol
_atom_site_label
_atom_site_fract_x
_atom_site_fract_y
_atom_site_fract_z
Si Si1 0.275006 0.122899 0.927791
Si Si2 0.152930 0.854371 0.805011
Si Si3 0.145260 0.419797 0.253758
Si Si4 0.699789 0.134132 0.606604
Si Si5 0.467098 0.828483 0.625076
Si Si6 0.214423 0.260886 0.712697
Si Si7 0.625495 0.613172 0.933806
O O1 0.365211 0.195472 0.826311
O O2 0.059581 0.013119 0.875082
O O3 0.177274 0.282354 0.994006
O O4 0.500000 0.000000 0.000000
O O5 0.263969 0.905154 0.702698
O O6 0.392400 0.740344 0.873404
O O7 0.915302 0.758315 0.778330
O O8 0.393332 0.360765 0.345173
O O9 0.222062 0.493611 0.150384
O O10 0.904965 0.544866 0.288563
O O11 0.708525 0.171872 0.487257
O O12 0.432157 0.243840 0.637022
O O13 0.963435 0.173469 0.674702
O O14 0.686868 0.944681 0.624065
O O15 0.500000 0.500000 0.000000
#
# Coordination Sequence:
#
# PCOD8015111 Si02
#       7
#     2   2   2   2   2   2   2
#     4  10  22  44  70  99 142 186 242 296 355 430
#     4  10  21  42  66 100 138 183 241 288 356 425
#     4  11  26  42  71 104 146 190 234 305 355 437
#     4  11  27  47  75 107 143 193 242 299 353 434
#     4  10  24  45  74 102 145 188 241 295 362 422
#     4  12  27  46  72 108 147 186 243 297 361 427
#     4  10  23  41  66  99 138 185 236 293 359 421
#
# _framework density 25.455238000000001
#
# number of rings (size 3 to 8) (size 9 to 14) (size 15 to 20)
#    0.000    1.429    1.429    1.714    8.000    5.143 
#    2.571    0.000    0.000    0.000    0.000    0.000 
#    0.000    0.000    0.000    0.000    0.000    0.000 
#
# Total GULP energy -173438.337619 kJ/mol
# GULP energy per Si atom -12388.452687 kJ/mol
# Density = 2.539730 g / cm^3
# Si number density = 25.455238 Si / 1000 Ang^3
#
#
#
# Elastic Constant Matrix: (Units=GPa)
#
#
# Indices 1 2 3 4 5 6 
#
# 1 77.7022 22.6078 36.3886 -11.7012 -2.1876 -3.9271
# 2 22.6078 98.3978 58.5853 -0.8933 3.0424 -8.0600
# 3 36.3886 58.5853 159.3965 -19.3667 -3.6529 -4.7474
# 4 -11.7012 -0.8933 -19.3667 31.6890 4.2719 -5.7804
# 5 -2.1876 3.0424 -3.6529 4.2719 29.8622 5.4861
# 6 -3.9271 -8.0600 -4.7474 -5.7804 5.4861 36.2507
#
#
#
# Elastic Compliance Matrix: (Units=1/GPa)
#
#
# Indices 1 2 3 4 5 6 
#
# 1 0.015233 -0.002072 -0.002111 0.004556 0.000119 0.001621
# 2 -0.002072 0.013772 -0.004904 -0.002703 -0.002152 0.002090
# 3 -0.002111 -0.004904 0.009158 0.004680 0.000700 0.000521
# 4 0.004556 -0.002703 0.004680 0.038141 -0.005642 0.007441
# 5 0.000119 -0.002152 0.000700 -0.005642 0.035838 -0.006697
# 6 0.001621 0.002090 0.000521 0.007441 -0.006697 0.030494
#
#
# Mechanical properties :
#
#
# Convention : Reuss Voigt Hill
#
# Bulk Modulus (GPa) = 50.03145 63.40664 56.71905
# Shear Modulus (GPa) = 29.85532 34.08801 31.97167
#
# Velocity S-wave (km/s) = 3.42841 3.66339 3.54785
# Velocity P-wave (km/s) = 5.94722 6.54653 6.25406
#
# Compressibility (1/GPa) = 0.01998743
#
# Stress axis : x y z
#
# Youngs Moduli (GPa) = 65.64850 72.61049 109.19036
#
# Poissons Ratio (x) = 0.15047 0.23053
# Poissons Ratio (y) = 0.13605 0.53550
# Poissons Ratio (z) = 0.13860 0.35610
#
# Static dielectric constant tensor:
#      x y z
#    x 4.070100 0.029860 0.186650 
#    y 0.029860 4.754820 0.218560 
#    z 0.186650 0.218560 5.224830 
# 
# 
# High freq. dielectric constant tensor:
#      x y z
#    x 1.983540 -0.001410 0.011510 
#    y -0.001410 2.028390 -0.011440 
#    z 0.011510 -0.011440 2.036760 
# 
# From -- ./inp_files/27906.got.cif
#   From: 2010.06.25/outbox.cif.g09.slc.cpg/sg2_14_cif.got.tgz:27906.got - 2010.06.27 13:26:56.
