data_PCOD8015246
_publ_section_title
;
Structure prediction by ZEFSAII (Michael W. Deem and Ramdas Pophale) SiO2 
 PCOD8015246
Probable space group: P -1
;
_chemical_formula_sum "Si O2"
_cell_formula_units_Z 12
_cell_length_a 10.537768
_cell_length_b 13.982411
_cell_length_c 8.276470
_cell_angle_alpha 136.925694
_cell_angle_beta 120.692579
_cell_angle_gamma 33.977856
_cell_volume 450.706056
_symmetry_space_group_name_H-M "P -1"
_symmetry_group_IT_number 2
_symmetry_cell_setting 'triclinic'
loop_
_space_group_symop_operation_xyz
x,y,z
-x,-y,-z
loop_
_atom_site_type_symbol
_atom_site_label
_atom_site_fract_x
_atom_site_fract_y
_atom_site_fract_z
Si Si1 0.650838 0.008272 0.977794
Si Si2 0.825547 0.157514 0.436518
Si Si3 0.540759 0.399089 0.069407
Si Si4 0.094931 0.440968 0.308466
Si Si5 0.371407 0.224844 0.774972
Si Si6 0.946081 0.227254 0.297016
O O1 0.697537 0.830626 0.893263
O O2 0.814217 0.900855 0.790683
O O3 0.392551 0.198530 0.955134
O O4 0.697684 0.107600 0.242184
O O5 0.628346 0.414715 0.673537
O O6 0.981250 0.115145 0.346348
O O7 0.000000 0.000000 0.500000
O O8 0.807199 0.228088 0.086259
O O9 0.500000 0.500000 0.000000
O O10 0.505895 0.262382 0.848680
O O11 0.198226 0.521583 0.451684
O O12 0.000000 0.500000 0.500000
O O13 0.897714 0.560396 0.190621
O O14 0.500000 0.000000 0.500000
#
# Coordination Sequence:
#
# PCOD8015246 Si02
#       6
#     2   2   2   2   2   2
#     4  11  24  45  75 106 142 188 234 286 358 424
#     4  12  26  46  70 104 145 185 238 295 350 420
#     4  12  27  45  73 100 138 185 242 294 353 414
#     4  10  21  42  67 107 144 182 234 285 346 424
#     4  12  23  41  74 101 142 184 232 284 355 415
#     4  11  23  44  71 103 143 181 233 293 347 416
#
# _framework density 26.624890000000001
#
# number of rings (size 3 to 8) (size 9 to 14) (size 15 to 20)
#    0.000    0.667    5.000    5.000    2.333    0.000 
#    0.000    5.833    0.000    0.000    0.000    0.000 
#    0.000    0.000    0.000    0.000    0.000    0.000 
#
# Total GULP energy -148792.480802 kJ/mol
# GULP energy per Si atom -12399.373400 kJ/mol
# Density = 2.656429 g / cm^3
# Si number density = 26.624890 Si / 1000 Ang^3
#
#
#
# Elastic Constant Matrix: (Units=GPa)
#
#
# Indices 1 2 3 4 5 6 
#
# 1 74.0609 51.4360 40.9104 -4.2913 25.5606 40.5788
# 2 51.4360 214.6723 60.7920 -25.6095 -0.7451 20.4886
# 3 40.9104 60.7920 157.3792 -4.4977 40.5365 15.2187
# 4 -4.2913 -25.6095 -4.4977 57.8141 7.5077 -1.5653
# 5 25.5606 -0.7451 40.5365 7.5077 52.2099 2.0706
# 6 40.5788 20.4886 15.2187 -1.5653 2.0706 54.6191
#
#
#
# Elastic Compliance Matrix: (Units=1/GPa)
#
#
# Indices 1 2 3 4 5 6 
#
# 1 0.038228 -0.006535 -0.000367 0.001538 -0.017748 -0.025130
# 2 -0.006535 0.006872 -0.002412 0.001825 0.004795 0.002820
# 3 -0.000367 -0.002412 0.009346 0.000528 -0.007142 -0.001141
# 4 0.001538 0.001825 0.000528 0.018716 -0.003777 -0.001295
# 5 -0.017748 0.004795 -0.007142 -0.003777 0.033523 0.011997
# 6 -0.025130 0.002820 -0.001141 -0.001295 0.011997 0.035747
#
#
# Mechanical properties :
#
#
# Convention : Reuss Voigt Hill
#
# Bulk Modulus (GPa) = 27.91904 83.59878 55.75891
# Shear Modulus (GPa) = 28.90193 52.46024 40.68109
#
# Velocity S-wave (km/s) = 3.29830 4.44367 3.91312
# Velocity P-wave (km/s) = 5.00139 7.60232 6.43464
#
# Compressibility (1/GPa) = 0.03581785
#
# Stress axis : x y z
#
# Youngs Moduli (GPa) = 26.15914 145.51333 106.99801
#
# Poissons Ratio (x) = 0.95093 0.03932
# Poissons Ratio (y) = 0.17095 0.25803
# Poissons Ratio (z) = 0.00961 0.35091
#
# Static dielectric constant tensor:
#      x y z
#    x 4.599890 0.034420 -0.273270 
#    y 0.034420 5.365280 0.077260 
#    z -0.273270 0.077260 5.081030 
# 
# 
# High freq. dielectric constant tensor:
#      x y z
#    x 2.080320 0.015250 0.003480 
#    y 0.015250 2.092440 0.007980 
#    z 0.003480 0.007980 2.091300 
# 
# From -- ./inp_files/274748.got.cif
#   From: 2010.06.25/outbox.cif.g09.slc.cpg/sg2_138_cif.got.tgz:274748.got - 2010.06.27 13:26:56.
