data_PCOD8015175
_publ_section_title
;
Structure prediction by ZEFSAII (Michael W. Deem and Ramdas Pophale) SiO2 
 PCOD8015175
Probable space group: P -1
;
_chemical_formula_sum "Si O2"
_cell_formula_units_Z 14
_cell_length_a 4.861964
_cell_length_b 15.022559
_cell_length_c 9.711034
_cell_angle_alpha 64.939689
_cell_angle_beta 101.749320
_cell_angle_gamma 104.950994
_cell_volume 617.146133
_symmetry_space_group_name_H-M "P -1"
_symmetry_group_IT_number 2
_symmetry_cell_setting 'triclinic'
loop_
_space_group_symop_operation_xyz
x,y,z
-x,-y,-z
loop_
_atom_site_type_symbol
_atom_site_label
_atom_site_fract_x
_atom_site_fract_y
_atom_site_fract_z
Si Si1 0.153424 0.219071 0.869317
Si Si2 0.993962 0.955175 0.681481
Si Si3 0.953969 0.164011 0.596006
Si Si4 0.590226 0.794066 0.612424
Si Si5 0.632619 0.097868 0.033526
Si Si6 0.183855 0.396023 0.952493
Si Si7 0.241510 0.612879 0.856439
O O1 0.463681 0.189328 0.941734
O O2 0.112178 0.323295 0.863522
O O3 0.072845 0.231557 0.693992
O O4 0.943427 0.128555 0.978199
O O5 0.722227 0.861340 0.714650
O O6 0.861380 0.785256 0.549497
O O7 0.964767 0.049090 0.713130
O O8 0.000000 0.000000 0.500000
O O9 0.618445 0.155660 0.536963
O O10 0.394024 0.690619 0.708131
O O11 0.288274 0.921797 0.784727
O O12 0.500000 0.000000 0.000000
O O13 0.110918 0.505743 0.840743
O O14 0.522125 0.407511 0.998434
O O15 0.008097 0.350195 0.103398
#
# Coordination Sequence:
#
# PCOD8015175 Si02
#       7
#     2   2   2   2   2   2   2
#     4  12  25  42  65  94 136 168 221 261 340 381
#     4  10  24  41  63  91 130 173 222 265 321 381
#     4  11  24  41  61  92 132 176 215 270 317 398
#     4  11  23  41  65  92 126 174 222 267 328 382
#     4  12  25  42  65  92 133 177 218 270 318 398
#     4  10  22  40  66  95 125 166 206 280 331 385
#     4  10  21  42  66  94 126 159 222 269 330 388
#
# _framework density 22.685064000000001
#
# number of rings (size 3 to 8) (size 9 to 14) (size 15 to 20)
#    0.000    1.143    1.429    4.286    2.000    5.714 
#    0.000    1.429    0.000    0.000    0.000    0.000 
#    0.000    0.000    0.000    0.000    0.000    0.000 
#
# Total GULP energy -173498.039888 kJ/mol
# GULP energy per Si atom -12392.717135 kJ/mol
# Density = 2.263343 g / cm^3
# Si number density = 22.685064 Si / 1000 Ang^3
#
#
#
# Elastic Constant Matrix: (Units=GPa)
#
#
# Indices 1 2 3 4 5 6 
#
# 1 86.8239 24.6635 30.2623 16.9566 9.8902 3.6647
# 2 24.6635 153.4607 57.3128 22.1860 -5.1268 1.3161
# 3 30.2623 57.3128 98.3160 21.8629 12.5356 7.1581
# 4 16.9566 22.1860 21.8629 32.4704 7.1685 -6.4475
# 5 9.8902 -5.1268 12.5356 7.1685 41.8385 2.7143
# 6 3.6647 1.3161 7.1581 -6.4475 2.7143 30.5173
#
#
#
# Elastic Compliance Matrix: (Units=1/GPa)
#
#
# Indices 1 2 3 4 5 6 
#
# 1 0.013812 -0.000609 -0.002377 -0.005250 -0.001596 -0.002042
# 2 -0.000609 0.008965 -0.004675 -0.003421 0.003244 -0.000228
# 3 -0.002377 -0.004675 0.015763 -0.006271 -0.003385 -0.004234
# 4 -0.005250 -0.003421 -0.006271 0.043706 -0.005565 0.011978
# 5 -0.001596 0.003244 -0.003385 -0.005565 0.026820 -0.002716
# 6 -0.002042 -0.000228 -0.004234 0.011978 -0.002716 0.036789
#
#
# Mechanical properties :
#
#
# Convention : Reuss Voigt Hill
#
# Bulk Modulus (GPa) = 43.06981 62.56422 52.81702
# Shear Modulus (GPa) = 29.60063 36.05603 32.82833
#
# Velocity S-wave (km/s) = 3.61619 3.99107 3.80825
# Velocity P-wave (km/s) = 6.03846 6.99125 6.53225
#
# Compressibility (1/GPa) = 0.02321812
#
# Stress axis : x y z
#
# Youngs Moduli (GPa) = 72.39952 111.54350 63.44164
#
# Poissons Ratio (x) = 0.06792 0.15080
# Poissons Ratio (y) = 0.04409 0.29658
# Poissons Ratio (z) = 0.17210 0.52146
#
# Static dielectric constant tensor:
#      x y z
#    x 4.499990 0.202960 0.260840 
#    y 0.202960 4.546350 0.261560 
#    z 0.260840 0.261560 3.980910 
# 
# 
# High freq. dielectric constant tensor:
#      x y z
#    x 1.910960 0.007440 0.002910 
#    y 0.007440 1.893600 0.005580 
#    z 0.002910 0.005580 1.872920 
# 
# From -- ./inp_files/135172.got.cif
#   From: 2010.06.25/outbox.cif.g09.slc.cpg/sg2_68_cif.got.tgz:135172.got - 2010.06.27 13:26:56.
