data_PCOD8015354
_publ_section_title
;
Structure prediction by ZEFSAII (Michael W. Deem and Ramdas Pophale) SiO2 
 PCOD8015354
Probable space group: P -1
;
_chemical_formula_sum "Si O2"
_cell_formula_units_Z 16
_cell_length_a 17.148397
_cell_length_b 8.668872
_cell_length_c 16.846610
_cell_angle_alpha 99.057798
_cell_angle_beta 18.192542
_cell_angle_gamma 108.780279
_cell_volume 640.186893
_symmetry_space_group_name_H-M "P -1"
_symmetry_group_IT_number 2
_symmetry_cell_setting 'triclinic'
loop_
_space_group_symop_operation_xyz
x,y,z
-x,-y,-z
loop_
_atom_site_type_symbol
_atom_site_label
_atom_site_fract_x
_atom_site_fract_y
_atom_site_fract_z
Si Si1 0.251387 0.957101 0.002454
Si Si2 0.077941 0.679941 0.838427
Si Si3 0.854033 0.736105 0.903489
Si Si4 0.309273 0.348359 0.399800
Si Si5 0.427279 0.744778 0.726976
Si Si6 0.229441 0.397014 0.314299
Si Si7 0.646224 0.715593 0.360265
Si Si8 0.828695 0.273896 0.553938
O O1 0.089667 0.059599 0.139731
O O2 0.511477 0.086377 0.824463
O O3 0.022782 0.756947 0.250345
O O4 0.365985 0.908477 0.808333
O O5 0.072090 0.737861 0.758508
O O6 0.419969 0.751611 0.533531
O O7 0.866899 0.452565 0.035454
O O8 0.956336 0.785667 0.018413
O O9 0.922920 0.681031 0.748225
O O10 0.500997 0.574352 0.250037
O O11 0.481447 0.271602 0.273568
O O12 0.285852 0.296351 0.324297
O O13 0.693150 0.810918 0.409811
O O14 0.188049 0.545774 0.411868
O O15 0.934754 0.247445 0.535801
O O16 0.500000 0.500000 0.000000
O O17 0.500000 0.500000 0.500000
#
# Coordination Sequence:
#
# PCOD8015354 Si02
#       8
#     2   2   2   2   2   2   2   2
#     4  12  26  44  69 110 146 190 246 310 359 450
#     4  10  24  40  77 105 147 203 256 300 384 437
#     4  11  25  47  71 105 150 193 243 307 372 445
#     4  11  25  43  74 103 138 195 238 294 381 440
#     4  10  24  38  70 102 148 188 249 299 371 441
#     4  11  23  45  76 103 140 186 244 300 368 446
#     4  10  21  42  68 113 147 198 251 317 362 450
#     4  11  24  44  73 102 145 189 234 310 368 437
#
# _framework density 24.992702999999999
#
# number of rings (size 3 to 8) (size 9 to 14) (size 15 to 20)
#    0.000    1.250    2.500    2.250   12.250    0.500 
#    0.000    5.625    0.000    0.000    0.000    0.000 
#    0.000    0.000    0.000    0.000    0.000    0.000 
#
# Total GULP energy -198323.471204 kJ/mol
# GULP energy per Si atom -12395.216950 kJ/mol
# Density = 2.493582 g / cm^3
# Si number density = 24.992703 Si / 1000 Ang^3
#
#
#
# Elastic Constant Matrix: (Units=GPa)
#
#
# Indices 1 2 3 4 5 6 
#
# 1 159.6530 63.4871 33.0723 12.7844 -4.6609 -0.9079
# 2 63.4871 114.8283 48.0856 34.5816 14.8578 21.8158
# 3 33.0723 48.0856 92.6119 9.9354 -3.5029 0.2317
# 4 12.7844 34.5816 9.9354 45.0855 1.9741 5.7684
# 5 -4.6609 14.8578 -3.5029 1.9741 33.8922 10.0419
# 6 -0.9079 21.8158 0.2317 5.7684 10.0419 26.2761
#
#
#
# Elastic Compliance Matrix: (Units=1/GPa)
#
#
# Indices 1 2 3 4 5 6 
#
# 1 0.008868 -0.006807 0.000252 0.001958 0.002795 0.004458
# 2 -0.006807 0.023273 -0.008611 -0.011901 -0.007146 -0.014138
# 3 0.000252 -0.008611 0.015049 0.002405 0.003721 0.005075
# 4 0.001958 -0.011901 0.002405 0.029808 0.003379 0.002093
# 5 0.002795 -0.007146 0.003721 0.003379 0.035695 -0.008386
# 6 0.004458 -0.014138 0.005075 0.002093 -0.008386 0.052650
#
#
# Mechanical properties :
#
#
# Convention : Reuss Voigt Hill
#
# Bulk Modulus (GPa) = 59.31940 72.93144 66.12542
# Shear Modulus (GPa) = 24.83916 35.88064 30.35990
#
# Velocity S-wave (km/s) = 3.15597 3.79310 3.48911
# Velocity P-wave (km/s) = 6.08822 6.95902 6.53813
#
# Compressibility (1/GPa) = 0.01685789
#
# Stress axis : x y z
#
# Youngs Moduli (GPa) = 112.76033 42.96833 66.45006
#
# Poissons Ratio (x) = 0.29248 -0.01673
# Poissons Ratio (y) = 0.76754 0.57221
# Poissons Ratio (z) = -0.02839 0.37000
#
# Static dielectric constant tensor:
#      x y z
#    x 4.953970 0.202910 0.006960 
#    y 0.202910 4.407530 0.189600 
#    z 0.006960 0.189600 4.533080 
# 
# 
# High freq. dielectric constant tensor:
#      x y z
#    x 2.011810 0.010100 -0.010310 
#    y 0.010100 1.977920 0.010060 
#    z -0.010310 0.010060 1.990380 
# 
# From -- ./inp_files/575422.got.cif
#   From: 2010.06.25/outbox.cif.g09.slc.cpg/sg2_288_cif.got.tgz:575422.got - 2010.06.27 13:26:56.
