data_PCOD8015651
_publ_section_title
;
Structure prediction by ZEFSAII (Michael W. Deem and Ramdas Pophale) SiO2 
 PCOD8015651
Probable space group: P -1
;
_chemical_formula_sum "Si O2"
_cell_formula_units_Z 12
_cell_length_a 14.189333
_cell_length_b 17.624044
_cell_length_c 5.285904
_cell_angle_alpha 125.254341
_cell_angle_beta 62.868180
_cell_angle_gamma 153.007718
_cell_volume 483.824762
_symmetry_space_group_name_H-M "P -1"
_symmetry_group_IT_number 2
_symmetry_cell_setting 'triclinic'
loop_
_space_group_symop_operation_xyz
x,y,z
-x,-y,-z
loop_
_atom_site_type_symbol
_atom_site_label
_atom_site_fract_x
_atom_site_fract_y
_atom_site_fract_z
Si Si1 0.394487 0.776563 0.112873
Si Si2 0.783973 0.022272 0.816616
Si Si3 0.803096 0.663970 0.830459
Si Si4 0.785691 0.853640 0.127037
Si Si5 0.328588 0.906253 0.222295
Si Si6 0.654325 0.452149 0.105575
O O1 0.238486 0.742129 0.144842
O O2 0.563756 0.947097 0.422424
O O3 0.263440 0.591849 0.038613
O O4 0.536886 0.841367 0.836275
O O5 0.843282 0.159254 0.835074
O O6 0.826625 0.959864 0.496786
O O7 0.941599 0.143714 0.096502
O O8 0.741236 0.582978 0.471984
O O9 0.717067 0.703465 0.048929
O O10 0.714706 0.532801 0.909124
O O11 0.601364 0.745572 0.951453
O O12 0.000000 0.000000 0.000000
O O13 0.500000 0.000000 0.000000
#
# Coordination Sequence:
#
# PCOD8015651 Si02
#       6
#     2   2   2   2   2   2
#     4  10  21  42  74 100 128 183 235 286 338 413
#     4  11  23  44  70 101 136 183 239 287 329 411
#     4  12  28  43  67 105 149 184 223 285 355 409
#     4  12  25  47  73 101 134 191 243 278 327 413
#     4   9  20  40  74 100 128 168 247 286 335 396
#     4  12  26  46  68 102 147 181 223 289 360 406
#
# _framework density 24.802365999999999
#
# number of rings (size 3 to 8) (size 9 to 14) (size 15 to 20)
#    0.000    1.000    1.667    4.500    4.667    2.667 
#    0.000    1.667    0.000    0.000    0.000    0.000 
#    0.000    0.000    0.000    0.000    0.000    0.000 
#
# Total GULP energy -148752.765919 kJ/mol
# GULP energy per Si atom -12396.063827 kJ/mol
# Density = 2.474592 g / cm^3
# Si number density = 24.802366 Si / 1000 Ang^3
#
#
#
# Elastic Constant Matrix: (Units=GPa)
#
#
# Indices 1 2 3 4 5 6 
#
# 1 116.3857 -1.3152 17.6911 22.8348 -17.1176 -32.3780
# 2 -1.3152 46.7359 20.4966 5.2184 -10.8264 -20.3323
# 3 17.6911 20.4966 88.2624 4.4849 -9.6110 -3.0424
# 4 22.8348 5.2184 4.4849 34.3799 -2.5969 -0.0861
# 5 -17.1176 -10.8264 -9.6110 -2.5969 51.5223 17.2198
# 6 -32.3780 -20.3323 -3.0424 -0.0861 17.2198 46.1168
#
#
#
# Elastic Compliance Matrix: (Units=1/GPa)
#
#
# Indices 1 2 3 4 5 6 
#
# 1 0.016036 0.010544 -0.004437 -0.011555 0.001053 0.015200
# 2 0.010544 0.037183 -0.009236 -0.011275 0.001466 0.022619
# 3 -0.004437 -0.009236 0.014175 0.002608 0.001655 -0.006865
# 4 -0.011555 -0.011275 0.002608 0.038143 0.000562 -0.013050
# 5 0.001053 0.001466 0.001655 0.000562 0.022742 -0.006996
# 6 0.015200 0.022619 -0.006865 -0.013050 -0.006996 0.044463
#
#
# Mechanical properties :
#
#
# Convention : Reuss Voigt Hill
#
# Bulk Modulus (GPa) = 16.35686 36.12543 26.24114
# Shear Modulus (GPa) = 25.07790 40.70458 32.89124
#
# Velocity S-wave (km/s) = 3.18324 4.05551 3.64556
# Velocity P-wave (km/s) = 4.48552 6.04372 5.32196
#
# Compressibility (1/GPa) = 0.06113641
#
# Stress axis : x y z
#
# Youngs Moduli (GPa) = 62.35826 26.89422 70.54611
#
# Poissons Ratio (x) = -0.28358 0.31302
# Poissons Ratio (y) = -0.65752 0.65156
# Poissons Ratio (z) = 0.27669 0.24839
#
# Static dielectric constant tensor:
#      x y z
#    x 5.541650 -0.425780 -0.233290 
#    y -0.425780 4.115290 0.306840 
#    z -0.233290 0.306840 4.130500 
# 
# 
# High freq. dielectric constant tensor:
#      x y z
#    x 2.019960 -0.024320 -0.010150 
#    y -0.024320 1.957480 0.000700 
#    z -0.010150 0.000700 1.988760 
# 
# From -- ./inp_files/64209.got.cif
#   From: 2010.06.25/outbox.cif.g09.slc.cpg/sg2_33_cif.got.tgz:64209.got - 2010.06.27 13:26:56.
