data_PCOD8015179
_publ_section_title
;
Structure prediction by ZEFSAII (Michael W. Deem and Ramdas Pophale) SiO2 
 PCOD8015179
Probable space group: P -1
;
_chemical_formula_sum "Si O2"
_cell_formula_units_Z 16
_cell_length_a 12.460308
_cell_length_b 10.001632
_cell_length_c 18.757232
_cell_angle_alpha 87.297400
_cell_angle_beta 125.082641
_cell_angle_gamma 140.603029
_cell_volume 782.820319
_symmetry_space_group_name_H-M "P -1"
_symmetry_group_IT_number 2
_symmetry_cell_setting 'triclinic'
loop_
_space_group_symop_operation_xyz
x,y,z
-x,-y,-z
loop_
_atom_site_type_symbol
_atom_site_label
_atom_site_fract_x
_atom_site_fract_y
_atom_site_fract_z
Si Si1 0.928917 0.784085 0.327069
Si Si2 0.651693 0.264293 0.012749
Si Si3 0.779877 0.657711 0.109855
Si Si4 0.770797 0.226980 0.541055
Si Si5 0.294770 0.943189 0.736716
Si Si6 0.102207 0.180547 0.467103
Si Si7 0.431461 0.263010 0.265989
Si Si8 0.609752 0.078903 0.738099
O O1 0.901153 0.779336 0.233159
O O2 0.594080 0.488321 0.253448
O O3 0.085592 0.787036 0.400033
O O4 0.166540 0.126791 0.433016
O O5 0.616735 0.362208 0.045286
O O6 0.019823 0.568509 0.144056
O O7 0.500000 0.000000 0.000000
O O8 0.476547 0.131605 0.875404
O O9 0.500000 0.500000 0.000000
O O10 0.054562 0.939689 0.146649
O O11 0.029697 0.581201 0.647389
O O12 0.500000 0.000000 0.500000
O O13 0.619435 0.095896 0.409348
O O14 0.159710 0.960035 0.659531
O O15 0.562485 0.144194 0.779235
O O16 0.407608 0.549726 0.600982
O O17 0.000000 0.000000 0.500000
O O18 0.490048 0.163113 0.271370
#
# Coordination Sequence:
#
# PCOD8015179 Si02
#       8
#     2   2   2   2   2   2   2   2
#     4  11  23  42  67  95 132 170 218 274 328 390
#     4  11  25  44  61  96 135 164 221 277 326 393
#     4  11  25  46  64  89 131 177 221 261 333 401
#     4  12  23  40  69 101 129 171 221 268 334 398
#     4  12  22  41  69  95 131 174 216 273 329 391
#     4  10  22  40  64 101 131 161 225 274 321 392
#     4  10  21  42  66  94 129 170 214 275 322 392
#     4  11  21  40  67  95 129 172 214 263 336 391
#
# _framework density 20.438917
#
# number of rings (size 3 to 8) (size 9 to 14) (size 15 to 20)
#    0.000    1.000    2.500    6.000    0.000    1.000 
#    9.000    0.000    0.000    0.000    0.000    0.000 
#    0.000    0.000    0.000    0.000    0.000    0.000 
#
# Total GULP energy -198269.507617 kJ/mol
# GULP energy per Si atom -12391.844226 kJ/mol
# Density = 2.039240 g / cm^3
# Si number density = 20.438917 Si / 1000 Ang^3
#
#
#
# Elastic Constant Matrix: (Units=GPa)
#
#
# Indices 1 2 3 4 5 6 
#
# 1 137.2059 53.4863 46.7597 -2.8584 2.9296 -13.0255
# 2 53.4863 113.4663 61.2622 -8.6704 15.3008 -15.1578
# 3 46.7597 61.2622 137.6586 -16.7383 5.6423 -13.1564
# 4 -2.8584 -8.6704 -16.7383 33.3565 -6.5663 -4.3188
# 5 2.9296 15.3008 5.6423 -6.5663 47.2280 -4.3613
# 6 -13.0255 -15.1578 -13.1564 -4.3188 -4.3613 35.3596
#
#
#
# Elastic Compliance Matrix: (Units=1/GPa)
#
#
# Indices 1 2 3 4 5 6 
#
# 1 0.009288 -0.003499 -0.001569 -0.000568 0.000792 0.001366
# 2 -0.003499 0.013717 -0.004442 0.000714 -0.003356 0.002612
# 3 -0.001569 -0.004442 0.010470 0.004452 0.001098 0.002093
# 4 -0.000568 0.000714 0.004452 0.034098 0.004612 0.006487
# 5 0.000792 -0.003356 0.001098 0.004612 0.022967 0.002658
# 6 0.001366 0.002612 0.002093 0.006487 0.002658 0.031803
#
#
# Mechanical properties :
#
#
# Convention : Reuss Voigt Hill
#
# Bulk Modulus (GPa) = 69.17550 79.03859 74.10705
# Shear Modulus (GPa) = 34.20429 38.31033 36.25731
#
# Velocity S-wave (km/s) = 4.09527 4.33411 4.21638
# Velocity P-wave (km/s) = 7.50201 7.98753 7.74857
#
# Compressibility (1/GPa) = 0.01445598
#
# Stress axis : x y z
#
# Youngs Moduli (GPa) = 107.66765 72.90373 95.50771
#
# Poissons Ratio (x) = 0.25508 0.14983
# Poissons Ratio (y) = 0.37671 0.42423
# Poissons Ratio (z) = 0.16890 0.32383
#
# Static dielectric constant tensor:
#      x y z
#    x 4.043610 -0.535180 -0.350560 
#    y -0.535180 -3.021270 -1.434670 
#    z -0.350560 -1.434670 3.520940 
# 
# 
# High freq. dielectric constant tensor:
#      x y z
#    x 1.818600 -0.008320 -0.010350 
#    y -0.008320 1.800590 0.002490 
#    z -0.010350 0.002490 1.802540 
# 
# From -- ./inp_files/188566.got.cif
#   From: 2010.06.25/outbox.cif.g09.slc.cpg/sg2_95_cif.got.tgz:188566.got - 2010.06.27 13:26:56.
