data_PCOD8015581
_publ_section_title
;
Structure prediction by ZEFSAII (Michael W. Deem and Ramdas Pophale) SiO2 
 PCOD8015581
Probable space group: P -1
;
_chemical_formula_sum "Si O2"
_cell_formula_units_Z 16
_cell_length_a 8.936781
_cell_length_b 11.939502
_cell_length_c 9.073856
_cell_angle_alpha 127.625448
_cell_angle_beta 72.950870
_cell_angle_gamma 100.432101
_cell_volume 733.120269
_symmetry_space_group_name_H-M "P -1"
_symmetry_group_IT_number 2
_symmetry_cell_setting 'triclinic'
loop_
_space_group_symop_operation_xyz
x,y,z
-x,-y,-z
loop_
_atom_site_type_symbol
_atom_site_label
_atom_site_fract_x
_atom_site_fract_y
_atom_site_fract_z
Si Si1 0.982690 0.924602 0.788699
Si Si2 0.459846 0.197266 0.445556
Si Si3 0.221917 0.430356 0.760814
Si Si4 0.688791 0.307919 0.231662
Si Si5 0.135852 0.532868 0.172975
Si Si6 0.980693 0.648769 0.704496
Si Si7 0.283189 0.929530 0.197327
Si Si8 0.263525 0.821942 0.445340
O O1 0.905795 0.767509 0.714548
O O2 0.151343 0.914867 0.655283
O O3 0.874855 0.010490 0.778306
O O4 0.000000 0.000000 0.000000
O O5 0.304056 0.278395 0.608250
O O6 0.556578 0.294220 0.382409
O O7 0.560327 0.160612 0.532418
O O8 0.414375 0.050843 0.262786
O O9 0.309710 0.533222 0.703746
O O10 0.038780 0.411150 0.765234
O O11 0.237474 0.499228 0.972984
O O12 0.856749 0.279036 0.233855
O O13 0.653220 0.197466 0.022979
O O14 0.127857 0.386495 0.151244
O O15 0.219614 0.656213 0.339727
O O16 0.000000 0.500000 0.500000
O O17 0.245558 0.871484 0.323163
#
# Coordination Sequence:
#
# PCOD8015581 Si02
#       8
#     2   2   2   2   2   2   2   2
#     4  12  24  43  70 104 132 177 232 281 338 398
#     4  12  25  43  67  98 138 184 231 267 341 405
#     4  10  23  41  70 102 127 176 227 281 340 399
#     4  11  22  45  68  96 142 176 220 283 338 400
#     4  10  21  42  71  95 136 166 227 284 339 387
#     4  11  21  40  71  98 135 169 218 284 340 393
#     4  12  26  44  68  98 139 183 228 274 340 404
#     4  12  24  46  67  97 143 182 222 287 333 402
#
# _framework density 21.824521000000001
#
# number of rings (size 3 to 8) (size 9 to 14) (size 15 to 20)
#    0.000    0.750    5.000    2.250    1.750    1.500 
#    2.250    1.250    0.000    0.000    0.000    0.000 
#    0.000    0.000    0.000    0.000    0.000    0.000 
#
# Total GULP energy -198446.546823 kJ/mol
# GULP energy per Si atom -12402.909176 kJ/mol
# Density = 2.177485 g / cm^3
# Si number density = 21.824521 Si / 1000 Ang^3
#
#
#
# Elastic Constant Matrix: (Units=GPa)
#
#
# Indices 1 2 3 4 5 6 
#
# 1 69.6982 32.0094 29.9941 0.8105 11.4312 -6.0600
# 2 32.0094 99.5408 24.5007 -12.0578 -4.7318 -8.5147
# 3 29.9941 24.5007 111.2980 -3.9600 13.4133 -4.5047
# 4 0.8105 -12.0578 -3.9600 42.8392 7.1980 4.1771
# 5 11.4312 -4.7318 13.4133 7.1980 29.6472 2.3485
# 6 -6.0600 -8.5147 -4.5047 4.1771 2.3485 37.9459
#
#
#
# Elastic Compliance Matrix: (Units=1/GPa)
#
#
# Indices 1 2 3 4 5 6 
#
# 1 0.019745 -0.005895 -0.003150 -0.001353 -0.006962 0.002036
# 2 -0.005895 0.012991 -0.001645 0.002772 0.004322 0.001206
# 3 -0.003150 -0.001645 0.010777 0.001259 -0.004272 0.000533
# 4 -0.001353 0.002772 0.001259 0.025394 -0.005621 -0.001892
# 5 -0.006962 0.004322 -0.004272 -0.005621 0.040603 -0.002543
# 6 0.002036 0.001206 0.000533 -0.001892 -0.002543 0.027378
#
#
# Mechanical properties :
#
#
# Convention : Reuss Voigt Hill
#
# Bulk Modulus (GPa) = 45.17943 50.39395 47.78669
# Shear Modulus (GPa) = 30.18505 35.02197 32.60351
#
# Velocity S-wave (km/s) = 3.72301 4.01023 3.86929
# Velocity P-wave (km/s) = 6.26317 6.67706 6.47342
#
# Compressibility (1/GPa) = 0.02213397
#
# Stress axis : x y z
#
# Youngs Moduli (GPa) = 50.64582 76.97721 92.78980
#
# Poissons Ratio (x) = 0.45375 0.29231
# Poissons Ratio (y) = 0.29854 0.15260
# Poissons Ratio (z) = 0.15955 0.12660
#
# Static dielectric constant tensor:
#      x y z
#    x 3.735210 -0.073860 0.169540 
#    y -0.073860 4.331530 -0.103850 
#    z 0.169540 -0.103850 4.036040 
# 
# 
# High freq. dielectric constant tensor:
#      x y z
#    x 1.834050 -0.000290 0.013610 
#    y -0.000290 1.873270 -0.005840 
#    z 0.013610 -0.005840 1.870870 
# 
# From -- ./inp_files/190700.got.cif
#   From: 2010.06.25/outbox.cif.g09.slc.cpg/sg2_96_cif.got.tgz:190700.got - 2010.06.27 13:26:56.
