data_PCOD8015807
_publ_section_title
;
Structure prediction by ZEFSAII (Michael W. Deem and Ramdas Pophale) SiO2 
 PCOD8015807
Probable space group: P -1
;
_chemical_formula_sum "Si O2"
_cell_formula_units_Z 16
_cell_length_a 13.539784
_cell_length_b 11.710767
_cell_length_c 11.784262
_cell_angle_alpha 120.485855
_cell_angle_beta 49.587485
_cell_angle_gamma 148.201069
_cell_volume 745.221628
_symmetry_space_group_name_H-M "P -1"
_symmetry_group_IT_number 2
_symmetry_cell_setting 'triclinic'
loop_
_space_group_symop_operation_xyz
x,y,z
-x,-y,-z
loop_
_atom_site_type_symbol
_atom_site_label
_atom_site_fract_x
_atom_site_fract_y
_atom_site_fract_z
Si Si1 0.760795 0.008322 0.451065
Si Si2 0.231225 0.509552 0.127056
Si Si3 0.099263 0.135542 0.110318
Si Si4 0.217092 0.812250 0.816551
Si Si5 0.690441 0.923789 0.930533
Si Si6 0.673703 0.239057 0.608011
Si Si7 0.289121 0.595398 0.569566
Si Si8 0.940099 0.102887 0.605143
O O1 0.533847 0.753587 0.479024
O O2 0.757469 0.157676 0.486294
O O3 0.815209 0.054051 0.565521
O O4 0.917471 0.045189 0.281287
O O5 0.263926 0.388752 0.091980
O O6 0.219950 0.611196 0.284641
O O7 0.010771 0.326407 0.130244
O O8 0.434764 0.704985 0.994590
O O9 0.226150 0.124928 0.075173
O O10 0.000000 0.000000 0.000000
O O11 0.228636 0.663069 0.736381
O O12 0.414105 0.029024 0.702145
O O13 0.247572 0.888021 0.960153
O O14 0.790961 0.005718 0.774186
O O15 0.755722 0.392447 0.519188
O O16 0.158307 0.360712 0.583418
O O17 0.000000 0.000000 0.500000
#
# Coordination Sequence:
#
# PCOD8015807 Si02
#       8
#     2   2   2   2   2   2   2   2
#     4  11  24  45  71  99 133 168 218 280 325 388
#     4  11  22  39  68  94 133 169 208 276 338 371
#     4  12  23  40  67  97 131 172 219 272 330 383
#     4  10  21  43  66 100 127 159 218 280 329 386
#     4  11  26  43  61  95 135 174 225 262 313 404
#     4  10  22  40  72 107 125 158 223 281 338 381
#     4  11  24  42  73  97 131 172 215 276 337 378
#     4  12  27  47  61  94 139 183 226 253 309 408
#
# _framework density 21.470123999999998
#
# number of rings (size 3 to 8) (size 9 to 14) (size 15 to 20)
#    0.000    1.000    2.500    4.875    1.750    4.500 
#    0.000    8.750    0.000    0.000    0.000    0.000 
#    0.000    0.000    0.000    0.000    0.000    0.000 
#
# Total GULP energy -198449.309064 kJ/mol
# GULP energy per Si atom -12403.081816 kJ/mol
# Density = 2.142126 g / cm^3
# Si number density = 21.470124 Si / 1000 Ang^3
#
#
#
# Elastic Constant Matrix: (Units=GPa)
#
#
# Indices 1 2 3 4 5 6 
#
# 1 27.8300 63.7759 52.4562 6.6675 -10.2379 30.4689
# 2 63.7759 94.6155 15.9972 -21.4079 12.1166 -28.0846
# 3 52.4562 15.9972 116.7147 -8.6050 15.4487 -19.9637
# 4 6.6675 -21.4079 -8.6050 24.5340 5.2723 -16.9540
# 5 -10.2379 12.1166 15.4487 5.2723 24.7364 9.5072
# 6 30.4689 -28.0846 -19.9637 -16.9540 9.5072 18.2126
#
#
#
# Elastic Compliance Matrix: (Units=1/GPa)
#
#
# Indices 1 2 3 4 5 6 
#
# 1 0.005709 0.003607 0.001082 0.012521 -0.007694 0.012868
# 2 0.003607 0.005867 -0.004249 -0.002593 0.004235 -0.006269
# 3 0.001082 -0.004249 0.007601 -0.004266 0.000287 -0.004151
# 4 0.012521 -0.002593 -0.004266 0.030050 0.004185 -0.003833
# 5 -0.007694 0.004235 0.000287 0.004185 0.031302 0.007272
# 6 0.012868 -0.006269 -0.004151 -0.003833 0.007272 0.011797
#
#
# Mechanical properties :
#
#
# Convention : Reuss Voigt Hill
#
# Bulk Modulus (GPa) = 49.85794 55.95766 52.90780
# Shear Modulus (GPa) = 50.95183 20.62534 35.78859
#
# Velocity S-wave (km/s) = 4.87678 3.10280 4.08720
# Velocity P-wave (km/s) = 7.41506 6.24148 6.85344
#
# Compressibility (1/GPa) = 0.02005699
#
# Stress axis : x y z
#
# Youngs Moduli (GPa) = 175.15260 170.45178 131.55682
#
# Poissons Ratio (x) = -0.61474 -0.14238
# Poissons Ratio (y) = -0.63169 0.55898
# Poissons Ratio (z) = -0.18956 0.72424
#
# Static dielectric constant tensor:
#      x y z
#    x 3.820600 0.085600 -0.105810 
#    y 0.085600 4.115730 0.148850 
#    z -0.105810 0.148850 3.946550 
# 
# 
# High freq. dielectric constant tensor:
#      x y z
#    x 1.830880 0.011360 -0.011560 
#    y 0.011360 1.857130 0.008000 
#    z -0.011560 0.008000 1.853450 
# 
# From -- ./inp_files/451619.got.cif
#   From: 2010.06.25/outbox.cif.g09.slc.cpg/sg2_226_cif.got.tgz:451619.got - 2010.06.27 13:26:56.
