data_PCOD8015857
_publ_section_title
;
Structure prediction by ZEFSAII (Michael W. Deem and Ramdas Pophale) SiO2 
 PCOD8015857
Probable space group: P -1
;
_chemical_formula_sum "Si O2"
_cell_formula_units_Z 16
_cell_length_a 14.265012
_cell_length_b 5.336111
_cell_length_c 8.752960
_cell_angle_alpha 78.224838
_cell_angle_beta 79.399291
_cell_angle_gamma 98.987741
_cell_volume 627.986816
_symmetry_space_group_name_H-M "P -1"
_symmetry_group_IT_number 2
_symmetry_cell_setting 'triclinic'
loop_
_space_group_symop_operation_xyz
x,y,z
-x,-y,-z
loop_
_atom_site_type_symbol
_atom_site_label
_atom_site_fract_x
_atom_site_fract_y
_atom_site_fract_z
Si Si1 0.654781 0.738604 0.973180
Si Si2 0.111014 0.493343 0.508602
Si Si3 0.861859 0.415036 0.181563
Si Si4 0.827854 0.934010 0.673682
Si Si5 0.315824 0.035373 0.757794
Si Si6 0.477164 0.800724 0.872730
Si Si7 0.450598 0.245345 0.457346
Si Si8 0.034079 0.167103 0.114225
O O1 0.728014 0.822158 0.802749
O O2 0.564077 0.899334 0.960980
O O3 0.605778 0.435577 0.009961
O O4 0.714238 0.794693 0.111839
O O5 0.130764 0.408825 0.688539
O O6 0.150719 0.284237 0.421548
O O7 0.000000 0.500000 0.500000
O O8 0.175767 0.787090 0.435121
O O9 0.756504 0.238720 0.206295
O O10 0.940533 0.236514 0.215308
O O11 0.889260 0.575517 0.997166
O O12 0.916145 0.995101 0.761168
O O13 0.422801 0.010431 0.788841
O O14 0.338255 0.176771 0.567834
O O15 0.541773 0.693367 0.732845
O O16 0.500000 0.500000 0.500000
O O17 0.500000 0.000000 0.500000
O O18 0.000000 0.000000 0.000000
#
# Coordination Sequence:
#
# PCOD8015857 Si02
#       8
#     2   2   2   2   2   2   2   2
#     4  11  24  43  70 101 142 191 239 298 354 433
#     4  12  27  52  73 107 148 197 237 303 364 443
#     4  11  26  43  74 107 142 190 243 300 372 429
#     4  12  28  47  76 105 151 188 250 295 365 435
#     4  11  23  43  70 103 142 185 242 302 356 433
#     4  10  23  44  67 101 140 191 238 293 363 416
#     4  10  21  43  66  95 133 182 228 289 350 414
#     4  11  24  45  73 106 143 190 238 306 366 444
#
# _framework density 25.478244
#
# number of rings (size 3 to 8) (size 9 to 14) (size 15 to 20)
#    0.000    1.000    2.500    3.000    8.750    0.000 
#    4.500    0.000    0.000    0.000    0.000    0.000 
#    0.000    0.000    0.000    0.000    0.000    0.000 
#
# Total GULP energy -198314.222491 kJ/mol
# GULP energy per Si atom -12394.638906 kJ/mol
# Density = 2.542025 g / cm^3
# Si number density = 25.478244 Si / 1000 Ang^3
#
#
#
# Elastic Constant Matrix: (Units=GPa)
#
#
# Indices 1 2 3 4 5 6 
#
# 1 52.1431 8.1139 12.0659 9.9946 -8.5253 12.8073
# 2 8.1139 111.9616 20.1204 8.5843 -13.7043 9.3873
# 3 12.0659 20.1204 110.5132 7.3555 -22.3268 13.2548
# 4 9.9946 8.5843 7.3555 40.7029 4.5598 8.7088
# 5 -8.5253 -13.7043 -22.3268 4.5598 44.3900 -0.7313
# 6 12.8073 9.3873 13.2548 8.7088 -0.7313 38.4522
#
#
#
# Elastic Compliance Matrix: (Units=1/GPa)
#
#
# Indices 1 2 3 4 5 6 
#
# 1 0.022414 -0.000134 -0.000497 -0.004562 0.004381 -0.006145
# 2 -0.000134 0.009701 -0.000904 -0.001818 0.002676 -0.001549
# 3 -0.000497 -0.000904 0.010758 -0.001596 0.005153 -0.002863
# 4 -0.004562 -0.001818 -0.001596 0.027767 -0.005156 -0.003873
# 5 0.004381 0.002676 0.005153 -0.005156 0.027280 -0.002202
# 6 -0.006145 -0.001549 -0.002863 -0.003873 -0.002202 0.030253
#
#
# Mechanical properties :
#
#
# Convention : Reuss Voigt Hill
#
# Bulk Modulus (GPa) = 25.12418 39.46869 32.29644
# Shear Modulus (GPa) = 34.59958 40.33022 37.46490
#
# Velocity S-wave (km/s) = 3.68911 3.98292 3.83883
# Velocity P-wave (km/s) = 5.29419 6.05610 5.68792
#
# Compressibility (1/GPa) = 0.03980229
#
# Stress axis : x y z
#
# Youngs Moduli (GPa) = 44.61557 103.08653 92.95178
#
# Poissons Ratio (x) = 0.01380 0.04621
# Poissons Ratio (y) = 0.00597 0.08404
# Poissons Ratio (z) = 0.02218 0.09321
#
# Static dielectric constant tensor:
#      x y z
#    x 4.626140 -0.051020 0.001200 
#    y -0.051020 4.444130 -0.093430 
#    z 0.001200 -0.093430 5.853070 
# 
# 
# High freq. dielectric constant tensor:
#      x y z
#    x 2.013850 0.006550 -0.007630 
#    y 0.006550 2.014350 0.009410 
#    z -0.007630 0.009410 2.047670 
# 
# From -- ./inp_files/90184.got.cif
#   From: 2010.06.25/outbox.cif.g09.slc.cpg/sg2_46_cif.got.tgz:90184.got - 2010.06.27 13:26:56.
