data_PCOD8015904
_publ_section_title
;
Structure prediction by ZEFSAII (Michael W. Deem and Ramdas Pophale) SiO2 
 PCOD8015904
Probable space group: P -1
;
_chemical_formula_sum "Si O2"
_cell_formula_units_Z 16
_cell_length_a 12.151019
_cell_length_b 11.872947
_cell_length_c 9.027928
_cell_angle_alpha 121.788756
_cell_angle_beta 52.031621
_cell_angle_gamma 89.437492
_cell_volume 756.685406
_symmetry_space_group_name_H-M "P -1"
_symmetry_group_IT_number 2
_symmetry_cell_setting 'triclinic'
loop_
_space_group_symop_operation_xyz
x,y,z
-x,-y,-z
loop_
_atom_site_type_symbol
_atom_site_label
_atom_site_fract_x
_atom_site_fract_y
_atom_site_fract_z
Si Si1 0.404400 0.788808 0.270813
Si Si2 0.500214 0.326299 0.572856
Si Si3 0.260208 0.920788 0.989406
Si Si4 0.766873 0.657126 0.404248
Si Si5 0.049191 0.026519 0.818213
Si Si6 0.039912 0.685516 0.067219
Si Si7 0.665390 0.330657 0.029381
Si Si8 0.397999 0.128244 0.055804
O O1 0.513417 0.693288 0.253599
O O2 0.365029 0.679598 0.126084
O O3 0.235315 0.925039 0.559092
O O4 0.502141 0.855585 0.149082
O O5 0.677744 0.199184 0.283664
O O6 0.374344 0.293501 0.565432
O O7 0.466760 0.498540 0.687738
O O8 0.353032 0.806952 0.973794
O O9 0.066942 0.997561 0.217784
O O10 0.287919 0.062800 0.034782
O O11 0.701203 0.712202 0.663100
O O12 0.874377 0.732243 0.321761
O O13 0.881711 0.476727 0.189853
O O14 0.002554 0.201673 0.957660
O O15 0.000000 0.000000 0.000000
O O16 0.158784 0.694174 0.096886
O O17 0.500000 0.000000 0.000000
#
# Coordination Sequence:
#
# PCOD8015904 Si02
#       8
#     2   2   2   2   2   2   2   2
#     4  12  25  40  64  96 129 166 204 263 318 363
#     4  11  22  40  63  93 129 162 209 256 317 373
#     4  11  23  41  66  91 123 171 210 258 309 373
#     4  10  21  43  67  93 125 164 216 255 311 373
#     4  11  24  42  61  93 129 166 209 254 316 375
#     4   9  22  40  70  90 122 172 210 257 306 375
#     4  10  22  40  64  95 122 164 211 261 309 370
#     4  12  23  40  63  97 125 161 212 262 308 371
#
# _framework density 21.144853000000001
#
# number of rings (size 3 to 8) (size 9 to 14) (size 15 to 20)
#    0.000    1.250    3.750    1.500    1.750    4.500 
#    2.250    0.000    0.000    3.000    0.000    0.000 
#    0.000    0.000    0.000    0.000    0.000    0.000 
#
# Total GULP energy -198305.889791 kJ/mol
# GULP energy per Si atom -12394.118112 kJ/mol
# Density = 2.109673 g / cm^3
# Si number density = 21.144853 Si / 1000 Ang^3
#
#
#
# Elastic Constant Matrix: (Units=GPa)
#
#
# Indices 1 2 3 4 5 6 
#
# 1 83.4470 50.6998 43.6308 0.3258 3.6050 3.4821
# 2 50.6998 110.0090 45.5261 -13.9205 -1.3193 3.6595
# 3 43.6308 45.5261 109.2343 -12.1491 -1.1291 1.9780
# 4 0.3258 -13.9205 -12.1491 31.3574 2.3059 2.8934
# 5 3.6050 -1.3193 -1.1291 2.3059 32.8802 -5.1801
# 6 3.4821 3.6595 1.9780 2.8934 -5.1801 31.2547
#
#
#
# Elastic Compliance Matrix: (Units=1/GPa)
#
#
# Indices 1 2 3 4 5 6 
#
# 1 0.019407 -0.007441 -0.005247 -0.005284 -0.002372 -0.000863
# 2 -0.007441 0.014222 -0.002312 0.005540 0.000749 -0.001079
# 3 -0.005247 -0.002312 0.012658 0.003907 0.000611 -0.000206
# 4 -0.005284 0.005540 0.003907 0.036459 -0.002260 -0.004057
# 5 -0.002372 0.000749 0.000611 -0.002260 0.031767 0.005612
# 6 -0.000863 -0.001079 -0.000206 -0.004057 0.005612 0.033536
#
#
# Mechanical properties :
#
#
# Convention : Reuss Voigt Hill
#
# Bulk Modulus (GPa) = 61.39542 64.71152 63.05347
# Shear Modulus (GPa) = 27.25101 29.95403 28.60252
#
# Velocity S-wave (km/s) = 3.59385 3.76787 3.68189
# Velocity P-wave (km/s) = 6.80586 7.04269 6.92529
#
# Compressibility (1/GPa) = 0.01628786
#
# Stress axis : x y z
#
# Youngs Moduli (GPa) = 51.52732 70.31286 78.99838
#
# Poissons Ratio (x) = 0.52321 0.41450
# Poissons Ratio (y) = 0.38342 0.18263
# Poissons Ratio (z) = 0.27036 0.16255
#
# Static dielectric constant tensor:
#      x y z
#    x 4.196510 0.187570 -0.001300 
#    y 0.187570 4.042970 0.100550 
#    z -0.001300 0.100550 4.015190 
# 
# 
# High freq. dielectric constant tensor:
#      x y z
#    x 1.829620 0.010120 -0.007250 
#    y 0.010120 1.829030 0.002840 
#    z -0.007250 0.002840 1.826890 
# 
# From -- ./inp_files/262916.got.cif
#   From: 2010.06.25/outbox.cif.g09.slc.cpg/sg2_132_cif.got.tgz:262916.got - 2010.06.27 13:26:56.
