data_PCOD8015830
_publ_section_title
;
Structure prediction by ZEFSAII (Michael W. Deem and Ramdas Pophale) SiO2 
 PCOD8015830
Probable space group: P -1
;
_chemical_formula_sum "Si O2"
_cell_formula_units_Z 16
_cell_length_a 16.329514
_cell_length_b 15.097572
_cell_length_c 13.824520
_cell_angle_alpha 123.180666
_cell_angle_beta 142.943258
_cell_angle_gamma 26.714533
_cell_volume 730.760184
_symmetry_space_group_name_H-M "P -1"
_symmetry_group_IT_number 2
_symmetry_cell_setting 'triclinic'
loop_
_space_group_symop_operation_xyz
x,y,z
-x,-y,-z
loop_
_atom_site_type_symbol
_atom_site_label
_atom_site_fract_x
_atom_site_fract_y
_atom_site_fract_z
Si Si1 0.417129 0.861340 0.216315
Si Si2 0.337786 0.922301 0.390381
Si Si3 0.311407 0.613101 0.184652
Si Si4 0.448050 0.029864 0.690996
Si Si5 0.646723 0.331144 0.952032
Si Si6 0.640204 0.982794 0.196057
Si Si7 0.739180 0.467508 0.596434
Si Si8 0.811008 0.499536 0.897715
O O1 0.616594 0.802472 0.302178
O O2 0.445041 0.888316 0.366528
O O3 0.062247 0.107091 0.987983
O O4 0.524016 0.663247 0.199395
O O5 0.259525 0.081407 0.474268
O O6 0.623129 0.657405 0.550859
O O7 0.031999 0.059599 0.167595
O O8 0.465985 0.572105 0.392287
O O9 0.371426 0.446635 0.164341
O O10 0.440930 0.554285 0.165497
O O11 0.290159 0.128708 0.705960
O O12 0.825214 0.734692 0.867437
O O13 0.500000 0.500000 0.000000
O O14 0.966985 0.791760 0.341382
O O15 0.388616 0.252097 0.144740
O O16 0.500000 0.000000 0.000000
O O17 0.823792 0.432710 0.765855
#
# Coordination Sequence:
#
# PCOD8015830 Si02
#       8
#     2   2   2   2   2   2   2   2
#     4  10  21  43  66  92 126 167 213 262 325 380
#     4  11  21  41  68  92 125 172 212 262 324 380
#     4  10  22  42  67  92 124 170 211 264 326 377
#     4  11  23  41  67  94 129 170 212 265 320 375
#     4  11  23  41  66  96 129 167 213 265 322 381
#     4  12  25  40  62  94 131 174 215 256 319 383
#     4  12  22  41  70  92 129 171 214 261 324 377
#     4  11  24  44  64  94 133 167 216 267 317 374
#
# _framework density 21.895008000000001
#
# number of rings (size 3 to 8) (size 9 to 14) (size 15 to 20)
#    0.000    1.000    5.000    2.625    1.750    1.500 
#    0.000    3.750    0.000    0.000    0.000    0.000 
#    0.000    0.000    0.000    0.000    0.000    0.000 
#
# Total GULP energy -198359.835195 kJ/mol
# GULP energy per Si atom -12397.489700 kJ/mol
# Density = 2.184517 g / cm^3
# Si number density = 21.895008 Si / 1000 Ang^3
#
#
#
# Elastic Constant Matrix: (Units=GPa)
#
#
# Indices 1 2 3 4 5 6 
#
# 1 121.8629 41.8385 18.9320 22.5463 -8.4240 17.2510
# 2 41.8385 69.4575 8.1763 18.1485 -2.2107 -8.2008
# 3 18.9320 8.1763 88.0155 28.2487 -8.9349 5.2100
# 4 22.5463 18.1485 28.2487 40.2583 0.9298 -1.9579
# 5 -8.4240 -2.2107 -8.9349 0.9298 26.3464 10.2150
# 6 17.2510 -8.2008 5.2100 -1.9579 10.2150 24.8749
#
#
#
# Elastic Compliance Matrix: (Units=1/GPa)
#
#
# Indices 1 2 3 4 5 6 
#
# 1 0.017214 -0.010779 0.002743 -0.008148 0.014624 -0.022713
# 2 -0.010779 0.023696 -0.001037 -0.002783 -0.009085 0.019017
# 3 0.002743 -0.001037 0.017249 -0.014014 0.011695 -0.011763
# 4 -0.008148 -0.002783 -0.014014 0.041705 -0.015830 0.017452
# 5 0.014624 -0.009085 0.011695 -0.015830 0.062942 -0.042679
# 6 -0.022713 0.019017 -0.011763 0.017452 -0.042679 0.083586
#
#
# Mechanical properties :
#
#
# Convention : Reuss Voigt Hill
#
# Bulk Modulus (GPa) = 24.99291 46.35884 35.67588
# Shear Modulus (GPa) = 17.99353 32.32187 25.15770
#
# Velocity S-wave (km/s) = 2.86983 3.84633 3.39339
# Velocity P-wave (km/s) = 4.73507 6.39882 5.62876
#
# Compressibility (1/GPa) = 0.04001134
#
# Stress axis : x y z
#
# Youngs Moduli (GPa) = 58.09092 42.20182 57.97301
#
# Poissons Ratio (x) = 0.45491 -0.15901
# Poissons Ratio (y) = 0.62618 0.06015
# Poissons Ratio (z) = -0.15933 0.04378
#
# Static dielectric constant tensor:
#      x y z
#    x 4.314870 0.120760 -0.000480 
#    y 0.120760 3.972230 -0.028130 
#    z -0.000480 -0.028130 4.064830 
# 
# 
# High freq. dielectric constant tensor:
#      x y z
#    x 1.869620 0.008630 -0.004150 
#    y 0.008630 1.835540 0.012220 
#    z -0.004150 0.012220 1.875660 
# 
# From -- ./inp_files/447403.got.cif
#   From: 2010.06.25/outbox.cif.g09.slc.cpg/sg2_224_cif.got.tgz:447403.got - 2010.06.27 13:26:56.
