data_PCOD8015371
_publ_section_title
;
Structure prediction by ZEFSAII (Michael W. Deem and Ramdas Pophale) SiO2 
 PCOD8015371
Probable space group: P -1
;
_chemical_formula_sum "Si O2"
_cell_formula_units_Z 16
_cell_length_a 6.696933
_cell_length_b 16.599360
_cell_length_c 9.304733
_cell_angle_alpha 96.276982
_cell_angle_beta 133.163664
_cell_angle_gamma 69.815358
_cell_volume 695.895165
_symmetry_space_group_name_H-M "P -1"
_symmetry_group_IT_number 2
_symmetry_cell_setting 'triclinic'
loop_
_space_group_symop_operation_xyz
x,y,z
-x,-y,-z
loop_
_atom_site_type_symbol
_atom_site_label
_atom_site_fract_x
_atom_site_fract_y
_atom_site_fract_z
Si Si1 0.416202 0.617656 0.392485
Si Si2 0.620634 0.280848 0.179298
Si Si3 0.687237 0.847018 0.904439
Si Si4 0.214514 0.060960 0.781701
Si Si5 0.947099 0.758952 0.366566
Si Si6 0.339986 0.975609 0.543499
Si Si7 0.341402 0.747870 0.128467
Si Si8 0.692077 0.547211 0.785671
O O1 0.455662 0.671426 0.287234
O O2 0.682825 0.597437 0.637655
O O3 0.445906 0.525091 0.324213
O O4 0.112774 0.667277 0.344437
O O5 0.386555 0.231773 0.075232
O O6 0.484865 0.382045 0.171357
O O7 0.899742 0.232885 0.407286
O O8 0.722104 0.282348 0.065810
O O9 0.506731 0.877972 0.672723
O O10 0.579284 0.937648 0.972916
O O11 0.034208 0.821676 0.041179
O O12 0.037601 0.166871 0.720647
O O13 0.983235 0.012424 0.673539
O O14 0.343792 0.043969 0.681588
O O15 0.607701 0.780652 0.244712
O O16 0.500000 0.000000 0.500000
O O17 0.000000 0.500000 0.000000
#
# Coordination Sequence:
#
# PCOD8015371 Si02
#       8
#     2   2   2   2   2   2   2   2
#     4  10  23  43  64  98 134 178 224 276 330 391
#     4  11  25  42  68  99 135 181 222 274 335 394
#     4  12  25  45  70  98 138 177 223 273 333 399
#     4  11  24  46  70  94 138 171 217 276 334 396
#     4  11  23  44  68  96 136 179 218 276 335 393
#     4  11  28  45  70 103 131 173 222 276 336 397
#     4  12  24  39  70 103 130 178 233 269 328 397
#     4  10  21  42  68  92 138 178 219 275 336 385
#
# _framework density 22.991968
#
# number of rings (size 3 to 8) (size 9 to 14) (size 15 to 20)
#    0.000    1.000    3.750    1.875    3.500    4.000 
#    0.000   10.000    0.000    0.000    0.000    0.000 
#    0.000    0.000    0.000    0.000    0.000    0.000 
#
# Total GULP energy -198259.513577 kJ/mol
# GULP energy per Si atom -12391.219599 kJ/mol
# Density = 2.293964 g / cm^3
# Si number density = 22.991968 Si / 1000 Ang^3
#
#
#
# Elastic Constant Matrix: (Units=GPa)
#
#
# Indices 1 2 3 4 5 6 
#
# 1 135.5774 36.9962 60.0183 4.7822 -15.5528 -2.4116
# 2 36.9962 82.4519 12.4928 21.1589 -9.1063 -6.4870
# 3 60.0183 12.4928 131.4877 14.2739 -11.3016 2.5611
# 4 4.7822 21.1589 14.2739 34.4857 -0.0809 -13.3572
# 5 -15.5528 -9.1063 -11.3016 -0.0809 43.1878 -5.8763
# 6 -2.4116 -6.4870 2.5611 -13.3572 -5.8763 24.3937
#
#
#
# Elastic Compliance Matrix: (Units=1/GPa)
#
#
# Indices 1 2 3 4 5 6 
#
# 1 0.011083 -0.004975 -0.005011 0.004960 0.002120 0.003525
# 2 -0.004975 0.017038 0.002101 -0.011367 0.002070 -0.001907
# 3 -0.005011 0.002101 0.010579 -0.006732 0.000776 -0.004547
# 4 0.004960 -0.011367 -0.006732 0.047548 0.001045 0.024462
# 5 0.002120 0.002070 0.000776 0.001045 0.025568 0.007410
# 6 0.003525 -0.001907 -0.004547 0.024462 0.007410 0.056492
#
#
# Mechanical properties :
#
#
# Convention : Reuss Voigt Hill
#
# Bulk Modulus (GPa) = 43.61128 63.17019 53.39074
# Shear Modulus (GPa) = 26.07973 36.41409 31.24691
#
# Velocity S-wave (km/s) = 3.37159 3.98398 3.69051
# Velocity P-wave (km/s) = 5.84517 6.97835 6.43675
#
# Compressibility (1/GPa) = 0.02292985
#
# Stress axis : x y z
#
# Youngs Moduli (GPa) = 90.23148 58.69308 94.52715
#
# Poissons Ratio (x) = 0.29199 0.47367
# Poissons Ratio (y) = 0.44889 -0.19861
# Poissons Ratio (z) = 0.45215 -0.12332
#
# Static dielectric constant tensor:
#      x y z
#    x 3.793700 -0.147300 -0.266800 
#    y -0.147300 4.181840 -0.145730 
#    z -0.266800 -0.145730 4.906990 
# 
# 
# High freq. dielectric constant tensor:
#      x y z
#    x 1.881740 -0.017000 -0.021500 
#    y -0.017000 1.920790 -0.009770 
#    z -0.021500 -0.009770 1.948720 
# 
# From -- ./inp_files/112400.got.cif
#   From: 2010.06.25/outbox.cif.g09.slc.cpg/sg2_57_cif.got.tgz:112400.got - 2010.06.27 13:26:56.
