data_PCOD8015846
_publ_section_title
;
Structure prediction by ZEFSAII (Michael W. Deem and Ramdas Pophale) SiO2 
 PCOD8015846
Probable space group: P -1
;
_chemical_formula_sum "Si O2"
_cell_formula_units_Z 16
_cell_length_a 5.095649
_cell_length_b 19.419617
_cell_length_c 15.629024
_cell_angle_alpha 26.420536
_cell_angle_beta 79.276703
_cell_angle_gamma 92.577809
_cell_volume 591.662177
_symmetry_space_group_name_H-M "P -1"
_symmetry_group_IT_number 2
_symmetry_cell_setting 'triclinic'
loop_
_space_group_symop_operation_xyz
x,y,z
-x,-y,-z
loop_
_atom_site_type_symbol
_atom_site_label
_atom_site_fract_x
_atom_site_fract_y
_atom_site_fract_z
Si Si1 0.763816 0.777215 0.309370
Si Si2 0.296215 0.106191 0.473480
Si Si3 0.606498 0.620018 0.704124
Si Si4 0.645579 0.774824 0.843988
Si Si5 0.746475 0.234192 0.553693
Si Si6 0.141789 0.105188 0.016840
Si Si7 0.405735 0.921465 0.817209
Si Si8 0.318790 0.548253 0.388655
O O1 0.439644 0.781093 0.329293
O O2 0.909496 0.841747 0.135083
O O3 0.716021 0.578694 0.548511
O O4 0.015416 0.892768 0.241961
O O5 0.275629 0.271542 0.334481
O O6 0.456456 0.171703 0.298501
O O7 0.494679 0.054626 0.581772
O O8 0.974713 0.929255 0.679538
O O9 0.454601 0.710010 0.556907
O O10 0.900067 0.627023 0.630282
O O11 0.365204 0.412764 0.961969
O O12 0.423815 0.755407 0.959884
O O13 0.668223 0.033498 0.748868
O O14 0.489878 0.239550 0.879138
O O15 0.928441 0.137941 0.059127
O O16 0.500000 0.500000 0.500000
O O17 0.000000 0.500000 0.500000
#
# Coordination Sequence:
#
# PCOD8015846 Si02
#       8
#     2   2   2   2   2   2   2   2
#     4   9  20  41  64  92 129 173 212 262 321 374
#     4  10  23  44  61  99 130 168 217 272 331 391
#     4  11  24  43  66  99 131 173 215 268 326 391
#     4  11  23  40  70  92 129 174 215 270 332 396
#     4  10  23  43  66  95 138 170 216 271 322 383
#     4   9  20  40  64  93 126 171 219 261 319 385
#     4  10  21  43  66  94 131 172 218 274 324 384
#     4  10  22  40  60  91 123 161 210 264 309 366
#
# _framework density 27.042458
#
# number of rings (size 3 to 8) (size 9 to 14) (size 15 to 20)
#    0.000    2.000    1.250    0.750    3.500    2.500 
#    6.750    5.625    0.000    0.000    0.000    0.000 
#    0.000    0.000    0.000    0.000    0.000    0.000 
#
# Total GULP energy -198249.029804 kJ/mol
# GULP energy per Si atom -12390.564363 kJ/mol
# Density = 2.698091 g / cm^3
# Si number density = 27.042458 Si / 1000 Ang^3
#
#
#
# Elastic Constant Matrix: (Units=GPa)
#
#
# Indices 1 2 3 4 5 6 
#
# 1 63.4332 37.2116 20.9651 -14.9175 -25.2734 -9.0035
# 2 37.2116 159.8661 72.9240 -20.2778 -18.1477 -14.6299
# 3 20.9651 72.9240 135.7680 -48.7895 -10.7743 -12.3817
# 4 -14.9175 -20.2778 -48.7895 64.2960 0.7056 4.2322
# 5 -25.2734 -18.1477 -10.7743 0.7056 33.4556 2.4557
# 6 -9.0035 -14.6299 -12.3817 4.2322 2.4557 42.2892
#
#
#
# Elastic Compliance Matrix: (Units=1/GPa)
#
#
# Indices 1 2 3 4 5 6 
#
# 1 0.026529 -0.003925 0.001875 0.005930 0.018156 0.003191
# 2 -0.003925 0.009338 -0.004905 -0.001766 0.000477 0.001108
# 3 0.001875 -0.004905 0.013227 0.008794 0.002717 0.001537
# 4 0.005930 -0.001766 0.008794 0.022942 0.005827 0.000592
# 5 0.018156 0.000477 0.002717 0.005827 0.044495 0.001659
# 6 0.003191 0.001108 0.001537 0.000592 0.001659 0.025004
#
#
# Mechanical properties :
#
#
# Convention : Reuss Voigt Hill
#
# Bulk Modulus (GPa) = 28.42343 69.02984 48.72664
# Shear Modulus (GPa) = 29.90924 43.20592 36.55758
#
# Velocity S-wave (km/s) = 3.32928 4.00147 3.68075
# Velocity P-wave (km/s) = 5.03113 6.85061 6.01012
#
# Compressibility (1/GPa) = 0.03518224
#
# Stress axis : x y z
#
# Youngs Moduli (GPa) = 37.69466 107.09094 75.60524
#
# Poissons Ratio (x) = 0.42032 -0.14173
# Poissons Ratio (y) = 0.14795 0.37087
# Poissons Ratio (z) = -0.07066 0.52532
#
# Static dielectric constant tensor:
#      x y z
#    x 4.773050 -0.060550 0.288000 
#    y -0.060550 6.391630 -1.062090 
#    z 0.288000 -1.062090 6.363640 
# 
# 
# High freq. dielectric constant tensor:
#      x y z
#    x 2.079080 0.012270 0.014160 
#    y 0.012270 2.121340 -0.010080 
#    z 0.014160 -0.010080 2.093200 
# 
# From -- ./inp_files/550867.got.cif
#   From: 2010.06.25/outbox.cif.g09.slc.cpg/sg2_276_cif.got.tgz:550867.got - 2010.06.27 13:26:56.
