data_PCOD8015756
_publ_section_title
;
Structure prediction by ZEFSAII (Michael W. Deem and Ramdas Pophale) SiO2 
 PCOD8015756
Probable space group: P -1
;
_chemical_formula_sum "Si O2"
_cell_formula_units_Z 16
_cell_length_a 14.801709
_cell_length_b 14.640617
_cell_length_c 8.937154
_cell_angle_alpha 48.540090
_cell_angle_beta 101.646828
_cell_angle_gamma 139.897948
_cell_volume 725.389230
_symmetry_space_group_name_H-M "P -1"
_symmetry_group_IT_number 2
_symmetry_cell_setting 'triclinic'
loop_
_space_group_symop_operation_xyz
x,y,z
-x,-y,-z
loop_
_atom_site_type_symbol
_atom_site_label
_atom_site_fract_x
_atom_site_fract_y
_atom_site_fract_z
Si Si1 0.345473 0.776979 0.365445
Si Si2 0.694933 0.822040 0.233481
Si Si3 0.281589 0.876051 0.763563
Si Si4 0.436216 0.746397 0.147124
Si Si5 0.519537 0.718318 0.765628
Si Si6 0.004280 0.685901 0.063685
Si Si7 0.751842 0.429546 0.016580
Si Si8 0.546363 0.549491 0.205341
O O1 0.314030 0.680659 0.297264
O O2 0.164552 0.563366 0.634593
O O3 0.515975 0.895145 0.353624
O O4 0.401478 0.982722 0.153031
O O5 0.529205 0.729312 0.254555
O O6 0.704466 0.747704 0.168439
O O7 0.641123 0.683653 0.513178
O O8 0.890905 0.102175 0.022439
O O9 0.286388 0.005345 0.522479
O O10 0.141777 0.734602 0.007275
O O11 0.236237 0.703849 0.843021
O O12 0.287605 0.552947 0.175652
O O13 0.419155 0.524823 0.812990
O O14 0.404163 0.707908 0.772366
O O15 0.538921 0.663654 0.982261
O O16 0.937074 0.676649 0.897207
#
# Coordination Sequence:
#
# PCOD8015756 Si02
#       8
#     2   2   2   2   2   2   2   2
#     4  10  22  40  68  98 138 178 213 268 340 399
#     4  11  22  44  66  95 131 179 224 278 331 382
#     4  11  22  43  69  99 141 174 212 272 342 403
#     4  10  21  43  64  96 139 179 213 267 336 405
#     4  11  20  42  71  95 126 179 225 268 326 394
#     4  12  24  41  68 104 136 172 222 277 327 399
#     4  11  24  40  67 103 135 173 215 269 340 399
#     4  10  23  40  73  93 125 186 231 268 331 391
#
# _framework density 22.057124000000002
#
# number of rings (size 3 to 8) (size 9 to 14) (size 15 to 20)
#    0.000    1.250    5.000    0.750    1.750    0.500 
#    2.250    1.250    0.000    0.000    0.000    0.000 
#    0.000    0.000    0.000    0.000    0.000    0.000 
#
# Total GULP energy -198217.040064 kJ/mol
# GULP energy per Si atom -12388.565004 kJ/mol
# Density = 2.200692 g / cm^3
# Si number density = 22.057124 Si / 1000 Ang^3
#
#
#
# Elastic Constant Matrix: (Units=GPa)
#
#
# Indices 1 2 3 4 5 6 
#
# 1 42.3560 16.9955 42.2397 0.7447 -19.9273 -7.1297
# 2 16.9955 135.8783 32.4513 5.4655 -13.0578 -12.9653
# 3 42.2397 32.4513 126.6746 6.2169 -13.8631 6.8744
# 4 0.7447 5.4655 6.2169 27.5157 0.7488 -3.5250
# 5 -19.9273 -13.0578 -13.8631 0.7488 33.5354 7.0147
# 6 -7.1297 -12.9653 6.8744 -3.5250 7.0147 29.9465
#
#
#
# Elastic Compliance Matrix: (Units=1/GPa)
#
#
# Indices 1 2 3 4 5 6 
#
# 1 0.050796 0.000339 -0.015405 0.002869 0.021569 0.011062
# 2 0.000339 0.008409 -0.002237 -0.000745 0.001787 0.003729
# 3 -0.015405 -0.002237 0.013884 -0.003175 -0.002629 -0.007581
# 4 0.002869 -0.000745 -0.003175 0.037957 -0.002006 0.006027
# 5 0.021569 0.001787 -0.002629 -0.002006 0.043088 -0.003817
# 6 0.011062 0.003729 -0.007581 0.006027 -0.003817 0.040985
#
#
# Mechanical properties :
#
#
# Convention : Reuss Voigt Hill
#
# Bulk Modulus (GPa) = 25.98701 54.25353 40.12027
# Shear Modulus (GPa) = 20.61405 32.41437 26.51421
#
# Velocity S-wave (km/s) = 3.06040 3.83765 3.47085
# Velocity P-wave (km/s) = 4.92903 6.65484 5.85586
#
# Compressibility (1/GPa) = 0.03848076
#
# Stress axis : x y z
#
# Youngs Moduli (GPa) = 19.68674 118.92037 72.02661
#
# Poissons Ratio (x) = -0.04026 1.10958
# Poissons Ratio (y) = -0.00667 0.16114
# Poissons Ratio (z) = 0.30328 0.26606
#
# Static dielectric constant tensor:
#      x y z
#    x 3.912540 -0.223670 0.059930 
#    y -0.223670 4.338350 0.227060 
#    z 0.059930 0.227060 3.950750 
# 
# 
# High freq. dielectric constant tensor:
#      x y z
#    x 1.854640 -0.025090 0.005780 
#    y -0.025090 1.877160 0.024300 
#    z 0.005780 0.024300 1.853470 
# 
# From -- ./inp_files/314691.got.cif
#   From: 2010.06.25/outbox.cif.g09.slc.cpg/sg2_158_cif.got.tgz:314691.got - 2010.06.27 13:26:56.
