data_PCOD8015412
_publ_section_title
;
Structure prediction by ZEFSAII (Michael W. Deem and Ramdas Pophale) SiO2 
 PCOD8015412
Probable space group: P -1
;
_chemical_formula_sum "Si O2"
_cell_formula_units_Z 12
_cell_length_a 8.440381
_cell_length_b 9.987872
_cell_length_c 13.171302
_cell_angle_alpha 147.553079
_cell_angle_beta 70.592993
_cell_angle_gamma 107.409949
_cell_volume 561.492033
_symmetry_space_group_name_H-M "P -1"
_symmetry_group_IT_number 2
_symmetry_cell_setting 'triclinic'
loop_
_space_group_symop_operation_xyz
x,y,z
-x,-y,-z
loop_
_atom_site_type_symbol
_atom_site_label
_atom_site_fract_x
_atom_site_fract_y
_atom_site_fract_z
Si Si1 0.427293 0.258200 0.646159
Si Si2 0.818964 0.387868 0.994648
Si Si3 0.751946 0.158030 0.078311
Si Si4 0.850610 0.930612 0.563848
Si Si5 0.871533 0.508214 0.440780
Si Si6 0.388763 0.353055 0.266400
O O1 0.321380 0.399295 0.846158
O O2 0.584024 0.435279 0.690278
O O3 0.500000 0.000000 0.500000
O O4 0.301179 0.218561 0.553728
O O5 0.825402 0.270893 0.030442
O O6 0.772193 0.174349 0.786314
O O7 0.000000 0.500000 0.000000
O O8 0.867790 0.259353 0.211925
O O9 0.562690 0.238851 0.188054
O O10 0.745008 0.856781 0.883696
O O11 0.924132 0.750843 0.518387
O O12 0.000000 0.000000 0.500000
O O13 0.686376 0.530750 0.541651
O O14 0.000000 0.500000 0.500000
#
# Coordination Sequence:
#
# PCOD8015412 Si02
#       6
#     2   2   2   2   2   2
#     4  11  26  44  69 103 138 181 235 287 347 409
#     4  11  21  42  72  98 134 185 228 279 349 409
#     4  10  21  42  68  98 129 177 229 284 342 407
#     4  12  24  45  71  98 141 184 229 287 351 415
#     4  12  25  40  69 104 136 180 227 286 347 411
#     4  10  22  41  68  94 134 170 232 276 348 398
#
# _framework density 21.37163
#
# number of rings (size 3 to 8) (size 9 to 14) (size 15 to 20)
#    0.000    1.000    6.667    0.500    2.333    1.333 
#    0.000    0.000    0.000    0.000    0.000    0.000 
#    0.000    0.000    0.000    0.000    0.000    0.000 
#
# Total GULP energy -148801.923676 kJ/mol
# GULP energy per Si atom -12400.160306 kJ/mol
# Density = 2.132299 g / cm^3
# Si number density = 21.371630 Si / 1000 Ang^3
#
#
#
# Elastic Constant Matrix: (Units=GPa)
#
#
# Indices 1 2 3 4 5 6 
#
# 1 70.1119 57.3745 36.3976 -2.5045 9.0485 0.1420
# 2 57.3745 155.8850 58.5667 7.2428 -13.6876 15.4786
# 3 36.3976 58.5667 169.3826 0.8607 6.6911 4.0264
# 4 -2.5045 7.2428 0.8607 44.9062 3.7113 -5.1456
# 5 9.0485 -13.6876 6.6911 3.7113 28.7239 -1.7782
# 6 0.1420 15.4786 4.0264 -5.1456 -1.7782 39.5777
#
#
#
# Elastic Compliance Matrix: (Units=1/GPa)
#
#
# Indices 1 2 3 4 5 6 
#
# 1 0.025615 -0.010701 -0.001409 0.004760 -0.013192 0.004263
# 2 -0.010701 0.012821 -0.002404 -0.004016 0.010263 -0.004792
# 3 -0.001409 -0.002404 0.007127 0.000390 -0.002403 0.000163
# 4 0.004760 -0.004016 0.000390 0.024201 -0.006360 0.004375
# 5 -0.013192 0.010263 -0.002403 -0.006360 0.045086 -0.002523
# 6 0.004263 -0.004792 0.000163 0.004375 -0.002523 0.027564
#
#
# Mechanical properties :
#
#
# Convention : Reuss Voigt Hill
#
# Bulk Modulus (GPa) = 60.48161 77.78414 69.13287
# Shear Modulus (GPa) = 28.25588 38.84428 33.55008
#
# Velocity S-wave (km/s) = 3.64004 4.26791 3.96642
# Velocity P-wave (km/s) = 6.78439 7.79498 7.30718
#
# Compressibility (1/GPa) = 0.01653395
#
# Stress axis : x y z
#
# Youngs Moduli (GPa) = 39.03910 77.99926 140.31365
#
# Poissons Ratio (x) = 0.83471 0.19764
# Poissons Ratio (y) = 0.41778 0.33738
# Poissons Ratio (z) = 0.05499 0.18755
#
# Static dielectric constant tensor:
#      x y z
#    x 3.742760 0.304590 -0.070090 
#    y 0.304590 3.941460 0.056910 
#    z -0.070090 0.056910 4.605430 
# 
# 
# High freq. dielectric constant tensor:
#      x y z
#    x 1.812470 0.024790 0.000560 
#    y 0.024790 1.841010 0.002200 
#    z 0.000560 0.002200 1.865920 
# 
# From -- ./inp_files/173706.got.cif
#   From: 2010.06.25/outbox.cif.g09.slc.cpg/sg2_87_cif.got.tgz:173706.got - 2010.06.27 13:26:56.
