data_PCOD8015645
_publ_section_title
;
Structure prediction by ZEFSAII (Michael W. Deem and Ramdas Pophale) SiO2 
 PCOD8015645
Probable space group: P -1
;
_chemical_formula_sum "Si O2"
_cell_formula_units_Z 14
_cell_length_a 8.670032
_cell_length_b 14.553209
_cell_length_c 9.417787
_cell_angle_alpha 79.023383
_cell_angle_beta 55.995597
_cell_angle_gamma 42.960265
_cell_volume 618.908901
_symmetry_space_group_name_H-M "P -1"
_symmetry_group_IT_number 2
_symmetry_cell_setting 'triclinic'
loop_
_space_group_symop_operation_xyz
x,y,z
-x,-y,-z
loop_
_atom_site_type_symbol
_atom_site_label
_atom_site_fract_x
_atom_site_fract_y
_atom_site_fract_z
Si Si1 0.469605 0.019422 0.178494
Si Si2 0.526030 0.357162 0.933467
Si Si3 0.902936 0.953804 0.159088
Si Si4 0.504153 0.151839 0.575068
Si Si5 0.871223 0.408288 0.724433
Si Si6 0.542044 0.627221 0.346332
Si Si7 0.928734 0.351986 0.403225
O O1 0.771682 0.928177 0.126457
O O2 0.253491 0.189662 0.262986
O O3 0.374174 0.959027 0.323687
O O4 0.500000 0.000000 0.000000
O O5 0.623768 0.425541 0.841372
O O6 0.395697 0.369216 0.849434
O O7 0.268404 0.451263 0.156394
O O8 0.801291 0.191131 0.879628
O O9 0.678894 0.063587 0.367628
O O10 0.000000 0.000000 0.000000
O O11 0.534786 0.249537 0.564055
O O12 0.166330 0.257555 0.689783
O O13 0.923270 0.415068 0.532190
O O14 0.831036 0.462857 0.300934
O O15 0.268706 0.664288 0.491800
#
# Coordination Sequence:
#
# PCOD8015645 Si02
#       7
#     2   2   2   2   2   2   2
#     4  12  28  46  74 104 143 187 238 297 356 423
#     4  10  23  43  68 100 141 182 236 283 351 417
#     4  12  28  46  72 106 143 187 237 293 359 426
#     4  12  25  47  74 104 145 190 239 289 359 420
#     4  10  21  42  73  94 135 193 231 285 348 424
#     4  10  25  41  72 103 141 186 233 297 345 418
#     4  10  23  46  67 101 144 185 235 288 360 412
#
# _framework density 22.620453000000001
#
# number of rings (size 3 to 8) (size 9 to 14) (size 15 to 20)
#    0.000    1.143    2.857    2.143    8.000    4.571 
#    0.000    0.000    0.000    0.000    0.000    0.000 
#    0.000    0.000    0.000    0.000    0.000    0.000 
#
# Total GULP energy -173560.396920 kJ/mol
# GULP energy per Si atom -12397.171209 kJ/mol
# Density = 2.256897 g / cm^3
# Si number density = 22.620453 Si / 1000 Ang^3
#
#
#
# Elastic Constant Matrix: (Units=GPa)
#
#
# Indices 1 2 3 4 5 6 
#
# 1 66.9349 54.1108 60.2771 -16.8238 34.4678 -8.5456
# 2 54.1108 136.3351 51.5315 7.1073 21.1663 -20.3041
# 3 60.2771 51.5315 142.9773 9.4228 34.0180 -9.2110
# 4 -16.8238 7.1073 9.4228 39.0001 -2.2742 -0.4481
# 5 34.4678 21.1663 34.0180 -2.2742 37.9119 -4.3068
# 6 -8.5456 -20.3041 -9.2110 -0.4481 -4.3068 35.7781
#
#
#
# Elastic Compliance Matrix: (Units=1/GPa)
#
#
# Indices 1 2 3 4 5 6 
#
# 1 0.081068 -0.020655 -0.019448 0.040934 -0.042489 -0.001968
# 2 -0.020655 0.014625 0.002580 -0.011668 0.008152 0.004866
# 3 -0.019448 0.002580 0.014500 -0.012204 0.002579 0.000709
# 4 0.040934 -0.011668 -0.012204 0.047362 -0.017074 -0.001448
# 5 -0.042489 0.008152 0.002579 -0.017074 0.057325 0.001828
# 6 -0.001968 0.004866 0.000709 -0.001448 0.001828 0.030626
#
#
# Mechanical properties :
#
#
# Convention : Reuss Voigt Hill
#
# Bulk Modulus (GPa) = 28.45245 75.34290 51.89767
# Shear Modulus (GPa) = 15.04813 34.55986 24.80399
#
# Velocity S-wave (km/s) = 2.58203 3.91297 3.31498
# Velocity P-wave (km/s) = 4.63624 7.33449 6.13553
#
# Compressibility (1/GPa) = 0.03514636
#
# Stress axis : x y z
#
# Youngs Moduli (GPa) = 12.33529 68.37581 68.96700
#
# Poissons Ratio (x) = 1.41232 1.34126
# Poissons Ratio (y) = 0.25479 -0.17791
# Poissons Ratio (z) = 0.23989 -0.17639
#
# Static dielectric constant tensor:
#      x y z
#    x 4.176840 -0.090780 0.237390 
#    y -0.090780 4.129590 -0.015550 
#    z 0.237390 -0.015550 4.276580 
# 
# 
# High freq. dielectric constant tensor:
#      x y z
#    x 1.893810 -0.010110 0.012530 
#    y -0.010110 1.900590 0.000130 
#    z 0.012530 0.000130 1.893700 
# 
# From -- ./inp_files/189830.got.cif
#   From: 2010.06.25/outbox.cif.g09.slc.cpg/sg2_95_cif.got.tgz:189830.got - 2010.06.27 13:26:56.
