data_PCOD8015750
_publ_section_title
;
Structure prediction by ZEFSAII (Michael W. Deem and Ramdas Pophale) SiO2 
 PCOD8015750
Probable space group: P -1
;
_chemical_formula_sum "Si O2"
_cell_formula_units_Z 16
_cell_length_a 11.787622
_cell_length_b 15.355494
_cell_length_c 9.044970
_cell_angle_alpha 74.841678
_cell_angle_beta 87.782458
_cell_angle_gamma 28.665226
_cell_volume 690.701818
_symmetry_space_group_name_H-M "P -1"
_symmetry_group_IT_number 2
_symmetry_cell_setting 'triclinic'
loop_
_space_group_symop_operation_xyz
x,y,z
-x,-y,-z
loop_
_atom_site_type_symbol
_atom_site_label
_atom_site_fract_x
_atom_site_fract_y
_atom_site_fract_z
Si Si1 0.049386 0.502565 0.725548
Si Si2 0.670039 0.022468 0.256659
Si Si3 0.517606 0.307807 0.291293
Si Si4 0.586333 0.753821 0.444079
Si Si5 0.988117 0.784011 0.048915
Si Si6 0.292235 0.179954 0.048434
Si Si7 0.915370 0.797271 0.645032
Si Si8 0.767912 0.290919 0.162621
O O1 0.303320 0.338499 0.683951
O O2 0.814394 0.627381 0.592318
O O3 0.975382 0.649883 0.738738
O O4 0.119197 0.385228 0.904410
O O5 0.871417 0.846694 0.449836
O O6 0.809734 0.932421 0.131630
O O7 0.531325 0.215979 0.214788
O O8 0.443808 0.108107 0.217905
O O9 0.531815 0.255176 0.478966
O O10 0.261653 0.550713 0.193759
O O11 0.761386 0.199387 0.287845
O O12 0.351484 0.992246 0.346259
O O13 0.018613 0.853311 0.917364
O O14 0.886328 0.780875 0.938265
O O15 0.500000 0.000000 0.000000
O O16 0.159565 0.684306 0.731589
O O17 0.500000 0.500000 0.000000
#
# Coordination Sequence:
#
# PCOD8015750 Si02
#       8
#     2   2   2   2   2   2   2   2
#     4  11  23  41  69 101 140 176 214 264 340 405
#     4  10  24  40  68 101 132 168 222 264 331 406
#     4  10  21  44  63  91 128 173 221 270 330 373
#     4  10  23  40  68 102 136 174 214 275 333 399
#     4  10  21  43  64  93 135 175 208 274 321 389
#     4  10  23  39  66 100 138 172 215 263 330 404
#     4  11  25  44  67 100 134 174 224 278 326 397
#     4  10  25  44  69  91 132 174 230 280 326 387
#
# _framework density 23.164843999999999
#
# number of rings (size 3 to 8) (size 9 to 14) (size 15 to 20)
#    0.000    1.750    1.250    1.125   12.250    5.000 
#    0.000    8.125    0.000    0.000    0.000    0.000 
#    0.000    0.000    0.000    0.000    0.000    0.000 
#
# Total GULP energy -198304.820075 kJ/mol
# GULP energy per Si atom -12394.051255 kJ/mol
# Density = 2.311212 g / cm^3
# Si number density = 23.164844 Si / 1000 Ang^3
#
#
#
# Elastic Constant Matrix: (Units=GPa)
#
#
# Indices 1 2 3 4 5 6 
#
# 1 137.1113 29.4091 39.0660 5.2996 -14.7836 -16.0682
# 2 29.4091 92.6615 18.8476 5.0021 -13.8794 -0.4274
# 3 39.0660 18.8476 98.4272 -3.7127 7.5658 -10.1955
# 4 5.2996 5.0021 -3.7127 28.0565 -3.6693 -6.8910
# 5 -14.7836 -13.8794 7.5658 -3.6693 44.6851 2.0956
# 6 -16.0682 -0.4274 -10.1955 -6.8910 2.0956 30.4019
#
#
#
# Elastic Compliance Matrix: (Units=1/GPa)
#
#
# Indices 1 2 3 4 5 6 
#
# 1 0.009352 -0.001829 -0.003244 -0.000639 0.002859 0.003487
# 2 -0.001829 0.012481 -0.002265 -0.002280 0.003576 -0.002314
# 3 -0.003244 -0.002265 0.012647 0.003036 -0.003830 0.003447
# 4 -0.000639 -0.002280 0.003036 0.039057 0.001332 0.009409
# 5 0.002859 0.003576 -0.003830 0.001332 0.025248 -0.001162
# 6 0.003487 -0.002314 0.003447 0.009409 -0.001162 0.038072
#
#
# Mechanical properties :
#
#
# Convention : Reuss Voigt Hill
#
# Bulk Modulus (GPa) = 50.49493 55.87169 53.18331
# Shear Modulus (GPa) = 31.61888 36.68718 34.15303
#
# Velocity S-wave (km/s) = 3.69853 3.98395 3.84389
# Velocity P-wave (km/s) = 6.33121 6.73305 6.53522
#
# Compressibility (1/GPa) = 0.01980397
#
# Stress axis : x y z
#
# Youngs Moduli (GPa) = 106.93321 80.12008 79.07023
#
# Poissons Ratio (x) = 0.14657 0.25651
# Poissons Ratio (y) = 0.19562 0.17906
# Poissons Ratio (z) = 0.34690 0.18143
#
# Static dielectric constant tensor:
#      x y z
#    x 4.843220 -0.276080 -0.211900 
#    y -0.276080 4.232960 0.092740 
#    z -0.211900 0.092740 4.378170 
# 
# 
# High freq. dielectric constant tensor:
#      x y z
#    x 1.915300 -0.014130 -0.013610 
#    y -0.014130 1.912420 0.004090 
#    z -0.013610 0.004090 1.931240 
# 
# From -- ./inp_files/272886.got.cif
#   From: 2010.06.25/outbox.cif.g09.slc.cpg/sg2_137_cif.got.tgz:272886.got - 2010.06.27 13:26:56.
