data_PCOD8015570
_publ_section_title
;
Structure prediction by ZEFSAII (Michael W. Deem and Ramdas Pophale) SiO2 
 PCOD8015570
Probable space group: P -1
;
_chemical_formula_sum "Si O2"
_cell_formula_units_Z 16
_cell_length_a 17.203298
_cell_length_b 11.430525
_cell_length_c 20.872431
_cell_angle_alpha 42.856049
_cell_angle_beta 19.733615
_cell_angle_gamma 33.002915
_cell_volume 718.569334
_symmetry_space_group_name_H-M "P -1"
_symmetry_group_IT_number 2
_symmetry_cell_setting 'triclinic'
loop_
_space_group_symop_operation_xyz
x,y,z
-x,-y,-z
loop_
_atom_site_type_symbol
_atom_site_label
_atom_site_fract_x
_atom_site_fract_y
_atom_site_fract_z
Si Si1 0.828512 0.912147 0.768642
Si Si2 0.982294 0.068875 0.256420
Si Si3 0.540352 0.553075 0.015452
Si Si4 0.055964 0.643427 0.941259
Si Si5 0.697246 0.608636 0.649743
Si Si6 0.448835 0.616680 0.234416
Si Si7 0.424211 0.101614 0.674526
Si Si8 0.027910 0.502646 0.218804
O O1 0.005044 0.689064 0.676538
O O2 0.007176 0.813787 0.736952
O O3 0.812863 0.108910 0.669252
O O4 0.500000 0.000000 0.000000
O O5 0.719232 0.063835 0.478006
O O6 0.940527 0.195066 0.173247
O O7 0.291730 0.814834 0.119184
O O8 0.529055 0.390444 0.132493
O O9 0.500000 0.500000 0.000000
O O10 0.874005 0.478340 0.794173
O O11 0.381164 0.483172 0.788963
O O12 0.790816 0.798059 0.136786
O O13 0.000000 0.500000 0.000000
O O14 0.718821 0.481085 0.618645
O O15 0.000000 0.500000 0.500000
O O16 0.522033 0.868336 0.666766
O O17 0.692590 0.566884 0.014008
O O18 0.276552 0.264196 0.662512
#
# Coordination Sequence:
#
# PCOD8015570 Si02
#       8
#     2   2   2   2   2   2   2   2
#     4  10  16  36  67  89 124 175 219 258 327 395
#     4  12  22  41  69  96 130 171 224 269 323 394
#     4  11  22  38  62  94 125 171 221 267 326 395
#     4  11  25  41  65 102 137 169 217 276 334 390
#     4  11  20  41  64  89 126 174 222 264 326 391
#     4   9  19  37  63  89 124 177 212 263 332 389
#     4  11  24  42  67  96 134 175 215 275 332 383
#     4   9  20  36  62  93 121 174 218 258 334 394
#
# _framework density 22.266466999999999
#
# number of rings (size 3 to 8) (size 9 to 14) (size 15 to 20)
#    0.000    1.500    5.000    3.000    0.000    7.500 
#    2.250    1.250    0.000    3.000    0.000    0.000 
#    0.000    0.000    0.000    0.000    0.000    0.000 
#
# Total GULP energy -198243.824834 kJ/mol
# GULP energy per Si atom -12390.239052 kJ/mol
# Density = 2.221579 g / cm^3
# Si number density = 22.266467 Si / 1000 Ang^3
#
#
#
# Elastic Constant Matrix: (Units=GPa)
#
#
# Indices 1 2 3 4 5 6 
#
# 1 139.3166 59.3739 31.2959 -7.6985 -53.4396 8.4534
# 2 59.3739 175.7033 44.7570 -4.0687 -29.1954 6.5349
# 3 31.2959 44.7570 37.1780 -12.4609 -21.3764 3.8711
# 4 -7.6985 -4.0687 -12.4609 27.8340 -0.5467 -7.2669
# 5 -53.4396 -29.1954 -21.3764 -0.5467 38.5395 -5.6586
# 6 8.4534 6.5349 3.8711 -7.2669 -5.6586 42.3819
#
#
#
# Elastic Compliance Matrix: (Units=1/GPa)
#
#
# Indices 1 2 3 4 5 6 
#
# 1 0.017071 -0.003053 0.006271 0.007889 0.025124 0.001200
# 2 -0.003053 0.009151 -0.012977 -0.005732 -0.004762 -0.001235
# 3 0.006271 -0.012977 0.070475 0.033542 0.039208 0.005299
# 4 0.007889 -0.005732 0.033542 0.055273 0.027362 0.009377
# 5 0.025124 -0.004762 0.039208 0.027362 0.080425 0.007571
# 6 0.001200 -0.001235 0.005299 0.009377 0.007571 0.025681
#
#
# Mechanical properties :
#
#
# Convention : Reuss Voigt Hill
#
# Bulk Modulus (GPa) = 12.95703 69.22792 41.09247
# Shear Modulus (GPa) = 16.48429 36.20250 26.34339
#
# Velocity S-wave (km/s) = 2.72383 4.03659 3.44335
# Velocity P-wave (km/s) = 3.96536 7.27211 5.85695
#
# Compressibility (1/GPa) = 0.07717818
#
# Stress axis : x y z
#
# Youngs Moduli (GPa) = 58.57978 109.28228 14.18941
#
# Poissons Ratio (x) = 0.33366 -0.08898
# Poissons Ratio (y) = 0.17885 0.18413
# Poissons Ratio (z) = -0.36733 1.41810
#
# Static dielectric constant tensor:
#      x y z
#    x 3.929610 0.075510 -0.649370 
#    y 0.075510 4.510870 -0.145690 
#    z -0.649370 -0.145690 3.805030 
# 
# 
# High freq. dielectric constant tensor:
#      x y z
#    x 1.883190 0.000450 -0.033740 
#    y 0.000450 1.891250 -0.009050 
#    z -0.033740 -0.009050 1.858130 
# 
# From -- ./inp_files/467446.got.cif
#   From: 2010.06.25/outbox.cif.g09.slc.cpg/sg2_234_cif.got.tgz:467446.got - 2010.06.27 13:26:56.
