data_PCOD8015867
_publ_section_title
;
Structure prediction by ZEFSAII (Michael W. Deem and Ramdas Pophale) SiO2 
 PCOD8015867
Probable space group: P -1
;
_chemical_formula_sum "Si O2"
_cell_formula_units_Z 16
_cell_length_a 16.133688
_cell_length_b 9.515468
_cell_length_c 18.658206
_cell_angle_alpha 140.034934
_cell_angle_beta 153.901228
_cell_angle_gamma 38.227068
_cell_volume 759.918510
_symmetry_space_group_name_H-M "P -1"
_symmetry_group_IT_number 2
_symmetry_cell_setting 'triclinic'
loop_
_space_group_symop_operation_xyz
x,y,z
-x,-y,-z
loop_
_atom_site_type_symbol
_atom_site_label
_atom_site_fract_x
_atom_site_fract_y
_atom_site_fract_z
Si Si1 0.925793 0.810128 0.404946
Si Si2 0.477875 0.946246 0.879223
Si Si3 0.240081 0.059293 0.522328
Si Si4 0.555918 0.419849 0.719377
Si Si5 0.668218 0.407327 0.650263
Si Si6 0.952442 0.055197 0.902697
Si Si7 0.319133 0.117442 0.133012
Si Si8 0.797625 0.704091 0.559646
O O1 0.909030 0.853043 0.493475
O O2 0.066797 0.545157 0.400621
O O3 0.714043 0.844976 0.217003
O O4 0.000000 0.000000 0.500000
O O5 0.453939 0.694111 0.763382
O O6 0.649850 0.941422 0.951748
O O7 0.500000 0.000000 0.000000
O O8 0.177613 0.260005 0.491812
O O9 0.185309 0.843301 0.361030
O O10 0.471659 0.988731 0.701726
O O11 0.543542 0.373302 0.607959
O O12 0.793060 0.318807 0.883723
O O13 0.433757 0.276513 0.607045
O O14 0.500000 0.500000 0.500000
O O15 0.772930 0.599786 0.820785
O O16 0.842762 0.893502 0.718236
O O17 0.152855 0.023216 0.999834
O O18 0.000000 0.000000 0.000000
#
# Coordination Sequence:
#
# PCOD8015867 Si02
#       8
#     2   2   2   2   2   2   2   2
#     4  11  24  44  67  97 127 171 232 266 314 395
#     4  10  23  45  68  96 130 173 216 274 328 381
#     4  10  21  43  66  97 129 173 217 269 332 382
#     4  11  23  44  64  96 130 170 222 262 327 394
#     4   9  19  36  69  91 123 166 213 266 323 375
#     4  12  27  40  63 100 134 172 213 270 338 389
#     4   9  22  43  64  98 135 167 221 268 325 397
#     4  12  25  43  68  94 136 173 218 272 326 392
#
# _framework density 21.054888999999999
#
# number of rings (size 3 to 8) (size 9 to 14) (size 15 to 20)
#    0.000    1.500    2.500    2.250    5.250    3.000 
#    2.250    1.250    0.000    0.000    0.000    0.000 
#    0.000    0.000    0.000    0.000    0.000    0.000 
#
# Total GULP energy -198226.793250 kJ/mol
# GULP energy per Si atom -12389.174578 kJ/mol
# Density = 2.100697 g / cm^3
# Si number density = 21.054889 Si / 1000 Ang^3
#
#
#
# Elastic Constant Matrix: (Units=GPa)
#
#
# Indices 1 2 3 4 5 6 
#
# 1 156.2826 23.9675 55.4002 -6.1960 -14.8633 21.6873
# 2 23.9675 97.0040 21.9806 -10.5826 -4.6735 11.5365
# 3 55.4002 21.9806 64.2820 -3.5268 -3.3449 1.1363
# 4 -6.1960 -10.5826 -3.5268 24.5792 2.6355 -3.1975
# 5 -14.8633 -4.6735 -3.3449 2.6355 44.8607 -1.8959
# 6 21.6873 11.5365 1.1363 -3.1975 -1.8959 36.6493
#
#
#
# Elastic Compliance Matrix: (Units=1/GPa)
#
#
# Indices 1 2 3 4 5 6 
#
# 1 0.010632 0.000293 -0.008998 0.000465 0.002604 -0.005930
# 2 0.000293 0.012049 -0.004049 0.004162 0.000660 -0.003444
# 3 -0.008998 -0.004049 0.024545 0.000410 -0.001352 0.005804
# 4 0.000465 0.004162 0.000410 0.043118 -0.001827 0.002069
# 5 0.002604 0.000660 -0.001352 -0.001827 0.023201 -0.000666
# 6 -0.005930 -0.003444 0.005804 0.002069 -0.000666 0.031845
#
#
# Mechanical properties :
#
#
# Convention : Reuss Voigt Hill
#
# Bulk Modulus (GPa) = 46.04194 57.80724 51.92459
# Shear Modulus (GPa) = 28.06818 35.63251 31.85035
#
# Velocity S-wave (km/s) = 3.65512 4.11830 3.89360
# Velocity P-wave (km/s) = 6.30303 7.08018 6.70288
#
# Compressibility (1/GPa) = 0.02171933
#
# Stress axis : x y z
#
# Youngs Moduli (GPa) = 94.05378 82.99196 40.74140
#
# Poissons Ratio (x) = -0.02433 0.36657
# Poissons Ratio (y) = -0.02758 0.16497
# Poissons Ratio (z) = 0.84626 0.33606
#
# Static dielectric constant tensor:
#      x y z
#    x 3.999880 -0.008210 -0.157650 
#    y -0.008210 3.978230 -0.162820 
#    z -0.157650 -0.162820 3.478520 
# 
# 
# High freq. dielectric constant tensor:
#      x y z
#    x 1.841700 0.009370 -0.010300 
#    y 0.009370 1.834960 -0.005850 
#    z -0.010300 -0.005850 1.802020 
# 
# From -- ./inp_files/243330.got.cif
#   From: 2010.06.25/outbox.cif.g09.slc.cpg/sg2_122_cif.got.tgz:243330.got - 2010.06.27 13:26:56.
