data_PCOD8015076
_publ_section_title
;
Structure prediction by ZEFSAII (Michael W. Deem and Ramdas Pophale) SiO2 
 PCOD8015076
Probable space group: P -1
;
_chemical_formula_sum "Si O2"
_cell_formula_units_Z 14
_cell_length_a 7.525678
_cell_length_b 10.929777
_cell_length_c 11.651731
_cell_angle_alpha 88.537268
_cell_angle_beta 59.208183
_cell_angle_gamma 122.637071
_cell_volume 630.165760
_symmetry_space_group_name_H-M "P -1"
_symmetry_group_IT_number 2
_symmetry_cell_setting 'triclinic'
loop_
_space_group_symop_operation_xyz
x,y,z
-x,-y,-z
loop_
_atom_site_type_symbol
_atom_site_label
_atom_site_fract_x
_atom_site_fract_y
_atom_site_fract_z
Si Si1 0.669194 0.226199 0.785654
Si Si2 0.832134 0.107613 0.312282
Si Si3 0.816858 0.546615 0.084001
Si Si4 0.736227 0.514569 0.365717
Si Si5 0.337490 0.865319 0.866546
Si Si6 0.649735 0.233904 0.526562
Si Si7 0.559945 0.722629 0.931472
O O1 0.678547 0.274449 0.650468
O O2 0.973655 0.309172 0.720777
O O3 0.479165 0.036587 0.872508
O O4 0.551148 0.288068 0.904862
O O5 0.664342 0.121811 0.271344
O O6 0.839214 0.192099 0.423669
O O7 0.123680 0.181215 0.169086
O O8 0.662296 0.918493 0.394980
O O9 0.665761 0.477677 0.256271
O O10 0.589361 0.458277 0.061054
O O11 0.000000 0.500000 0.000000
O O12 0.018903 0.740080 0.011244
O O13 0.500000 0.500000 0.500000
O O14 0.752223 0.388336 0.419407
O O15 0.499214 0.807555 0.857366
#
# Coordination Sequence:
#
# PCOD8015076 Si02
#       7
#     2   2   2   2   2   2   2
#     4  11  24  43  66  98 131 176 216 277 328 384
#     4  10  24  43  72  96 130 180 214 277 331 380
#     4  10  21  42  65  95 130 167 217 274 320 381
#     4  12  26  41  67  96 136 178 213 271 337 391
#     4  10  22  43  68  96 136 162 228 278 315 394
#     4  10  24  47  60  98 142 164 223 272 321 411
#     4  11  23  41  72 100 126 176 224 268 336 382
#
# _framework density 22.216376
#
# number of rings (size 3 to 8) (size 9 to 14) (size 15 to 20)
#    0.000    1.429    2.857    2.571    4.000    4.000 
#    0.000    2.857    0.000    0.000    0.000    0.000 
#    0.000    0.000    0.000    0.000    0.000    0.000 
#
# Total GULP energy -173548.850854 kJ/mol
# GULP energy per Si atom -12396.346490 kJ/mol
# Density = 2.216581 g / cm^3
# Si number density = 22.216376 Si / 1000 Ang^3
#
#
#
# Elastic Constant Matrix: (Units=GPa)
#
#
# Indices 1 2 3 4 5 6 
#
# 1 66.0487 33.4929 42.7875 6.6879 -3.7805 16.1690
# 2 33.4929 134.1073 67.9300 -0.0898 0.6588 24.3414
# 3 42.7875 67.9300 166.4320 20.8096 -9.8085 17.3678
# 4 6.6879 -0.0898 20.8096 41.3937 2.8719 5.9321
# 5 -3.7805 0.6588 -9.8085 2.8719 47.9275 -4.1829
# 6 16.1690 24.3414 17.3678 5.9321 -4.1829 22.1431
#
#
#
# Elastic Compliance Matrix: (Units=1/GPa)
#
#
# Indices 1 2 3 4 5 6 
#
# 1 0.020874 -0.001380 -0.003676 0.000031 -0.000036 -0.010857
# 2 -0.001380 0.011661 -0.003955 0.003844 -0.002195 -0.010153
# 3 -0.003676 -0.003955 0.009075 -0.004324 0.002008 0.001452
# 4 0.000031 0.003844 -0.004324 0.027854 -0.003386 -0.008958
# 5 -0.000036 -0.002195 0.002008 -0.003386 0.022024 0.005932
# 6 -0.010857 -0.010153 0.001452 -0.008958 0.005932 0.066631
#
#
# Mechanical properties :
#
#
# Convention : Reuss Voigt Hill
#
# Bulk Modulus (GPa) = 42.39533 72.77875 57.58704
# Shear Modulus (GPa) = 27.17300 37.11803 32.14552
#
# Velocity S-wave (km/s) = 3.50109 4.09192 3.80798
# Velocity P-wave (km/s) = 5.95549 7.42666 6.73138
#
# Compressibility (1/GPa) = 0.02358750
#
# Stress axis : x y z
#
# Youngs Moduli (GPa) = 47.90539 85.75540 110.18843
#
# Poissons Ratio (x) = 0.11838 0.40507
# Poissons Ratio (y) = 0.06613 0.43581
# Poissons Ratio (z) = 0.17611 0.33917
#
# Static dielectric constant tensor:
#      x y z
#    x 3.755280 0.298930 0.131170 
#    y 0.298930 4.609030 -0.235020 
#    z 0.131170 -0.235020 4.155180 
# 
# 
# High freq. dielectric constant tensor:
#      x y z
#    x 1.847390 0.018040 0.014290 
#    y 0.018040 1.889030 -0.008580 
#    z 0.014290 -0.008580 1.888550 
# 
# From -- ./inp_files/390358.got.cif
#   From: 2010.06.25/outbox.cif.g09.slc.cpg/sg2_196_cif.got.tgz:390358.got - 2010.06.27 13:26:56.
