data_PCOD8015927
_publ_section_title
;
Structure prediction by ZEFSAII (Michael W. Deem and Ramdas Pophale) SiO2 
 PCOD8015927
Probable space group: P -1
;
_chemical_formula_sum "Si O2"
_cell_formula_units_Z 16
_cell_length_a 11.646247
_cell_length_b 9.124719
_cell_length_c 17.396739
_cell_angle_alpha 132.588378
_cell_angle_beta 131.728331
_cell_angle_gamma 32.736787
_cell_volume 714.171754
_symmetry_space_group_name_H-M "P -1"
_symmetry_group_IT_number 2
_symmetry_cell_setting 'triclinic'
loop_
_space_group_symop_operation_xyz
x,y,z
-x,-y,-z
loop_
_atom_site_type_symbol
_atom_site_label
_atom_site_fract_x
_atom_site_fract_y
_atom_site_fract_z
Si Si1 0.654273 0.879559 0.954156
Si Si2 0.047305 0.765483 0.156301
Si Si3 0.998571 0.779197 0.773718
Si Si4 0.575894 0.646677 0.107259
Si Si5 0.561174 0.003401 0.687819
Si Si6 0.198006 0.457399 0.594605
Si Si7 0.672367 0.175585 0.442613
Si Si8 0.926470 0.064586 0.369781
O O1 0.746881 0.574536 0.865416
O O2 0.506704 0.109107 0.902203
O O3 0.851909 0.843733 0.050153
O O4 0.500000 0.000000 0.000000
O O5 0.107748 0.905490 0.181303
O O6 0.975669 0.882614 0.253257
O O7 0.157441 0.613793 0.860428
O O8 0.152246 0.588309 0.703937
O O9 0.816850 0.772359 0.698407
O O10 0.468497 0.788775 0.192352
O O11 0.500000 0.500000 0.000000
O O12 0.432215 0.136380 0.595912
O O13 0.471893 0.889079 0.648084
O O14 0.233125 0.604932 0.603693
O O15 0.000000 0.500000 0.500000
O O16 0.500000 0.500000 0.500000
O O17 0.800004 0.060045 0.377243
O O18 0.851912 0.030538 0.537701
#
# Coordination Sequence:
#
# PCOD8015927 Si02
#       8
#     2   2   2   2   2   2   2   2
#     4  11  26  44  73 101 141 177 235 288 350 413
#     4  10  24  46  69 108 133 186 230 285 353 413
#     4  10  24  43  72  98 138 175 231 284 338 418
#     4  11  25  47  69  99 134 182 228 286 349 411
#     4  11  26  43  69 101 133 179 231 283 348 411
#     4  10  21  43  67  96 129 176 226 273 334 399
#     4  11  26  43  67 104 139 185 230 283 349 408
#     4  10  24  45  70  95 143 179 229 288 333 423
#
# _framework density 22.403573999999999
#
# number of rings (size 3 to 8) (size 9 to 14) (size 15 to 20)
#    0.000    1.500    2.500    0.000    7.000    6.000 
#    0.000    0.000    0.000    0.000    0.000    0.000 
#    0.000    0.000    0.000    0.000    0.000    0.000 
#
# Total GULP energy -198273.240364 kJ/mol
# GULP energy per Si atom -12392.077523 kJ/mol
# Density = 2.235258 g / cm^3
# Si number density = 22.403574 Si / 1000 Ang^3
#
#
#
# Elastic Constant Matrix: (Units=GPa)
#
#
# Indices 1 2 3 4 5 6 
#
# 1 97.0468 52.2981 25.4443 -14.0616 14.2386 5.0456
# 2 52.2981 152.0215 46.0068 -22.2648 3.7341 19.1576
# 3 25.4443 46.0068 92.8163 -8.9859 6.7688 10.4340
# 4 -14.0616 -22.2648 -8.9859 41.2331 -3.8620 2.1227
# 5 14.2386 3.7341 6.7688 -3.8620 39.1111 -4.8914
# 6 5.0456 19.1576 10.4340 2.1227 -4.8914 34.6505
#
#
#
# Elastic Compliance Matrix: (Units=1/GPa)
#
#
# Indices 1 2 3 4 5 6 
#
# 1 0.013645 -0.003904 -0.001301 0.001875 -0.004203 -0.000145
# 2 -0.003904 0.009874 -0.003080 0.003619 0.000861 -0.004064
# 3 -0.001301 -0.003080 0.013115 0.000711 -0.001725 -0.002344
# 4 0.001875 0.003619 0.000711 0.027305 0.001043 -0.004013
# 5 -0.004203 0.000861 -0.001725 0.001043 0.027986 0.004542
# 6 -0.000145 -0.004064 -0.002344 -0.004013 0.004542 0.032720
#
#
# Mechanical properties :
#
#
# Convention : Reuss Voigt Hill
#
# Bulk Modulus (GPa) = 49.83896 65.48700 57.66298
# Shear Modulus (GPa) = 33.80563 37.54129 35.67346
#
# Velocity S-wave (km/s) = 3.88872 4.09795 3.99471
# Velocity P-wave (km/s) = 6.51591 7.18923 6.86084
#
# Compressibility (1/GPa) = 0.02006462
#
# Stress axis : x y z
#
# Youngs Moduli (GPa) = 73.28508 101.27446 76.24689
#
# Poissons Ratio (x) = 0.39541 0.09920
# Poissons Ratio (y) = 0.28613 0.23481
# Poissons Ratio (z) = 0.09535 0.31189
#
# Static dielectric constant tensor:
#      x y z
#    x 3.875420 0.193100 -0.034230 
#    y 0.193100 3.529170 -0.952070 
#    z -0.034230 -0.952070 4.072860 
# 
# 
# High freq. dielectric constant tensor:
#      x y z
#    x 1.874230 0.007860 0.004530 
#    y 0.007860 1.896340 -0.009540 
#    z 0.004530 -0.009540 1.895120 
# 
# From -- ./inp_files/81272.got.cif
#   From: 2010.06.25/outbox.cif.g09.slc.cpg/sg2_41_cif.got.tgz:81272.got - 2010.06.27 13:26:56.
