data_PCOD8015572
_publ_section_title
;
Structure prediction by ZEFSAII (Michael W. Deem and Ramdas Pophale) SiO2 
 PCOD8015572
Probable space group: P -1
;
_chemical_formula_sum "Si O2"
_cell_formula_units_Z 14
_cell_length_a 11.718443
_cell_length_b 14.565004
_cell_length_c 19.817437
_cell_angle_alpha 21.129098
_cell_angle_beta 31.306684
_cell_angle_gamma 29.553960
_cell_volume 583.550381
_symmetry_space_group_name_H-M "P -1"
_symmetry_group_IT_number 2
_symmetry_cell_setting 'triclinic'
loop_
_space_group_symop_operation_xyz
x,y,z
-x,-y,-z
loop_
_atom_site_type_symbol
_atom_site_label
_atom_site_fract_x
_atom_site_fract_y
_atom_site_fract_z
Si Si1 0.464788 0.416269 0.912035
Si Si2 0.914555 0.325712 0.820963
Si Si3 0.341349 0.958805 0.048182
Si Si4 0.786301 0.453453 0.284357
Si Si5 0.172588 0.859997 0.652456
Si Si6 0.756306 0.363453 0.576635
Si Si7 0.223660 0.295966 0.247571
O O1 0.706464 0.456924 0.781029
O O2 0.515994 0.161122 0.009930
O O3 0.287684 0.702342 0.771722
O O4 0.374806 0.318083 0.092461
O O5 0.818349 0.439363 0.865859
O O6 0.137092 0.403470 0.636722
O O7 0.000000 0.000000 0.000000
O O8 0.238258 0.737360 0.279283
O O9 0.500000 0.000000 0.000000
O O10 0.154638 0.272102 0.917742
O O11 0.843639 0.366797 0.236592
O O12 0.514612 0.503376 0.407125
O O13 0.983800 0.250678 0.374065
O O14 0.335115 0.013749 0.430388
O O15 0.913520 0.093934 0.638881
#
# Coordination Sequence:
#
# PCOD8015572 Si02
#       7
#     2   2   2   2   2   2   2
#     4  12  25  47  78 104 155 200 239 316 363 444
#     4  11  27  49  73 106 146 206 251 299 373 439
#     4  10  21  42  71 110 141 187 242 298 373 433
#     4  11  23  46  72 110 151 187 244 312 370 433
#     4  11  25  45  72 113 145 196 243 304 380 433
#     4  10  24  44  73 109 146 188 255 299 363 454
#     4  11  27  46  74 113 146 197 251 306 373 445
#
# _framework density 23.991074000000001
#
# number of rings (size 3 to 8) (size 9 to 14) (size 15 to 20)
#    0.000    1.143    2.857    2.571    6.000    6.286 
#    0.000    2.857    0.000    0.000    0.000    0.000 
#    0.000    0.000    0.000    0.000    0.000    0.000 
#
# Total GULP energy -173463.500800 kJ/mol
# GULP energy per Si atom -12390.250057 kJ/mol
# Density = 2.393647 g / cm^3
# Si number density = 23.991074 Si / 1000 Ang^3
#
#
#
# Elastic Constant Matrix: (Units=GPa)
#
#
# Indices 1 2 3 4 5 6 
#
# 1 115.8637 35.4037 29.2319 7.9563 -9.7680 9.5316
# 2 35.4037 90.3869 40.1245 8.4398 -14.2146 20.0114
# 3 29.2319 40.1245 147.2893 4.7440 5.2807 15.9783
# 4 7.9563 8.4398 4.7440 31.7027 10.3379 -4.0087
# 5 -9.7680 -14.2146 5.2807 10.3379 38.6492 5.6856
# 6 9.5316 20.0114 15.9783 -4.0087 5.6856 50.5077
#
#
#
# Elastic Compliance Matrix: (Units=1/GPa)
#
#
# Indices 1 2 3 4 5 6 
#
# 1 0.010219 -0.002548 -0.001230 -0.002713 0.002694 -0.001049
# 2 -0.002548 0.017271 -0.003550 -0.007275 0.009146 -0.006846
# 3 -0.001230 -0.003550 0.008133 0.000912 -0.002893 -0.000536
# 4 -0.002713 -0.007275 0.000912 0.040053 -0.015379 0.008016
# 5 0.002694 0.009146 -0.002893 -0.015379 0.035671 -0.008453
# 6 -0.001049 -0.006846 -0.000536 0.008016 -0.008453 0.024467
#
#
# Mechanical properties :
#
#
# Convention : Reuss Voigt Hill
#
# Bulk Modulus (GPa) = 47.69145 62.56223 55.12684
# Shear Modulus (GPa) = 31.75459 40.75723 36.25591
#
# Velocity S-wave (km/s) = 3.64208 4.12618 3.89167
# Velocity P-wave (km/s) = 6.13256 6.98816 6.57430
#
# Compressibility (1/GPa) = 0.02096812
#
# Stress axis : x y z
#
# Youngs Moduli (GPa) = 97.85445 57.90104 122.95537
#
# Poissons Ratio (x) = 0.14752 0.15118
# Poissons Ratio (y) = 0.24931 0.43652
# Poissons Ratio (z) = 0.12031 0.20556
#
# Static dielectric constant tensor:
#      x y z
#    x 4.752790 -0.104360 0.527770 
#    y -0.104360 4.556680 -0.286500 
#    z 0.527770 -0.286500 5.111170 
# 
# 
# High freq. dielectric constant tensor:
#      x y z
#    x 1.950230 0.010520 0.015110 
#    y 0.010520 1.956830 -0.013270 
#    z 0.015110 -0.013270 1.952260 
# 
# From -- ./inp_files/595565.got.cif
#   From: 2010.06.25/outbox.cif.g09.slc.cpg/sg2_298_cif.got.tgz:595565.got - 2010.06.27 13:26:56.
