data_PCOD8015664
_publ_section_title
;
Structure prediction by ZEFSAII (Michael W. Deem and Ramdas Pophale) SiO2 
 PCOD8015664
Probable space group: P -1
;
_chemical_formula_sum "Si O2"
_cell_formula_units_Z 14
_cell_length_a 9.181030
_cell_length_b 10.267905
_cell_length_c 10.978557
_cell_angle_alpha 100.440669
_cell_angle_beta 54.604674
_cell_angle_gamma 135.234758
_cell_volume 544.328952
_symmetry_space_group_name_H-M "P -1"
_symmetry_group_IT_number 2
_symmetry_cell_setting 'triclinic'
loop_
_space_group_symop_operation_xyz
x,y,z
-x,-y,-z
loop_
_atom_site_type_symbol
_atom_site_label
_atom_site_fract_x
_atom_site_fract_y
_atom_site_fract_z
Si Si1 0.752140 0.066557 0.336951
Si Si2 0.203540 0.396348 0.610560
Si Si3 0.873872 0.065889 0.540328
Si Si4 0.990567 0.822009 0.093224
Si Si5 0.909440 0.498150 0.807940
Si Si6 0.397945 0.222005 0.845564
Si Si7 0.389666 0.838645 0.921030
O O1 0.872202 0.060850 0.395128
O O2 0.968532 0.286796 0.206881
O O3 0.500000 0.000000 0.500000
O O4 0.639085 0.898257 0.268525
O O5 0.500000 0.500000 0.500000
O O6 0.030607 0.214317 0.759159
O O7 0.078769 0.297771 0.521674
O O8 0.156912 0.528110 0.677736
O O9 0.588641 0.920069 0.726248
O O10 0.000000 0.000000 0.500000
O O11 0.701893 0.688937 0.140948
O O12 0.142814 0.776462 0.959193
O O13 0.185693 0.060666 0.027154
O O14 0.706262 0.387624 0.770646
O O15 0.729595 0.361041 0.991622
O O16 0.500000 0.000000 0.000000
#
# Coordination Sequence:
#
# PCOD8015664 Si02
#       7
#     2   2   2   2   2   2   2
#     4  12  29  44  69 115 153 188 242 314 375 432
#     4  11  24  44  69 103 142 193 250 294 373 439
#     4  12  26  47  74 109 151 188 243 317 368 432
#     4  10  21  42  75 101 137 197 246 304 359 446
#     4  11  25  48  80 102 146 204 249 298 373 446
#     4  11  23  46  73 103 147 186 249 306 369 437
#     4  11  20  49  78 101 141 205 250 293 372 451
#
# _framework density 25.719743000000001
#
# number of rings (size 3 to 8) (size 9 to 14) (size 15 to 20)
#    0.000    0.857    4.286    2.571    6.000    1.143 
#    2.571    5.714    0.000    0.000    0.000    0.000 
#    0.000    0.000    0.000    0.000    0.000    0.000 
#
# Total GULP energy -173448.099161 kJ/mol
# GULP energy per Si atom -12389.149940 kJ/mol
# Density = 2.566120 g / cm^3
# Si number density = 25.719743 Si / 1000 Ang^3
#
#
#
# Elastic Constant Matrix: (Units=GPa)
#
#
# Indices 1 2 3 4 5 6 
#
# 1 180.3642 37.9903 35.9307 -2.4513 -12.0075 5.1361
# 2 37.9903 50.6967 41.8776 -3.3714 10.8244 11.3693
# 3 35.9307 41.8776 96.9082 -0.6041 -7.0352 4.7793
# 4 -2.4513 -3.3714 -0.6041 28.1643 0.5151 2.2218
# 5 -12.0075 10.8244 -7.0352 0.5151 56.6499 -2.7867
# 6 5.1361 11.3693 4.7793 2.2218 -2.7867 41.5898
#
#
#
# Elastic Compliance Matrix: (Units=1/GPa)
#
#
# Indices 1 2 3 4 5 6 
#
# 1 0.006965 -0.006296 0.000287 -0.000273 0.002768 0.001028
# 2 -0.006296 0.043730 -0.016916 0.005366 -0.012349 -0.010347
# 3 0.000287 -0.016916 0.017772 -0.001961 0.005667 0.003031
# 4 -0.000273 0.005366 -0.001961 0.036374 -0.001819 -0.003273
# 5 0.002768 -0.012349 0.005667 -0.001819 0.021512 0.003921
# 6 0.001028 -0.010347 0.003031 -0.003273 0.003921 0.026835
#
#
# Mechanical properties :
#
#
# Convention : Reuss Voigt Hill
#
# Bulk Modulus (GPa) = 44.21323 62.17402 53.19363
# Shear Modulus (GPa) = 24.20422 39.42550 31.81486
#
# Velocity S-wave (km/s) = 3.07102 3.91946 3.52089
# Velocity P-wave (km/s) = 5.45918 6.68648 6.10375
#
# Compressibility (1/GPa) = 0.02261766
#
# Stress axis : x y z
#
# Youngs Moduli (GPa) = 143.58512 22.86771 56.26728
#
# Poissons Ratio (x) = 0.14396 -0.01614
# Poissons Ratio (y) = 0.90394 0.95180
# Poissons Ratio (z) = -0.04118 0.38682
#
# Static dielectric constant tensor:
#      x y z
#    x 5.444590 -0.149620 0.248600 
#    y -0.149620 4.355490 -0.372770 
#    z 0.248600 -0.372770 5.966470 
# 
# 
# High freq. dielectric constant tensor:
#      x y z
#    x 2.064620 0.006330 0.002280 
#    y 0.006330 1.998040 0.001150 
#    z 0.002280 0.001150 2.034590 
# 
# From -- ./inp_files/392591.got.cif
#   From: 2010.06.25/outbox.cif.g09.slc.cpg/sg2_197_cif.got.tgz:392591.got - 2010.06.27 13:26:56.
