data_PCOD8015010
_publ_section_title
;
Structure prediction by ZEFSAII (Michael W. Deem and Ramdas Pophale) SiO2 
 PCOD8015010
Probable space group: P -1
;
_chemical_formula_sum "Si O2"
_cell_formula_units_Z 16
_cell_length_a 8.914926
_cell_length_b 14.469854
_cell_length_c 13.637462
_cell_angle_alpha 150.159419
_cell_angle_beta 115.667311
_cell_angle_gamma 72.919453
_cell_volume 775.681964
_symmetry_space_group_name_H-M "P -1"
_symmetry_group_IT_number 2
_symmetry_cell_setting 'triclinic'
loop_
_space_group_symop_operation_xyz
x,y,z
-x,-y,-z
loop_
_atom_site_type_symbol
_atom_site_label
_atom_site_fract_x
_atom_site_fract_y
_atom_site_fract_z
Si Si1 0.168186 0.641830 0.203299
Si Si2 0.134743 0.028031 0.478962
Si Si3 0.505509 0.028683 0.142065
Si Si4 0.403766 0.383986 0.952524
Si Si5 0.967664 0.522510 0.625711
Si Si6 0.126283 0.811257 0.557242
Si Si7 0.368986 0.395810 0.444581
Si Si8 0.663897 0.333832 0.138200
O O1 0.154357 0.691753 0.359171
O O2 0.200179 0.827310 0.310479
O O3 0.316842 0.525414 0.122895
O O4 0.000000 0.500000 0.000000
O O5 0.281715 0.202761 0.706310
O O6 0.031670 0.076707 0.397884
O O7 0.000000 0.000000 0.500000
O O8 0.699662 0.039305 0.240983
O O9 0.429528 0.207058 0.319043
O O10 0.500000 0.000000 0.000000
O O11 0.373441 0.861447 0.996365
O O12 0.500000 0.500000 0.000000
O O13 0.539694 0.311828 0.991641
O O14 0.144831 0.632783 0.821244
O O15 0.000000 0.500000 0.500000
O O16 0.912050 0.323499 0.483056
O O17 0.813524 0.638698 0.694469
O O18 0.500000 0.500000 0.500000
O O19 0.363723 0.505045 0.645375
#
# Coordination Sequence:
#
# PCOD8015010 Si02
#       8
#     2   2   2   2   2   2   2   2
#     4  11  23  41  70  97 126 171 226 270 318 386
#     4  10  21  42  64  97 132 164 223 270 313 389
#     4  12  23  39  66  99 128 167 217 269 319 386
#     4  12  25  43  65  97 136 171 215 270 330 385
#     4  10  22  42  65  91 132 170 209 265 324 381
#     4  11  21  41  70  94 130 172 217 264 324 383
#     4  11  21  43  65  94 127 166 215 266 314 384
#     4  11  24  40  65  94 132 171 207 266 332 375
#
# _framework density 20.627011
#
# number of rings (size 3 to 8) (size 9 to 14) (size 15 to 20)
#    0.000    1.000    5.000    3.750    0.000    1.000 
#    0.000    2.500    0.000    0.000    0.000    0.000 
#    0.000    0.000    0.000    0.000    0.000    0.000 
#
# Total GULP energy -198319.498515 kJ/mol
# GULP energy per Si atom -12394.968657 kJ/mol
# Density = 2.058006 g / cm^3
# Si number density = 20.627011 Si / 1000 Ang^3
#
#
#
# Elastic Constant Matrix: (Units=GPa)
#
#
# Indices 1 2 3 4 5 6 
#
# 1 95.5627 28.6866 34.4485 -0.3451 23.9727 -9.3755
# 2 28.6866 107.7197 30.3691 7.2731 4.9923 -13.6372
# 3 34.4485 30.3691 112.3626 8.6339 16.5403 -12.5378
# 4 -0.3451 7.2731 8.6339 43.3050 -0.9259 7.5720
# 5 23.9727 4.9923 16.5403 -0.9259 35.4684 -5.6337
# 6 -9.3755 -13.6372 -12.5378 7.5720 -5.6337 44.6563
#
#
#
# Elastic Compliance Matrix: (Units=1/GPa)
#
#
# Indices 1 2 3 4 5 6 
#
# 1 0.014217 -0.002737 -0.002472 0.000842 -0.008001 0.000303
# 2 -0.002737 0.010954 -0.001897 -0.001933 0.001582 0.002765
# 3 -0.002472 -0.001897 0.011005 -0.002310 -0.002935 0.002013
# 4 0.000842 -0.001933 -0.002310 0.024805 0.000603 -0.005192
# 5 -0.008001 0.001582 -0.002935 0.000603 0.035130 0.002309
# 6 0.000303 0.002765 0.002013 -0.005192 0.002309 0.025038
#
#
# Mechanical properties :
#
#
# Convention : Reuss Voigt Hill
#
# Bulk Modulus (GPa) = 45.53061 55.85038 50.69050
# Shear Modulus (GPa) = 35.04289 39.49531 37.26910
#
# Velocity S-wave (km/s) = 4.12622 4.38052 4.25527
# Velocity P-wave (km/s) = 6.69494 7.26088 6.98364
#
# Compressibility (1/GPa) = 0.02196324
#
# Stress axis : x y z
#
# Youngs Moduli (GPa) = 70.33892 91.28744 90.87190
#
# Poissons Ratio (x) = 0.24984 0.22464
# Poissons Ratio (y) = 0.19250 0.17242
# Poissons Ratio (z) = 0.17388 0.17321
#
# Static dielectric constant tensor:
#      x y z
#    x 4.274460 -0.541540 0.196490 
#    y -0.541540 4.325940 0.424020 
#    z 0.196490 0.424020 3.987250 
# 
# 
# High freq. dielectric constant tensor:
#      x y z
#    x 1.807700 -0.008350 0.020680 
#    y -0.008350 1.825200 0.000270 
#    z 0.020680 0.000270 1.802070 
# 
# From -- ./inp_files/296808.got.cif
#   From: 2010.06.25/outbox.cif.g09.slc.cpg/sg2_149_cif.got.tgz:296808.got - 2010.06.27 13:26:56.
