data_PCOD8015207
_publ_section_title
;
Structure prediction by ZEFSAII (Michael W. Deem and Ramdas Pophale) SiO2 
 PCOD8015207
Probable space group: P -1
;
_chemical_formula_sum "Si O2"
_cell_formula_units_Z 16
_cell_length_a 23.190005
_cell_length_b 9.890100
_cell_length_c 12.638607
_cell_angle_alpha 46.377674
_cell_angle_beta 152.168526
_cell_angle_gamma 143.902834
_cell_volume 794.106434
_symmetry_space_group_name_H-M "P -1"
_symmetry_group_IT_number 2
_symmetry_cell_setting 'triclinic'
loop_
_space_group_symop_operation_xyz
x,y,z
-x,-y,-z
loop_
_atom_site_type_symbol
_atom_site_label
_atom_site_fract_x
_atom_site_fract_y
_atom_site_fract_z
Si Si1 0.045459 0.581413 0.712497
Si Si2 0.367947 0.442207 0.534750
Si Si3 0.912649 0.653553 0.275805
Si Si4 0.582720 0.185063 0.443124
Si Si5 0.973417 0.919439 0.881418
Si Si6 0.613621 0.216514 0.791196
Si Si7 0.912849 0.379098 0.816970
Si Si8 0.564764 0.252871 0.924452
O O1 0.005400 0.376167 0.676188
O O2 0.016760 0.733458 0.507376
O O3 0.943322 0.530610 0.679297
O O4 0.215413 0.702198 0.963175
O O5 0.386450 0.571536 0.606737
O O6 0.199818 0.211598 0.368745
O O7 0.404602 0.626174 0.403882
O O8 0.478995 0.362493 0.766624
O O9 0.743580 0.427906 0.148352
O O10 0.913072 0.870198 0.126704
O O11 0.738060 0.218793 0.648799
O O12 0.500000 0.000000 0.500000
O O13 0.474811 0.053200 0.238251
O O14 0.023321 0.754369 0.050592
O O15 0.000000 0.000000 0.000000
O O16 0.542121 0.231115 0.774209
O O17 0.000000 0.500000 0.000000
O O18 0.500000 0.000000 0.000000
#
# Coordination Sequence:
#
# PCOD8015207 Si02
#       8
#     2   2   2   2   2   2   2   2
#     4  10  21  43  66  94 136 165 222 273 326 393
#     4  11  23  43  63 100 128 164 224 268 326 385
#     4  10  24  41  65  99 132 172 215 272 338 384
#     4  10  23  40  65  94 133 172 209 275 325 384
#     4  12  23  39  68 100 127 171 224 276 319 391
#     4  10  21  42  66  97 125 172 215 272 326 381
#     4  12  22  41  67  95 133 171 224 266 327 390
#     4  11  26  41  65  94 132 171 216 269 326 392
#
# _framework density 20.148432
#
# number of rings (size 3 to 8) (size 9 to 14) (size 15 to 20)
#    0.000    1.250    3.750    1.875   12.250    0.000 
#    0.000    1.250    0.000    0.000    0.000    0.000 
#    0.000    0.000    0.000    0.000    0.000    0.000 
#
# Total GULP energy -198215.473669 kJ/mol
# GULP energy per Si atom -12388.467104 kJ/mol
# Density = 2.010257 g / cm^3
# Si number density = 20.148432 Si / 1000 Ang^3
#
#
#
# Elastic Constant Matrix: (Units=GPa)
#
#
# Indices 1 2 3 4 5 6 
#
# 1 106.2977 28.1456 44.6784 11.3619 0.9851 -4.2459
# 2 28.1456 93.5089 39.5303 8.0924 -6.1927 0.6736
# 3 44.6784 39.5303 97.2583 -4.6258 0.1192 -1.9385
# 4 11.3619 8.0924 -4.6258 25.0410 3.3252 -1.5188
# 5 0.9851 -6.1927 0.1192 3.3252 35.9757 2.1797
# 6 -4.2459 0.6736 -1.9385 -1.5188 2.1797 40.2223
#
#
#
# Elastic Compliance Matrix: (Units=1/GPa)
#
#
# Indices 1 2 3 4 5 6 
#
# 1 0.012822 -0.000812 -0.005858 -0.006599 0.000088 0.000831
# 2 -0.000812 0.014009 -0.005613 -0.005657 0.003034 -0.000969
# 3 -0.005858 -0.005613 0.015630 0.007608 -0.001597 0.000603
# 4 -0.006599 -0.005657 0.007608 0.046973 -0.005271 0.001824
# 5 0.000088 0.003034 -0.001597 -0.005271 0.028923 -0.001885
# 6 0.000831 -0.000969 0.000603 0.001824 -0.001885 0.025166
#
#
# Mechanical properties :
#
#
# Convention : Reuss Voigt Hill
#
# Bulk Modulus (GPa) = 55.87908 57.97480 56.92694
# Shear Modulus (GPa) = 28.72684 32.56185 30.64435
#
# Velocity S-wave (km/s) = 3.78002 4.02443 3.90414
# Velocity P-wave (km/s) = 6.84437 7.10148 6.97411
#
# Compressibility (1/GPa) = 0.01789578
#
# Stress axis : x y z
#
# Youngs Moduli (GPa) = 77.98897 71.38302 63.98013
#
# Poissons Ratio (x) = 0.05798 0.37477
# Poissons Ratio (y) = 0.06335 0.35911
# Poissons Ratio (z) = 0.45682 0.40066
#
# Static dielectric constant tensor:
#      x y z
#    x 4.071790 -0.068570 -0.191290 
#    y -0.068570 3.884600 0.162040 
#    z -0.191290 0.162040 3.716090 
# 
# 
# High freq. dielectric constant tensor:
#      x y z
#    x 1.792920 -0.000930 -0.005090 
#    y -0.000930 1.780890 0.012990 
#    z -0.005090 0.012990 1.786530 
# 
# From -- ./inp_files/187703.got.cif
#   From: 2010.06.25/outbox.cif.g09.slc.cpg/sg2_94_cif.got.tgz:187703.got - 2010.06.27 13:26:56.
