data_PCOD8015596
_publ_section_title
;
Structure prediction by ZEFSAII (Michael W. Deem and Ramdas Pophale) SiO2 
 PCOD8015596
Probable space group: P -1
;
_chemical_formula_sum "Si O2"
_cell_formula_units_Z 14
_cell_length_a 9.467323
_cell_length_b 19.103092
_cell_length_c 8.746035
_cell_angle_alpha 58.629436
_cell_angle_beta 97.836745
_cell_angle_gamma 46.904890
_cell_volume 605.729713
_symmetry_space_group_name_H-M "P -1"
_symmetry_group_IT_number 2
_symmetry_cell_setting 'triclinic'
loop_
_space_group_symop_operation_xyz
x,y,z
-x,-y,-z
loop_
_atom_site_type_symbol
_atom_site_label
_atom_site_fract_x
_atom_site_fract_y
_atom_site_fract_z
Si Si1 0.570835 0.069213 0.187280
Si Si2 0.647084 0.773674 0.700099
Si Si3 0.804630 0.894215 0.929267
Si Si4 0.649171 0.662911 0.313653
Si Si5 0.345751 0.391053 0.283700
Si Si6 0.435449 0.596761 0.244213
Si Si7 0.858185 0.265183 0.525545
O O1 0.563526 0.098629 0.328746
O O2 0.272843 0.162743 0.002263
O O3 0.565107 0.152468 0.985385
O O4 0.895797 0.854295 0.442097
O O5 0.616839 0.692744 0.752960
O O6 0.516173 0.894200 0.402424
O O7 0.011948 0.609131 0.971588
O O8 0.057561 0.783234 0.956366
O O9 0.941691 0.855746 0.153658
O O10 0.634849 0.667403 0.488161
O O11 0.528954 0.640760 0.246670
O O12 0.000000 0.500000 0.500000
O O13 0.628325 0.308733 0.406155
O O14 0.500000 0.500000 0.500000
O O15 0.645203 0.457333 0.290182
#
# Coordination Sequence:
#
# PCOD8015596 Si02
#       7
#     2   2   2   2   2   2   2
#     4  12  26  43  69 113 139 178 235 295 341 409
#     4  11  26  45  69  99 149 190 220 284 361 422
#     4  11  23  47  73  99 140 187 232 284 354 411
#     4  12  22  42  77 103 135 176 243 290 330 406
#     4  11  24  47  70 101 140 191 230 279 358 414
#     4  10  21  42  72 101 132 180 232 283 342 405
#     4  11  24  44  74 103 137 178 248 283 334 412
#
# _framework density 23.112617
#
# number of rings (size 3 to 8) (size 9 to 14) (size 15 to 20)
#    0.000    0.857    4.286    4.286    2.000    2.857 
#    0.000    1.429    0.000    0.000    0.000    0.000 
#    0.000    0.000    0.000    0.000    0.000    0.000 
#
# Total GULP energy -173594.625227 kJ/mol
# GULP energy per Si atom -12399.616088 kJ/mol
# Density = 2.306001 g / cm^3
# Si number density = 23.112617 Si / 1000 Ang^3
#
#
#
# Elastic Constant Matrix: (Units=GPa)
#
#
# Indices 1 2 3 4 5 6 
#
# 1 160.8606 48.8017 48.1386 -15.0337 28.4917 13.5087
# 2 48.8017 157.2014 27.7349 -24.2098 28.3801 3.6088
# 3 48.1386 27.7349 93.3173 -5.4901 8.2960 4.9605
# 4 -15.0337 -24.2098 -5.4901 28.5776 4.5183 4.8919
# 5 28.4917 28.3801 8.2960 4.5183 33.5367 -6.5880
# 6 13.5087 3.6088 4.9605 4.8919 -6.5880 29.8965
#
#
#
# Elastic Compliance Matrix: (Units=1/GPa)
#
#
# Indices 1 2 3 4 5 6 
#
# 1 0.010721 0.001134 -0.003801 0.009233 -0.012045 -0.008516
# 2 0.001134 0.010557 -0.001566 0.012271 -0.012394 -0.006266
# 3 -0.003801 -0.001566 0.012920 -0.001143 0.001571 0.000296
# 4 0.009233 0.012271 -0.001143 0.058490 -0.030081 -0.021663
# 5 -0.012045 -0.012394 0.001571 -0.030081 0.059037 0.024609
# 6 -0.008516 -0.006266 0.000296 -0.021663 0.024609 0.046971
#
#
# Mechanical properties :
#
#
# Convention : Reuss Voigt Hill
#
# Bulk Modulus (GPa) = 38.86203 73.41442 56.13822
# Shear Modulus (GPa) = 23.17619 37.51576 30.34598
#
# Velocity S-wave (km/s) = 3.17006 4.03323 3.62741
# Velocity P-wave (km/s) = 5.49998 7.31587 6.47193
#
# Compressibility (1/GPa) = 0.02573206
#
# Stress axis : x y z
#
# Youngs Moduli (GPa) = 93.27185 94.72797 77.40098
#
# Poissons Ratio (x) = -0.10743 0.29421
# Poissons Ratio (y) = -0.10578 0.12119
# Poissons Ratio (z) = 0.35454 0.14832
#
# Static dielectric constant tensor:
#      x y z
#    x 4.025000 0.041770 0.316020 
#    y 0.041770 4.532260 -0.430780 
#    z 0.316020 -0.430780 4.102350 
# 
# 
# High freq. dielectric constant tensor:
#      x y z
#    x 1.913660 0.009780 0.014930 
#    y 0.009780 1.920310 -0.016800 
#    z 0.014930 -0.016800 1.908800 
# 
# From -- ./inp_files/206010.got.cif
#   From: 2010.06.25/outbox.cif.g09.slc.cpg/sg2_104_cif.got.tgz:206010.got - 2010.06.27 13:26:56.
