data_PCOD8015365
_publ_section_title
;
Structure prediction by ZEFSAII (Michael W. Deem and Ramdas Pophale) SiO2 
 PCOD8015365
Probable space group: P -1
;
_chemical_formula_sum "Si O2"
_cell_formula_units_Z 14
_cell_length_a 18.104800
_cell_length_b 9.320708
_cell_length_c 8.129420
_cell_angle_alpha 122.497801
_cell_angle_beta 120.178931
_cell_angle_gamma 33.537384
_cell_volume 634.784874
_symmetry_space_group_name_H-M "P -1"
_symmetry_group_IT_number 2
_symmetry_cell_setting 'triclinic'
loop_
_space_group_symop_operation_xyz
x,y,z
-x,-y,-z
loop_
_atom_site_type_symbol
_atom_site_label
_atom_site_fract_x
_atom_site_fract_y
_atom_site_fract_z
Si Si1 0.077321 0.713880 0.358105
Si Si2 0.118402 0.340585 0.408620
Si Si3 0.607519 0.975290 0.449689
Si Si4 0.849220 0.951628 0.024866
Si Si5 0.663242 0.644425 0.784687
Si Si6 0.329680 0.479164 0.915596
Si Si7 0.606394 0.087771 0.894533
O O1 0.116305 0.530019 0.438053
O O2 0.208450 0.577949 0.325633
O O3 0.000000 0.000000 0.500000
O O4 0.979737 0.748255 0.159192
O O5 0.104110 0.204748 0.187633
O O6 0.000000 0.500000 0.500000
O O7 0.265520 0.103764 0.516070
O O8 0.468526 0.245528 0.373651
O O9 0.595864 0.017492 0.659189
O O10 0.645170 0.723877 0.292847
O O11 0.726471 0.035441 0.018435
O O12 0.800993 0.219350 0.107849
O O13 0.634752 0.888362 0.928814
O O14 0.694390 0.518647 0.918815
O O15 0.464422 0.388274 0.980723
#
# Coordination Sequence:
#
# PCOD8015365 Si02
#       7
#     2   2   2   2   2   2   2
#     4  12  27  44  67  94 129 176 216 263 325 389
#     4  11  26  45  68  96 129 170 214 269 331 378
#     4  10  21  42  69  92 130 170 215 265 317 385
#     4  11  25  43  65  93 136 169 210 270 324 383
#     4  11  23  40  67  95 128 166 222 257 321 377
#     4  11  23  38  67 101 125 168 220 265 316 382
#     4  10  21  42  68  92 128 173 212 267 328 372
#
# _framework density 22.054714000000001
#
# number of rings (size 3 to 8) (size 9 to 14) (size 15 to 20)
#    0.000    1.143    2.857    5.143    6.000    1.714 
#    0.000    2.857    0.000    0.000    0.000    0.000 
#    0.000    0.000    0.000    0.000    0.000    0.000 
#
# Total GULP energy -173560.539685 kJ/mol
# GULP energy per Si atom -12397.181406 kJ/mol
# Density = 2.200452 g / cm^3
# Si number density = 22.054714 Si / 1000 Ang^3
#
#
#
# Elastic Constant Matrix: (Units=GPa)
#
#
# Indices 1 2 3 4 5 6 
#
# 1 124.3660 40.2362 44.4217 -12.1833 -19.8186 -37.5871
# 2 40.2362 96.8085 26.9263 -4.8785 -3.1278 -24.9195
# 3 44.4217 26.9263 61.5764 -7.5620 14.4308 -19.9611
# 4 -12.1833 -4.8785 -7.5620 42.3082 -8.7775 0.9285
# 5 -19.8186 -3.1278 14.4308 -8.7775 30.6611 2.0047
# 6 -37.5871 -24.9195 -19.9611 0.9285 2.0047 43.5662
#
#
#
# Elastic Compliance Matrix: (Units=1/GPa)
#
#
# Indices 1 2 3 4 5 6 
#
# 1 0.021526 -0.000779 -0.016706 0.007757 0.023314 0.009233
# 2 -0.000779 0.013195 -0.004175 0.001023 0.002786 0.004812
# 3 -0.016706 -0.004175 0.037153 -0.004964 -0.030244 0.001719
# 4 0.007757 0.001023 -0.004964 0.028190 0.015283 0.003699
# 5 0.023314 0.002786 -0.030244 0.015283 0.066286 0.004475
# 6 0.009233 0.004812 0.001719 0.003699 0.004475 0.034175
#
#
# Mechanical properties :
#
#
# Convention : Reuss Voigt Hill
#
# Bulk Modulus (GPa) = 35.02240 56.21326 45.61783
# Shear Modulus (GPa) = 19.73450 34.71822 27.22636
#
# Velocity S-wave (km/s) = 2.99456 3.97191 3.51734
# Velocity P-wave (km/s) = 5.27928 6.82482 6.10119
#
# Compressibility (1/GPa) = 0.02855315
#
# Stress axis : x y z
#
# Youngs Moduli (GPa) = 46.45586 75.78581 26.91563
#
# Poissons Ratio (x) = 0.05904 0.44966
# Poissons Ratio (y) = 0.03619 0.11238
# Poissons Ratio (z) = 0.77610 0.31642
#
# Static dielectric constant tensor:
#      x y z
#    x 4.085240 -0.448860 0.196040 
#    y -0.448860 4.308440 -0.174040 
#    z 0.196040 -0.174040 3.919000 
# 
# 
# High freq. dielectric constant tensor:
#      x y z
#    x 1.865020 -0.026660 0.003620 
#    y -0.026660 1.878920 -0.003630 
#    z 0.003620 -0.003630 1.861220 
# 
# From -- ./inp_files/329473.got.cif
#   From: 2010.06.25/outbox.cif.g09.slc.cpg/sg2_165_cif.got.tgz:329473.got - 2010.06.27 13:26:56.
