data_PCOD8015815
_publ_section_title
;
Structure prediction by ZEFSAII (Michael W. Deem and Ramdas Pophale) SiO2 
 PCOD8015815
Probable space group: P -1
;
_chemical_formula_sum "Si O2"
_cell_formula_units_Z 16
_cell_length_a 16.675962
_cell_length_b 10.775031
_cell_length_c 8.832976
_cell_angle_alpha 79.663389
_cell_angle_beta 61.916087
_cell_angle_gamma 132.874584
_cell_volume 651.119279
_symmetry_space_group_name_H-M "P -1"
_symmetry_group_IT_number 2
_symmetry_cell_setting 'triclinic'
loop_
_space_group_symop_operation_xyz
x,y,z
-x,-y,-z
loop_
_atom_site_type_symbol
_atom_site_label
_atom_site_fract_x
_atom_site_fract_y
_atom_site_fract_z
Si Si1 0.989548 0.344634 0.940658
Si Si2 0.400802 0.153640 0.438718
Si Si3 0.902243 0.728809 0.379795
Si Si4 0.626206 0.598262 0.680772
Si Si5 0.300615 0.724592 0.163090
Si Si6 0.157109 0.752452 0.492733
Si Si7 0.323076 0.712533 0.796167
Si Si8 0.784583 0.919254 0.755358
O O1 0.030623 0.275705 0.815261
O O2 0.029453 0.527271 0.784092
O O3 0.123994 0.487744 0.935609
O O4 0.767584 0.084235 0.240587
O O5 0.412596 0.318521 0.388094
O O6 0.608009 0.350318 0.257977
O O7 0.356514 0.034201 0.340156
O O8 0.778022 0.695625 0.434142
O O9 0.760965 0.486624 0.675277
O O10 0.093184 0.003194 0.242095
O O11 0.731240 0.750946 0.714240
O O12 0.418631 0.276704 0.954170
O O13 0.165649 0.671526 0.358401
O O14 0.293923 0.727420 0.988388
O O15 0.500000 0.000000 0.000000
O O16 0.085205 0.802337 0.484058
O O17 0.500000 0.000000 0.500000
#
# Coordination Sequence:
#
# PCOD8015815 Si02
#       8
#     2   2   2   2   2   2   2   2
#     4  11  26  44  67 101 143 177 223 277 342 422
#     4  11  24  44  68  97 139 179 221 279 343 402
#     4  11  25  44  69 101 135 181 230 282 339 398
#     4  10  24  43  70  99 135 174 236 286 327 404
#     4  11  22  40  69 104 137 170 230 284 335 409
#     4  10  21  43  66 103 135 169 226 281 337 400
#     4  12  25  41  68  99 138 184 214 272 350 402
#     4  10  23  42  71 101 134 177 228 289 338 391
#
# _framework density 24.573070999999999
#
# number of rings (size 3 to 8) (size 9 to 14) (size 15 to 20)
#    0.000    1.250    2.500    2.250    7.000    5.500 
#    0.000    1.250    0.000    0.000    0.000    0.000 
#    0.000    0.000    0.000    0.000    0.000    0.000 
#
# Total GULP energy -198319.147680 kJ/mol
# GULP energy per Si atom -12394.946730 kJ/mol
# Density = 2.451714 g / cm^3
# Si number density = 24.573071 Si / 1000 Ang^3
#
#
#
# Elastic Constant Matrix: (Units=GPa)
#
#
# Indices 1 2 3 4 5 6 
#
# 1 130.4876 41.3769 47.9658 5.3845 -13.7861 -6.2444
# 2 41.3769 77.8394 42.8826 2.5129 0.4641 -2.7594
# 3 47.9658 42.8826 101.8605 11.8281 0.5873 7.9809
# 4 5.3845 2.5129 11.8281 27.4908 0.2995 2.0074
# 5 -13.7861 0.4641 0.5873 0.2995 42.9201 1.1509
# 6 -6.2444 -2.7594 7.9809 2.0074 1.1509 38.4768
#
#
#
# Elastic Compliance Matrix: (Units=1/GPa)
#
#
# Indices 1 2 3 4 5 6 
#
# 1 0.010615 -0.003571 -0.003639 -0.000381 0.003443 0.002138
# 2 -0.003571 0.018268 -0.006348 0.001629 -0.001323 0.002002
# 3 -0.003639 -0.006348 0.015083 -0.004900 -0.001168 -0.003884
# 4 -0.000381 0.001629 -0.004900 0.038481 -0.000317 -0.000927
# 5 0.003443 -0.001323 -0.001168 -0.000317 0.024438 -0.000008
# 6 0.002138 0.002002 -0.003884 -0.000927 -0.000008 0.027334
#
#
# Mechanical properties :
#
#
# Convention : Reuss Voigt Hill
#
# Bulk Modulus (GPa) = 59.33785 63.84868 61.59326
# Shear Modulus (GPa) = 29.94883 33.64171 31.79527
#
# Velocity S-wave (km/s) = 3.49487 3.70408 3.60099
# Velocity P-wave (km/s) = 6.36282 6.65832 6.51224
#
# Compressibility (1/GPa) = 0.01685265
#
# Stress axis : x y z
#
# Youngs Moduli (GPa) = 94.20541 54.73963 66.29874
#
# Poissons Ratio (x) = 0.19545 0.24124
# Poissons Ratio (y) = 0.33636 0.42086
# Poissons Ratio (z) = 0.34278 0.34748
#
# Static dielectric constant tensor:
#      x y z
#    x 4.445930 0.340670 0.051880 
#    y 0.340670 4.021340 -0.245710 
#    z 0.051880 -0.245710 4.346580 
# 
# 
# High freq. dielectric constant tensor:
#      x y z
#    x 1.985810 0.000340 -0.013420 
#    y 0.000340 1.971390 -0.000260 
#    z -0.013420 -0.000260 1.978390 
# 
# From -- ./inp_files/333243.got.cif
#   From: 2010.06.25/outbox.cif.g09.slc.cpg/sg2_167_cif.got.tgz:333243.got - 2010.06.27 13:26:56.
