data_PCOD8015136
_publ_section_title
;
Structure prediction by ZEFSAII (Michael W. Deem and Ramdas Pophale) SiO2 
 PCOD8015136
Probable space group: P -1
;
_chemical_formula_sum "Si O2"
_cell_formula_units_Z 14
_cell_length_a 10.300293
_cell_length_b 15.697711
_cell_length_c 10.500980
_cell_angle_alpha 36.415057
_cell_angle_beta 135.173984
_cell_angle_gamma 136.620846
_cell_volume 659.290594
_symmetry_space_group_name_H-M "P -1"
_symmetry_group_IT_number 2
_symmetry_cell_setting 'triclinic'
loop_
_space_group_symop_operation_xyz
x,y,z
-x,-y,-z
loop_
_atom_site_type_symbol
_atom_site_label
_atom_site_fract_x
_atom_site_fract_y
_atom_site_fract_z
Si Si1 0.756834 0.104209 0.965906
Si Si2 0.239189 0.595251 0.332249
Si Si3 0.109388 0.081919 0.102354
Si Si4 0.307453 0.869423 0.575272
Si Si5 0.621593 0.579631 0.165338
Si Si6 0.611956 0.163476 0.043082
Si Si7 0.224974 0.545765 0.813725
O O1 0.728581 0.084923 0.124311
O O2 0.618238 0.951239 0.979011
O O3 0.980929 0.141339 0.036311
O O4 0.708905 0.257180 0.712091
O O5 0.317162 0.467798 0.597146
O O6 0.004121 0.538986 0.204609
O O7 0.355407 0.664987 0.196261
O O8 0.146215 0.947700 0.367057
O O9 0.302879 0.233702 0.018137
O O10 0.000000 0.000000 0.000000
O O11 0.311649 0.812905 0.789436
O O12 0.257914 0.726336 0.616777
O O13 0.500000 0.000000 0.500000
O O14 0.731540 0.506661 0.231063
O O15 0.382554 0.515070 0.057765
#
# Coordination Sequence:
#
# PCOD8015136 Si02
#       7
#     2   2   2   2   2   2   2
#     4   9  21  42  65  94 129 173 219 264 326 403
#     4  10  21  42  66  89 130 174 215 266 322 396
#     4  12  24  40  67 102 127 172 224 270 329 388
#     4  12  25  41  67  93 136 164 217 289 318 384
#     4  11  23  41  67  98 129 177 215 270 336 387
#     4   9  22  43  64  94 130 175 215 267 340 382
#     4  11  24  40  64 100 133 171 222 268 329 397
#
# _framework density 21.234946999999998
#
# number of rings (size 3 to 8) (size 9 to 14) (size 15 to 20)
#    0.857    0.571    2.857    2.143    4.000    1.143 
#    2.571    0.714    0.000    0.000    0.000    0.000 
#    0.000    0.000    0.000    0.000    0.000    0.000 
#
# Total GULP energy -173437.993136 kJ/mol
# GULP energy per Si atom -12388.428081 kJ/mol
# Density = 2.118661 g / cm^3
# Si number density = 21.234947 Si / 1000 Ang^3
#
#
#
# Elastic Constant Matrix: (Units=GPa)
#
#
# Indices 1 2 3 4 5 6 
#
# 1 36.0821 13.3643 28.2193 1.6565 -6.4908 -1.8909
# 2 13.3643 102.7912 35.0204 -11.1293 -13.4859 9.6595
# 3 28.2193 35.0204 134.1187 -4.3236 -12.1100 3.6478
# 4 1.6565 -11.1293 -4.3236 36.4959 -2.9864 4.5579
# 5 -6.4908 -13.4859 -12.1100 -2.9864 26.9278 -0.4558
# 6 -1.8909 9.6595 3.6478 4.5579 -0.4558 41.9399
#
#
#
# Elastic Compliance Matrix: (Units=1/GPa)
#
#
# Indices 1 2 3 4 5 6 
#
# 1 0.034706 -0.002409 -0.006502 -0.003141 0.003939 0.003069
# 2 -0.002409 0.012151 -0.001983 0.004387 0.005046 -0.003157
# 3 -0.006502 -0.001983 0.009564 0.001070 0.001846 -0.000765
# 4 -0.003141 0.004387 0.001070 0.029986 0.005171 -0.004448
# 5 0.003939 0.005046 0.001846 0.005171 0.041996 -0.001251
# 6 0.003069 -0.003157 -0.000765 -0.004448 -0.001251 0.025245
#
#
# Mechanical properties :
#
#
# Convention : Reuss Voigt Hill
#
# Bulk Modulus (GPa) = 28.87483 47.35555 38.11519
# Shear Modulus (GPa) = 26.74083 34.16525 30.45304
#
# Velocity S-wave (km/s) = 3.55249 4.01548 3.79106
# Velocity P-wave (km/s) = 5.51853 6.62178 6.09517
#
# Compressibility (1/GPa) = 0.03463224
#
# Stress axis : x y z
#
# Youngs Moduli (GPa) = 28.81374 82.29859 104.55835
#
# Poissons Ratio (x) = 0.19823 0.67988
# Poissons Ratio (y) = 0.06940 0.20735
# Poissons Ratio (z) = 0.18736 0.16320
#
# Static dielectric constant tensor:
#      x y z
#    x 3.567760 0.179000 -0.297520 
#    y 0.179000 3.932850 -0.202070 
#    z -0.297520 -0.202070 3.893400 
# 
# 
# High freq. dielectric constant tensor:
#      x y z
#    x 1.824500 0.003510 0.004910 
#    y 0.003510 1.840700 -0.013600 
#    z 0.004910 -0.013600 1.816840 
# 
# From -- ./inp_files/435401.got.cif
#   From: 2010.06.25/outbox.cif.g09.slc.cpg/sg2_218_cif.got.tgz:435401.got - 2010.06.27 13:26:56.
