data_PCOD8015574
_publ_section_title
;
Structure prediction by ZEFSAII (Michael W. Deem and Ramdas Pophale) SiO2 
 PCOD8015574
Probable space group: P -1
;
_chemical_formula_sum "Si O2"
_cell_formula_units_Z 16
_cell_length_a 12.371424
_cell_length_b 22.978391
_cell_length_c 19.031093
_cell_angle_alpha 18.185503
_cell_angle_beta 151.101984
_cell_angle_gamma 140.130399
_cell_volume 738.215335
_symmetry_space_group_name_H-M "P -1"
_symmetry_group_IT_number 2
_symmetry_cell_setting 'triclinic'
loop_
_space_group_symop_operation_xyz
x,y,z
-x,-y,-z
loop_
_atom_site_type_symbol
_atom_site_label
_atom_site_fract_x
_atom_site_fract_y
_atom_site_fract_z
Si Si1 0.555908 0.468046 0.421775
Si Si2 0.797782 0.759539 0.255173
Si Si3 0.922301 0.253459 0.113023
Si Si4 0.367232 0.608157 0.729252
Si Si5 0.915362 0.876640 0.493680
Si Si6 0.581543 0.056433 0.908661
Si Si7 0.468441 0.055289 0.609040
Si Si8 0.587839 0.325352 0.045823
O O1 0.721629 0.570492 0.432779
O O2 0.700108 0.220051 0.794091
O O3 0.306471 0.522442 0.265333
O O4 0.519792 0.525565 0.252997
O O5 0.077746 0.670288 0.492686
O O6 0.775169 0.854517 0.211222
O O7 0.615302 0.942552 0.891569
O O8 0.931475 0.175408 0.287583
O O9 0.192246 0.230638 0.269796
O O10 0.831033 0.123687 0.156139
O O11 0.397647 0.818986 0.495347
O O12 0.500000 0.500000 0.000000
O O13 0.472028 0.447759 0.909606
O O14 0.676925 0.829350 0.412908
O O15 0.114135 0.750573 0.691508
O O16 0.500000 0.000000 0.000000
O O17 0.463814 0.879071 0.756365
#
# Coordination Sequence:
#
# PCOD8015574 Si02
#       8
#     2   2   2   2   2   2   2   2
#     4  10  22  40  68  95 122 165 210 267 308 369
#     4  11  24  47  63  91 131 165 218 262 306 371
#     4   9  16  36  68  95 124 151 202 264 316 356
#     4  12  28  43  62  93 130 170 212 258 318 382
#     4   9  17  36  61  95 126 148 202 257 309 370
#     4  12  25  37  61  96 131 169 198 252 324 382
#     4  10  21  42  71  92 121 170 213 268 306 361
#     4   9  22  40  66  94 117 164 216 257 306 371
#
# _framework density 21.673893
#
# number of rings (size 3 to 8) (size 9 to 14) (size 15 to 20)
#    0.000    1.750    2.500    2.625    3.500    5.000 
#    4.500    0.000    0.000    0.000    0.000    0.000 
#    0.000    0.000    0.000    0.000    0.000    0.000 
#
# Total GULP energy -198251.574886 kJ/mol
# GULP energy per Si atom -12390.723430 kJ/mol
# Density = 2.162456 g / cm^3
# Si number density = 21.673893 Si / 1000 Ang^3
#
#
#
# Elastic Constant Matrix: (Units=GPa)
#
#
# Indices 1 2 3 4 5 6 
#
# 1 110.7426 50.9259 48.5370 -23.4387 25.6596 -2.8818
# 2 50.9259 95.2214 54.5105 -25.7161 7.4356 11.8459
# 3 48.5370 54.5105 49.3757 -20.9157 15.7757 1.7496
# 4 -23.4387 -25.7161 -20.9157 32.3092 6.1490 11.1468
# 5 25.6596 7.4356 15.7757 6.1490 44.0594 -3.1794
# 6 -2.8818 11.8459 1.7496 11.1468 -3.1794 33.0869
#
#
#
# Elastic Compliance Matrix: (Units=1/GPa)
#
#
# Indices 1 2 3 4 5 6 
#
# 1 0.017134 0.000040 -0.012344 0.005849 -0.006415 -0.000456
# 2 0.000040 0.033998 -0.035750 0.007173 0.005158 -0.012199
# 3 -0.012344 -0.035750 0.091505 0.028028 -0.023802 -0.004844
# 4 0.005849 0.007173 0.028028 0.075126 -0.027409 -0.031484
# 5 -0.006415 0.005158 -0.023802 -0.027409 0.038762 0.011812
# 6 -0.000456 -0.012199 -0.004844 -0.031484 0.011812 0.046549
#
#
# Mechanical properties :
#
#
# Convention : Reuss Voigt Hill
#
# Bulk Modulus (GPa) = 21.49219 62.58737 42.03978
# Shear Modulus (GPa) = 12.05711 28.64885 20.35298
#
# Velocity S-wave (km/s) = 2.36115 3.63962 3.06773
# Velocity P-wave (km/s) = 4.16786 6.82656 5.65566
#
# Compressibility (1/GPa) = 0.04652853
#
# Stress axis : x y z
#
# Youngs Moduli (GPa) = 58.36301 29.41335 10.92840
#
# Poissons Ratio (x) = -0.00118 0.13490
# Poissons Ratio (y) = -0.00235 0.39070
# Poissons Ratio (z) = 0.72043 1.05154
#
# Static dielectric constant tensor:
#      x y z
#    x 3.783040 0.000410 0.247250 
#    y 0.000410 4.206250 -0.060860 
#    z 0.247250 -0.060860 3.814290 
# 
# 
# High freq. dielectric constant tensor:
#      x y z
#    x 1.838160 -0.002330 0.019750 
#    y -0.002330 1.857700 -0.011670 
#    z 0.019750 -0.011670 1.838720 
# 
# From -- ./inp_files/280047.got.cif
#   From: 2010.06.25/outbox.cif.g09.slc.cpg/sg2_141_cif.got.tgz:280047.got - 2010.06.27 13:26:56.
