data_PCOD8015753
_publ_section_title
;
Structure prediction by ZEFSAII (Michael W. Deem and Ramdas Pophale) SiO2 
 PCOD8015753
Probable space group: P -1
;
_chemical_formula_sum "Si O2"
_cell_formula_units_Z 16
_cell_length_a 8.858420
_cell_length_b 15.739606
_cell_length_c 12.980115
_cell_angle_alpha 60.282287
_cell_angle_beta 53.290016
_cell_angle_gamma 105.896857
_cell_volume 722.953647
_symmetry_space_group_name_H-M "P -1"
_symmetry_group_IT_number 2
_symmetry_cell_setting 'triclinic'
loop_
_space_group_symop_operation_xyz
x,y,z
-x,-y,-z
loop_
_atom_site_type_symbol
_atom_site_label
_atom_site_fract_x
_atom_site_fract_y
_atom_site_fract_z
Si Si1 0.379255 0.875534 0.709683
Si Si2 0.898649 0.620921 0.584989
Si Si3 0.839163 0.928413 0.412053
Si Si4 0.774559 0.068861 0.642138
Si Si5 0.814292 0.844385 0.240947
Si Si6 0.255163 0.571978 0.494987
Si Si7 0.744252 0.711536 0.034447
Si Si8 0.878774 0.224783 0.815503
O O1 0.474110 0.806993 0.671378
O O2 0.500000 0.000000 0.500000
O O3 0.572937 0.976416 0.675304
O O4 0.989923 0.731851 0.966748
O O5 0.502431 0.444256 0.853834
O O6 0.037425 0.745832 0.546857
O O7 0.044420 0.574814 0.543992
O O8 0.011174 0.728832 0.374628
O O9 0.830287 0.877697 0.333767
O O10 0.962965 0.905593 0.462177
O O11 0.070422 0.122595 0.199843
O O12 0.514508 0.946832 0.914846
O O13 0.432323 0.675309 0.467260
O O14 0.978478 0.810917 0.168046
O O15 0.000000 0.000000 0.000000
O O16 0.531199 0.665166 0.241946
O O17 0.014195 0.378042 0.728160
#
# Coordination Sequence:
#
# PCOD8015753 Si02
#       8
#     2   2   2   2   2   2   2   2
#     4  10  25  44  68  88 123 179 221 265 320 380
#     4  11  23  39  68 104 135 164 210 272 330 385
#     4  11  23  43  66  92 131 174 220 265 314 386
#     4  12  23  42  68  97 128 168 222 265 320 392
#     4  12  23  37  64 101 135 169 215 268 325 384
#     4  11  22  38  66  98 140 170 204 265 335 387
#     4  10  21  43  64  94 133 172 213 261 323 384
#     4  11  23  39  63 101 134 170 205 267 333 392
#
# _framework density 22.131433000000001
#
# number of rings (size 3 to 8) (size 9 to 14) (size 15 to 20)
#    0.000    1.000    2.500    5.625    5.250    1.000 
#    0.000    3.125    2.750    0.000    0.000    0.000 
#    0.000    0.000    0.000    0.000    0.000    0.000 
#
# Total GULP energy -198367.600206 kJ/mol
# GULP energy per Si atom -12397.975013 kJ/mol
# Density = 2.208106 g / cm^3
# Si number density = 22.131433 Si / 1000 Ang^3
#
#
#
# Elastic Constant Matrix: (Units=GPa)
#
#
# Indices 1 2 3 4 5 6 
#
# 1 153.3439 53.8114 50.2147 -2.8968 -28.9285 -20.9685
# 2 53.8114 112.1978 50.7238 -22.9348 -16.4206 -8.7050
# 3 50.2147 50.7238 66.7483 -8.8847 -28.1726 -9.7772
# 4 -2.8968 -22.9348 -8.8847 34.3697 -1.9342 -1.3587
# 5 -28.9285 -16.4206 -28.1726 -1.9342 40.7724 -1.6240
# 6 -20.9685 -8.7050 -9.7772 -1.3587 -1.6240 43.4713
#
#
#
# Elastic Compliance Matrix: (Units=1/GPa)
#
#
# Indices 1 2 3 4 5 6 
#
# 1 0.009682 -0.002557 -0.003590 -0.001490 0.003424 0.003432
# 2 -0.002557 0.015948 -0.010005 0.007726 -0.001943 -0.000121
# 3 -0.003590 -0.010005 0.033415 0.002784 0.016824 0.004496
# 4 -0.001490 0.007726 0.002784 0.035279 0.005762 0.002772
# 5 0.003424 -0.001943 0.016824 0.005762 0.038337 0.006659
# 6 0.003432 -0.000121 0.004496 0.002772 0.006659 0.025981
#
#
# Mechanical properties :
#
#
# Convention : Reuss Voigt Hill
#
# Bulk Modulus (GPa) = 37.39746 71.30998 54.35372
# Shear Modulus (GPa) = 25.01747 35.55870 30.28808
#
# Velocity S-wave (km/s) = 3.36580 4.01272 3.70341
# Velocity P-wave (km/s) = 5.66033 7.33214 6.54980
#
# Compressibility (1/GPa) = 0.02673978
#
# Stress axis : x y z
#
# Youngs Moduli (GPa) = 103.28916 62.70348 29.92629
#
# Poissons Ratio (x) = 0.16036 0.10745
# Poissons Ratio (y) = 0.26416 0.29941
# Poissons Ratio (z) = 0.37084 0.62734
#
# Static dielectric constant tensor:
#      x y z
#    x 4.323510 -0.052580 -0.404050 
#    y -0.052580 4.213240 -0.111250 
#    z -0.404050 -0.111250 4.222200 
# 
# 
# High freq. dielectric constant tensor:
#      x y z
#    x 1.888410 -0.002010 -0.015990 
#    y -0.002010 1.871240 -0.008420 
#    z -0.015990 -0.008420 1.850490 
# 
# From -- ./inp_files/319361.got.cif
#   From: 2010.06.25/outbox.cif.g09.slc.cpg/sg2_160_cif.got.tgz:319361.got - 2010.06.27 13:26:56.
