data_PCOD8015160
_publ_section_title
;
Structure prediction by ZEFSAII (Michael W. Deem and Ramdas Pophale) SiO2 
 PCOD8015160
Probable space group: P -1
;
_chemical_formula_sum "Si O2"
_cell_formula_units_Z 16
_cell_length_a 15.019429
_cell_length_b 11.857840
_cell_length_c 10.343045
_cell_angle_alpha 116.780659
_cell_angle_beta 138.694486
_cell_angle_gamma 40.256352
_cell_volume 752.512353
_symmetry_space_group_name_H-M "P -1"
_symmetry_group_IT_number 2
_symmetry_cell_setting 'triclinic'
loop_
_space_group_symop_operation_xyz
x,y,z
-x,-y,-z
loop_
_atom_site_type_symbol
_atom_site_label
_atom_site_fract_x
_atom_site_fract_y
_atom_site_fract_z
Si Si1 0.561205 0.608341 0.981488
Si Si2 0.984602 0.048753 0.361187
Si Si3 0.330546 0.938566 0.040930
Si Si4 0.103032 0.725907 0.982562
Si Si5 0.580226 0.746870 0.472119
Si Si6 0.766624 0.103853 0.676723
Si Si7 0.886249 0.695301 0.918291
Si Si8 0.299256 0.568124 0.688822
O O1 0.467598 0.813580 0.999713
O O2 0.764207 0.460983 0.052655
O O3 0.571243 0.570292 0.124812
O O4 0.405365 0.614717 0.756429
O O5 0.906272 0.246084 0.381752
O O6 0.833841 0.060666 0.124632
O O7 0.000000 0.000000 0.500000
O O8 0.189876 0.909244 0.436152
O O9 0.444826 0.872155 0.267549
O O10 0.225264 0.145540 0.011545
O O11 0.037154 0.688807 0.013436
O O12 0.226521 0.764530 0.178974
O O13 0.922444 0.897538 0.792000
O O14 0.447141 0.807407 0.484389
O O15 0.726880 0.760323 0.672255
O O16 0.719395 0.531812 0.486255
O O17 0.000000 0.500000 0.000000
#
# Coordination Sequence:
#
# PCOD8015160 Si02
#       8
#     2   2   2   2   2   2   2   2
#     4   9  17  34  64  94 123 160 217 279 305 376
#     4  11  22  37  64 100 140 164 204 282 337 381
#     4  10  21  42  66  92 129 177 216 258 326 388
#     4  11  20  39  67 100 127 166 226 273 316 377
#     4  11  22  41  70  96 128 173 221 269 318 400
#     4  11  20  37  69 101 125 161 231 277 304 389
#     4  12  27  44  63  93 142 176 209 268 340 397
#     4   9  18  33  59  96 129 160 209 262 339 364
#
# _framework density 21.262108999999999
#
# number of rings (size 3 to 8) (size 9 to 14) (size 15 to 20)
#    0.000    1.500    5.000    1.875    1.750    0.000 
#    4.500    5.625    0.000    0.000    0.000    0.000 
#    0.000    0.000    0.000    0.000    0.000    0.000 
#
# Total GULP energy -198236.757574 kJ/mol
# GULP energy per Si atom -12389.797348 kJ/mol
# Density = 2.121372 g / cm^3
# Si number density = 21.262109 Si / 1000 Ang^3
#
#
#
# Elastic Constant Matrix: (Units=GPa)
#
#
# Indices 1 2 3 4 5 6 
#
# 1 60.5261 38.2714 8.7257 -1.0622 -4.2272 -6.1990
# 2 38.2714 196.0955 19.1986 18.3650 4.0847 -20.8848
# 3 8.7257 19.1986 41.7838 3.4011 6.5912 -3.4347
# 4 -1.0622 18.3650 3.4011 19.5678 -0.2864 -1.8963
# 5 -4.2272 4.0847 6.5912 -0.2864 21.8522 -1.3501
# 6 -6.1990 -20.8848 -3.4347 -1.8963 -1.3501 35.8449
#
#
#
# Elastic Compliance Matrix: (Units=1/GPa)
#
#
# Indices 1 2 3 4 5 6 
#
# 1 0.020317 -0.004142 -0.003650 0.005836 0.005961 0.001284
# 2 -0.004142 0.006960 -0.001337 -0.006275 -0.001607 0.002818
# 3 -0.003650 -0.001337 0.027024 -0.003702 -0.008615 0.000659
# 4 0.005836 -0.006275 -0.003702 0.058037 0.004194 0.000227
# 5 0.005961 -0.001607 -0.008615 0.004194 0.049954 0.001372
# 6 0.001284 0.002818 0.000659 0.000227 0.001372 0.029889
#
#
# Mechanical properties :
#
#
# Convention : Reuss Voigt Hill
#
# Bulk Modulus (GPa) = 27.74398 47.86631 37.80514
# Shear Modulus (GPa) = 22.47665 30.93362 26.70513
#
# Velocity S-wave (km/s) = 3.25487 3.81842 3.54785
# Velocity P-wave (km/s) = 5.21560 6.48088 5.88235
#
# Compressibility (1/GPa) = 0.03604386
#
# Stress axis : x y z
#
# Youngs Moduli (GPa) = 49.21937 143.67465 37.00447
#
# Poissons Ratio (x) = 0.59509 0.13505
# Poissons Ratio (y) = 0.20386 0.04948
# Poissons Ratio (z) = 0.17963 0.19211
#
# Static dielectric constant tensor:
#      x y z
#    x 3.527670 -0.139270 0.062820 
#    y -0.139270 4.646090 0.035330 
#    z 0.062820 0.035330 3.549820 
# 
# 
# High freq. dielectric constant tensor:
#      x y z
#    x 1.793750 -0.020650 -0.001150 
#    y -0.020650 1.865350 0.004450 
#    z -0.001150 0.004450 1.801210 
# 
# From -- ./inp_files/452587.got.cif
#   From: 2010.06.25/outbox.cif.g09.slc.cpg/sg2_227_cif.got.tgz:452587.got - 2010.06.27 13:26:56.
