data_PCOD8015405
_publ_section_title
;
Structure prediction by ZEFSAII (Michael W. Deem and Ramdas Pophale) SiO2 
 PCOD8015405
Probable space group: P -1
;
_chemical_formula_sum "Si O2"
_cell_formula_units_Z 16
_cell_length_a 8.875346
_cell_length_b 15.426654
_cell_length_c 9.015350
_cell_angle_alpha 88.071402
_cell_angle_beta 44.355544
_cell_angle_gamma 62.355674
_cell_volume 670.052121
_symmetry_space_group_name_H-M "P -1"
_symmetry_group_IT_number 2
_symmetry_cell_setting 'triclinic'
loop_
_space_group_symop_operation_xyz
x,y,z
-x,-y,-z
loop_
_atom_site_type_symbol
_atom_site_label
_atom_site_fract_x
_atom_site_fract_y
_atom_site_fract_z
Si Si1 0.737788 0.051566 0.455181
Si Si2 0.432366 0.527899 0.217987
Si Si3 0.441349 0.671314 0.696881
Si Si4 0.922859 0.890480 0.942714
Si Si5 0.636055 0.892395 0.536293
Si Si6 0.695402 0.612012 0.196249
Si Si7 0.633606 0.798850 0.057918
Si Si8 0.204018 0.297724 0.359634
O O1 0.969317 0.059705 0.240496
O O2 0.447747 0.133669 0.557681
O O3 0.835307 0.926332 0.376551
O O4 0.662019 0.091337 0.678187
O O5 0.600101 0.415629 0.206980
O O6 0.524212 0.600143 0.197564
O O7 0.106111 0.599469 0.475527
O O8 0.500000 0.500000 0.000000
O O9 0.158734 0.799591 0.899102
O O10 0.537073 0.647167 0.461179
O O11 0.672886 0.653537 0.640493
O O12 0.849455 0.824557 0.900131
O O13 0.659347 0.997789 0.202164
O O14 0.800363 0.786291 0.531081
O O15 0.727606 0.701356 0.111729
O O16 0.000000 0.500000 0.000000
O O17 0.606636 0.768353 0.913707
#
# Coordination Sequence:
#
# PCOD8015405 Si02
#       8
#     2   2   2   2   2   2   2   2
#     4  10  21  42  68  97 135 178 243 278 329 401
#     4  12  27  45  69 105 142 180 221 286 359 407
#     4  12  24  44  72  99 134 183 231 284 334 413
#     4  11  22  43  74 100 135 178 246 276 335 401
#     4  10  23  42  70 102 134 186 228 291 329 407
#     4  12  23  44  71  98 132 182 240 281 331 406
#     4  11  24  42  66 101 140 177 221 292 341 404
#     4  12  25  45  65 101 149 176 225 282 353 415
#
# _framework density 23.878741999999999
#
# number of rings (size 3 to 8) (size 9 to 14) (size 15 to 20)
#    0.000    0.750    2.500    4.875    0.000    5.000 
#    2.250    1.250    0.000    0.000    0.000    0.000 
#    0.000    0.000    0.000    0.000    0.000    0.000 
#
# Total GULP energy -198397.451960 kJ/mol
# GULP energy per Si atom -12399.840748 kJ/mol
# Density = 2.382439 g / cm^3
# Si number density = 23.878742 Si / 1000 Ang^3
#
#
#
# Elastic Constant Matrix: (Units=GPa)
#
#
# Indices 1 2 3 4 5 6 
#
# 1 88.0605 5.9287 30.4716 0.2114 11.7506 27.1339
# 2 5.9287 123.6073 18.7362 -23.7605 -0.5494 19.1951
# 3 30.4716 18.7362 71.2027 -5.3097 19.7146 17.6038
# 4 0.2114 -23.7605 -5.3097 42.6816 -5.4313 -4.4236
# 5 11.7506 -0.5494 19.7146 -5.4313 49.3038 -1.2621
# 6 27.1339 19.1951 17.6038 -4.4236 -1.2621 42.9912
#
#
#
# Elastic Compliance Matrix: (Units=1/GPa)
#
#
# Indices 1 2 3 4 5 6 
#
# 1 0.015833 0.001013 -0.004265 -0.001276 -0.002425 -0.008901
# 2 0.001013 0.009893 -0.002080 0.005012 0.001159 -0.003655
# 3 -0.004265 -0.002080 0.019451 -0.000068 -0.006908 -0.004553
# 4 -0.001276 0.005012 -0.000068 0.026798 0.003376 0.001452
# 5 -0.002425 0.001159 -0.006908 0.003376 0.024133 0.004898
# 6 -0.008901 -0.003655 -0.004553 0.001452 0.004898 0.032668
#
#
# Mechanical properties :
#
#
# Convention : Reuss Voigt Hill
#
# Bulk Modulus (GPa) = 28.97563 43.68260 36.32912
# Shear Modulus (GPa) = 33.12472 42.17757 37.65115
#
# Velocity S-wave (km/s) = 3.72856 4.20732 3.97516
# Velocity P-wave (km/s) = 5.54049 6.47575 6.02629
#
# Compressibility (1/GPa) = 0.03451176
#
# Stress axis : x y z
#
# Youngs Moduli (GPa) = 63.15923 101.08026 51.41204
#
# Poissons Ratio (x) = -0.10243 0.21929
# Poissons Ratio (y) = -0.06400 0.10696
# Poissons Ratio (z) = 0.26940 0.21029
#
# Static dielectric constant tensor:
#      x y z
#    x 4.003810 0.532920 0.318360 
#    y 0.532920 4.682950 -0.052000 
#    z 0.318360 -0.052000 4.303450 
# 
# 
# High freq. dielectric constant tensor:
#      x y z
#    x 1.937200 0.017020 0.010530 
#    y 0.017020 1.964420 -0.004390 
#    z 0.010530 -0.004390 1.950960 
# 
# From -- ./inp_files/207511.got.cif
#   From: 2010.06.25/outbox.cif.g09.slc.cpg/sg2_104_cif.got.tgz:207511.got - 2010.06.27 13:26:56.
