data_PCOD8015321
_publ_section_title
;
Structure prediction by ZEFSAII (Michael W. Deem and Ramdas Pophale) SiO2 
 PCOD8015321
Probable space group: P -1
;
_chemical_formula_sum "Si O2"
_cell_formula_units_Z 14
_cell_length_a 12.938819
_cell_length_b 12.705236
_cell_length_c 7.421576
_cell_angle_alpha 145.176078
_cell_angle_beta 52.063100
_cell_angle_gamma 126.048113
_cell_volume 539.898374
_symmetry_space_group_name_H-M "P -1"
_symmetry_group_IT_number 2
_symmetry_cell_setting 'triclinic'
loop_
_space_group_symop_operation_xyz
x,y,z
-x,-y,-z
loop_
_atom_site_type_symbol
_atom_site_label
_atom_site_fract_x
_atom_site_fract_y
_atom_site_fract_z
Si Si1 0.630211 0.645461 0.618684
Si Si2 0.053530 0.985174 0.122506
Si Si3 0.799324 0.411340 0.311634
Si Si4 0.530062 0.776181 0.264365
Si Si5 0.068624 0.285378 0.819460
Si Si6 0.326007 0.962175 0.914523
Si Si7 0.292762 0.430460 0.022963
O O1 0.500000 0.500000 0.500000
O O2 0.745037 0.526253 0.370624
O O3 0.612652 0.780671 0.998022
O O4 0.665616 0.829592 0.705662
O O5 0.078741 0.186671 0.478196
O O6 0.952466 0.849427 0.170830
O O7 0.194315 0.915293 0.861037
O O8 0.000000 0.000000 0.000000
O O9 0.702736 0.204822 0.139289
O O10 0.803834 0.530706 0.657988
O O11 0.951401 0.403052 0.090651
O O12 0.462202 0.952152 0.640930
O O13 0.410222 0.604588 0.122765
O O14 0.634848 0.745529 0.264249
O O15 0.214086 0.412319 0.889758
#
# Coordination Sequence:
#
# PCOD8015321 Si02
#       7
#     2   2   2   2   2   2   2
#     4  11  24  39  63  99 134 170 231 283 329 411
#     4  10  24  41  64  98 136 174 234 284 335 413
#     4   9  21  42  65  97 131 180 225 271 355 404
#     4   9  20  39  60  96 127 177 222 266 343 402
#     4  10  21  42  67  97 133 186 222 280 356 396
#     4  10  22  44  64  91 133 178 220 281 341 399
#     4   9  18  37  69  92 132 173 227 276 331 414
#
# _framework density 25.930803999999998
#
# number of rings (size 3 to 8) (size 9 to 14) (size 15 to 20)
#    0.000    2.286    0.000    1.714    6.000    1.714 
#    7.714    0.714    0.000    0.000    0.000    0.000 
#    0.000    0.000    0.000    0.000    0.000    0.000 
#
# Total GULP energy -173434.625813 kJ/mol
# GULP energy per Si atom -12388.187558 kJ/mol
# Density = 2.587178 g / cm^3
# Si number density = 25.930804 Si / 1000 Ang^3
#
#
#
# Elastic Constant Matrix: (Units=GPa)
#
#
# Indices 1 2 3 4 5 6 
#
# 1 161.9899 48.4660 91.7498 3.3804 -11.2715 1.0334
# 2 48.4660 62.9155 35.1078 2.6750 -1.1604 -6.9426
# 3 91.7498 35.1078 136.9932 5.8960 -26.0217 -16.9974
# 4 3.3804 2.6750 5.8960 54.1639 -0.6407 1.1487
# 5 -11.2715 -1.1604 -26.0217 -0.6407 54.5127 -8.5364
# 6 1.0334 -6.9426 -16.9974 1.1487 -8.5364 38.2346
#
#
#
# Elastic Compliance Matrix: (Units=1/GPa)
#
#
# Indices 1 2 3 4 5 6 
#
# 1 0.012140 -0.005664 -0.007763 0.000454 -0.002140 -0.005299
# 2 -0.005664 0.021428 -0.001445 -0.000627 -0.000908 0.003218
# 3 -0.007763 -0.001445 0.015272 -0.001201 0.006944 0.008323
# 4 0.000454 -0.000627 -0.001201 0.018618 -0.000482 -0.001327
# 5 -0.002140 -0.000908 0.006944 -0.000482 0.022445 0.008005
# 6 -0.005299 0.003218 0.008323 -0.001327 0.008005 0.032409
#
#
# Mechanical properties :
#
#
# Convention : Reuss Voigt Hill
#
# Bulk Modulus (GPa) = 52.36021 79.17176 65.76598
# Shear Modulus (GPa) = 31.56160 41.82057 36.69109
#
# Velocity S-wave (km/s) = 3.49255 4.02029 3.76568
# Velocity P-wave (km/s) = 6.04152 7.22140 6.65765
#
# Compressibility (1/GPa) = 0.01909847
#
# Stress axis : x y z
#
# Youngs Moduli (GPa) = 82.37350 46.66729 65.47878
#
# Poissons Ratio (x) = 0.26430 0.50829
# Poissons Ratio (y) = 0.46653 0.09459
# Poissons Ratio (z) = 0.63944 0.06742
#
# Static dielectric constant tensor:
#      x y z
#    x 4.522840 0.057040 -0.374920 
#    y 0.057040 5.083930 -0.299390 
#    z -0.374920 -0.299390 5.306260 
# 
# 
# High freq. dielectric constant tensor:
#      x y z
#    x 2.029320 0.001950 -0.024550 
#    y 0.001950 2.056700 -0.005200 
#    z -0.024550 -0.005200 2.043150 
# 
# From -- ./inp_files/271287.got.cif
#   From: 2010.06.25/outbox.cif.g09.slc.cpg/sg2_136_cif.got.tgz:271287.got - 2010.06.27 13:26:56.
