data_PCOD8015418
_publ_section_title
;
Structure prediction by ZEFSAII (Michael W. Deem and Ramdas Pophale) SiO2 
 PCOD8015418
Probable space group: P -1
;
_chemical_formula_sum "Si O2"
_cell_formula_units_Z 16
_cell_length_a 17.327245
_cell_length_b 10.236593
_cell_length_c 11.788834
_cell_angle_alpha 103.750077
_cell_angle_beta 31.878768
_cell_angle_gamma 125.405835
_cell_volume 726.245363
_symmetry_space_group_name_H-M "P -1"
_symmetry_group_IT_number 2
_symmetry_cell_setting 'triclinic'
loop_
_space_group_symop_operation_xyz
x,y,z
-x,-y,-z
loop_
_atom_site_type_symbol
_atom_site_label
_atom_site_fract_x
_atom_site_fract_y
_atom_site_fract_z
Si Si1 0.562876 0.284164 0.868809
Si Si2 0.451229 0.298341 0.776445
Si Si3 0.976756 0.106336 0.830874
Si Si4 0.866281 0.284337 0.569488
Si Si5 0.131873 0.454435 0.841069
Si Si6 0.430748 0.318578 0.266232
Si Si7 0.025584 0.709975 0.336418
Si Si8 0.191678 0.534755 0.037521
O O1 0.435609 0.199319 0.891079
O O2 0.635401 0.180383 0.790210
O O3 0.774195 0.519193 0.637176
O O4 0.418738 0.248362 0.141324
O O5 0.658187 0.391678 0.467257
O O6 0.463241 0.462728 0.825335
O O7 0.238416 0.127496 0.930727
O O8 0.961135 0.155508 0.734326
O O9 0.985701 0.229335 0.939226
O O10 0.189363 0.157537 0.585029
O O11 0.847343 0.169591 0.677345
O O12 0.000000 0.500000 0.500000
O O13 0.012814 0.329618 0.291998
O O14 0.200018 0.477697 0.890511
O O15 0.000000 0.500000 0.000000
O O16 0.573224 0.319869 0.169534
O O17 0.127496 0.648259 0.135056
#
# Coordination Sequence:
#
# PCOD8015418 Si02
#       8
#     2   2   2   2   2   2   2   2
#     4  10  16  36  62  88 117 158 196 245 296 352
#     4  11  25  38  57  91 126 158 193 244 300 349
#     4  11  25  39  58  90 127 152 200 247 289 359
#     4   8  15  29  62  92 114 140 199 251 293 340
#     4  11  21  42  67  87 112 159 206 242 295 348
#     4  11  21  39  64  85 121 161 196 240 301 359
#     4  10  16  37  63  91 116 151 197 252 297 342
#     4  10  18  35  67  90 109 159 205 239 298 349
#
# _framework density 22.031122
#
# number of rings (size 3 to 8) (size 9 to 14) (size 15 to 20)
#    0.000    2.000    7.500    1.125    0.000    3.000 
#    0.000    3.125    5.500    0.000    0.000    0.000 
#    0.000    0.000    0.000    0.000    0.000    0.000 
#
# Total GULP energy -198355.189832 kJ/mol
# GULP energy per Si atom -12397.199365 kJ/mol
# Density = 2.198098 g / cm^3
# Si number density = 22.031122 Si / 1000 Ang^3
#
#
#
# Elastic Constant Matrix: (Units=GPa)
#
#
# Indices 1 2 3 4 5 6 
#
# 1 73.4494 16.7614 16.5643 13.8787 9.9994 23.1406
# 2 16.7614 56.2877 44.0905 2.9064 -5.9102 29.3563
# 3 16.5643 44.0905 86.7972 22.0725 -17.7361 18.9930
# 4 13.8787 2.9064 22.0725 28.3384 9.9126 0.8809
# 5 9.9994 -5.9102 -17.7361 9.9126 39.2548 9.5087
# 6 23.1406 29.3563 18.9930 0.8809 9.5087 30.1538
#
#
#
# Elastic Compliance Matrix: (Units=1/GPa)
#
#
# Indices 1 2 3 4 5 6 
#
# 1 0.022229 0.005923 0.005552 -0.018173 0.009283 -0.028719
# 2 0.005923 0.060084 -0.016736 0.001025 0.013470 -0.056777
# 3 0.005552 -0.016736 0.041246 -0.043302 0.031083 -0.022484
# 4 -0.018173 0.001025 -0.043302 0.094183 -0.051581 0.053738
# 5 0.009283 0.013470 0.031083 -0.051581 0.066572 -0.059303
# 6 -0.028719 -0.056777 -0.022484 0.053738 -0.059303 0.141771
#
#
# Mechanical properties :
#
#
# Convention : Reuss Voigt Hill
#
# Bulk Modulus (GPa) = 8.84658 41.26296 25.05477
# Shear Modulus (GPa) = 10.54214 28.82393 19.68304
#
# Velocity S-wave (km/s) = 2.18986 3.62101 2.99226
# Velocity P-wave (km/s) = 3.22773 6.02099 4.83066
#
# Compressibility (1/GPa) = 0.11303800
#
# Stress axis : x y z
#
# Youngs Moduli (GPa) = 44.98577 16.64331 24.24474
#
# Poissons Ratio (x) = -0.09858 -0.13460
# Poissons Ratio (y) = -0.26646 0.40575
# Poissons Ratio (z) = -0.24974 0.27854
#
# Static dielectric constant tensor:
#      x y z
#    x 4.520550 0.223980 -0.092400 
#    y 0.223980 3.610700 0.156150 
#    z -0.092400 0.156150 4.042100 
# 
# 
# High freq. dielectric constant tensor:
#      x y z
#    x 1.873420 0.013810 -0.013010 
#    y 0.013810 1.833470 0.008390 
#    z -0.013010 0.008390 1.868080 
# 
# From -- ./inp_files/464651.got.cif
#   From: 2010.06.25/outbox.cif.g09.slc.cpg/sg2_233_cif.got.tgz:464651.got - 2010.06.27 13:26:56.
