data_PCOD8015891
_publ_section_title
;
Structure prediction by ZEFSAII (Michael W. Deem and Ramdas Pophale) SiO2 
 PCOD8015891
Probable space group: P -1
;
_chemical_formula_sum "Si O2"
_cell_formula_units_Z 16
_cell_length_a 11.658319
_cell_length_b 9.078547
_cell_length_c 14.990205
_cell_angle_alpha 40.367236
_cell_angle_beta 54.331072
_cell_angle_gamma 54.750923
_cell_volume 807.768700
_symmetry_space_group_name_H-M "P -1"
_symmetry_group_IT_number 2
_symmetry_cell_setting 'triclinic'
loop_
_space_group_symop_operation_xyz
x,y,z
-x,-y,-z
loop_
_atom_site_type_symbol
_atom_site_label
_atom_site_fract_x
_atom_site_fract_y
_atom_site_fract_z
Si Si1 0.576058 0.232072 0.108116
Si Si2 0.964110 0.219762 0.729683
Si Si3 0.106227 0.748394 0.062062
Si Si4 0.506777 0.445308 0.419474
Si Si5 0.406105 0.117882 0.903089
Si Si6 0.060627 0.289461 0.003639
Si Si7 0.221945 0.398537 0.472993
Si Si8 0.589843 0.945850 0.573921
O O1 0.500886 0.142493 0.267149
O O2 0.565147 0.071694 0.101599
O O3 0.500000 0.500000 0.000000
O O4 0.741655 0.228383 0.058713
O O5 0.878135 0.341798 0.801486
O O6 0.867935 0.339727 0.633889
O O7 0.122549 0.269893 0.634732
O O8 0.990685 0.940389 0.838051
O O9 0.021287 0.608840 0.099172
O O10 0.000000 0.000000 0.000000
O O11 0.500000 0.500000 0.500000
O O12 0.544821 0.649538 0.251012
O O13 0.351834 0.414552 0.471537
O O14 0.625587 0.192570 0.471737
O O15 0.235103 0.208645 0.958644
O O16 0.500000 0.000000 0.000000
O O17 0.000000 0.500000 0.000000
O O18 0.267788 0.256064 0.424657
O O19 0.500000 0.000000 0.500000
#
# Coordination Sequence:
#
# PCOD8015891 Si02
#       8
#     2   2   2   2   2   2   2   2
#     4  12  25  43  69 100 133 176 228 269 328 398
#     4  10  21  43  67  90 126 169 216 268 321 394
#     4  10  22  40  68  89 128 167 222 265 320 389
#     4  11  24  40  64  92 132 168 211 265 328 387
#     4  12  27  45  66  96 139 176 215 278 340 394
#     4  11  26  40  65  96 129 168 215 270 334 385
#     4  10  23  41  66  92 127 169 218 264 323 395
#     4  10  24  38  65  94 127 167 222 263 320 387
#
# _framework density 19.807651
#
# number of rings (size 3 to 8) (size 9 to 14) (size 15 to 20)
#    0.000    1.250    3.750    1.500   15.750    0.000 
#    0.000    0.000    0.000    3.000    0.000    0.000 
#    0.000    0.000    0.000    0.000    0.000    0.000 
#
# Total GULP energy -198282.709278 kJ/mol
# GULP energy per Si atom -12392.669330 kJ/mol
# Density = 1.976257 g / cm^3
# Si number density = 19.807651 Si / 1000 Ang^3
#
#
#
# Elastic Constant Matrix: (Units=GPa)
#
#
# Indices 1 2 3 4 5 6 
#
# 1 99.3451 38.0942 42.9639 -6.2505 -1.5236 14.2351
# 2 38.0942 125.8355 54.9785 -8.5022 -2.1733 22.2836
# 3 42.9639 54.9785 146.8024 -5.1602 -2.1475 5.7209
# 4 -6.2505 -8.5022 -5.1602 33.6776 2.1015 2.8971
# 5 -1.5236 -2.1733 -2.1475 2.1015 29.9734 4.5311
# 6 14.2351 22.2836 5.7209 2.8971 4.5311 35.3799
#
#
#
# Elastic Compliance Matrix: (Units=1/GPa)
#
#
# Indices 1 2 3 4 5 6 
#
# 1 0.012625 -0.001809 -0.002800 0.001731 0.000752 -0.003726
# 2 -0.001809 0.011228 -0.003331 0.002441 0.001244 -0.006165
# 3 -0.002800 -0.003331 0.008802 -0.000167 -0.000016 0.001817
# 4 0.001731 0.002441 -0.000167 0.031077 -0.001231 -0.004594
# 5 0.000752 0.001244 -0.000016 -0.001231 0.034391 -0.005387
# 6 -0.003726 -0.006165 0.001817 -0.004594 -0.005387 0.034419
#
#
# Mechanical properties :
#
#
# Convention : Reuss Voigt Hill
#
# Bulk Modulus (GPa) = 59.61614 71.56179 65.58897
# Shear Modulus (GPa) = 32.46456 35.53595 34.00025
#
# Velocity S-wave (km/s) = 4.05284 4.24022 4.14759
# Velocity P-wave (km/s) = 7.21551 7.75754 7.49143
#
# Compressibility (1/GPa) = 0.01677398
#
# Stress axis : x y z
#
# Youngs Moduli (GPa) = 79.20876 89.06280 113.60863
#
# Poissons Ratio (x) = 0.16109 0.31816
# Poissons Ratio (y) = 0.14326 0.37847
# Poissons Ratio (z) = 0.22182 0.29670
#
# Static dielectric constant tensor:
#      x y z
#    x 12.235540 4.677710 6.845350 
#    y 4.677710 6.584390 3.791800 
#    z 6.845350 3.791800 8.937590 
# 
# 
# High freq. dielectric constant tensor:
#      x y z
#    x 1.774460 -0.001250 0.005470 
#    y -0.001250 1.780720 -0.000310 
#    z 0.005470 -0.000310 1.782080 
# 
# From -- ./inp_files/331845.got.cif
#   From: 2010.06.25/outbox.cif.g09.slc.cpg/sg2_166_cif.got.tgz:331845.got - 2010.06.27 13:26:56.
