data_PCOD8015853
_publ_section_title
;
Structure prediction by ZEFSAII (Michael W. Deem and Ramdas Pophale) SiO2 
 PCOD8015853
Probable space group: P -1
;
_chemical_formula_sum "Si O2"
_cell_formula_units_Z 14
_cell_length_a 8.718369
_cell_length_b 15.486163
_cell_length_c 18.579544
_cell_angle_alpha 31.435295
_cell_angle_beta 150.298599
_cell_angle_gamma 142.417763
_cell_volume 635.296494
_symmetry_space_group_name_H-M "P -1"
_symmetry_group_IT_number 2
_symmetry_cell_setting 'triclinic'
loop_
_space_group_symop_operation_xyz
x,y,z
-x,-y,-z
loop_
_atom_site_type_symbol
_atom_site_label
_atom_site_fract_x
_atom_site_fract_y
_atom_site_fract_z
Si Si1 0.183510 0.473388 0.293070
Si Si2 0.542120 0.315155 0.949708
Si Si3 0.792609 0.676922 0.739569
Si Si4 0.843523 0.585830 0.521832
Si Si5 0.049780 0.289509 0.880054
Si Si6 0.666388 0.113214 0.551760
Si Si7 0.767275 0.971272 0.073444
O O1 0.089766 0.362680 0.263674
O O2 0.534476 0.593000 0.342611
O O3 0.205990 0.357684 0.455411
O O4 0.930406 0.595010 0.120506
O O5 0.575819 0.512573 0.804237
O O6 0.387075 0.273109 0.995935
O O7 0.335704 0.208147 0.879584
O O8 0.887160 0.266216 0.124578
O O9 0.606905 0.831305 0.550324
O O10 0.897563 0.391327 0.683074
O O11 0.138947 0.711743 0.522156
O O12 0.826991 0.110418 0.935182
O O13 0.893795 0.015799 0.758298
O O14 0.500000 0.000000 0.500000
O O15 0.500000 0.000000 0.000000
#
# Coordination Sequence:
#
# PCOD8015853 Si02
#       7
#     2   2   2   2   2   2   2
#     4   9  20  37  71  91 124 165 221 259 311 380
#     4  11  24  41  68  92 135 168 217 259 320 382
#     4  11  23  42  63 100 126 173 213 267 314 380
#     4   9  20  41  66  93 126 168 213 257 316 385
#     4  10  21  43  66  95 127 172 211 260 319 384
#     4  12  26  43  65  94 132 168 212 270 321 376
#     4  12  26  43  68  97 130 167 215 268 322 379
#
# _framework density 22.036954000000001
#
# number of rings (size 3 to 8) (size 9 to 14) (size 15 to 20)
#    0.857    0.571    1.429    3.857    2.000    4.000 
#    0.000    1.429    0.000    0.000    0.000    0.000 
#    0.000    0.000    0.000    0.000    0.000    0.000 
#
# Total GULP energy -173460.180843 kJ/mol
# GULP energy per Si atom -12390.012917 kJ/mol
# Density = 2.198680 g / cm^3
# Si number density = 22.036954 Si / 1000 Ang^3
#
#
#
# Elastic Constant Matrix: (Units=GPa)
#
#
# Indices 1 2 3 4 5 6 
#
# 1 112.0082 35.9721 25.5012 -7.1339 17.9705 -8.2438
# 2 35.9721 71.2277 30.7331 2.7782 2.4635 -8.7900
# 3 25.5012 30.7331 86.5901 -1.3871 12.2261 -5.8704
# 4 -7.1339 2.7782 -1.3871 29.8246 -3.4911 -9.6336
# 5 17.9705 2.4635 12.2261 -3.4911 34.2037 -8.2784
# 6 -8.2438 -8.7900 -5.8704 -9.6336 -8.2784 38.8711
#
#
#
# Elastic Compliance Matrix: (Units=1/GPa)
#
#
# Indices 1 2 3 4 5 6 
#
# 1 0.011952 -0.005565 -0.000718 0.003012 -0.005115 0.000825
# 2 -0.005565 0.019602 -0.005733 -0.002074 0.004009 0.002727
# 3 -0.000718 -0.005733 0.014409 0.000504 -0.004325 -0.000069
# 4 0.003012 -0.002074 0.000504 0.038552 0.004949 0.010854
# 5 -0.005115 0.004009 -0.004325 0.004949 0.035618 0.007981
# 6 0.000825 0.002727 -0.000069 0.010854 0.007981 0.030897
#
#
# Mechanical properties :
#
#
# Convention : Reuss Voigt Hill
#
# Bulk Modulus (GPa) = 45.59794 50.47098 48.03446
# Shear Modulus (GPa) = 27.41646 32.42119 29.91882
#
# Velocity S-wave (km/s) = 3.53102 3.83981 3.68865
# Velocity P-wave (km/s) = 6.11234 6.52774 6.32345
#
# Compressibility (1/GPa) = 0.02193081
#
# Stress axis : x y z
#
# Youngs Moduli (GPa) = 83.66958 51.01473 69.40039
#
# Poissons Ratio (x) = 0.28389 0.04986
# Poissons Ratio (y) = 0.46560 0.39787
# Poissons Ratio (z) = 0.06011 0.29246
#
# Static dielectric constant tensor:
#      x y z
#    x 4.065250 0.076480 0.135860 
#    y 0.076480 3.699200 0.008040 
#    z 0.135860 0.008040 3.867890 
# 
# 
# High freq. dielectric constant tensor:
#      x y z
#    x 1.878160 0.006140 0.013290 
#    y 0.006140 1.845060 -0.001210 
#    z 0.013290 -0.001210 1.853020 
# 
# From -- ./inp_files/561371.got.cif
#   From: 2010.06.25/outbox.cif.g09.slc.cpg/sg2_281_cif.got.tgz:561371.got - 2010.06.27 13:26:56.
