data_PCOD8015722
_publ_section_title
;
Structure prediction by ZEFSAII (Michael W. Deem and Ramdas Pophale) SiO2 
 PCOD8015722
Probable space group: P -1
;
_chemical_formula_sum "Si O2"
_cell_formula_units_Z 16
_cell_length_a 11.781607
_cell_length_b 14.633148
_cell_length_c 11.491763
_cell_angle_alpha 28.673276
_cell_angle_beta 48.808585
_cell_angle_gamma 59.893765
_cell_volume 699.230421
_symmetry_space_group_name_H-M "P -1"
_symmetry_group_IT_number 2
_symmetry_cell_setting 'triclinic'
loop_
_space_group_symop_operation_xyz
x,y,z
-x,-y,-z
loop_
_atom_site_type_symbol
_atom_site_label
_atom_site_fract_x
_atom_site_fract_y
_atom_site_fract_z
Si Si1 0.332945 0.150536 0.866011
Si Si2 0.276624 0.878248 0.015296
Si Si3 0.322021 0.801256 0.430405
Si Si4 0.813413 0.973133 0.324756
Si Si5 0.960494 0.732444 0.009200
Si Si6 0.017072 0.337667 0.423375
Si Si7 0.148376 0.363562 0.054651
Si Si8 0.382800 0.109390 0.239647
O O1 0.511202 0.242950 0.670050
O O2 0.221866 0.300445 0.798667
O O3 0.314799 0.093816 0.805028
O O4 0.275943 0.952141 0.201185
O O5 0.204883 0.889523 0.923509
O O6 0.434815 0.800068 0.991005
O O7 0.158868 0.740499 0.332940
O O8 0.200865 0.596108 0.740966
O O9 0.333086 0.902930 0.436836
O O10 0.656546 0.923326 0.560340
O O11 0.866097 0.777211 0.461904
O O12 0.949141 0.069287 0.215431
O O13 0.044652 0.564237 0.188051
O O14 0.965513 0.732548 0.865135
O O15 0.043231 0.317103 0.291206
O O16 0.298046 0.269041 0.063808
#
# Coordination Sequence:
#
# PCOD8015722 Si02
#       8
#     2   2   2   2   2   2   2   2
#     4  10  22  39  67  96 128 170 209 259 321 374
#     4  11  23  46  67  90 129 169 216 266 306 370
#     4  10  21  43  63  97 136 160 206 268 318 376
#     4  11  25  45  65  91 130 171 214 262 308 373
#     4  12  24  40  66  96 128 172 206 256 322 382
#     4  11  25  41  63  96 130 166 211 259 317 375
#     4  11  24  40  67  99 130 163 207 263 321 382
#     4  10  23  43  70  96 121 168 214 260 324 372
#
# _framework density 22.882300000000001
#
# number of rings (size 3 to 8) (size 9 to 14) (size 15 to 20)
#    0.000    1.250    2.500    2.625    1.750    4.000 
#    0.000    0.000    0.000    6.000    0.000    0.000 
#    0.000    0.000    0.000    0.000    0.000    0.000 
#
# Total GULP energy -198332.285069 kJ/mol
# GULP energy per Si atom -12395.767817 kJ/mol
# Density = 2.283022 g / cm^3
# Si number density = 22.882300 Si / 1000 Ang^3
#
#
#
# Elastic Constant Matrix: (Units=GPa)
#
#
# Indices 1 2 3 4 5 6 
#
# 1 96.5656 39.2620 37.8391 3.8268 9.7189 -6.2173
# 2 39.2620 114.6965 32.0459 5.5776 7.2877 -29.1939
# 3 37.8391 32.0459 85.1554 12.3380 5.9999 -2.1984
# 4 3.8268 5.5776 12.3380 34.3590 -10.4898 -0.6272
# 5 9.7189 7.2877 5.9999 -10.4898 19.1972 -1.9724
# 6 -6.2173 -29.1939 -2.1984 -0.6272 -1.9724 35.7330
#
#
#
# Elastic Compliance Matrix: (Units=1/GPa)
#
#
# Indices 1 2 3 4 5 6 
#
# 1 0.013969 -0.003406 -0.004461 -0.000943 -0.004995 -0.000919
# 2 -0.003406 0.013477 -0.002980 -0.001186 -0.002071 0.010100
# 3 -0.004461 -0.002980 0.016111 -0.006527 -0.005483 -0.002637
# 4 -0.000943 -0.001186 -0.006527 0.039219 0.024450 0.000503
# 5 -0.004995 -0.002071 -0.005483 0.024450 0.070626 0.001429
# 6 -0.000919 0.010100 -0.002637 0.000503 0.001429 0.036002
#
#
# Mechanical properties :
#
#
# Convention : Reuss Voigt Hill
#
# Bulk Modulus (GPa) = 45.73753 57.19014 51.46383
# Shear Modulus (GPa) = 22.89522 30.34253 26.61888
#
# Velocity S-wave (km/s) = 3.16660 3.64542 3.41441
# Velocity P-wave (km/s) = 5.77939 6.53958 6.17121
#
# Compressibility (1/GPa) = 0.02186388
#
# Stress axis : x y z
#
# Youngs Moduli (GPa) = 71.58505 74.19963 62.07108
#
# Poissons Ratio (x) = 0.25275 0.27688
# Poissons Ratio (y) = 0.24384 0.18495
# Poissons Ratio (z) = 0.31932 0.22109
#
# Static dielectric constant tensor:
#      x y z
#    x 3.915170 -0.213270 0.065100 
#    y -0.213270 4.559670 0.101330 
#    z 0.065100 0.101330 3.837560 
# 
# 
# High freq. dielectric constant tensor:
#      x y z
#    x 1.890840 -0.019200 0.003210 
#    y -0.019200 1.924920 0.015140 
#    z 0.003210 0.015140 1.881640 
# 
# From -- ./inp_files/432233.got.cif
#   From: 2010.06.25/outbox.cif.g09.slc.cpg/sg2_217_cif.got.tgz:432233.got - 2010.06.27 13:26:56.
