data_PCOD8015709
_publ_section_title
;
Structure prediction by ZEFSAII (Michael W. Deem and Ramdas Pophale) SiO2 
 PCOD8015709
Probable space group: P -1
;
_chemical_formula_sum "Si O2"
_cell_formula_units_Z 14
_cell_length_a 26.219694
_cell_length_b 5.296961
_cell_length_c 6.564092
_cell_angle_alpha 111.876573
_cell_angle_beta 45.066651
_cell_angle_gamma 109.178789
_cell_volume 595.939184
_symmetry_space_group_name_H-M "P -1"
_symmetry_group_IT_number 2
_symmetry_cell_setting 'triclinic'
loop_
_space_group_symop_operation_xyz
x,y,z
-x,-y,-z
loop_
_atom_site_type_symbol
_atom_site_label
_atom_site_fract_x
_atom_site_fract_y
_atom_site_fract_z
Si Si1 0.288193 0.901254 0.577509
Si Si2 0.502898 0.685370 0.349284
Si Si3 0.166340 0.170682 0.160241
Si Si4 0.619752 0.566618 0.673762
Si Si5 0.937386 0.187842 0.399881
Si Si6 0.829185 0.329475 0.435362
Si Si7 0.905379 0.643869 0.939676
O O1 0.321673 0.634040 0.483499
O O2 0.246099 0.840046 0.464022
O O3 0.345955 0.160627 0.453974
O O4 0.231003 0.975086 0.936600
O O5 0.500000 0.500000 0.500000
O O6 0.434717 0.595732 0.375162
O O7 0.500000 0.000000 0.500000
O O8 0.578305 0.653091 0.016010
O O9 0.194197 0.459283 0.266174
O O10 0.149115 0.167199 0.962963
O O11 0.092139 0.065067 0.452783
O O12 0.889616 0.156522 0.317309
O O13 0.927939 0.467547 0.629428
O O14 0.023392 0.185351 0.111088
O O15 0.863529 0.466653 0.176011
#
# Coordination Sequence:
#
# PCOD8015709 Si02
#       7
#     2   2   2   2   2   2   2
#     4  12  26  47  68 101 153 185 229 281 347 419
#     4  11  24  49  80 113 144 178 233 277 327 400
#     4  11  25  41  64  95 134 182 238 297 354 429
#     4  11  27  47  74 109 145 188 223 279 337 406
#     4  10  22  40  66  92 126 177 245 302 366 416
#     4  11  25  41  65  94 134 183 237 293 361 426
#     4  10  21  43  63  92 129 177 239 315 365 409
#
# _framework density 23.492332000000001
#
# number of rings (size 3 to 8) (size 9 to 14) (size 15 to 20)
#    0.000    1.143    1.429    3.429    6.000    6.286 
#    0.000    0.000    0.000    0.000    0.000    0.000 
#    0.000    0.000    0.000    0.000    0.000    0.000 
#
# Total GULP energy -173631.599742 kJ/mol
# GULP energy per Si atom -12402.257124 kJ/mol
# Density = 2.343886 g / cm^3
# Si number density = 23.492332 Si / 1000 Ang^3
#
#
#
# Elastic Constant Matrix: (Units=GPa)
#
#
# Indices 1 2 3 4 5 6 
#
# 1 106.2361 19.4732 35.3402 9.6360 0.7566 -11.5352
# 2 19.4732 92.8311 19.1028 -8.9012 -0.8432 -4.2065
# 3 35.3402 19.1028 86.3453 -2.9512 -4.4668 -5.4702
# 4 9.6360 -8.9012 -2.9512 38.8443 -8.5724 2.1216
# 5 0.7566 -0.8432 -4.4668 -8.5724 36.8425 -5.1369
# 6 -11.5352 -4.2065 -5.4702 2.1216 -5.1369 48.5406
#
#
#
# Elastic Compliance Matrix: (Units=1/GPa)
#
#
# Indices 1 2 3 4 5 6 
#
# 1 0.011891 -0.001877 -0.004534 -0.004175 -0.001505 0.002175
# 2 -0.001877 0.011844 -0.001673 0.003234 0.000908 0.000347
# 3 -0.004534 -0.001673 0.014041 0.002302 0.002364 0.000509
# 4 -0.004175 0.003234 0.002302 0.029321 0.007125 -0.000980
# 5 -0.001505 0.000908 0.002364 0.007125 0.029529 0.002801
# 6 0.002175 0.000347 0.000509 -0.000980 0.002801 0.021545
#
#
# Mechanical properties :
#
#
# Convention : Reuss Voigt Hill
#
# Bulk Modulus (GPa) = 46.27929 48.13830 47.20879
# Shear Modulus (GPa) = 35.32523 38.94524 37.13524
#
# Velocity S-wave (km/s) = 3.88195 4.07601 3.98016
# Velocity P-wave (km/s) = 6.31152 6.53355 6.42350
#
# Compressibility (1/GPa) = 0.02160794
#
# Stress axis : x y z
#
# Youngs Moduli (GPa) = 84.09681 84.42943 71.22196
#
# Poissons Ratio (x) = 0.15845 0.32295
# Poissons Ratio (y) = 0.15783 0.11914
# Poissons Ratio (z) = 0.38133 0.14123
#
# Static dielectric constant tensor:
#      x y z
#    x 4.492460 0.138520 0.005160 
#    y 0.138520 4.294310 0.229820 
#    z 0.005160 0.229820 4.229760 
# 
# 
# High freq. dielectric constant tensor:
#      x y z
#    x 1.940990 0.006250 0.004950 
#    y 0.006250 1.945810 0.018960 
#    z 0.004950 0.018960 1.937130 
# 
# From -- ./inp_files/7998.got.cif
#   From: 2010.06.25/outbox.cif.g09.slc.cpg/sg2_4_cif.got.tgz:7998.got - 2010.06.27 13:26:56.
