data_PCOD8015819
_publ_section_title
;
Structure prediction by ZEFSAII (Michael W. Deem and Ramdas Pophale) SiO2 
 PCOD8015819
Probable space group: P -1
;
_chemical_formula_sum "Si O2"
_cell_formula_units_Z 16
_cell_length_a 13.318214
_cell_length_b 7.062546
_cell_length_c 9.985339
_cell_angle_alpha 103.214496
_cell_angle_beta 64.882342
_cell_angle_gamma 72.396592
_cell_volume 737.999650
_symmetry_space_group_name_H-M "P -1"
_symmetry_group_IT_number 2
_symmetry_cell_setting 'triclinic'
loop_
_space_group_symop_operation_xyz
x,y,z
-x,-y,-z
loop_
_atom_site_type_symbol
_atom_site_label
_atom_site_fract_x
_atom_site_fract_y
_atom_site_fract_z
Si Si1 0.776264 0.540416 0.524930
Si Si2 0.278088 0.742678 0.922853
Si Si3 0.168798 0.470170 0.804624
Si Si4 0.881079 0.833543 0.578803
Si Si5 0.534111 0.643305 0.817014
Si Si6 0.359456 0.788347 0.157901
Si Si7 0.909315 0.849933 0.067080
Si Si8 0.942384 0.057317 0.345331
O O1 0.764485 0.606910 0.387569
O O2 0.883327 0.595044 0.539431
O O3 0.642213 0.682199 0.693026
O O4 0.816627 0.282818 0.474498
O O5 0.251187 0.546093 0.860312
O O6 0.417960 0.696872 0.789722
O O7 0.178616 0.974544 0.960114
O O8 0.275690 0.738456 0.085923
O O9 0.168148 0.260613 0.839122
O O10 0.029809 0.667043 0.894654
O O11 0.944548 0.882639 0.679575
O O12 0.731779 0.985417 0.685125
O O13 0.943917 0.872939 0.415609
O O14 0.590484 0.390675 0.784666
O O15 0.476978 0.790066 0.009215
O O16 0.955531 0.968548 0.172294
#
# Coordination Sequence:
#
# PCOD8015819 Si02
#       8
#     2   2   2   2   2   2   2   2
#     4  12  23  41  62  96 127 163 209 263 308 369
#     4  10  21  43  66  89 126 171 206 250 317 371
#     4  11  24  39  66  95 129 159 213 257 309 380
#     4  11  23  40  65  94 124 166 210 256 323 364
#     4   9  22  42  65  94 124 168 209 260 314 363
#     4   9  20  44  65  90 125 169 206 259 312 368
#     4  11  23  44  64  93 127 168 206 258 311 380
#     4  11  23  41  65  91 130 164 204 264 317 372
#
# _framework density 21.680226999999999
#
# number of rings (size 3 to 8) (size 9 to 14) (size 15 to 20)
#    0.750    0.750    3.750    1.500    1.750    1.000 
#    4.500    0.625    0.000    0.000    0.000    0.000 
#    0.000    0.000    0.000    0.000    0.000    0.000 
#
# Total GULP energy -198268.338464 kJ/mol
# GULP energy per Si atom -12391.771154 kJ/mol
# Density = 2.163088 g / cm^3
# Si number density = 21.680227 Si / 1000 Ang^3
#
#
#
# Elastic Constant Matrix: (Units=GPa)
#
#
# Indices 1 2 3 4 5 6 
#
# 1 95.7909 38.0463 16.5621 -5.9078 -3.5229 5.9949
# 2 38.0463 66.9012 3.2914 -5.8465 0.8244 6.0006
# 3 16.5621 3.2914 90.2296 -5.4817 -15.8170 1.8209
# 4 -5.9078 -5.8465 -5.4817 23.7794 3.8671 -2.2239
# 5 -3.5229 0.8244 -15.8170 3.8671 28.6494 -3.2921
# 6 5.9949 6.0006 1.8209 -2.2239 -3.2921 38.2988
#
#
#
# Elastic Compliance Matrix: (Units=1/GPa)
#
#
# Indices 1 2 3 4 5 6 
#
# 1 0.013994 -0.007710 -0.002117 0.000929 0.000559 -0.000780
# 2 -0.007710 0.019775 0.000606 0.003207 -0.001833 -0.001892
# 3 -0.002117 0.000606 0.012684 0.001508 0.006554 0.000284
# 4 0.000929 0.003207 0.001508 0.044362 -0.004969 0.001429
# 5 0.000559 -0.001833 0.006554 -0.004969 0.039661 0.003009
# 6 -0.000780 -0.001892 0.000284 0.001429 0.003009 0.026857
#
#
# Mechanical properties :
#
#
# Convention : Reuss Voigt Hill
#
# Bulk Modulus (GPa) = 35.70196 40.96903 38.33549
# Shear Modulus (GPa) = 27.01036 31.14698 29.07867
#
# Velocity S-wave (km/s) = 3.53349 3.79443 3.66629
# Velocity P-wave (km/s) = 5.75766 6.17535 5.97016
#
# Compressibility (1/GPa) = 0.02800967
#
# Stress axis : x y z
#
# Youngs Moduli (GPa) = 71.45684 50.56929 78.83828
#
# Poissons Ratio (x) = 0.38990 0.16693
# Poissons Ratio (y) = 0.55094 -0.04774
# Poissons Ratio (z) = 0.15130 -0.03062
#
# Static dielectric constant tensor:
#      x y z
#    x 3.870520 0.037560 -0.133420 
#    y 0.037560 3.796230 0.069660 
#    z -0.133420 0.069660 3.893200 
# 
# 
# High freq. dielectric constant tensor:
#      x y z
#    x 1.838680 0.001740 -0.008100 
#    y 0.001740 1.845640 0.001840 
#    z -0.008100 0.001840 1.852020 
# 
# From -- ./inp_files/417827.got.cif
#   From: 2010.06.25/outbox.cif.g09.slc.cpg/sg2_209_cif.got.tgz:417827.got - 2010.06.27 13:26:56.
