data_PCOD8015673
_publ_section_title
;
Structure prediction by ZEFSAII (Michael W. Deem and Ramdas Pophale) SiO2 
 PCOD8015673
Probable space group: P -1
;
_chemical_formula_sum "Si O2"
_cell_formula_units_Z 16
_cell_length_a 11.054292
_cell_length_b 9.860939
_cell_length_c 8.936812
_cell_angle_alpha 88.805544
_cell_angle_beta 53.532218
_cell_angle_gamma 90.262796
_cell_volume 783.068823
_symmetry_space_group_name_H-M "P -1"
_symmetry_group_IT_number 2
_symmetry_cell_setting 'triclinic'
loop_
_space_group_symop_operation_xyz
x,y,z
-x,-y,-z
loop_
_atom_site_type_symbol
_atom_site_label
_atom_site_fract_x
_atom_site_fract_y
_atom_site_fract_z
Si Si1 0.382311 0.174128 0.403938
Si Si2 0.871752 0.641837 0.946514
Si Si3 0.679016 0.104091 0.691135
Si Si4 0.630441 0.843362 0.229719
Si Si5 0.311378 0.878213 0.962176
Si Si6 0.145782 0.390440 0.555115
Si Si7 0.079158 0.655828 0.045699
Si Si8 0.069659 0.678992 0.534326
O O1 0.386384 0.150831 0.579291
O O2 0.549133 0.195599 0.216098
O O3 0.296383 0.309177 0.416516
O O4 0.301329 0.046077 0.385872
O O5 0.727049 0.717917 0.109065
O O6 0.033038 0.677683 0.907003
O O7 0.828376 0.481359 0.992247
O O8 0.916103 0.684088 0.744505
O O9 0.533575 0.172323 0.723789
O O10 0.827865 0.186758 0.531035
O O11 0.658699 0.098383 0.884960
O O12 0.713631 0.979534 0.105795
O O13 0.164681 0.785680 0.046431
O O14 0.173683 0.549578 0.497340
O O15 0.091622 0.364656 0.764615
O O16 0.995446 0.334831 0.583338
#
# Coordination Sequence:
#
# PCOD8015673 Si02
#       8
#     2   2   2   2   2   2   2   2
#     4  11  24  41  63  87 122 159 200 250 296 352
#     4  10  23  39  65  89 122 157 196 246 299 355
#     4  11  24  42  60  90 121 159 202 246 296 356
#     4  11  24  42  60  90 121 159 202 246 296 356
#     4  11  24  41  63  87 122 159 200 250 296 352
#     4  10  21  43  61  90 122 155 198 249 298 352
#     4  10  21  43  61  90 122 155 198 249 298 352
#     4  10  23  39  65  89 122 157 196 246 299 355
#
# _framework density 20.432431999999999
#
# number of rings (size 3 to 8) (size 9 to 14) (size 15 to 20)
#    0.000    1.500    2.500    3.000    7.000    3.000 
#    0.000    2.500    0.000    0.000    0.000    0.000 
#    0.000    0.000    0.000    0.000    0.000    0.000 
#
# Total GULP energy -198356.819890 kJ/mol
# GULP energy per Si atom -12397.301243 kJ/mol
# Density = 2.038593 g / cm^3
# Si number density = 20.432432 Si / 1000 Ang^3
#
#
#
# Elastic Constant Matrix: (Units=GPa)
#
#
# Indices 1 2 3 4 5 6 
#
# 1 40.6518 2.5800 9.4414 -1.8194 16.1677 2.2955
# 2 2.5800 33.3231 14.7286 9.6013 2.7182 -5.1235
# 3 9.4414 14.7286 74.9898 10.4234 14.0190 -9.6941
# 4 -1.8194 9.6013 10.4234 35.2069 -3.1433 -6.3447
# 5 16.1677 2.7182 14.0190 -3.1433 29.1201 4.8410
# 6 2.2955 -5.1235 -9.6941 -6.3447 4.8410 36.1474
#
#
#
# Elastic Compliance Matrix: (Units=1/GPa)
#
#
# Indices 1 2 3 4 5 6 
#
# 1 0.031639 -0.000908 -0.000677 0.000569 -0.017106 0.000071
# 2 -0.000908 0.035085 -0.005070 -0.007803 -0.001590 0.002514
# 3 -0.000677 -0.005070 0.017086 -0.003677 -0.008505 0.004400
# 4 0.000569 -0.007803 -0.003677 0.032639 0.005224 0.002901
# 5 -0.017106 -0.001590 -0.008505 0.005224 0.049838 -0.007178
# 6 0.000071 0.002514 0.004400 0.002901 -0.007178 0.030667
#
#
# Mechanical properties :
#
#
# Convention : Reuss Voigt Hill
#
# Bulk Modulus (GPa) = 14.18438 22.49608 18.34023
# Shear Modulus (GPa) = 21.38929 28.24253 24.81591
#
# Velocity S-wave (km/s) = 3.23899 3.72188 3.48880
# Velocity P-wave (km/s) = 4.57659 5.43174 5.02240
#
# Compressibility (1/GPa) = 0.07050006
#
# Stress axis : x y z
#
# Youngs Moduli (GPa) = 31.60698 28.50240 58.52744
#
# Poissons Ratio (x) = 0.02588 0.03963
# Poissons Ratio (y) = 0.02870 0.29671
# Poissons Ratio (z) = 0.02140 0.14450
#
# Static dielectric constant tensor:
#      x y z
#    x 3.574580 -0.054770 0.271910 
#    y -0.054770 3.653850 0.086910 
#    z 0.271910 0.086910 3.740000 
# 
# 
# High freq. dielectric constant tensor:
#      x y z
#    x 1.794390 -0.003390 0.021880 
#    y -0.003390 1.797660 0.006520 
#    z 0.021880 0.006520 1.811150 
# 
# From -- ./inp_files/185087.got.cif
#   From: 2010.06.25/outbox.cif.g09.slc.cpg/sg2_93_cif.got.tgz:185087.got - 2010.06.27 13:26:56.
