data_PCOD8015585
_publ_section_title
;
Structure prediction by ZEFSAII (Michael W. Deem and Ramdas Pophale) SiO2 
 PCOD8015585
Probable space group: P -1
;
_chemical_formula_sum "Si O2"
_cell_formula_units_Z 14
_cell_length_a 8.798266
_cell_length_b 11.554829
_cell_length_c 17.843502
_cell_angle_alpha 30.797462
_cell_angle_beta 129.889040
_cell_angle_gamma 138.179167
_cell_volume 619.312867
_symmetry_space_group_name_H-M "P -1"
_symmetry_group_IT_number 2
_symmetry_cell_setting 'triclinic'
loop_
_space_group_symop_operation_xyz
x,y,z
-x,-y,-z
loop_
_atom_site_type_symbol
_atom_site_label
_atom_site_fract_x
_atom_site_fract_y
_atom_site_fract_z
Si Si1 0.625920 0.662602 0.595955
Si Si2 0.093840 0.503510 0.317011
Si Si3 0.811146 0.090526 0.005625
Si Si4 0.584522 0.119176 0.378165
Si Si5 0.171349 0.172462 0.185961
Si Si6 0.870715 0.609425 0.449265
Si Si7 0.351781 0.611903 0.108117
O O1 0.809097 0.674093 0.588214
O O2 0.367483 0.426379 0.636649
O O3 0.707228 0.627901 0.722325
O O4 0.617239 0.925992 0.441223
O O5 0.168249 0.754152 0.149983
O O6 0.193858 0.559590 0.400977
O O7 0.826003 0.374438 0.316671
O O8 0.739760 0.201398 0.993639
O O9 0.048241 0.116681 0.096174
O O10 0.626890 0.796053 0.087976
O O11 0.416661 0.195327 0.240582
O O12 0.500000 0.000000 0.500000
O O13 0.223103 0.454209 0.079511
O O14 0.025888 0.922140 0.333602
O O15 0.000000 0.500000 0.500000
#
# Coordination Sequence:
#
# PCOD8015585 Si02
#       7
#     2   2   2   2   2   2   2
#     4  11  21  41  69 102 137 175 233 284 335 403
#     4  11  25  43  65 101 136 177 229 290 338 399
#     4  10  24  44  64 101 144 177 227 279 341 406
#     4  12  22  41  68  97 133 179 229 281 343 400
#     4  12  23  41  73  98 133 185 231 268 339 420
#     4  12  23  43  72 101 135 177 232 281 348 412
#     4  10  21  42  71  97 139 189 220 273 345 414
#
# _framework density 22.605698
#
# number of rings (size 3 to 8) (size 9 to 14) (size 15 to 20)
#    0.000    0.857    5.714    1.286    0.000    1.714 
#    2.571    2.857    0.000    0.000    0.000    0.000 
#    0.000    0.000    0.000    0.000    0.000    0.000 
#
# Total GULP energy -173495.538149 kJ/mol
# GULP energy per Si atom -12392.538439 kJ/mol
# Density = 2.255425 g / cm^3
# Si number density = 22.605698 Si / 1000 Ang^3
#
#
#
# Elastic Constant Matrix: (Units=GPa)
#
#
# Indices 1 2 3 4 5 6 
#
# 1 76.0659 4.9314 29.5934 9.9324 -6.4750 3.3984
# 2 4.9314 94.8589 16.1066 -1.7645 -5.8339 -0.5457
# 3 29.5934 16.1066 77.1547 8.3376 -1.2486 -18.0723
# 4 9.9324 -1.7645 8.3376 38.6352 -0.5862 6.8705
# 5 -6.4750 -5.8339 -1.2486 -0.5862 31.4966 6.7448
# 6 3.3984 -0.5457 -18.0723 6.8705 6.7448 34.9575
#
#
#
# Elastic Compliance Matrix: (Units=1/GPa)
#
#
# Indices 1 2 3 4 5 6 
#
# 1 0.017064 0.000686 -0.007951 -0.001435 0.004658 -0.006376
# 2 0.000686 0.011242 -0.003293 0.001514 0.002635 -0.002400
# 3 -0.007951 -0.003293 0.020179 -0.004826 -0.004304 0.012933
# 4 -0.001435 0.001514 -0.004826 0.028893 0.002135 -0.008422
# 5 0.004658 0.002635 -0.004304 0.002135 0.035172 -0.009843
# 6 -0.006376 -0.002400 0.012933 -0.008422 -0.009843 0.039429
#
#
# Mechanical properties :
#
#
# Convention : Reuss Voigt Hill
#
# Bulk Modulus (GPa) = 36.53765 38.81582 37.67673
# Shear Modulus (GPa) = 27.43956 34.18107 30.81031
#
# Velocity S-wave (km/s) = 3.48779 3.89273 3.69581
# Velocity P-wave (km/s) = 5.69365 6.11658 5.90890
#
# Compressibility (1/GPa) = 0.02736903
#
# Stress axis : x y z
#
# Youngs Moduli (GPa) = 58.60213 88.95322 49.55557
#
# Poissons Ratio (x) = -0.06103 0.39403
# Poissons Ratio (y) = -0.04021 0.16319
# Poissons Ratio (z) = 0.46596 0.29293
#
# Static dielectric constant tensor:
#      x y z
#    x 4.213350 0.183590 0.163290 
#    y 0.183590 4.204450 0.089880 
#    z 0.163290 0.089880 4.048240 
# 
# 
# High freq. dielectric constant tensor:
#      x y z
#    x 1.879420 0.014390 0.015260 
#    y 0.014390 1.900770 0.004100 
#    z 0.015260 0.004100 1.882410 
# 
# From -- ./inp_files/281823.got.cif
#   From: 2010.06.25/outbox.cif.g09.slc.cpg/sg2_141_cif.got.tgz:281823.got - 2010.06.27 13:26:56.
