data_PCOD8015974
_publ_section_title
;
Structure prediction by ZEFSAII (Michael W. Deem and Ramdas Pophale) SiO2 
 PCOD8015974
Probable space group: P -1
;
_chemical_formula_sum "Si O2"
_cell_formula_units_Z 14
_cell_length_a 5.551505
_cell_length_b 11.143930
_cell_length_c 11.554184
_cell_angle_alpha 79.659805
_cell_angle_beta 96.096549
_cell_angle_gamma 127.264998
_cell_volume 559.632311
_symmetry_space_group_name_H-M "P -1"
_symmetry_group_IT_number 2
_symmetry_cell_setting 'triclinic'
loop_
_space_group_symop_operation_xyz
x,y,z
-x,-y,-z
loop_
_atom_site_type_symbol
_atom_site_label
_atom_site_fract_x
_atom_site_fract_y
_atom_site_fract_z
Si Si1 0.225286 0.957808 0.096253
Si Si2 0.297685 0.569690 0.198182
Si Si3 0.371983 0.383845 0.409301
Si Si4 0.358499 0.681039 0.746360
Si Si5 0.671685 0.748385 0.978080
Si Si6 0.738661 0.095603 0.396183
Si Si7 0.313767 0.095719 0.771268
O O1 0.506039 0.961246 0.148526
O O2 0.999881 0.946791 0.184558
O O3 0.366320 0.119028 0.010216
O O4 0.015809 0.815993 0.019838
O O5 0.360236 0.461480 0.280878
O O6 0.448446 0.721463 0.257145
O O7 0.937274 0.475086 0.191363
O O8 0.428636 0.602165 0.068658
O O9 0.500000 0.500000 0.500000
O O10 0.590751 0.342765 0.381311
O O11 0.048885 0.229255 0.452514
O O12 0.622119 0.718933 0.843064
O O13 0.351650 0.825964 0.714556
O O14 0.500000 0.000000 0.500000
O O15 0.777803 0.981258 0.347131
#
# Coordination Sequence:
#
# PCOD8015974 Si02
#       7
#     2   2   2   2   2   2   2
#     4  10  23  42  71 108 152 191 234 312 363 446
#     4  10  26  42  72 106 142 197 236 303 371 452
#     4  11  28  50  70 102 146 196 249 310 371 440
#     4  11  24  48  69 102 150 186 245 305 373 440
#     4  10  21  43  68 109 142 194 236 301 371 442
#     4  11  27  45  75 105 138 195 253 314 363 442
#     4  11  24  47  72 110 147 191 253 298 376 430
#
# _framework density 25.016423
#
# number of rings (size 3 to 8) (size 9 to 14) (size 15 to 20)
#    0.000    1.429    1.429    1.286    8.000    7.429 
#   10.286    0.000    0.000    0.000    0.000    0.000 
#    0.000    0.000    0.000    0.000    0.000    0.000 
#
# Total GULP energy -173481.094195 kJ/mol
# GULP energy per Si atom -12391.506728 kJ/mol
# Density = 2.495948 g / cm^3
# Si number density = 25.016423 Si / 1000 Ang^3
#
#
#
# Elastic Constant Matrix: (Units=GPa)
#
#
# Indices 1 2 3 4 5 6 
#
# 1 90.4597 18.8438 30.6182 3.4457 -25.4111 12.8896
# 2 18.8438 121.7130 48.8471 2.1196 -13.1474 11.9887
# 3 30.6182 48.8471 101.8649 9.5254 -28.5125 16.6615
# 4 3.4457 2.1196 9.5254 63.0524 0.0619 -7.1564
# 5 -25.4111 -13.1474 -28.5125 0.0619 28.8461 4.1018
# 6 12.8896 11.9887 16.6615 -7.1564 4.1018 34.2751
#
#
#
# Elastic Compliance Matrix: (Units=1/GPa)
#
#
# Indices 1 2 3 4 5 6 
#
# 1 0.017111 -0.000476 0.002064 -0.002379 0.018318 -0.009961
# 2 -0.000476 0.010244 -0.004693 0.000273 -0.000243 -0.001037
# 3 0.002064 -0.004693 0.019662 -0.004318 0.020842 -0.012088
# 4 -0.002379 0.000273 -0.004318 0.017483 -0.007333 0.007426
# 5 0.018318 -0.000243 0.020842 -0.007333 0.075216 -0.027468
# 6 -0.009961 -0.001037 -0.012088 0.007426 -0.027468 0.043998
#
#
# Mechanical properties :
#
#
# Convention : Reuss Voigt Hill
#
# Bulk Modulus (GPa) = 24.50580 56.73953 40.62266
# Shear Modulus (GPa) = 24.56684 39.61662 32.09173
#
# Velocity S-wave (km/s) = 3.13713 3.98380 3.58554
# Velocity P-wave (km/s) = 4.78950 6.62503 5.78058
#
# Compressibility (1/GPa) = 0.04080667
#
# Stress axis : x y z
#
# Youngs Moduli (GPa) = 58.44256 97.61359 50.86024
#
# Poissons Ratio (x) = 0.04650 -0.10499
# Poissons Ratio (y) = 0.02784 0.23870
# Poissons Ratio (z) = -0.12065 0.45812
#
# Static dielectric constant tensor:
#      x y z
#    x 4.425040 0.081000 0.006940 
#    y 0.081000 4.924480 0.004670 
#    z 0.006940 0.004670 4.266540 
# 
# 
# High freq. dielectric constant tensor:
#      x y z
#    x 1.989540 0.003840 -0.007900 
#    y 0.003840 2.018370 0.001480 
#    z -0.007900 0.001480 1.987470 
# 
# From -- ./inp_files/81454.got.cif
#   From: 2010.06.25/outbox.cif.g09.slc.cpg/sg2_41_cif.got.tgz:81454.got - 2010.06.27 13:26:56.
