data_PCOD8015733
_publ_section_title
;
Structure prediction by ZEFSAII (Michael W. Deem and Ramdas Pophale) SiO2 
 PCOD8015733
Probable space group: P -1
;
_chemical_formula_sum "Si O2"
_cell_formula_units_Z 14
_cell_length_a 7.946284
_cell_length_b 18.344836
_cell_length_c 7.136928
_cell_angle_alpha 91.271402
_cell_angle_beta 96.718113
_cell_angle_gamma 36.703291
_cell_volume 613.022101
_symmetry_space_group_name_H-M "P -1"
_symmetry_group_IT_number 2
_symmetry_cell_setting 'triclinic'
loop_
_space_group_symop_operation_xyz
x,y,z
-x,-y,-z
loop_
_atom_site_type_symbol
_atom_site_label
_atom_site_fract_x
_atom_site_fract_y
_atom_site_fract_z
Si Si1 0.516353 0.689234 0.900533
Si Si2 0.064460 0.587410 0.087999
Si Si3 0.394126 0.982911 0.650073
Si Si4 0.585106 0.181530 0.450387
Si Si5 0.227203 0.636576 0.416582
Si Si6 0.919771 0.722638 0.736218
Si Si7 0.816438 0.206483 0.773143
O O1 0.252854 0.769576 0.014608
O O2 0.759536 0.654500 0.026332
O O3 0.669188 0.559943 0.858983
O O4 0.354533 0.782883 0.710325
O O5 0.031006 0.651814 0.264975
O O6 0.124139 0.618382 0.915747
O O7 0.155822 0.098462 0.764605
O O8 0.500000 0.000000 0.500000
O O9 0.261650 0.951780 0.550952
O O10 0.677584 0.861251 0.799042
O O11 0.241944 0.287475 0.396796
O O12 0.678366 0.183191 0.659339
O O13 0.500000 0.500000 0.500000
O O14 0.334028 0.670418 0.323309
O O15 0.082991 0.711280 0.597110
#
# Coordination Sequence:
#
# PCOD8015733 Si02
#       7
#     2   2   2   2   2   2   2
#     4  10  22  39  65  91 124 157 205 251 304 362
#     4  10  22  43  60  90 128 162 200 254 301 360
#     4  10  21  43  64  89 123 161 207 249 304 363
#     4   9  21  40  63  91 121 158 198 254 305 356
#     4  12  24  37  63  92 123 164 206 246 306 366
#     4   9  21  42  62  84 123 164 203 249 303 358
#     4  12  22  38  64  93 122 161 202 251 304 359
#
# _framework density 22.837678
#
# number of rings (size 3 to 8) (size 9 to 14) (size 15 to 20)
#    0.857    0.857    1.429    3.000    0.000    4.000 
#    0.000    6.429    0.000    0.000    0.000    0.000 
#    0.000    0.000    0.000    0.000    0.000    0.000 
#
# Total GULP energy -173439.984102 kJ/mol
# GULP energy per Si atom -12388.570293 kJ/mol
# Density = 2.278570 g / cm^3
# Si number density = 22.837678 Si / 1000 Ang^3
#
#
#
# Elastic Constant Matrix: (Units=GPa)
#
#
# Indices 1 2 3 4 5 6 
#
# 1 46.8294 16.3538 9.2073 -1.0876 -20.9050 7.5184
# 2 16.3538 101.2693 26.3879 0.8841 -13.5012 12.5734
# 3 9.2073 26.3879 65.1219 -2.2094 -34.3319 0.3129
# 4 -1.0876 0.8841 -2.2094 27.9066 0.6635 -13.3485
# 5 -20.9050 -13.5012 -34.3319 0.6635 38.8839 -1.0019
# 6 7.5184 12.5734 0.3129 -13.3485 -1.0019 36.3380
#
#
#
# Elastic Compliance Matrix: (Units=1/GPa)
#
#
# Indices 1 2 3 4 5 6 
#
# 1 0.032752 -0.003961 0.010227 -0.000828 0.025146 -0.005105
# 2 -0.003961 0.012311 -0.006395 -0.003193 -0.003566 -0.004657
# 3 0.010227 -0.006395 0.034299 0.003477 0.033554 0.002004
# 4 -0.000828 -0.003193 0.003477 0.044597 0.001210 0.017662
# 5 0.025146 -0.003566 0.033554 0.001210 0.067554 -0.001951
# 6 -0.005105 -0.004657 0.002004 0.017662 -0.001951 0.036604
#
#
# Mechanical properties :
#
#
# Convention : Reuss Voigt Hill
#
# Bulk Modulus (GPa) = 12.64117 35.23541 23.93829
# Shear Modulus (GPa) = 19.62773 31.37714 25.50244
#
# Velocity S-wave (km/s) = 2.93481 3.71066 3.34531
# Velocity P-wave (km/s) = 4.12691 5.81557 5.04243
#
# Compressibility (1/GPa) = 0.07910658
#
# Stress axis : x y z
#
# Youngs Moduli (GPa) = 30.53241 81.22760 29.15546
#
# Poissons Ratio (x) = 0.32171 -0.29819
# Poissons Ratio (y) = 0.12093 0.18644
# Poissons Ratio (z) = -0.31227 0.51942
#
# Static dielectric constant tensor:
#      x y z
#    x 4.255790 0.395090 0.346090 
#    y 0.395090 3.712490 -0.535090 
#    z 0.346090 -0.535090 3.395510 
# 
# 
# High freq. dielectric constant tensor:
#      x y z
#    x 1.904550 0.009720 -0.009920 
#    y 0.009720 1.899800 -0.009500 
#    z -0.009920 -0.009500 1.882880 
# 
# From -- ./inp_files/47832.got.cif
#   From: 2010.06.25/outbox.cif.g09.slc.cpg/sg2_24_cif.got.tgz:47832.got - 2010.06.27 13:26:56.
