data_PCOD8015429
_publ_section_title
;
Structure prediction by ZEFSAII (Michael W. Deem and Ramdas Pophale) SiO2 
 PCOD8015429
Probable space group: P -1
;
_chemical_formula_sum "Si O2"
_cell_formula_units_Z 10
_cell_length_a 11.659141
_cell_length_b 5.086979
_cell_length_c 13.781864
_cell_angle_alpha 62.586205
_cell_angle_beta 149.747806
_cell_angle_gamma 108.252724
_cell_volume 358.982191
_symmetry_space_group_name_H-M "P -1"
_symmetry_group_IT_number 2
_symmetry_cell_setting 'triclinic'
loop_
_space_group_symop_operation_xyz
x,y,z
-x,-y,-z
loop_
_atom_site_type_symbol
_atom_site_label
_atom_site_fract_x
_atom_site_fract_y
_atom_site_fract_z
Si Si1 0.285129 0.711917 0.409059
Si Si2 0.217267 0.645376 0.158996
Si Si3 0.210434 0.255291 0.731671
Si Si4 0.557696 0.967140 0.884287
Si Si5 0.838870 0.923911 0.557671
O O1 0.187349 0.815268 0.212929
O O2 0.564161 0.632405 0.625945
O O3 0.185813 0.418406 0.419518
O O4 0.198318 0.984427 0.372650
O O5 0.257490 0.885817 0.066265
O O6 0.000000 0.500000 0.000000
O O7 0.000000 0.500000 0.500000
O O8 0.420628 0.216096 0.816609
O O9 0.303638 0.304898 0.901050
O O10 0.093853 0.954566 0.703298
O O11 0.366253 0.861493 0.692025
#
# Coordination Sequence:
#
# PCOD8015429 Si02
#       5
#     2   2   2   2   2
#     4  10  24  42  70 104 138 181 232 285 351 425
#     4  10  21  42  68  99 140 183 228 286 349 416
#     4  11  23  44  72 102 140 186 236 295 355 415
#     4  10  24  42  68 105 140 184 240 288 350 428
#     4  11  23  46  71 102 142 182 231 294 354 417
#
# _framework density 27.856534
#
# number of rings (size 3 to 8) (size 9 to 14) (size 15 to 20)
#    0.000    1.600    0.000    4.200    0.000    9.600 
#    0.000   14.000    0.000    0.000    0.000    0.000 
#    0.000    0.000    0.000    0.000    0.000    0.000 
#
# Total GULP energy -123991.236465 kJ/mol
# GULP energy per Si atom -12399.123646 kJ/mol
# Density = 2.779313 g / cm^3
# Si number density = 27.856534 Si / 1000 Ang^3
#
#
#
# Elastic Constant Matrix: (Units=GPa)
#
#
# Indices 1 2 3 4 5 6 
#
# 1 156.7549 12.7570 49.4202 12.5981 -36.4779 2.2943
# 2 12.7570 36.3577 13.8183 25.8328 -0.8090 -4.5447
# 3 49.4202 13.8183 148.0417 12.7957 -38.3072 5.5129
# 4 12.5981 25.8328 12.7957 46.6109 10.1507 3.4246
# 5 -36.4779 -0.8090 -38.3072 10.1507 49.8361 10.6883
# 6 2.2943 -4.5447 5.5129 3.4246 10.6883 29.8870
#
#
#
# Elastic Compliance Matrix: (Units=1/GPa)
#
#
# Indices 1 2 3 4 5 6 
#
# 1 0.008548 -0.000841 -0.000599 -0.002996 0.007001 -0.002834
# 2 -0.000841 0.049832 -0.001687 -0.028215 0.002430 0.010317
# 3 -0.000599 -0.001687 0.009831 -0.003158 0.008763 -0.004796
# 4 -0.002996 -0.028215 -0.003158 0.041828 -0.012806 -0.003691
# 5 0.007001 0.002430 0.008763 -0.012806 0.037519 -0.013735
# 6 -0.002834 0.010317 -0.004796 -0.003691 -0.013735 0.041465
#
#
# Mechanical properties :
#
#
# Convention : Reuss Voigt Hill
#
# Bulk Modulus (GPa) = 16.14043 54.79390 35.46716
# Shear Modulus (GPa) = 23.15550 42.94404 33.04977
#
# Velocity S-wave (km/s) = 2.88625 3.93060 3.44819
# Velocity P-wave (km/s) = 4.11266 6.34919 5.34912
#
# Compressibility (1/GPa) = 0.06195623
#
# Stress axis : x y z
#
# Youngs Moduli (GPa) = 116.98482 20.06752 101.71539
#
# Poissons Ratio (x) = 0.01688 0.06093
# Poissons Ratio (y) = 0.09843 0.17160
# Poissons Ratio (z) = 0.07008 0.03386
#
# Static dielectric constant tensor:
#      x y z
#    x 5.450420 0.408320 -0.189680 
#    y 0.408320 4.676520 0.407690 
#    z -0.189680 0.407690 5.832490 
# 
# 
# High freq. dielectric constant tensor:
#      x y z
#    x 2.141700 0.020260 -0.012100 
#    y 0.020260 2.093650 0.021430 
#    z -0.012100 0.021430 2.151160 
# 
# From -- ./inp_files/129790.got.cif
#   From: 2010.06.25/outbox.cif.g09.slc.cpg/sg2_65_cif.got.tgz:129790.got - 2010.06.27 13:26:56.
