data_PCOD8015884
_publ_section_title
;
Structure prediction by ZEFSAII (Michael W. Deem and Ramdas Pophale) SiO2 
 PCOD8015884
Probable space group: P -1
;
_chemical_formula_sum "Si O2"
_cell_formula_units_Z 12
_cell_length_a 12.452420
_cell_length_b 9.684361
_cell_length_c 6.863675
_cell_angle_alpha 111.874682
_cell_angle_beta 80.644908
_cell_angle_gamma 48.895947
_cell_volume 470.356817
_symmetry_space_group_name_H-M "P -1"
_symmetry_group_IT_number 2
_symmetry_cell_setting 'triclinic'
loop_
_space_group_symop_operation_xyz
x,y,z
-x,-y,-z
loop_
_atom_site_type_symbol
_atom_site_label
_atom_site_fract_x
_atom_site_fract_y
_atom_site_fract_z
Si Si1 0.805459 0.141704 0.640168
Si Si2 0.197265 0.427368 0.990142
Si Si3 0.818286 0.804640 0.402776
Si Si4 0.067537 0.759801 0.875105
Si Si5 0.353788 0.420605 0.281860
Si Si6 0.739825 0.007387 0.921428
O O1 0.663148 0.403957 0.730872
O O2 0.760212 0.146612 0.879556
O O3 0.794543 0.001265 0.439521
O O4 0.000000 0.000000 0.500000
O O5 0.281547 0.210309 0.709831
O O6 0.329498 0.320400 0.070361
O O7 0.153447 0.627511 0.988991
O O8 0.024291 0.545044 0.202476
O O9 0.752220 0.863507 0.677898
O O10 0.212003 0.562799 0.567821
O O11 0.900743 0.827035 0.931271
O O12 0.000000 0.000000 0.000000
O O13 0.552726 0.195953 0.185452
#
# Coordination Sequence:
#
# PCOD8015884 Si02
#       6
#     2   2   2   2   2   2
#     4  10  16  38  66  88 123 172 207 262 317 370
#     4  11  22  42  70  95 131 177 213 264 328 387
#     4   9  21  41  66  96 129 176 214 262 328 385
#     4  12  25  42  68  98 133 170 219 270 322 385
#     4  12  22  44  70  96 130 171 217 268 327 383
#     4  10  23  41  67  98 132 169 216 270 325 382
#
# _framework density 25.512547000000001
#
# number of rings (size 3 to 8) (size 9 to 14) (size 15 to 20)
#    1.000    0.333    5.000    2.500    0.000    2.000 
#    3.000    0.833    0.000    0.000    0.000    0.000 
#    0.000    0.000    0.000    0.000    0.000    0.000 
#
# Total GULP energy -148687.416938 kJ/mol
# GULP energy per Si atom -12390.618078 kJ/mol
# Density = 2.545448 g / cm^3
# Si number density = 25.512547 Si / 1000 Ang^3
#
#
#
# Elastic Constant Matrix: (Units=GPa)
#
#
# Indices 1 2 3 4 5 6 
#
# 1 96.8640 14.2168 57.1301 14.8905 3.5147 -3.2726
# 2 14.2168 50.0679 19.6285 -10.6521 -18.0525 -3.3482
# 3 57.1301 19.6285 121.1082 10.6768 -6.3623 -27.9393
# 4 14.8905 -10.6521 10.6768 20.8234 -5.7839 4.9392
# 5 3.5147 -18.0525 -6.3623 -5.7839 39.5761 17.7754
# 6 -3.2726 -3.3482 -27.9393 4.9392 17.7754 34.9767
#
#
#
# Elastic Compliance Matrix: (Units=1/GPa)
#
#
# Indices 1 2 3 4 5 6 
#
# 1 0.020769 -0.021088 -0.000537 -0.036219 -0.024508 0.017065
# 2 -0.021088 0.092550 -0.030031 0.123616 0.094396 -0.082531
# 3 -0.000537 -0.030031 0.025489 -0.047947 -0.035546 0.042271
# 4 -0.036219 0.123616 -0.047947 0.235952 0.148695 -0.138742
# 5 -0.024508 0.094396 -0.035546 0.148695 0.136930 -0.112238
# 6 0.017065 -0.082531 0.042271 -0.138742 -0.112238 0.132685
#
#
# Mechanical properties :
#
#
# Convention : Reuss Voigt Hill
#
# Bulk Modulus (GPa) = 28.17177 49.99897 39.08537
# Shear Modulus (GPa) = 6.58311 30.87955 18.73133
#
# Velocity S-wave (km/s) = 1.60809 3.48281 2.71255
# Velocity P-wave (km/s) = 3.80975 5.98445 5.01636
#
# Compressibility (1/GPa) = 0.03549653
#
# Stress axis : x y z
#
# Youngs Moduli (GPa) = 48.14788 10.80499 39.23260
#
# Poissons Ratio (x) = 0.22786 0.02108
# Poissons Ratio (y) = 1.01535 1.17818
# Poissons Ratio (z) = 0.02586 0.32448
#
# Static dielectric constant tensor:
#      x y z
#    x 4.650520 0.094800 0.306260 
#    y 0.094800 4.327040 -0.086170 
#    z 0.306260 -0.086170 4.523200 
# 
# 
# High freq. dielectric constant tensor:
#      x y z
#    x 2.017300 0.009000 0.017090 
#    y 0.009000 1.990960 -0.006710 
#    z 0.017090 -0.006710 2.014240 
# 
# From -- ./inp_files/305511.got.cif
#   From: 2010.06.25/outbox.cif.g09.slc.cpg/sg2_153_cif.got.tgz:305511.got - 2010.06.27 13:26:56.
