data_PCOD8015388
_publ_section_title
;
Structure prediction by ZEFSAII (Michael W. Deem and Ramdas Pophale) SiO2 
 PCOD8015388
Probable space group: P -1
;
_chemical_formula_sum "Si O2"
_cell_formula_units_Z 16
_cell_length_a 17.694290
_cell_length_b 8.645385
_cell_length_c 21.164822
_cell_angle_alpha 36.685082
_cell_angle_beta 20.778053
_cell_angle_gamma 38.862530
_cell_volume 679.767464
_symmetry_space_group_name_H-M "P -1"
_symmetry_group_IT_number 2
_symmetry_cell_setting 'triclinic'
loop_
_space_group_symop_operation_xyz
x,y,z
-x,-y,-z
loop_
_atom_site_type_symbol
_atom_site_label
_atom_site_fract_x
_atom_site_fract_y
_atom_site_fract_z
Si Si1 0.097871 0.533983 0.478671
Si Si2 0.524210 0.563161 0.276273
Si Si3 0.998918 0.453040 0.942126
Si Si4 0.671946 0.031128 0.802857
Si Si5 0.712776 0.491368 0.880764
Si Si6 0.992170 0.882951 0.154612
Si Si7 0.700420 0.613378 0.378632
Si Si8 0.378645 0.114944 0.464604
O O1 0.138663 0.836058 0.355085
O O2 0.313034 0.323778 0.390354
O O3 0.000000 0.500000 0.500000
O O4 0.924650 0.454669 0.686935
O O5 0.385965 0.784404 0.272132
O O6 0.442273 0.578829 0.408623
O O7 0.499676 0.266518 0.373220
O O8 0.766729 0.608005 0.055976
O O9 0.186234 0.542746 0.720688
O O10 0.000000 0.500000 0.000000
O O11 0.023178 0.145049 0.007481
O O12 0.731673 0.746079 0.822786
O O13 0.500000 0.000000 0.000000
O O14 0.767334 0.246292 0.966649
O O15 0.500000 0.500000 0.000000
O O16 0.890999 0.684145 0.252319
O O17 0.832934 0.972817 0.308675
O O18 0.540634 0.866230 0.396212
#
# Coordination Sequence:
#
# PCOD8015388 Si02
#       8
#     2   2   2   2   2   2   2   2
#     4  10  22  43  68 101 138 184 232 293 349 421
#     4  10  22  44  65  98 136 170 231 283 338 420
#     4  12  26  39  64 103 138 170 224 286 350 411
#     4  11  25  44  70  98 142 186 233 291 351 415
#     4  11  25  43  67 101 138 186 237 283 351 417
#     4  10  21  42  68  95 130 174 233 282 337 427
#     4  11  21  42  73  95 128 185 220 281 355 415
#     4   9  18  40  70  94 129 174 225 283 344 413
#
# _framework density 23.537459999999999
#
# number of rings (size 3 to 8) (size 9 to 14) (size 15 to 20)
#    0.000    1.500    2.500    3.000    3.500    2.500 
#    0.000    0.000    0.000    0.000    0.000    0.000 
#    0.000    0.000    0.000    0.000    0.000    0.000 
#
# Total GULP energy -198212.793688 kJ/mol
# GULP energy per Si atom -12388.299605 kJ/mol
# Density = 2.348389 g / cm^3
# Si number density = 23.537460 Si / 1000 Ang^3
#
#
#
# Elastic Constant Matrix: (Units=GPa)
#
#
# Indices 1 2 3 4 5 6 
#
# 1 112.0832 36.3609 30.4856 20.5018 0.3448 2.2961
# 2 36.3609 59.7034 32.9797 13.7290 3.6234 -0.0534
# 3 30.4856 32.9797 101.5823 20.3810 15.3810 -4.1109
# 4 20.5018 13.7290 20.3810 36.4888 1.9406 0.2684
# 5 0.3448 3.6234 15.3810 1.9406 48.8843 7.1206
# 6 2.2961 -0.0534 -4.1109 0.2684 7.1206 23.5517
#
#
#
# Elastic Compliance Matrix: (Units=1/GPa)
#
#
# Indices 1 2 3 4 5 6 
#
# 1 0.011842 -0.005756 -0.001136 -0.003900 0.001096 -0.001653
# 2 -0.005756 0.023922 -0.005543 -0.002677 0.000172 -0.000374
# 3 -0.001136 -0.005543 0.013741 -0.004752 -0.004276 0.003844
# 4 -0.003900 -0.002677 -0.004752 0.033237 0.000547 -0.001000
# 5 0.001096 0.000172 -0.004276 0.000547 0.022893 -0.007780
# 6 -0.001653 -0.000374 0.003844 -0.001000 -0.007780 0.045655
#
#
# Mechanical properties :
#
#
# Convention : Reuss Voigt Hill
#
# Bulk Modulus (GPa) = 40.59194 52.55793 46.57494
# Shear Modulus (GPa) = 27.11934 33.35446 30.23690
#
# Velocity S-wave (km/s) = 3.39806 3.76850 3.58806
# Velocity P-wave (km/s) = 5.71654 6.42755 6.08244
#
# Compressibility (1/GPa) = 0.02463543
#
# Stress axis : x y z
#
# Youngs Moduli (GPa) = 84.44583 41.80293 72.77428
#
# Poissons Ratio (x) = 0.24062 0.08264
# Poissons Ratio (y) = 0.48607 0.40340
# Poissons Ratio (z) = 0.09589 0.23172
#
# Static dielectric constant tensor:
#      x y z
#    x 4.779950 -0.606190 -0.570240 
#    y -0.606190 4.616250 0.369360 
#    z -0.570240 0.369360 4.820650 
# 
# 
# High freq. dielectric constant tensor:
#      x y z
#    x 1.931660 -0.013410 0.004750 
#    y -0.013410 1.917620 0.006230 
#    z 0.004750 0.006230 1.932770 
# 
# From -- ./inp_files/599698.got.cif
#   From: 2010.06.25/outbox.cif.g09.slc.cpg/sg2_300_cif.got.tgz:599698.got - 2010.06.27 13:26:56.
