data_PCOD8015939
_publ_section_title
;
Structure prediction by ZEFSAII (Michael W. Deem and Ramdas Pophale) SiO2 
 PCOD8015939
Probable space group: P -1
;
_chemical_formula_sum "Si O2"
_cell_formula_units_Z 14
_cell_length_a 8.740282
_cell_length_b 9.335203
_cell_length_c 9.211079
_cell_angle_alpha 122.056372
_cell_angle_beta 86.359371
_cell_angle_gamma 80.965942
_cell_volume 619.304089
_symmetry_space_group_name_H-M "P -1"
_symmetry_group_IT_number 2
_symmetry_cell_setting 'triclinic'
loop_
_space_group_symop_operation_xyz
x,y,z
-x,-y,-z
loop_
_atom_site_type_symbol
_atom_site_label
_atom_site_fract_x
_atom_site_fract_y
_atom_site_fract_z
Si Si1 0.106583 0.689626 0.936979
Si Si2 0.333519 0.889401 0.910580
Si Si3 0.178257 0.460177 0.248518
Si Si4 0.592928 0.647529 0.582263
Si Si5 0.012897 0.812707 0.328036
Si Si6 0.701341 0.687067 0.286202
Si Si7 0.412618 0.196271 0.936663
O O1 0.180464 0.807285 0.881313
O O2 0.238450 0.515524 0.868468
O O3 0.960963 0.633934 0.837784
O O4 0.061631 0.796325 0.146040
O O5 0.483046 0.801256 0.757813
O O6 0.292279 0.081872 0.948405
O O7 0.407353 0.877885 0.062683
O O8 0.233875 0.420111 0.390907
O O9 0.129902 0.666672 0.337338
O O10 0.333820 0.388936 0.103679
O O11 0.500000 0.500000 0.500000
O O12 0.612774 0.715557 0.458174
O O13 0.841271 0.782433 0.334342
O O14 0.000000 0.000000 0.500000
O O15 0.580593 0.789830 0.229330
#
# Coordination Sequence:
#
# PCOD8015939 Si02
#       7
#     2   2   2   2   2   2   2
#     4  11  21  44  71  98 131 184 226 274 341 411
#     4  10  24  40  68 103 135 174 232 272 336 407
#     4  10  22  44  71  92 140 181 222 276 342 404
#     4  11  24  43  65 105 135 178 226 281 334 395
#     4  11  24  41  68 108 134 170 231 286 341 398
#     4  11  22  44  70  94 140 177 227 275 336 409
#     4  10  21  43  67  97 134 185 220 277 335 406
#
# _framework density 22.606016
#
# number of rings (size 3 to 8) (size 9 to 14) (size 15 to 20)
#    0.000    1.429    4.286    0.857    0.000    9.714 
#    2.571    0.000    0.000    0.000    0.000    0.000 
#    0.000    0.000    0.000    0.000    0.000    0.000 
#
# Total GULP energy -173520.946816 kJ/mol
# GULP energy per Si atom -12394.353344 kJ/mol
# Density = 2.255456 g / cm^3
# Si number density = 22.606016 Si / 1000 Ang^3
#
#
#
# Elastic Constant Matrix: (Units=GPa)
#
#
# Indices 1 2 3 4 5 6 
#
# 1 62.6451 31.0701 39.4054 -15.7292 -4.5591 2.1985
# 2 31.0701 109.7945 72.3333 -21.3201 2.7946 -10.6211
# 3 39.4054 72.3333 123.5445 -12.0294 5.1485 0.1620
# 4 -15.7292 -21.3201 -12.0294 53.2086 -0.9807 4.8366
# 5 -4.5591 2.7946 5.1485 -0.9807 26.9589 -4.6960
# 6 2.1985 -10.6211 0.1620 4.8366 -4.6960 34.9495
#
#
#
# Elastic Compliance Matrix: (Units=1/GPa)
#
#
# Indices 1 2 3 4 5 6 
#
# 1 0.022086 -0.001908 -0.005665 0.004750 0.004848 -0.001949
# 2 -0.001908 0.016592 -0.008779 0.003677 0.000600 0.004775
# 3 -0.005665 -0.008779 0.015030 -0.001620 -0.003433 -0.002619
# 4 0.004750 0.003677 -0.001620 0.021508 0.001167 -0.001994
# 5 0.004848 0.000600 -0.003433 0.001167 0.039425 0.005029
# 6 -0.001949 0.004775 -0.002619 -0.001994 0.005029 0.031150
#
#
# Mechanical properties :
#
#
# Convention : Reuss Voigt Hill
#
# Bulk Modulus (GPa) = 47.60691 64.62242 56.11467
# Shear Modulus (GPa) = 26.95466 33.23507 30.09486
#
# Velocity S-wave (km/s) = 3.45681 3.83846 3.65262
# Velocity P-wave (km/s) = 6.08587 6.94935 6.53190
#
# Compressibility (1/GPa) = 0.02100536
#
# Stress axis : x y z
#
# Youngs Moduli (GPa) = 45.27701 60.26951 66.53384
#
# Poissons Ratio (x) = 0.11497 0.37689
# Poissons Ratio (y) = 0.08637 0.58412
# Poissons Ratio (z) = 0.25648 0.52912
#
# Static dielectric constant tensor:
#      x y z
#    x 2.689570 1.446020 0.931930 
#    y 1.446020 2.420450 -0.923930 
#    z 0.931930 -0.923930 3.566870 
# 
# 
# High freq. dielectric constant tensor:
#      x y z
#    x 1.883640 -0.003390 0.005390 
#    y -0.003390 1.898290 -0.000290 
#    z 0.005390 -0.000290 1.887530 
# 
# From -- ./inp_files/156742.got.cif
#   From: 2010.06.25/outbox.cif.g09.slc.cpg/sg2_79_cif.got.tgz:156742.got - 2010.06.27 13:26:56.
