data_PCOD8015108
_publ_section_title
;
Structure prediction by ZEFSAII (Michael W. Deem and Ramdas Pophale) SiO2 
 PCOD8015108
Probable space group: P -1
;
_chemical_formula_sum "Si O2"
_cell_formula_units_Z 16
_cell_length_a 11.649045
_cell_length_b 11.712224
_cell_length_c 6.249412
_cell_angle_alpha 92.634527
_cell_angle_beta 90.487738
_cell_angle_gamma 53.279403
_cell_volume 682.533708
_symmetry_space_group_name_H-M "P -1"
_symmetry_group_IT_number 2
_symmetry_cell_setting 'triclinic'
loop_
_space_group_symop_operation_xyz
x,y,z
-x,-y,-z
loop_
_atom_site_type_symbol
_atom_site_label
_atom_site_fract_x
_atom_site_fract_y
_atom_site_fract_z
Si Si1 0.376910 0.884143 0.759097
Si Si2 0.444248 0.596363 0.802909
Si Si3 0.157193 0.942775 0.425544
Si Si4 0.758793 0.911144 0.854930
Si Si5 0.172967 0.327441 0.874735
Si Si6 0.865789 0.498864 0.736038
Si Si7 0.275670 0.631443 0.435966
Si Si8 0.659474 0.788663 0.529976
O O1 0.415374 0.744577 0.868408
O O2 0.230492 0.961960 0.629173
O O3 0.500217 0.844214 0.588759
O O4 0.358954 0.982165 0.962511
O O5 0.298511 0.630187 0.695003
O O6 0.575788 0.514446 0.636635
O O7 0.500000 0.500000 0.000000
O O8 0.246419 0.775186 0.349684
O O9 0.151872 0.032924 0.229815
O O10 0.000000 0.000000 0.500000
O O11 0.680744 0.898408 0.651780
O O12 0.857437 0.757427 0.962265
O O13 0.315319 0.214908 0.726549
O O14 0.035339 0.422224 0.727059
O O15 0.194688 0.431761 0.021117
O O16 0.849483 0.376651 0.651543
O O17 0.779827 0.625298 0.577459
#
# Coordination Sequence:
#
# PCOD8015108 Si02
#       8
#     2   2   2   2   2   2   2   2
#     4  11  24  45  68 103 138 179 233 283 351 411
#     4  10  21  42  66 100 134 175 225 286 342 410
#     4  11  27  47  68  98 140 187 227 282 344 416
#     4  11  25  44  69 100 139 180 235 286 341 413
#     4  10  24  44  70 103 139 181 234 281 349 408
#     4  10  22  44  68 103 138 176 227 287 344 412
#     4  10  22  42  68  98 133 176 227 277 347 407
#     4  11  23  44  72 101 136 181 229 292 349 406
#
# _framework density 23.442067000000002
#
# number of rings (size 3 to 8) (size 9 to 14) (size 15 to 20)
#    0.000    1.500    1.250    2.250    3.500    5.500 
#    4.500    0.000    0.000    0.000    0.000    0.000 
#    0.000    0.000    0.000    0.000    0.000    0.000 
#
# Total GULP energy -198269.018254 kJ/mol
# GULP energy per Si atom -12391.813641 kJ/mol
# Density = 2.338871 g / cm^3
# Si number density = 23.442067 Si / 1000 Ang^3
#
#
#
# Elastic Constant Matrix: (Units=GPa)
#
#
# Indices 1 2 3 4 5 6 
#
# 1 117.5166 31.9914 58.2512 -1.4076 1.9768 6.5779
# 2 31.9914 95.1105 33.1992 -0.4809 1.9296 10.3356
# 3 58.2512 33.1992 101.7728 9.0833 -8.3010 8.6294
# 4 -1.4076 -0.4809 9.0833 49.3940 4.4316 3.3270
# 5 1.9768 1.9296 -8.3010 4.4316 35.6669 5.9210
# 6 6.5779 10.3356 8.6294 3.3270 5.9210 37.3280
#
#
#
# Elastic Compliance Matrix: (Units=1/GPa)
#
#
# Indices 1 2 3 4 5 6 
#
# 1 0.012484 -0.001724 -0.006957 0.001832 -0.002464 0.000113
# 2 -0.001724 0.012432 -0.003029 0.000877 -0.000999 -0.002358
# 3 -0.006957 -0.003029 0.015679 -0.003419 0.004962 -0.002042
# 4 0.001832 0.000877 -0.003419 0.021317 -0.003405 -0.001135
# 5 -0.002464 -0.000999 0.004962 -0.003405 0.030635 -0.004992
# 6 0.000113 -0.002358 -0.002042 -0.001135 -0.004992 0.028788
#
#
# Mechanical properties :
#
#
# Convention : Reuss Voigt Hill
#
# Bulk Modulus (GPa) = 58.22188 62.36484 60.29336
# Shear Modulus (GPa) = 33.22705 37.20830 35.21767
#
# Velocity S-wave (km/s) = 3.76894 3.98835 3.88019
# Velocity P-wave (km/s) = 6.62044 6.91887 6.77130
#
# Compressibility (1/GPa) = 0.01717567
#
# Stress axis : x y z
#
# Youngs Moduli (GPa) = 80.09946 80.43724 63.77920
#
# Poissons Ratio (x) = 0.13866 0.44374
# Poissons Ratio (y) = 0.13807 0.19317
# Poissons Ratio (z) = 0.55729 0.24362
#
# Static dielectric constant tensor:
#      x y z
#    x 4.052470 0.211680 0.301300 
#    y 0.211680 4.237340 -0.144280 
#    z 0.301300 -0.144280 3.944420 
# 
# 
# High freq. dielectric constant tensor:
#      x y z
#    x 1.903010 0.007090 0.013730 
#    y 0.007090 1.947940 0.002830 
#    z 0.013730 0.002830 1.926450 
# 
# From -- ./inp_files/70561.got.cif
#   From: 2010.06.25/outbox.cif.g09.slc.cpg/sg2_36_cif.got.tgz:70561.got - 2010.06.27 13:26:56.
