data_PCOD8015230
_publ_section_title
;
Structure prediction by ZEFSAII (Michael W. Deem and Ramdas Pophale) SiO2 
 PCOD8015230
Probable space group: P -1
;
_chemical_formula_sum "Si O2"
_cell_formula_units_Z 16
_cell_length_a 13.320269
_cell_length_b 7.748239
_cell_length_c 10.918679
_cell_angle_alpha 69.560839
_cell_angle_beta 139.162885
_cell_angle_gamma 116.875682
_cell_volume 657.251032
_symmetry_space_group_name_H-M "P -1"
_symmetry_group_IT_number 2
_symmetry_cell_setting 'triclinic'
loop_
_space_group_symop_operation_xyz
x,y,z
-x,-y,-z
loop_
_atom_site_type_symbol
_atom_site_label
_atom_site_fract_x
_atom_site_fract_y
_atom_site_fract_z
Si Si1 0.630399 0.802658 0.536260
Si Si2 0.360076 0.520992 0.774067
Si Si3 0.279016 0.560678 0.309540
Si Si4 0.099890 0.298563 0.760193
Si Si5 0.781683 0.375117 0.036053
Si Si6 0.241491 0.774526 0.447791
Si Si7 0.134883 0.970439 0.723973
Si Si8 0.421617 0.197241 0.783119
O O1 0.467363 0.675474 0.482388
O O2 0.749602 0.670391 0.670513
O O3 0.602233 0.876992 0.358052
O O4 0.703410 0.011344 0.617479
O O5 0.185541 0.451382 0.695881
O O6 0.376961 0.727642 0.673579
O O7 0.357279 0.382848 0.689998
O O8 0.500000 0.500000 0.000000
O O9 0.185398 0.620138 0.321871
O O10 0.223281 0.629444 0.113940
O O11 0.164725 0.401529 0.924513
O O12 0.141641 0.099312 0.821351
O O13 0.908223 0.247357 0.594454
O O14 0.903362 0.255049 0.218828
O O15 0.611374 0.265019 0.971261
O O16 0.315222 0.034778 0.816700
O O17 0.000000 0.000000 0.500000
#
# Coordination Sequence:
#
# PCOD8015230 Si02
#       8
#     2   2   2   2   2   2   2   2
#     4  10  22  42  72 100 133 180 234 283 339 406
#     4  11  23  40  69 103 139 175 227 282 344 413
#     4  10  24  46  69  99 136 184 237 281 333 411
#     4  11  27  42  67 102 141 181 224 280 347 416
#     4  11  25  45  69  97 137 183 229 284 338 400
#     4  12  25  43  71 100 139 185 226 281 355 402
#     4  11  26  41  67 103 139 176 228 283 351 414
#     4  10  21  42  66  99 137 174 225 289 338 405
#
# _framework density 24.343817000000001
#
# number of rings (size 3 to 8) (size 9 to 14) (size 15 to 20)
#    0.000    1.250    2.500    1.875    7.000    6.500 
#    0.000    1.250    0.000    0.000    0.000    0.000 
#    0.000    0.000    0.000    0.000    0.000    0.000 
#
# Total GULP energy -198248.808452 kJ/mol
# GULP energy per Si atom -12390.550528 kJ/mol
# Density = 2.428841 g / cm^3
# Si number density = 24.343817 Si / 1000 Ang^3
#
#
#
# Elastic Constant Matrix: (Units=GPa)
#
#
# Indices 1 2 3 4 5 6 
#
# 1 93.7175 18.5832 18.8470 -10.8012 -3.7824 -11.2236
# 2 18.5832 123.8912 38.0082 -21.4941 -2.2181 -16.0558
# 3 18.8470 38.0082 86.0140 -11.0356 1.1122 -1.2757
# 4 -10.8012 -21.4941 -11.0356 33.4432 -1.6710 -0.1023
# 5 -3.7824 -2.2181 1.1122 -1.6710 16.9674 9.0888
# 6 -11.2236 -16.0558 -1.2757 -0.1023 9.0888 27.2838
#
#
#
# Elastic Compliance Matrix: (Units=1/GPa)
#
#
# Indices 1 2 3 4 5 6 
#
# 1 0.012062 0.000043 -0.002184 0.003249 0.000651 0.004681
# 2 0.000043 0.011198 -0.004092 0.005813 -0.001381 0.006898
# 3 -0.002184 -0.004092 0.014045 0.001267 -0.000488 -0.002482
# 4 0.003249 0.005813 0.001267 0.035253 0.002705 0.004048
# 5 0.000651 -0.001381 -0.000488 0.002705 0.072421 -0.024683
# 6 0.004681 0.006898 -0.002482 0.004048 -0.024683 0.050758
#
#
# Mechanical properties :
#
#
# Convention : Reuss Voigt Hill
#
# Bulk Modulus (GPa) = 40.25892 50.49995 45.37943
# Shear Modulus (GPa) = 23.09653 30.75115 26.92384
#
# Velocity S-wave (km/s) = 3.08354 3.55801 3.32924
# Velocity P-wave (km/s) = 5.40844 6.13749 5.78446
#
# Compressibility (1/GPa) = 0.02483922
#
# Stress axis : x y z
#
# Youngs Moduli (GPa) = 82.90207 89.30036 71.20112
#
# Poissons Ratio (x) = -0.00381 0.15551
# Poissons Ratio (y) = -0.00354 0.29133
# Poissons Ratio (z) = 0.18106 0.36539
#
# Static dielectric constant tensor:
#      x y z
#    x 4.538980 -0.253600 0.083130 
#    y -0.253600 4.447370 0.080980 
#    z 0.083130 0.080980 3.836900 
# 
# 
# High freq. dielectric constant tensor:
#      x y z
#    x 1.978490 -0.017430 0.003880 
#    y -0.017430 1.968280 -0.003720 
#    z 0.003880 -0.003720 1.932440 
# 
# From -- ./inp_files/447000.got.cif
#   From: 2010.06.25/outbox.cif.g09.slc.cpg/sg2_224_cif.got.tgz:447000.got - 2010.06.27 13:26:56.
