data_PCOD8015640
_publ_section_title
;
Structure prediction by ZEFSAII (Michael W. Deem and Ramdas Pophale) SiO2 
 PCOD8015640
Probable space group: P -1
;
_chemical_formula_sum "Si O2"
_cell_formula_units_Z 14
_cell_length_a 9.144291
_cell_length_b 9.534372
_cell_length_c 12.266530
_cell_angle_alpha 144.748621
_cell_angle_beta 98.158328
_cell_angle_gamma 86.944292
_cell_volume 607.330480
_symmetry_space_group_name_H-M "P -1"
_symmetry_group_IT_number 2
_symmetry_cell_setting 'triclinic'
loop_
_space_group_symop_operation_xyz
x,y,z
-x,-y,-z
loop_
_atom_site_type_symbol
_atom_site_label
_atom_site_fract_x
_atom_site_fract_y
_atom_site_fract_z
Si Si1 0.367150 0.534916 0.313417
Si Si2 0.812796 0.243666 0.979540
Si Si3 0.919750 0.744591 0.601390
Si Si4 0.753036 0.089446 0.303000
Si Si5 0.677342 0.351001 0.247747
Si Si6 0.653308 0.526062 0.970237
Si Si7 0.933565 0.720584 0.825805
O O1 0.335850 0.769691 0.528458
O O2 0.518734 0.442095 0.310949
O O3 0.236689 0.313811 0.178094
O O4 0.373426 0.608715 0.234198
O O5 0.684237 0.233040 0.052956
O O6 0.773746 0.394954 0.966602
O O7 0.964881 0.385380 0.137703
O O8 0.831420 0.968818 0.772224
O O9 0.805868 0.578155 0.408421
O O10 0.951388 0.601716 0.630616
O O11 0.070139 0.845652 0.618641
O O12 0.704973 0.151764 0.215289
O O13 0.714142 0.805418 0.137629
O O14 0.500000 0.500000 0.000000
O O15 0.000000 0.000000 0.000000
#
# Coordination Sequence:
#
# PCOD8015640 Si02
#       7
#     2   2   2   2   2   2   2
#     4  12  27  45  74 108 146 187 244 293 362 428
#     4  11  25  47  75 100 146 196 236 289 366 422
#     4  11  24  45  76 112 145 180 238 309 359 423
#     4  12  27  45  78 108 144 190 245 296 364 426
#     4  12  25  44  78 111 141 185 242 304 365 416
#     4  12  29  50  69 105 152 196 237 297 358 433
#     4  10  21  42  73 105 140 179 233 298 350 418
#
# _framework density 23.0517
#
# number of rings (size 3 to 8) (size 9 to 14) (size 15 to 20)
#    0.000    0.571    4.286    3.429    4.000    5.714 
#    0.000    2.143    0.000    0.000    0.000    0.000 
#    0.000    0.000    0.000    0.000    0.000    0.000 
#
# Total GULP energy -173629.365714 kJ/mol
# GULP energy per Si atom -12402.097551 kJ/mol
# Density = 2.299923 g / cm^3
# Si number density = 23.051700 Si / 1000 Ang^3
#
#
#
# Elastic Constant Matrix: (Units=GPa)
#
#
# Indices 1 2 3 4 5 6 
#
# 1 138.2304 36.4144 12.7841 0.9672 -3.5565 -3.3198
# 2 36.4144 126.6553 38.5894 -3.7141 7.1515 -6.7559
# 3 12.7841 38.5894 86.0018 0.3590 -17.1096 1.5336
# 4 0.9672 -3.7141 0.3590 30.4664 6.0157 -2.9994
# 5 -3.5565 7.1515 -17.1096 6.0157 39.8805 -6.2036
# 6 -3.3198 -6.7559 1.5336 -2.9994 -6.2036 39.0946
#
#
#
# Elastic Compliance Matrix: (Units=1/GPa)
#
#
# Indices 1 2 3 4 5 6 
#
# 1 0.007903 -0.002406 0.000178 -0.000781 0.001394 0.000410
# 2 -0.002406 0.010619 -0.005353 0.002468 -0.004585 0.001302
# 3 0.000178 -0.005353 0.015607 -0.002460 0.007973 -0.000446
# 4 -0.000781 0.002468 -0.002460 0.034661 -0.006471 0.002089
# 5 0.001394 -0.004585 0.007973 -0.006471 0.030952 0.003428
# 6 0.000410 0.001302 -0.000446 0.002089 0.003428 0.026561
#
#
# Mechanical properties :
#
#
# Convention : Reuss Voigt Hill
#
# Bulk Modulus (GPa) = 52.72078 58.49592 55.60835
# Shear Modulus (GPa) = 33.83263 39.42828 36.63045
#
# Velocity S-wave (km/s) = 3.83519 4.14022 3.99062
# Velocity P-wave (km/s) = 6.52165 6.94883 6.73863
#
# Compressibility (1/GPa) = 0.01896785
#
# Stress axis : x y z
#
# Youngs Moduli (GPa) = 126.53628 94.17235 64.07207
#
# Poissons Ratio (x) = 0.22660 -0.01142
# Poissons Ratio (y) = 0.30448 0.34296
# Poissons Ratio (z) = -0.02256 0.50407
#
# Static dielectric constant tensor:
#      x y z
#    x 4.501980 -0.164640 -0.036350 
#    y -0.164640 4.497930 -0.287000 
#    z -0.036350 -0.287000 4.651490 
# 
# 
# High freq. dielectric constant tensor:
#      x y z
#    x 1.928780 -0.002650 -0.015230 
#    y -0.002650 1.892690 -0.010520 
#    z -0.015230 -0.010520 1.934350 
# 
# From -- ./inp_files/383693.got.cif
#   From: 2010.06.25/outbox.cif.g09.slc.cpg/sg2_192_cif.got.tgz:383693.got - 2010.06.27 13:26:56.
