data_PCOD8015770
_publ_section_title
;
Structure prediction by ZEFSAII (Michael W. Deem and Ramdas Pophale) SiO2 
 PCOD8015770
Probable space group: P -1
;
_chemical_formula_sum "Si O2"
_cell_formula_units_Z 16
_cell_length_a 22.234078
_cell_length_b 9.124431
_cell_length_c 21.318638
_cell_angle_alpha 142.786120
_cell_angle_beta 162.395754
_cell_angle_gamma 34.817753
_cell_volume 744.445627
_symmetry_space_group_name_H-M "P -1"
_symmetry_group_IT_number 2
_symmetry_cell_setting 'triclinic'
loop_
_space_group_symop_operation_xyz
x,y,z
-x,-y,-z
loop_
_atom_site_type_symbol
_atom_site_label
_atom_site_fract_x
_atom_site_fract_y
_atom_site_fract_z
Si Si1 0.528665 0.234719 0.646245
Si Si2 0.920885 0.596632 0.691755
Si Si3 0.570289 0.607465 0.168061
Si Si4 0.117519 0.197199 0.511498
Si Si5 0.963436 0.242711 0.503169
Si Si6 0.195451 0.486422 0.043352
Si Si7 0.832746 0.975574 0.069850
Si Si8 0.063293 0.054688 0.974289
O O1 0.310885 0.406405 0.521200
O O2 0.701044 0.120649 0.832493
O O3 0.500000 0.000000 0.500000
O O4 0.602759 0.423374 0.738133
O O5 0.998641 0.465969 0.656931
O O6 0.091343 0.441528 0.859594
O O7 0.907136 0.892485 0.774091
O O8 0.666651 0.830084 0.319220
O O9 0.727082 0.368093 0.281623
O O10 0.500000 0.500000 0.000000
O O11 0.358832 0.762613 0.048899
O O12 0.000000 0.500000 0.500000
O O13 0.136812 0.129324 0.581754
O O14 0.998423 0.033650 0.300867
O O15 0.000000 0.000000 0.500000
O O16 0.262711 0.223775 0.059905
O O17 0.013751 0.699891 0.974029
O O18 0.945319 0.857180 0.076414
#
# Coordination Sequence:
#
# PCOD8015770 Si02
#       8
#     2   2   2   2   2   2   2   2
#     4  11  20  43  66  87 129 168 210 263 321 380
#     4  11  22  40  67  89 125 171 212 259 324 375
#     4  11  23  43  67  90 132 174 209 259 329 383
#     4  10  21  43  65  86 131 173 205 261 321 379
#     4  11  23  41  67  96 125 165 218 268 312 377
#     4  11  24  40  63  96 127 166 211 268 317 378
#     4  12  24  41  65  95 130 166 217 264 322 382
#     4  11  22  40  65  91 123 172 211 259 322 383
#
# _framework density 21.492502999999999
#
# number of rings (size 3 to 8) (size 9 to 14) (size 15 to 20)
#    0.000    1.000    5.000    4.125    0.000    2.000 
#    0.000    1.250    0.000    0.000    0.000    0.000 
#    0.000    0.000    0.000    0.000    0.000    0.000 
#
# Total GULP energy -198339.895812 kJ/mol
# GULP energy per Si atom -12396.243488 kJ/mol
# Density = 2.144358 g / cm^3
# Si number density = 21.492503 Si / 1000 Ang^3
#
#
#
# Elastic Constant Matrix: (Units=GPa)
#
#
# Indices 1 2 3 4 5 6 
#
# 1 126.6573 19.6252 45.1683 3.3476 -12.2864 13.1618
# 2 19.6252 65.6617 30.6175 2.7465 -6.9563 20.4209
# 3 45.1683 30.6175 108.1831 10.5736 5.3665 5.5064
# 4 3.3476 2.7465 10.5736 30.5327 -2.5135 2.8458
# 5 -12.2864 -6.9563 5.3665 -2.5135 38.3490 5.7656
# 6 13.1618 20.4209 5.5064 2.8458 5.7656 39.9056
#
#
#
# Elastic Compliance Matrix: (Units=1/GPa)
#
#
# Indices 1 2 3 4 5 6 
#
# 1 0.010273 0.000772 -0.004659 0.001173 0.004748 -0.003910
# 2 0.000772 0.022513 -0.006623 0.001898 0.007192 -0.012036
# 3 -0.004659 -0.006623 0.013557 -0.004430 -0.005508 0.004167
# 4 0.001173 0.001898 -0.004430 0.034688 0.004189 -0.003826
# 5 0.004748 0.007192 -0.005508 0.004189 0.031348 -0.009314
# 6 -0.003910 -0.012036 0.004167 -0.003826 -0.009314 0.033551
#
#
# Mechanical properties :
#
#
# Convention : Reuss Voigt Hill
#
# Bulk Modulus (GPa) = 39.49015 54.59154 47.04085
# Shear Modulus (GPa) = 28.50754 35.43019 31.96887
#
# Velocity S-wave (km/s) = 3.64592 4.06457 3.86092
# Velocity P-wave (km/s) = 6.01144 6.89079 6.46608
#
# Compressibility (1/GPa) = 0.02532277
#
# Stress axis : x y z
#
# Youngs Moduli (GPa) = 97.34232 44.41882 73.76051
#
# Poissons Ratio (x) = -0.03429 0.34363
# Poissons Ratio (y) = -0.07514 0.48855
# Poissons Ratio (z) = 0.45350 0.29421
#
# Static dielectric constant tensor:
#      x y z
#    x 3.791610 -0.181320 0.525910 
#    y -0.181320 3.785730 0.037570 
#    z 0.525910 0.037570 4.479450 
# 
# 
# High freq. dielectric constant tensor:
#      x y z
#    x 1.858830 -0.003680 -0.002120 
#    y -0.003680 1.827960 0.011640 
#    z -0.002120 0.011640 1.840310 
# 
# From -- ./inp_files/601288.got.cif
#   From: 2010.06.25/outbox.cif.g09.slc.cpg/sg2_301_cif.got.tgz:601288.got - 2010.06.27 13:26:56.
