data_PCOD8015793
_publ_section_title
;
Structure prediction by ZEFSAII (Michael W. Deem and Ramdas Pophale) SiO2 
 PCOD8015793
Probable space group: P -1
;
_chemical_formula_sum "Si O2"
_cell_formula_units_Z 16
_cell_length_a 15.757912
_cell_length_b 20.196244
_cell_length_c 10.772233
_cell_angle_alpha 140.206042
_cell_angle_beta 20.174325
_cell_angle_gamma 149.249740
_cell_volume 590.071514
_symmetry_space_group_name_H-M "P -1"
_symmetry_group_IT_number 2
_symmetry_cell_setting 'triclinic'
loop_
_space_group_symop_operation_xyz
x,y,z
-x,-y,-z
loop_
_atom_site_type_symbol
_atom_site_label
_atom_site_fract_x
_atom_site_fract_y
_atom_site_fract_z
Si Si1 0.046363 0.501628 0.280107
Si Si2 0.119214 0.147557 0.400092
Si Si3 0.707604 0.412129 0.383279
Si Si4 0.688871 0.586175 0.482255
Si Si5 0.706492 0.116340 0.288986
Si Si6 0.557976 0.751284 0.154121
Si Si7 0.155172 0.327194 0.174072
Si Si8 0.251732 0.140234 0.471880
O O1 0.971019 0.430459 0.141071
O O2 0.790932 0.396200 0.581835
O O3 0.014941 0.615400 0.460337
O O4 0.398934 0.561440 0.925687
O O5 0.051064 0.254023 0.660761
O O6 0.336610 0.171601 0.254868
O O7 0.329749 0.184496 0.043043
O O8 0.797363 0.993568 0.613285
O O9 0.846364 0.531173 0.262215
O O10 0.506337 0.266871 0.388311
O O11 0.511711 0.431401 0.779899
O O12 0.500000 0.500000 0.500000
O O13 0.501552 0.153537 0.556795
O O14 0.976039 0.241520 0.177502
O O15 0.500000 0.000000 0.500000
O O16 0.893858 0.093955 0.902707
O O17 0.825291 0.753587 0.858571
#
# Coordination Sequence:
#
# PCOD8015793 Si02
#       8
#     2   2   2   2   2   2   2   2
#     4  11  23  40  68 101 132 164 220 281 328 388
#     4  11  22  40  66  93 133 174 217 268 332 392
#     4  10  21  43  65  95 133 167 217 277 328 385
#     4  12  24  40  67  96 127 178 220 264 332 395
#     4  11  22  40  65  95 128 173 220 265 320 391
#     4  11  22  40  70  98 124 171 218 269 330 392
#     4  10  22  39  66  99 131 162 214 281 326 378
#     4  10  22  41  64  94 136 176 212 275 330 384
#
# _framework density 27.115359000000002
#
# number of rings (size 3 to 8) (size 9 to 14) (size 15 to 20)
#    0.000    1.250    2.500    5.250    0.000    2.500 
#    2.250    0.000    0.000    1.500    0.000    0.000 
#    0.000    0.000    0.000    0.000    0.000    0.000 
#
# Total GULP energy -198272.818383 kJ/mol
# GULP energy per Si atom -12392.051149 kJ/mol
# Density = 2.705364 g / cm^3
# Si number density = 27.115359 Si / 1000 Ang^3
#
#
#
# Elastic Constant Matrix: (Units=GPa)
#
#
# Indices 1 2 3 4 5 6 
#
# 1 110.7043 38.4580 42.5545 0.5420 3.2716 -27.0873
# 2 38.4580 179.5389 29.2625 10.1171 -11.1521 -26.7885
# 3 42.5545 29.2625 62.4756 14.9198 -9.4027 -22.8326
# 4 0.5420 10.1171 14.9198 39.0198 -15.1984 0.3123
# 5 3.2716 -11.1521 -9.4027 -15.1984 48.6740 1.9866
# 6 -27.0873 -26.7885 -22.8326 0.3123 1.9866 45.3070
#
#
#
# Elastic Compliance Matrix: (Units=1/GPa)
#
#
# Indices 1 2 3 4 5 6 
#
# 1 0.013539 -0.001341 -0.008357 0.002477 -0.002187 0.003169
# 2 -0.001341 0.006492 -0.000788 -0.000991 0.001010 0.002603
# 3 -0.008357 -0.000788 0.027793 -0.009415 0.002463 0.008502
# 4 0.002477 -0.000991 -0.009415 0.032668 0.008169 -0.004433
# 5 -0.002187 0.001010 0.002463 0.008169 0.023973 -0.000577
# 6 0.003169 0.002603 0.008502 -0.004433 -0.000577 0.029846
#
#
# Mechanical properties :
#
#
# Convention : Reuss Voigt Hill
#
# Bulk Modulus (GPa) = 37.23767 63.69652 50.46710
# Shear Modulus (GPa) = 30.44444 42.76307 36.60376
#
# Velocity S-wave (km/s) = 3.35442 3.97555 3.67812
# Velocity P-wave (km/s) = 5.36337 6.67947 6.05727
#
# Compressibility (1/GPa) = 0.02685453
#
# Stress axis : x y z
#
# Youngs Moduli (GPa) = 73.86046 154.02811 35.97965
#
# Poissons Ratio (x) = 0.20651 0.30067
# Poissons Ratio (y) = 0.09902 0.02835
# Poissons Ratio (z) = 0.61722 0.12136
#
# Static dielectric constant tensor:
#      x y z
#    x 4.863300 -0.100150 0.100720 
#    y -0.100150 5.237900 0.639820 
#    z 0.100720 0.639820 5.882480 
# 
# 
# High freq. dielectric constant tensor:
#      x y z
#    x 2.091440 -0.001370 0.021930 
#    y -0.001370 2.099080 0.017670 
#    z 0.021930 0.017670 2.105390 
# 
# From -- ./inp_files/467119.got.cif
#   From: 2010.06.25/outbox.cif.g09.slc.cpg/sg2_234_cif.got.tgz:467119.got - 2010.06.27 13:26:56.
