data_PCOD8015797
_publ_section_title
;
Structure prediction by ZEFSAII (Michael W. Deem and Ramdas Pophale) SiO2 
 PCOD8015797
Probable space group: P -1
;
_chemical_formula_sum "Si O2"
_cell_formula_units_Z 16
_cell_length_a 15.707590
_cell_length_b 8.949135
_cell_length_c 8.911722
_cell_angle_alpha 128.586761
_cell_angle_beta 107.890355
_cell_angle_gamma 105.691825
_cell_volume 730.279294
_symmetry_space_group_name_H-M "P -1"
_symmetry_group_IT_number 2
_symmetry_cell_setting 'triclinic'
loop_
_space_group_symop_operation_xyz
x,y,z
-x,-y,-z
loop_
_atom_site_type_symbol
_atom_site_label
_atom_site_fract_x
_atom_site_fract_y
_atom_site_fract_z
Si Si1 0.379522 0.346148 0.551974
Si Si2 0.564729 0.908680 0.043894
Si Si3 0.170766 0.237700 0.517946
Si Si4 0.783386 0.419519 0.016741
Si Si5 0.026536 0.719529 0.249434
Si Si6 0.594952 0.000208 0.469413
Si Si7 0.257732 0.967875 0.012111
Si Si8 0.036911 0.747837 0.610309
O O1 0.491870 0.622384 0.793093
O O2 0.262631 0.312683 0.487300
O O3 0.360478 0.226424 0.303625
O O4 0.397461 0.205367 0.596985
O O5 0.686984 0.057559 0.120774
O O6 0.500000 0.000000 0.000000
O O7 0.580189 0.970871 0.266374
O O8 0.066375 0.238333 0.413344
O O9 0.116713 0.965503 0.364366
O O10 0.251963 0.440942 0.818385
O O11 0.708958 0.269985 0.738874
O O12 0.789917 0.249684 0.029435
O O13 0.904209 0.655039 0.166643
O O14 0.075120 0.754863 0.464756
O O15 0.000000 0.500000 0.000000
O O16 0.500000 0.000000 0.500000
O O17 0.151608 0.960481 0.896792
O O18 0.000000 0.500000 0.500000
#
# Coordination Sequence:
#
# PCOD8015797 Si02
#       8
#     2   2   2   2   2   2   2   2
#     4  11  25  47  67  96 136 182 221 277 337 401
#     4  12  26  45  69 102 135 173 224 286 337 394
#     4  11  23  43  70  97 138 177 226 272 331 399
#     4  10  21  43  65  96 134 180 214 276 333 395
#     4  11  23  42  65  96 136 176 223 271 329 401
#     4  11  24  45  73  96 128 180 230 273 336 402
#     4  11  23  42  68  99 139 172 221 276 336 397
#     4  11  23  42  69  98 137 178 219 277 336 390
#
# _framework density 21.909426
#
# number of rings (size 3 to 8) (size 9 to 14) (size 15 to 20)
#    0.000    1.000    2.500    6.750    3.500    0.500 
#    6.750    0.000    0.000    0.000    0.000    0.000 
#    0.000    0.000    0.000    0.000    0.000    0.000 
#
# Total GULP energy -198254.149758 kJ/mol
# GULP energy per Si atom -12390.884360 kJ/mol
# Density = 2.185956 g / cm^3
# Si number density = 21.909426 Si / 1000 Ang^3
#
#
#
# Elastic Constant Matrix: (Units=GPa)
#
#
# Indices 1 2 3 4 5 6 
#
# 1 98.9380 19.9399 6.0094 -18.8008 -1.2924 -1.9661
# 2 19.9399 61.2651 32.9578 -8.9927 0.2451 -7.4862
# 3 6.0094 32.9578 135.1202 -13.0211 -0.5848 -9.7451
# 4 -18.8008 -8.9927 -13.0211 43.0725 0.6262 -2.0060
# 5 -1.2924 0.2451 -0.5848 0.6262 37.9166 1.6916
# 6 -1.9661 -7.4862 -9.7451 -2.0060 1.6916 34.8624
#
#
#
# Elastic Compliance Matrix: (Units=1/GPa)
#
#
# Indices 1 2 3 4 5 6 
#
# 1 0.011653 -0.003507 0.000810 0.004612 0.000339 0.000380
# 2 -0.003507 0.020471 -0.004470 0.001541 -0.000483 0.003061
# 3 0.000810 -0.004470 0.008783 0.002152 0.000082 0.001661
# 4 0.004612 0.001541 0.002152 0.026335 -0.000376 0.002726
# 5 0.000339 -0.000483 0.000082 -0.000376 0.026457 -0.001367
# 6 0.000380 0.003061 0.001661 0.002726 -0.001367 0.030050
#
#
# Mechanical properties :
#
#
# Convention : Reuss Voigt Hill
#
# Bulk Modulus (GPa) = 37.63092 45.90417 41.76755
# Shear Modulus (GPa) = 34.02784 38.93138 36.47961
#
# Velocity S-wave (km/s) = 3.94523 4.21993 4.08489
# Velocity P-wave (km/s) = 6.16166 6.68887 6.43067
#
# Compressibility (1/GPa) = 0.02657389
#
# Stress axis : x y z
#
# Youngs Moduli (GPa) = 85.81295 48.85052 113.86246
#
# Poissons Ratio (x) = 0.17130 -0.09227
# Poissons Ratio (y) = 0.30092 0.50896
# Poissons Ratio (z) = -0.06954 0.21836
#
# Static dielectric constant tensor:
#      x y z
#    x 4.314470 0.118610 -0.055300 
#    y 0.118610 4.260970 -0.241250 
#    z -0.055300 -0.241250 4.534500 
# 
# 
# High freq. dielectric constant tensor:
#      x y z
#    x 1.866440 0.008430 -0.001780 
#    y 0.008430 1.849770 0.004640 
#    z -0.001780 0.004640 1.882140 
# 
# From -- ./inp_files/299784.got.cif
#   From: 2010.06.25/outbox.cif.g09.slc.cpg/sg2_150_cif.got.tgz:299784.got - 2010.06.27 13:26:56.
