data_PCOD8015531
_publ_section_title
;
Structure prediction by ZEFSAII (Michael W. Deem and Ramdas Pophale) SiO2 
 PCOD8015531
Probable space group: P -1
;
_chemical_formula_sum "Si O2"
_cell_formula_units_Z 12
_cell_length_a 5.041574
_cell_length_b 9.527207
_cell_length_c 17.013590
_cell_angle_alpha 45.385936
_cell_angle_beta 84.490708
_cell_angle_gamma 70.835660
_cell_volume 538.373382
_symmetry_space_group_name_H-M "P -1"
_symmetry_group_IT_number 2
_symmetry_cell_setting 'triclinic'
loop_
_space_group_symop_operation_xyz
x,y,z
-x,-y,-z
loop_
_atom_site_type_symbol
_atom_site_label
_atom_site_fract_x
_atom_site_fract_y
_atom_site_fract_z
Si Si1 0.458215 0.431795 0.816671
Si Si2 0.208012 0.191752 0.431328
Si Si3 0.008366 0.349932 0.755307
Si Si4 0.133296 0.934205 0.824693
Si Si5 0.748507 0.699960 0.964663
Si Si6 0.896885 0.115085 0.336136
O O1 0.798975 0.306739 0.843485
O O2 0.407455 0.685356 0.721681
O O3 0.294589 0.367387 0.775604
O O4 0.355889 0.356658 0.928139
O O5 0.184710 0.424732 0.369145
O O6 0.106326 0.214849 0.333797
O O7 0.500000 0.000000 0.500000
O O8 0.035038 0.107665 0.533065
O O9 0.105410 0.168052 0.758849
O O10 0.465373 0.778963 0.886557
O O11 0.038617 0.933618 0.737504
O O12 0.899613 0.871167 0.905219
O O13 0.000000 0.500000 0.000000
#
# Coordination Sequence:
#
# PCOD8015531 Si02
#       6
#     2   2   2   2   2   2
#     4  11  23  43  69  92 134 178 223 264 322 400
#     4  10  21  42  70  95 125 179 224 263 329 405
#     4  11  25  43  66 101 136 172 216 276 336 381
#     4  12  27  43  66 103 138 167 221 283 328 381
#     4  12  26  43  70 100 130 179 227 266 325 394
#     4  10  23  40  68  97 127 173 227 271 323 392
#
# _framework density 22.289363000000002
#
# number of rings (size 3 to 8) (size 9 to 14) (size 15 to 20)
#    0.000    1.000    3.333    2.500    4.667    4.667 
#    0.000    0.833    0.000    0.000    0.000    0.000 
#    0.000    0.000    0.000    0.000    0.000    0.000 
#
# Total GULP energy -148658.239885 kJ/mol
# GULP energy per Si atom -12388.186657 kJ/mol
# Density = 2.223863 g / cm^3
# Si number density = 22.289363 Si / 1000 Ang^3
#
#
#
# Elastic Constant Matrix: (Units=GPa)
#
#
# Indices 1 2 3 4 5 6 
#
# 1 95.7196 19.8725 30.6041 -3.5514 -2.2918 -3.5599
# 2 19.8725 125.1330 61.5952 -7.4712 0.1215 11.2768
# 3 30.6041 61.5952 106.9859 -7.6244 8.5868 10.7081
# 4 -3.5514 -7.4712 -7.6244 25.9123 2.9281 -2.2510
# 5 -2.2918 0.1215 8.5868 2.9281 27.4381 -6.0321
# 6 -3.5599 11.2768 10.7081 -2.2510 -6.0321 34.1293
#
#
#
# Elastic Compliance Matrix: (Units=1/GPa)
#
#
# Indices 1 2 3 4 5 6 
#
# 1 0.011896 -0.000308 -0.003724 0.000394 0.002784 0.003029
# 2 -0.000308 0.011359 -0.006347 0.001072 0.001474 -0.001463
# 3 -0.003724 -0.006347 0.015133 0.002463 -0.006153 -0.003964
# 4 0.000394 0.001072 0.002463 0.040293 -0.004887 0.000708
# 5 0.002784 0.001474 -0.006153 -0.004887 0.041023 0.008662
# 6 0.003029 -0.001463 -0.003964 0.000708 0.008662 0.032921
#
#
# Mechanical properties :
#
#
# Convention : Reuss Voigt Hill
#
# Bulk Modulus (GPa) = 56.72529 61.33134 59.02831
# Shear Modulus (GPa) = 27.89242 31.88039 29.88640
#
# Velocity S-wave (km/s) = 3.54132 3.78603 3.66572
# Velocity P-wave (km/s) = 6.49815 6.83284 6.66760
#
# Compressibility (1/GPa) = 0.01762882
#
# Stress axis : x y z
#
# Youngs Moduli (GPa) = 84.06343 88.03466 66.08182
#
# Poissons Ratio (x) = 0.02714 0.24609
# Poissons Ratio (y) = 0.02591 0.41944
# Poissons Ratio (z) = 0.31305 0.55878
#
# Static dielectric constant tensor:
#      x y z
#    x 4.282370 -0.142960 0.259410 
#    y -0.142960 3.862160 0.023430 
#    z 0.259410 0.023430 3.035230 
# 
# 
# High freq. dielectric constant tensor:
#      x y z
#    x 1.890380 0.002440 -0.006470 
#    y 0.002440 1.864310 -0.015840 
#    z -0.006470 -0.015840 1.878450 
# 
# From -- ./inp_files/23745.got.cif
#   From: 2010.06.25/outbox.cif.g09.slc.cpg/sg2_12_cif.got.tgz:23745.got - 2010.06.27 13:26:56.
