data_PCOD8015158
_publ_section_title
;
Structure prediction by ZEFSAII (Michael W. Deem and Ramdas Pophale) SiO2 
 PCOD8015158
Probable space group: P -1
;
_chemical_formula_sum "Si O2"
_cell_formula_units_Z 14
_cell_length_a 7.148289
_cell_length_b 10.063130
_cell_length_c 17.073380
_cell_angle_alpha 133.616413
_cell_angle_beta 59.176976
_cell_angle_gamma 131.540239
_cell_volume 662.095959
_symmetry_space_group_name_H-M "P -1"
_symmetry_group_IT_number 2
_symmetry_cell_setting 'triclinic'
loop_
_space_group_symop_operation_xyz
x,y,z
-x,-y,-z
loop_
_atom_site_type_symbol
_atom_site_label
_atom_site_fract_x
_atom_site_fract_y
_atom_site_fract_z
Si Si1 0.356538 0.103674 0.612412
Si Si2 0.475132 0.663572 0.174056
Si Si3 0.766030 0.830143 0.624882
Si Si4 0.375631 0.394461 0.594888
Si Si5 0.468235 0.036036 0.846822
Si Si6 0.892974 0.401550 0.193308
Si Si7 0.269809 0.609688 0.949473
O O1 0.484113 0.181681 0.700425
O O2 0.407952 0.305962 0.633520
O O3 0.500000 0.000000 0.500000
O O4 0.061957 0.940894 0.620072
O O5 0.588388 0.812076 0.133905
O O6 0.609504 0.529754 0.106362
O O7 0.184034 0.501679 0.154552
O O8 0.638165 0.605992 0.606083
O O9 0.702341 0.783650 0.527554
O O10 0.666755 0.983397 0.740187
O O11 0.155435 0.452425 0.676163
O O12 0.207819 0.825328 0.836051
O O13 0.578624 0.153214 0.952973
O O14 0.739298 0.377435 0.136970
O O15 0.000000 0.500000 0.000000
#
# Coordination Sequence:
#
# PCOD8015158 Si02
#       7
#     2   2   2   2   2   2   2
#     4  12  23  37  63  97 131 170 214 260 323 386
#     4  12  25  43  65  98 131 168 215 272 320 377
#     4  10  22  41  66  92 130 170 213 266 318 380
#     4  10  21  42  66  92 128 171 210 266 324 375
#     4  11  24  43  68  96 126 174 220 261 325 382
#     4  11  24  45  68  95 130 171 217 266 323 386
#     4  12  24  46  68  92 135 171 214 270 322 379
#
# _framework density 21.144971999999999
#
# number of rings (size 3 to 8) (size 9 to 14) (size 15 to 20)
#    0.000    0.857    2.857    4.714    0.000    2.286 
#    2.571    0.000    0.000    0.000    0.000    0.000 
#    0.000    0.000    0.000    0.000    0.000    0.000 
#
# Total GULP energy -173662.387489 kJ/mol
# GULP energy per Si atom -12404.456249 kJ/mol
# Density = 2.109684 g / cm^3
# Si number density = 21.144972 Si / 1000 Ang^3
#
#
#
# Elastic Constant Matrix: (Units=GPa)
#
#
# Indices 1 2 3 4 5 6 
#
# 1 111.0420 57.3107 42.8114 7.6372 1.0529 -6.8951
# 2 57.3107 131.9802 23.0612 1.9923 -1.6685 -10.3268
# 3 42.8114 23.0612 131.0317 6.5465 5.5143 2.2411
# 4 7.6372 1.9923 6.5465 26.6433 -3.9008 3.7747
# 5 1.0529 -1.6685 5.5143 -3.9008 37.0005 0.7789
# 6 -6.8951 -10.3268 2.2411 3.7747 0.7789 9.0464
#
#
#
# Elastic Compliance Matrix: (Units=1/GPa)
#
#
# Indices 1 2 3 4 5 6 
#
# 1 0.013463 -0.004596 -0.003502 -0.003814 -0.000629 0.007529
# 2 -0.004596 0.010337 -0.000458 -0.000495 0.000432 0.008580
# 3 -0.003502 -0.000458 0.009027 -0.000644 -0.001228 -0.005054
# 4 -0.003814 -0.000495 -0.000644 0.042624 0.005129 -0.021540
# 5 -0.000629 0.000432 -0.001228 0.005129 0.027877 -0.004222
# 6 0.007529 0.008580 -0.005054 -0.021540 -0.004222 0.136677
#
#
# Mechanical properties :
#
#
# Convention : Reuss Voigt Hill
#
# Bulk Modulus (GPa) = 63.62877 68.93559 66.28218
# Shear Modulus (GPa) = 19.05821 31.26274 25.16048
#
# Velocity S-wave (km/s) = 3.00544 3.84929 3.45324
# Velocity P-wave (km/s) = 6.49620 7.24074 6.87855
#
# Compressibility (1/GPa) = 0.01571616
#
# Stress axis : x y z
#
# Youngs Moduli (GPa) = 74.27567 96.74156 110.78253
#
# Poissons Ratio (x) = 0.44460 0.38793
# Poissons Ratio (y) = 0.34135 0.05073
# Poissons Ratio (z) = 0.26009 0.04430
#
# Static dielectric constant tensor:
#      x y z
#    x 3.831480 -0.091810 0.160880 
#    y -0.091810 3.927960 -0.062130 
#    z 0.160880 -0.062130 4.053160 
# 
# 
# High freq. dielectric constant tensor:
#      x y z
#    x 1.816280 -0.002280 0.002890 
#    y -0.002280 1.840860 -0.000110 
#    z 0.002890 -0.000110 1.853520 
# 
# From -- ./inp_files/48844.got.cif
#   From: 2010.06.25/outbox.cif.g09.slc.cpg/sg2_25_cif.got.tgz:48844.got - 2010.06.27 13:26:56.
