data_PCOD8015092
_publ_section_title
;
Structure prediction by ZEFSAII (Michael W. Deem and Ramdas Pophale) SiO2 
 PCOD8015092
Probable space group: P -1
;
_chemical_formula_sum "Si O2"
_cell_formula_units_Z 16
_cell_length_a 15.741100
_cell_length_b 14.637978
_cell_length_c 15.003023
_cell_angle_alpha 46.687584
_cell_angle_beta 28.825682
_cell_angle_gamma 28.722618
_cell_volume 748.742510
_symmetry_space_group_name_H-M "P -1"
_symmetry_group_IT_number 2
_symmetry_cell_setting 'triclinic'
loop_
_space_group_symop_operation_xyz
x,y,z
-x,-y,-z
loop_
_atom_site_type_symbol
_atom_site_label
_atom_site_fract_x
_atom_site_fract_y
_atom_site_fract_z
Si Si1 0.440708 0.850048 0.813956
Si Si2 0.227213 0.575081 0.224355
Si Si3 0.969882 0.860334 0.857528
Si Si4 0.981132 0.462001 0.943318
Si Si5 0.570735 0.203437 0.504245
Si Si6 0.541935 0.867330 0.979826
Si Si7 0.187675 0.175381 0.412619
Si Si8 0.704670 0.996995 0.339015
O O1 0.704345 0.605904 0.744393
O O2 0.589764 0.900517 0.664643
O O3 0.286411 0.923671 0.811518
O O4 0.189836 0.965944 0.037729
O O5 0.128634 0.635222 0.379690
O O6 0.000740 0.763709 0.241115
O O7 0.500000 0.500000 0.000000
O O8 0.287098 0.741520 0.637349
O O9 0.991452 0.703636 0.973278
O O10 0.775893 0.983609 0.864531
O O11 0.234601 0.392017 0.705891
O O12 0.682387 0.668783 0.032903
O O13 0.000000 0.500000 0.000000
O O14 0.731372 0.015182 0.547999
O O15 0.609982 0.144250 0.405099
O O16 0.761821 0.781396 0.755447
O O17 0.500000 0.000000 0.000000
O O18 0.500000 0.000000 0.500000
#
# Coordination Sequence:
#
# PCOD8015092 Si02
#       8
#     2   2   2   2   2   2   2   2
#     4  11  21  40  66  91 134 182 224 268 327 399
#     4  11  24  38  59  98 138 178 229 280 325 401
#     4  11  25  46  68 103 139 177 227 289 341 406
#     4  12  24  48  75  98 134 176 229 287 352 417
#     4  11  23  44  68 102 142 173 230 289 332 405
#     4  11  23  47  75  96 133 182 223 286 358 412
#     4  10  21  42  65  96 136 181 229 276 336 408
#     4  11  22  40  66  92 134 187 224 266 333 392
#
# _framework density 21.369161999999999
#
# number of rings (size 3 to 8) (size 9 to 14) (size 15 to 20)
#    0.000    1.000    6.250    1.875    1.750    5.500 
#    2.250    1.250    0.000    0.000    0.000    0.000 
#    0.000    0.000    0.000    0.000    0.000    0.000 
#
# Total GULP energy -198301.793686 kJ/mol
# GULP energy per Si atom -12393.862105 kJ/mol
# Density = 2.132053 g / cm^3
# Si number density = 21.369162 Si / 1000 Ang^3
#
#
#
# Elastic Constant Matrix: (Units=GPa)
#
#
# Indices 1 2 3 4 5 6 
#
# 1 127.0241 51.6137 40.7828 0.8169 1.0800 -14.7636
# 2 51.6137 119.4818 31.7170 14.7155 1.4935 -11.7294
# 3 40.7828 31.7170 101.3483 2.8435 -23.9462 2.3467
# 4 0.8169 14.7155 2.8435 26.8049 0.4565 0.6881
# 5 1.0800 1.4935 -23.9462 0.4565 32.9463 0.3642
# 6 -14.7636 -11.7294 2.3467 0.6881 0.3642 34.7935
#
#
#
# Elastic Compliance Matrix: (Units=1/GPa)
#
#
# Indices 1 2 3 4 5 6 
#
# 1 0.011151 -0.003486 -0.004355 0.001996 -0.003443 0.003847
# 2 -0.003486 0.011628 -0.002676 -0.006025 -0.002305 0.002764
# 3 -0.004355 -0.002676 0.015240 -0.000109 0.011385 -0.003895
# 4 0.001996 -0.006025 -0.000109 0.040623 -0.000412 -0.001976
# 5 -0.003443 -0.002305 0.011385 -0.000412 0.038888 -0.003405
# 6 0.003847 0.002764 -0.003895 -0.001976 -0.003405 0.031643
#
#
# Mechanical properties :
#
#
# Convention : Reuss Voigt Hill
#
# Bulk Modulus (GPa) = 58.87236 66.23125 62.55181
# Shear Modulus (GPa) = 28.43062 33.82497 31.12779
#
# Velocity S-wave (km/s) = 3.65149 3.98287 3.82077
# Velocity P-wave (km/s) = 6.73705 7.22579 6.98570
#
# Compressibility (1/GPa) = 0.01698590
#
# Stress axis : x y z
#
# Youngs Moduli (GPa) = 89.68115 85.99993 65.61714
#
# Poissons Ratio (x) = 0.29980 0.28573
# Poissons Ratio (y) = 0.31263 0.17557
# Poissons Ratio (z) = 0.39052 0.23011
#
# Static dielectric constant tensor:
#      x y z
#    x 4.607990 0.247870 0.170590 
#    y 0.247870 4.383670 -0.031780 
#    z 0.170590 -0.031780 3.968330 
# 
# 
# High freq. dielectric constant tensor:
#      x y z
#    x 1.833380 0.001850 0.007210 
#    y 0.001850 1.840840 0.001720 
#    z 0.007210 0.001720 1.836920 
# 
# From -- ./inp_files/534325.got.cif
#   From: 2010.06.25/outbox.cif.g09.slc.cpg/sg2_268_cif.got.tgz:534325.got - 2010.06.27 13:26:56.
