data_PCOD8015006
_publ_section_title
;
Structure prediction by ZEFSAII (Michael W. Deem and Ramdas Pophale) SiO2 
 PCOD8015006
Probable space group: P -1
;
_chemical_formula_sum "Si O2"
_cell_formula_units_Z 14
_cell_length_a 7.841730
_cell_length_b 9.629316
_cell_length_c 11.869746
_cell_angle_alpha 131.148563
_cell_angle_beta 93.503320
_cell_angle_gamma 108.341313
_cell_volume 593.826579
_symmetry_space_group_name_H-M "P -1"
_symmetry_group_IT_number 2
_symmetry_cell_setting 'triclinic'
loop_
_space_group_symop_operation_xyz
x,y,z
-x,-y,-z
loop_
_atom_site_type_symbol
_atom_site_label
_atom_site_fract_x
_atom_site_fract_y
_atom_site_fract_z
Si Si1 0.970752 0.663919 0.824983
Si Si2 0.038953 0.758826 0.390639
Si Si3 0.553817 0.846152 0.140654
Si Si4 0.285357 0.027071 0.167345
Si Si5 0.576513 0.631318 0.816869
Si Si6 0.319877 0.208519 0.655335
Si Si7 0.997350 0.167829 0.319435
O O1 0.946800 0.445331 0.753946
O O2 0.798302 0.695758 0.888925
O O3 0.948047 0.660960 0.686556
O O4 0.171761 0.855858 0.974600
O O5 0.878187 0.779572 0.319144
O O6 0.967331 0.727876 0.501113
O O7 0.248213 0.965034 0.489304
O O8 0.417001 0.955774 0.206997
O O9 0.545764 0.730759 0.195720
O O10 0.477489 0.682520 0.946884
O O11 0.773178 0.010015 0.209863
O O12 0.432013 0.244472 0.227508
O O13 0.133062 0.054754 0.255909
O O14 0.448207 0.379281 0.656666
#
# Coordination Sequence:
#
# PCOD8015006 Si02
#       7
#     2   2   2   2   2   2   2
#     4  11  21  40  67  98 126 163 209 263 323 366
#     4  10  23  44  63  85 132 177 202 259 315 372
#     4  11  21  40  67  95 126 166 207 265 313 368
#     4  11  22  40  70 100 121 163 210 266 323 358
#     4  11  21  40  65  98 131 155 215 269 304 381
#     4  10  24  43  60  88 130 172 215 248 313 381
#     4  10  21  42  64  97 128 157 216 262 308 380
#
# _framework density 23.575904000000001
#
# number of rings (size 3 to 8) (size 9 to 14) (size 15 to 20)
#    0.000    1.429    2.857    3.000    2.000    0.571 
#   12.857    2.857    0.000    0.000    0.000    0.000 
#    0.000    0.000    0.000    0.000    0.000    0.000 
#
# Total GULP energy -173586.413439 kJ/mol
# GULP energy per Si atom -12399.029531 kJ/mol
# Density = 2.352224 g / cm^3
# Si number density = 23.575904 Si / 1000 Ang^3
#
#
#
# Elastic Constant Matrix: (Units=GPa)
#
#
# Indices 1 2 3 4 5 6 
#
# 1 98.5364 29.5862 15.7340 4.0488 6.1181 -20.9878
# 2 29.5862 90.8880 34.1685 24.1440 9.0029 -14.3689
# 3 15.7340 34.1685 46.3165 13.6014 0.7857 0.5414
# 4 4.0488 24.1440 13.6014 40.0737 -1.5163 7.1044
# 5 6.1181 9.0029 0.7857 -1.5163 31.0218 7.1149
# 6 -20.9878 -14.3689 0.5414 7.1044 7.1149 38.9984
#
#
#
# Elastic Compliance Matrix: (Units=1/GPa)
#
#
# Indices 1 2 3 4 5 6 
#
# 1 0.012879 -0.001149 -0.003265 -0.000966 -0.003877 0.007437
# 2 -0.001149 0.021522 -0.012239 -0.010995 -0.008790 0.011088
# 3 -0.003265 -0.012239 0.032246 -0.001759 0.004967 -0.007300
# 4 -0.000966 -0.010995 -0.001759 0.034760 0.007953 -0.012330
# 5 -0.003877 -0.008790 0.004967 0.007953 0.039016 -0.013961
# 6 0.007437 0.011088 -0.007300 -0.012330 -0.013961 0.038624
#
#
# Mechanical properties :
#
#
# Convention : Reuss Voigt Hill
#
# Bulk Modulus (GPa) = 29.99199 43.85759 36.92479
# Shear Modulus (GPa) = 22.37481 32.43559 27.40520
#
# Velocity S-wave (km/s) = 3.08401 3.71319 3.41313
# Velocity P-wave (km/s) = 5.04288 6.08497 5.58827
#
# Compressibility (1/GPa) = 0.03334224
#
# Stress axis : x y z
#
# Youngs Moduli (GPa) = 77.64484 46.46432 31.01164
#
# Poissons Ratio (x) = 0.05337 0.10126
# Poissons Ratio (y) = 0.08919 0.37954
# Poissons Ratio (z) = 0.25353 0.56865
#
# Static dielectric constant tensor:
#      x y z
#    x 4.105290 -0.157810 0.085490 
#    y -0.157810 4.304630 0.111570 
#    z 0.085490 0.111570 3.971170 
# 
# 
# High freq. dielectric constant tensor:
#      x y z
#    x 1.928070 -0.013900 0.010350 
#    y -0.013900 1.936500 0.014340 
#    z 0.010350 0.014340 1.911690 
# 
# From -- ./inp_files/423557.got.cif
#   From: 2010.06.25/outbox.cif.g09.slc.cpg/sg2_212_cif.got.tgz:423557.got - 2010.06.27 13:26:56.
