data_PCOD8015672
_publ_section_title
;
Structure prediction by ZEFSAII (Michael W. Deem and Ramdas Pophale) SiO2 
 PCOD8015672
Probable space group: P -1
;
_chemical_formula_sum "Si O2"
_cell_formula_units_Z 12
_cell_length_a 16.906843
_cell_length_b 17.256595
_cell_length_c 12.744418
_cell_angle_alpha 148.321480
_cell_angle_beta 31.922700
_cell_angle_gamma 162.532927
_cell_volume 569.730968
_symmetry_space_group_name_H-M "P -1"
_symmetry_group_IT_number 2
_symmetry_cell_setting 'triclinic'
loop_
_space_group_symop_operation_xyz
x,y,z
-x,-y,-z
loop_
_atom_site_type_symbol
_atom_site_label
_atom_site_fract_x
_atom_site_fract_y
_atom_site_fract_z
Si Si1 0.071770 0.893029 0.662872
Si Si2 0.374925 0.073388 0.334641
Si Si3 0.524855 0.563576 0.247698
Si Si4 0.779053 0.245061 0.528620
Si Si5 0.298711 0.584467 0.010429
Si Si6 0.265707 0.912250 0.040428
O O1 0.119643 0.833845 0.643689
O O2 0.764101 0.694616 0.779113
O O3 0.145798 0.859274 0.435442
O O4 0.265483 0.197215 0.799100
O O5 0.497519 0.339225 0.517475
O O6 0.235031 0.941858 0.228160
O O7 0.616179 0.155285 0.173609
O O8 0.631923 0.496198 0.088241
O O9 0.740825 0.307346 0.747731
O O10 0.000000 0.500000 0.500000
O O11 0.500000 0.000000 0.500000
O O12 0.029342 0.328711 0.954622
O O13 0.543012 0.815468 0.921658
#
# Coordination Sequence:
#
# PCOD8015672 Si02
#       6
#     2   2   2   2   2   2
#     4  10  21  43  61  89 125 164 200 250 300 368
#     4   9  23  38  64  91 127 172 200 238 305 361
#     4  10  22  39  64  86 137 162 194 246 312 352
#     4  12  25  44  69  89 115 158 211 261 313 359
#     4  12  24  42  60  97 125 157 207 261 295 360
#     4  11  23  37  66  91 129 165 209 240 294 364
#
# _framework density 21.062573
#
# number of rings (size 3 to 8) (size 9 to 14) (size 15 to 20)
#    1.000    0.333    1.667    4.000    2.333    2.667 
#    0.000    5.000    0.000    0.000    0.000    0.000 
#    0.000    0.000    0.000    0.000    0.000    0.000 
#
# Total GULP energy -148794.095009 kJ/mol
# GULP energy per Si atom -12399.507917 kJ/mol
# Density = 2.101463 g / cm^3
# Si number density = 21.062573 Si / 1000 Ang^3
#
#
#
# Elastic Constant Matrix: (Units=GPa)
#
#
# Indices 1 2 3 4 5 6 
#
# 1 160.7742 88.8241 11.0775 -11.4970 -29.7335 16.1971
# 2 88.8241 193.3882 6.5211 -9.4338 -13.5899 23.5227
# 3 11.0775 6.5211 21.6050 5.3959 -14.1567 -1.0041
# 4 -11.4970 -9.4338 5.3959 16.2306 -1.1283 -9.5274
# 5 -29.7335 -13.5899 -14.1567 -1.1283 39.4598 -8.1721
# 6 16.1971 23.5227 -1.0041 -9.5274 -8.1721 53.0077
#
#
#
# Elastic Compliance Matrix: (Units=1/GPa)
#
#
# Indices 1 2 3 4 5 6 
#
# 1 0.009929 -0.003877 -0.001543 0.006092 0.005904 0.000663
# 2 -0.003877 0.007186 -0.001283 0.000506 -0.001336 -0.002144
# 3 -0.001543 -0.001283 0.067670 -0.021666 0.022445 0.001888
# 4 0.006092 0.000506 -0.021666 0.080778 0.001850 0.012307
# 5 0.005904 -0.001336 0.022445 0.001850 0.038574 0.005493
# 6 0.000663 -0.002144 0.001888 0.012307 0.005493 0.022709
#
#
# Mechanical properties :
#
#
# Convention : Reuss Voigt Hill
#
# Bulk Modulus (GPa) = 14.00935 65.40142 39.70538
# Shear Modulus (GPa) = 18.93626 39.69592 29.31609
#
# Velocity S-wave (km/s) = 3.00167 4.34598 3.73481
# Velocity P-wave (km/s) = 4.32193 7.50346 6.12295
#
# Compressibility (1/GPa) = 0.07138091
#
# Stress axis : x y z
#
# Youngs Moduli (GPa) = 100.71593 139.15140 14.77764
#
# Poissons Ratio (x) = 0.53947 0.02279
# Poissons Ratio (y) = 0.39046 0.01896
# Poissons Ratio (z) = 0.15536 0.17849
#
# Static dielectric constant tensor:
#      x y z
#    x 3.801260 -0.108030 -0.030980 
#    y -0.108030 4.093690 0.198570 
#    z -0.030980 0.198570 3.756330 
# 
# 
# High freq. dielectric constant tensor:
#      x y z
#    x 1.834570 -0.000430 -0.006860 
#    y -0.000430 1.833740 0.002400 
#    z -0.006860 0.002400 1.814050 
# 
# From -- ./inp_files/38933.got.cif
#   From: 2010.06.25/outbox.cif.g09.slc.cpg/sg2_20_cif.got.tgz:38933.got - 2010.06.27 13:26:56.
