data_PCOD8015534
_publ_section_title
;
Structure prediction by ZEFSAII (Michael W. Deem and Ramdas Pophale) SiO2 
 PCOD8015534
Probable space group: P -1
;
_chemical_formula_sum "Si O2"
_cell_formula_units_Z 16
_cell_length_a 5.250815
_cell_length_b 28.909112
_cell_length_c 27.113933
_cell_angle_alpha 10.290093
_cell_angle_beta 59.109736
_cell_angle_gamma 59.997697
_cell_volume 630.575338
_symmetry_space_group_name_H-M "P -1"
_symmetry_group_IT_number 2
_symmetry_cell_setting 'triclinic'
loop_
_space_group_symop_operation_xyz
x,y,z
-x,-y,-z
loop_
_atom_site_type_symbol
_atom_site_label
_atom_site_fract_x
_atom_site_fract_y
_atom_site_fract_z
Si Si1 0.294316 0.008900 0.332819
Si Si2 0.185964 0.603384 0.021861
Si Si3 0.250105 0.077908 0.854154
Si Si4 0.645626 0.467558 0.572238
Si Si5 0.188262 0.785031 0.481540
Si Si6 0.141108 0.797954 0.970993
Si Si7 0.205249 0.241604 0.581907
Si Si8 0.831176 0.460076 0.109205
O O1 0.335548 0.796050 0.509325
O O2 0.297713 0.839439 0.560682
O O3 0.567478 0.214516 0.081035
O O4 0.970792 0.128500 0.233436
O O5 0.544023 0.644015 0.945215
O O6 0.063892 0.514046 0.073779
O O7 0.097671 0.409298 0.280163
O O8 0.460697 0.311361 0.610944
O O9 0.092311 0.166503 0.726577
O O10 0.443535 0.821184 0.095368
O O11 0.000000 0.000000 0.000000
O O12 0.500000 0.500000 0.500000
O O13 0.000000 0.500000 0.500000
O O14 0.441247 0.682909 0.526840
O O15 0.113186 0.078389 0.166238
O O16 0.047292 0.503250 0.304964
O O17 0.167024 0.993123 0.810737
O O18 0.000000 0.500000 0.000000
#
# Coordination Sequence:
#
# PCOD8015534 Si02
#       8
#     2   2   2   2   2   2   2   2
#     4  10  23  38  66  91 132 179 226 284 353 409
#     4  11  23  41  69  91 133 180 229 284 349 412
#     4  10  22  44  67  95 141 178 232 283 354 424
#     4  10  21  42  70  95 130 181 227 274 333 413
#     4  10  23  39  63  97 129 175 230 290 348 415
#     4  11  23  41  68  96 138 174 238 290 353 413
#     4  11  24  43  65 101 134 180 232 293 356 417
#     4  11  25  42  63 100 136 177 230 285 344 418
#
# _framework density 25.373654999999999
#
# number of rings (size 3 to 8) (size 9 to 14) (size 15 to 20)
#    0.000    1.500    2.500    1.500    3.500    1.000 
#   13.500    0.000    0.000    0.000    0.000    0.000 
#    0.000    0.000    0.000    0.000    0.000    0.000 
#
# Total GULP energy -198224.032632 kJ/mol
# GULP energy per Si atom -12389.002039 kJ/mol
# Density = 2.531590 g / cm^3
# Si number density = 25.373655 Si / 1000 Ang^3
#
#
#
# Elastic Constant Matrix: (Units=GPa)
#
#
# Indices 1 2 3 4 5 6 
#
# 1 72.6811 5.0927 13.2848 2.8574 16.7428 -1.6831
# 2 5.0927 89.3852 47.1688 13.3404 1.7778 6.9152
# 3 13.2848 47.1688 154.0818 -5.8498 22.9615 12.7632
# 4 2.8574 13.3404 -5.8498 53.2743 5.8253 1.5370
# 5 16.7428 1.7778 22.9615 5.8253 35.0656 0.9348
# 6 -1.6831 6.9152 12.7632 1.5370 0.9348 25.5198
#
#
#
# Elastic Compliance Matrix: (Units=1/GPa)
#
#
# Indices 1 2 3 4 5 6 
#
# 1 0.015568 -0.000817 -0.000119 0.000118 -0.007376 0.001571
# 2 -0.000817 0.014583 -0.005006 -0.004525 0.003717 -0.001365
# 3 -0.000119 -0.005006 0.009350 0.003063 -0.006233 -0.003284
# 4 0.000118 -0.004525 0.003063 0.020848 -0.005260 -0.001361
# 5 -0.007376 0.003717 -0.006233 -0.005260 0.036791 0.000593
# 6 0.001571 -0.001365 -0.003284 -0.001361 0.000593 0.041361
#
#
# Mechanical properties :
#
#
# Convention : Reuss Voigt Hill
#
# Bulk Modulus (GPa) = 36.20864 49.69341 42.95102
# Shear Modulus (GPa) = 31.32994 39.47873 35.40434
#
# Velocity S-wave (km/s) = 3.51770 3.94876 3.73945
# Velocity P-wave (km/s) = 5.54979 6.35747 5.96731
#
# Compressibility (1/GPa) = 0.02761772
#
# Stress axis : x y z
#
# Youngs Moduli (GPa) = 64.23230 68.57322 106.95060
#
# Poissons Ratio (x) = 0.05600 0.01270
# Poissons Ratio (y) = 0.05246 0.53544
# Poissons Ratio (z) = 0.00763 0.34331
#
# Static dielectric constant tensor:
#      x y z
#    x 4.153540 0.266170 -0.257850 
#    y 0.266170 4.693220 -0.373990 
#    z -0.257850 -0.373990 5.215930 
# 
# 
# High freq. dielectric constant tensor:
#      x y z
#    x 1.999600 0.005640 0.013340 
#    y 0.005640 2.008170 -0.005670 
#    z 0.013340 -0.005670 2.020760 
# 
# From -- ./inp_files/12815.got.cif
#   From: 2010.06.25/outbox.cif.g09.slc.cpg/sg2_7_cif.got.tgz:12815.got - 2010.06.27 13:26:56.
