data_PCOD8015851
_publ_section_title
;
Structure prediction by ZEFSAII (Michael W. Deem and Ramdas Pophale) SiO2 
 PCOD8015851
Probable space group: P -1
;
_chemical_formula_sum "Si O2"
_cell_formula_units_Z 16
_cell_length_a 5.273462
_cell_length_b 9.345104
_cell_length_c 18.045584
_cell_angle_alpha 96.834105
_cell_angle_beta 76.544192
_cell_angle_gamma 123.364259
_cell_volume 722.307328
_symmetry_space_group_name_H-M "P -1"
_symmetry_group_IT_number 2
_symmetry_cell_setting 'triclinic'
loop_
_space_group_symop_operation_xyz
x,y,z
-x,-y,-z
loop_
_atom_site_type_symbol
_atom_site_label
_atom_site_fract_x
_atom_site_fract_y
_atom_site_fract_z
Si Si1 0.237858 0.196448 0.023985
Si Si2 0.161282 0.504079 0.063299
Si Si3 0.249426 0.182191 0.187566
Si Si4 0.226599 0.127191 0.708769
Si Si5 0.061354 0.679572 0.319024
Si Si6 0.833937 0.047800 0.453492
Si Si7 0.137155 0.392523 0.509376
Si Si8 0.899159 0.375973 0.220504
O O1 0.103745 0.314274 0.057605
O O2 0.356049 0.178034 0.095520
O O3 0.502701 0.316579 0.952842
O O4 0.000000 0.000000 0.000000
O O5 0.009754 0.509021 0.151021
O O6 0.000000 0.500000 0.000000
O O7 0.538835 0.231069 0.224007
O O8 0.123709 0.307177 0.213010
O O9 0.975757 0.994743 0.218106
O O10 0.576119 0.213204 0.718068
O O11 0.130090 0.263636 0.713067
O O12 0.173818 0.028368 0.629785
O O13 0.020876 0.702873 0.409362
O O14 0.923000 0.480910 0.298440
O O15 0.047639 0.252801 0.443045
O O16 0.500000 0.000000 0.500000
O O17 0.000000 0.000000 0.500000
O O18 0.500000 0.500000 0.500000
O O19 0.000000 0.500000 0.500000
#
# Coordination Sequence:
#
# PCOD8015851 Si02
#       8
#     2   2   2   2   2   2   2   2
#     4  10  23  41  68  98 133 173 230 276 329 403
#     4  10  21  43  66  94 133 178 218 279 340 387
#     4  11  25  45  65 100 131 173 220 269 329 396
#     4  12  25  44  67  96 132 172 219 267 332 394
#     4  12  26  45  65  98 132 173 219 266 328 401
#     4  12  23  45  67  91 129 170 211 274 323 379
#     4  12  26  42  67  97 126 167 224 268 323 390
#     4  11  25  44  67  94 137 173 216 271 333 389
#
# _framework density 22.151233000000001
#
# number of rings (size 3 to 8) (size 9 to 14) (size 15 to 20)
#    0.000    0.750    3.750    3.000    5.250    1.500 
#    0.000    0.000    0.000    0.000    0.000    0.000 
#    0.000    0.000    0.000    0.000    0.000    0.000 
#
# Total GULP energy -198284.770886 kJ/mol
# GULP energy per Si atom -12392.798180 kJ/mol
# Density = 2.210082 g / cm^3
# Si number density = 22.151233 Si / 1000 Ang^3
#
#
#
# Elastic Constant Matrix: (Units=GPa)
#
#
# Indices 1 2 3 4 5 6 
#
# 1 119.4601 25.5716 0.4375 0.5516 -7.3327 10.0796
# 2 25.5716 127.4008 9.5329 10.5174 -6.6872 8.1852
# 3 0.4375 9.5329 43.5985 -3.7973 -1.8467 -1.9965
# 4 0.5516 10.5174 -3.7973 46.4781 4.7667 2.6547
# 5 -7.3327 -6.6872 -1.8467 4.7667 27.6976 -4.8375
# 6 10.0796 8.1852 -1.9965 2.6547 -4.8375 43.2969
#
#
#
# Elastic Compliance Matrix: (Units=1/GPa)
#
#
# Indices 1 2 3 4 5 6 
#
# 1 0.008958 -0.001647 0.000287 0.000208 0.001680 -0.001586
# 2 -0.001647 0.008673 -0.002048 -0.002229 0.001727 -0.001021
# 3 0.000287 -0.002048 0.023681 0.002210 0.001023 0.001391
# 4 0.000208 -0.002229 0.002210 0.022741 -0.004498 -0.001422
# 5 0.001680 0.001727 0.001023 -0.004498 0.038491 0.003906
# 6 -0.001586 -0.001021 0.001391 -0.001422 0.003906 0.024246
#
#
# Mechanical properties :
#
#
# Convention : Reuss Voigt Hill
#
# Bulk Modulus (GPa) = 28.98752 40.17151 34.57951
# Shear Modulus (GPa) = 34.45799 40.48901 37.47350
#
# Velocity S-wave (km/s) = 3.94836 4.27997 4.11750
# Velocity P-wave (km/s) = 5.82243 6.52676 6.18463
#
# Compressibility (1/GPa) = 0.03449760
#
# Stress axis : x y z
#
# Youngs Moduli (GPa) = 111.62670 115.29712 42.22804
#
# Poissons Ratio (x) = 0.18985 -0.01211
# Poissons Ratio (y) = 0.18381 0.08647
# Poissons Ratio (z) = -0.03202 0.23609
#
# Static dielectric constant tensor:
#      x y z
#    x 3.884150 0.195190 -0.318260 
#    y 0.195190 4.428890 -0.430620 
#    z -0.318260 -0.430620 4.821960 
# 
# 
# High freq. dielectric constant tensor:
#      x y z
#    x 1.881700 0.002800 0.001620 
#    y 0.002800 1.876970 -0.001900 
#    z 0.001620 -0.001900 1.874590 
# 
# From -- ./inp_files/323221.got.cif
#   From: 2010.06.25/outbox.cif.g09.slc.cpg/sg2_162_cif.got.tgz:323221.got - 2010.06.27 13:26:56.
