data_PCOD8015155
_publ_section_title
;
Structure prediction by ZEFSAII (Michael W. Deem and Ramdas Pophale) SiO2 
 PCOD8015155
Probable space group: P -1
;
_chemical_formula_sum "Si O2"
_cell_formula_units_Z 14
_cell_length_a 16.623574
_cell_length_b 12.853546
_cell_length_c 8.214371
_cell_angle_alpha 82.254197
_cell_angle_beta 101.533057
_cell_angle_gamma 156.331035
_cell_volume 685.160857
_symmetry_space_group_name_H-M "P -1"
_symmetry_group_IT_number 2
_symmetry_cell_setting 'triclinic'
loop_
_space_group_symop_operation_xyz
x,y,z
-x,-y,-z
loop_
_atom_site_type_symbol
_atom_site_label
_atom_site_fract_x
_atom_site_fract_y
_atom_site_fract_z
Si Si1 0.297547 0.887554 0.627832
Si Si2 0.638794 0.407017 0.528552
Si Si3 0.151674 0.188502 0.670164
Si Si4 0.086877 0.438091 0.545785
Si Si5 0.570632 0.319821 0.871630
Si Si6 0.033257 0.224303 0.855578
Si Si7 0.678721 0.786038 0.062664
O O1 0.263897 0.725865 0.613537
O O2 0.083276 0.697689 0.594461
O O3 0.425671 0.093743 0.489538
O O4 0.430103 0.055811 0.813208
O O5 0.650617 0.514967 0.378921
O O6 0.824051 0.543297 0.544854
O O7 0.659690 0.476852 0.707361
O O8 0.053920 0.135537 0.794608
O O9 0.209671 0.139011 0.756033
O O10 0.000000 0.000000 0.500000
O O11 0.996102 0.273752 0.701689
O O12 0.418921 0.219175 0.924708
O O13 0.758342 0.505001 0.020530
O O14 0.837503 0.991585 0.939674
O O15 0.500000 0.500000 0.000000
#
# Coordination Sequence:
#
# PCOD8015155 Si02
#       7
#     2   2   2   2   2   2   2
#     4   9  22  39  67  92 119 154 206 248 308 358
#     4   9  22  39  65  89 121 155 205 251 291 367
#     4  11  24  40  65  89 120 164 205 247 303 350
#     4  10  21  42  66  92 118 158 199 259 303 349
#     4  10  24  40  62  91 124 160 203 242 309 357
#     4  11  25  41  60  91 125 158 203 251 299 367
#     4  12  26  41  61  87 130 166 196 250 300 358
#
# _framework density 20.433157999999999
#
# number of rings (size 3 to 8) (size 9 to 14) (size 15 to 20)
#    0.857    0.857    1.429    1.714   10.000    1.143 
#    0.000    0.714    0.000    0.000    0.000    0.000 
#    0.000    0.000    0.000    0.000    0.000    0.000 
#
# Total GULP energy -173517.662335 kJ/mol
# GULP energy per Si atom -12394.118738 kJ/mol
# Density = 2.038665 g / cm^3
# Si number density = 20.433158 Si / 1000 Ang^3
#
#
#
# Elastic Constant Matrix: (Units=GPa)
#
#
# Indices 1 2 3 4 5 6 
#
# 1 39.9377 28.5283 16.1634 -7.5630 -8.9427 2.8483
# 2 28.5283 111.0787 36.4620 -0.8284 -13.1326 -1.5364
# 3 16.1634 36.4620 77.2003 2.6869 -16.3867 8.5505
# 4 -7.5630 -0.8284 2.6869 43.2355 -0.2682 -3.4405
# 5 -8.9427 -13.1326 -16.3867 -0.2682 28.5645 -3.3789
# 6 2.8483 -1.5364 8.5505 -3.4405 -3.3789 31.2149
#
#
#
# Elastic Compliance Matrix: (Units=1/GPa)
#
#
# Indices 1 2 3 4 5 6 
#
# 1 0.033618 -0.007114 -0.002509 0.005819 0.005695 -0.001473
# 2 -0.007114 0.012451 -0.004383 -0.000523 0.001279 0.002543
# 3 -0.002509 -0.004383 0.017515 -0.001909 0.006725 -0.004267
# 4 0.005819 -0.000523 -0.001909 0.024483 0.001044 0.002778
# 5 0.005695 0.001279 0.006725 0.001044 0.041520 0.002311
# 6 -0.001473 0.002543 -0.004267 0.002778 0.002311 0.034021
#
#
# Mechanical properties :
#
#
# Convention : Reuss Voigt Hill
#
# Bulk Modulus (GPa) = 28.11234 43.39156 35.75195
# Shear Modulus (GPa) = 24.57252 30.40718 27.48985
#
# Velocity S-wave (km/s) = 3.47159 3.86181 3.67189
# Velocity P-wave (km/s) = 5.46418 6.41613 5.95920
#
# Compressibility (1/GPa) = 0.03557156
#
# Stress axis : x y z
#
# Youngs Moduli (GPa) = 29.74557 80.31455 57.09282
#
# Poissons Ratio (x) = 0.57138 0.14325
# Poissons Ratio (y) = 0.21162 0.25025
# Poissons Ratio (z) = 0.07463 0.35204
#
# Static dielectric constant tensor:
#      x y z
#    x 4.946250 -0.290420 -0.117580 
#    y -0.290420 3.890430 -0.049810 
#    z -0.117580 -0.049810 3.695760 
# 
# 
# High freq. dielectric constant tensor:
#      x y z
#    x 1.790050 0.000800 -0.009180 
#    y 0.000800 1.809060 -0.000600 
#    z -0.009180 -0.000600 1.789800 
# 
# From -- ./inp_files/335309.got.cif
#   From: 2010.06.25/outbox.cif.g09.slc.cpg/sg2_168_cif.got.tgz:335309.got - 2010.06.27 13:26:56.
