data_PCOD8015248
_publ_section_title
;
Structure prediction by ZEFSAII (Michael W. Deem and Ramdas Pophale) SiO2 
 PCOD8015248
Probable space group: P -1
;
_chemical_formula_sum "Si O2"
_cell_formula_units_Z 14
_cell_length_a 9.026456
_cell_length_b 12.256935
_cell_length_c 11.651402
_cell_angle_alpha 70.807037
_cell_angle_beta 86.362116
_cell_angle_gamma 38.661396
_cell_volume 718.586075
_symmetry_space_group_name_H-M "P -1"
_symmetry_group_IT_number 2
_symmetry_cell_setting 'triclinic'
loop_
_space_group_symop_operation_xyz
x,y,z
-x,-y,-z
loop_
_atom_site_type_symbol
_atom_site_label
_atom_site_fract_x
_atom_site_fract_y
_atom_site_fract_z
Si Si1 0.440699 0.577587 0.602493
Si Si2 0.205104 0.370155 0.247044
Si Si3 0.292532 0.927896 0.785793
Si Si4 0.020703 0.731035 0.712080
Si Si5 0.061866 0.709630 0.174420
Si Si6 0.338385 0.896728 0.541188
Si Si7 0.784050 0.279537 0.066366
O O1 0.500000 0.500000 0.500000
O O2 0.252369 0.604649 0.659301
O O3 0.687170 0.425973 0.719704
O O4 0.309287 0.785117 0.533805
O O5 0.402793 0.254485 0.170520
O O6 0.036598 0.591100 0.183057
O O7 0.367508 0.257248 0.396562
O O8 0.018813 0.380850 0.236238
O O9 0.188339 0.998460 0.635156
O O10 0.206464 0.863495 0.870336
O O11 0.180235 0.103916 0.803380
O O12 0.071476 0.750971 0.826567
O O13 0.768255 0.947193 0.599724
O O14 0.069038 0.782135 0.035038
O O15 0.500000 0.500000 0.000000
#
# Coordination Sequence:
#
# PCOD8015248 Si02
#       7
#     2   2   2   2   2   2   2
#     4  11  22  37  63  94 121 154 210 256 292 358
#     4   9  22  41  62  89 126 161 191 253 306 362
#     4  10  21  42  67  84 123 161 201 251 304 351
#     4  12  21  38  66  90 120 166 197 246 313 355
#     4  11  22  43  61  90 125 162 201 250 301 356
#     4   9  20  41  60  88 126 153 200 250 306 349
#     4  12  21  41  64  88 122 162 207 251 295 354
#
# _framework density 19.482703999999998
#
# number of rings (size 3 to 8) (size 9 to 14) (size 15 to 20)
#    0.857    0.571    4.286    2.143    2.000    0.571 
#    2.571    2.857    0.000    0.000    0.000    0.000 
#    0.000    0.000    0.000    0.000    0.000    0.000 
#
# Total GULP energy -173594.070949 kJ/mol
# GULP energy per Si atom -12399.576496 kJ/mol
# Density = 1.943836 g / cm^3
# Si number density = 19.482704 Si / 1000 Ang^3
#
#
#
# Elastic Constant Matrix: (Units=GPa)
#
#
# Indices 1 2 3 4 5 6 
#
# 1 119.9506 48.9232 13.3960 3.1859 -22.6898 16.0006
# 2 48.9232 144.4588 27.1269 14.8431 -9.2202 22.3442
# 3 13.3960 27.1269 81.4919 9.6495 -11.4109 11.0753
# 4 3.1859 14.8431 9.6495 31.5680 -0.5815 -5.0271
# 5 -22.6898 -9.2202 -11.4109 -0.5815 14.5587 -9.8280
# 6 16.0006 22.3442 11.0753 -5.0271 -9.8280 16.3359
#
#
#
# Elastic Compliance Matrix: (Units=1/GPa)
#
#
# Indices 1 2 3 4 5 6 
#
# 1 0.013712 -0.004714 0.001521 0.002011 0.024694 0.007461
# 2 -0.004714 0.012478 -0.001361 -0.009306 -0.017845 -0.025127
# 3 0.001521 -0.001361 0.015142 -0.004904 0.009232 -0.005849
# 4 0.002011 -0.009306 -0.004904 0.044446 0.023427 0.041854
# 5 0.024694 -0.017845 0.009232 0.023427 0.176527 0.107373
# 6 0.007461 -0.025127 -0.005849 0.041854 0.107373 0.169719
#
#
# Mechanical properties :
#
#
# Convention : Reuss Voigt Hill
#
# Bulk Modulus (GPa) = 31.03200 58.31039 44.67120
# Shear Modulus (GPa) = 11.06505 29.58953 20.32729
#
# Velocity S-wave (km/s) = 2.38574 3.90135 3.23360
# Velocity P-wave (km/s) = 4.85299 7.09143 6.07618
#
# Compressibility (1/GPa) = 0.03222480
#
# Stress axis : x y z
#
# Youngs Moduli (GPa) = 72.92909 80.14054 66.03945
#
# Poissons Ratio (x) = 0.37778 -0.10043
# Poissons Ratio (y) = 0.34378 0.08986
# Poissons Ratio (z) = -0.11091 0.10904
#
# Static dielectric constant tensor:
#      x y z
#    x 3.522730 0.274990 -0.063400 
#    y 0.274990 3.679520 -0.015360 
#    z -0.063400 -0.015360 3.604250 
# 
# 
# High freq. dielectric constant tensor:
#      x y z
#    x 1.750020 0.011180 -0.003910 
#    y 0.011180 1.751590 0.000550 
#    z -0.003910 0.000550 1.758290 
# 
# From -- ./inp_files/274208.got.cif
#   From: 2010.06.25/outbox.cif.g09.slc.cpg/sg2_138_cif.got.tgz:274208.got - 2010.06.27 13:26:56.
