data_PCOD8015918
_publ_section_title
;
Structure prediction by ZEFSAII (Michael W. Deem and Ramdas Pophale) SiO2 
 PCOD8015918
Probable space group: P -1
;
_chemical_formula_sum "Si O2"
_cell_formula_units_Z 14
_cell_length_a 14.791222
_cell_length_b 9.007039
_cell_length_c 14.471563
_cell_angle_alpha 43.492746
_cell_angle_beta 40.435419
_cell_angle_gamma 29.826392
_cell_volume 609.134610
_symmetry_space_group_name_H-M "P -1"
_symmetry_group_IT_number 2
_symmetry_cell_setting 'triclinic'
loop_
_space_group_symop_operation_xyz
x,y,z
-x,-y,-z
loop_
_atom_site_type_symbol
_atom_site_label
_atom_site_fract_x
_atom_site_fract_y
_atom_site_fract_z
Si Si1 0.937307 0.678101 0.637424
Si Si2 0.963345 0.654475 0.107891
Si Si3 0.704946 0.339974 0.454321
Si Si4 0.762640 0.589155 0.147599
Si Si5 0.599799 0.742873 0.842521
Si Si6 0.592204 0.313827 0.144168
Si Si7 0.644456 0.646864 0.544641
O O1 0.820895 0.598808 0.721737
O O2 0.968731 0.602383 0.756825
O O3 0.149142 0.493746 0.508179
O O4 0.816314 0.027345 0.559323
O O5 0.856690 0.688889 0.082861
O O6 0.818991 0.982568 0.123699
O O7 0.160023 0.541474 0.958273
O O8 0.500000 0.500000 0.500000
O O9 0.815924 0.319574 0.288571
O O10 0.678514 0.555852 0.452455
O O11 0.531636 0.908983 0.179117
O O12 0.530055 0.708536 0.818499
O O13 0.598403 0.558239 0.004505
O O14 0.464862 0.433154 0.283409
O O15 0.500000 0.000000 0.500000
#
# Coordination Sequence:
#
# PCOD8015918 Si02
#       7
#     2   2   2   2   2   2   2
#     4  12  25  42  73 104 141 179 246 284 351 416
#     4  10  22  41  69  97 131 185 229 288 336 424
#     4  12  26  46  70 104 140 186 232 289 356 415
#     4  10  21  43  67  94 140 177 231 285 345 407
#     4  10  23  43  67 103 136 185 234 291 338 426
#     4  10  23  46  68  97 145 184 229 284 365 403
#     4  12  25  47  72 101 145 185 229 294 351 419
#
# _framework density 22.983426000000001
#
# number of rings (size 3 to 8) (size 9 to 14) (size 15 to 20)
#    0.000    1.143    4.286    1.286    2.000    6.286 
#    2.571    0.000    0.000    0.000    0.000    0.000 
#    0.000    0.000    0.000    0.000    0.000    0.000 
#
# Total GULP energy -173482.424120 kJ/mol
# GULP energy per Si atom -12391.601723 kJ/mol
# Density = 2.293111 g / cm^3
# Si number density = 22.983426 Si / 1000 Ang^3
#
#
#
# Elastic Constant Matrix: (Units=GPa)
#
#
# Indices 1 2 3 4 5 6 
#
# 1 52.3011 45.1040 18.0268 -0.8827 -10.2839 -12.4069
# 2 45.1040 123.1474 68.0232 -4.0482 7.6241 -21.3667
# 3 18.0268 68.0232 156.3309 -4.2934 15.9629 1.2271
# 4 -0.8827 -4.0482 -4.2934 44.2447 -6.4850 3.1935
# 5 -10.2839 7.6241 15.9629 -6.4850 40.8281 0.5505
# 6 -12.4069 -21.3667 1.2271 3.1935 0.5505 24.5899
#
#
#
# Elastic Compliance Matrix: (Units=1/GPa)
#
#
# Indices 1 2 3 4 5 6 
#
# 1 0.032508 -0.011605 0.000221 0.000685 0.010297 0.005988
# 2 -0.011605 0.017658 -0.006021 -0.000516 -0.004083 0.009947
# 3 0.000221 -0.006021 0.009282 0.000419 -0.002307 -0.005586
# 4 0.000685 -0.000516 0.000419 0.023410 0.003867 -0.003251
# 5 0.010297 -0.004083 -0.002307 0.003867 0.029357 0.000604
# 6 0.005988 0.009947 -0.005586 -0.003251 0.000604 0.053019
#
#
# Mechanical properties :
#
#
# Convention : Reuss Voigt Hill
#
# Bulk Modulus (GPa) = 40.58440 66.00970 53.29705
# Shear Modulus (GPa) = 24.00894 35.30758 29.65826
#
# Velocity S-wave (km/s) = 3.23556 3.92372 3.59614
# Velocity P-wave (km/s) = 5.62627 7.02213 6.36260
#
# Compressibility (1/GPa) = 0.02464001
#
# Stress axis : x y z
#
# Youngs Moduli (GPa) = 30.76130 56.63171 107.73766
#
# Poissons Ratio (x) = 0.65720 -0.02384
# Poissons Ratio (y) = 0.35698 0.64865
# Poissons Ratio (z) = -0.00681 0.34096
#
# Static dielectric constant tensor:
#      x y z
#    x 4.051720 -0.305970 0.224710 
#    y -0.305970 3.986550 0.324620 
#    z 0.224710 0.324620 5.154500 
# 
# 
# High freq. dielectric constant tensor:
#      x y z
#    x 1.889120 -0.023160 -0.002260 
#    y -0.023160 1.899720 0.002910 
#    z -0.002260 0.002910 1.928520 
# 
# From -- ./inp_files/495583.got.cif
#   From: 2010.06.25/outbox.cif.g09.slc.cpg/sg2_248_cif.got.tgz:495583.got - 2010.06.27 13:26:56.
