data_PCOD8015478
_publ_section_title
;
Structure prediction by ZEFSAII (Michael W. Deem and Ramdas Pophale) SiO2 
 PCOD8015478
Probable space group: P -1
;
_chemical_formula_sum "Si O2"
_cell_formula_units_Z 14
_cell_length_a 12.311662
_cell_length_b 10.815306
_cell_length_c 10.825342
_cell_angle_alpha 113.644177
_cell_angle_beta 93.246637
_cell_angle_gamma 143.910481
_cell_volume 551.181238
_symmetry_space_group_name_H-M "P -1"
_symmetry_group_IT_number 2
_symmetry_cell_setting 'triclinic'
loop_
_space_group_symop_operation_xyz
x,y,z
-x,-y,-z
loop_
_atom_site_type_symbol
_atom_site_label
_atom_site_fract_x
_atom_site_fract_y
_atom_site_fract_z
Si Si1 0.751428 0.026622 0.905784
Si Si2 0.170302 0.571444 0.589033
Si Si3 0.375376 0.547371 0.914045
Si Si4 0.146599 0.568771 0.855343
Si Si5 0.113399 0.266538 0.162101
Si Si6 0.187441 0.052311 0.735822
Si Si7 0.427447 0.128735 0.420747
O O1 0.554159 0.753894 0.887793
O O2 0.647929 0.861066 0.698386
O O3 0.768030 0.207720 0.967651
O O4 0.037864 0.290570 0.061180
O O5 0.289478 0.745677 0.800971
O O6 0.388443 0.783245 0.586231
O O7 0.000000 0.500000 0.500000
O O8 0.980820 0.231874 0.479633
O O9 0.218761 0.510194 0.905182
O O10 0.189638 0.207338 0.746421
O O11 0.525870 0.685731 0.109092
O O12 0.834424 0.225387 0.678387
O O13 0.421234 0.616831 0.358556
O O14 0.967342 0.139929 0.225355
O O15 0.000000 0.000000 0.000000
#
# Coordination Sequence:
#
# PCOD8015478 Si02
#       7
#     2   2   2   2   2   2   2
#     4  11  24  46  69 102 142 183 240 291 341 429
#     4  11  24  45  71  99 139 186 229 290 357 411
#     4  10  21  42  69  95 139 184 230 288 353 409
#     4  12  25  43  71 105 139 186 231 292 357 410
#     4  10  24  46  68  99 143 183 230 293 359 415
#     4   9  22  42  67 101 134 184 238 286 345 431
#     4  11  26  46  68 109 137 178 240 290 341 431
#
# _framework density 25.399992999999998
#
# number of rings (size 3 to 8) (size 9 to 14) (size 15 to 20)
#    0.000    1.429    1.429    3.429    4.000    6.857 
#    2.571    0.000    0.000    0.000    0.000    0.000 
#    0.000    0.000    0.000    0.000    0.000    0.000 
#
# Total GULP energy -173505.728669 kJ/mol
# GULP energy per Si atom -12393.266333 kJ/mol
# Density = 2.534218 g / cm^3
# Si number density = 25.399993 Si / 1000 Ang^3
#
#
#
# Elastic Constant Matrix: (Units=GPa)
#
#
# Indices 1 2 3 4 5 6 
#
# 1 131.2820 9.7349 24.9438 2.7617 14.6047 -28.1120
# 2 9.7349 39.3546 -8.5860 3.1654 9.8582 -5.9993
# 3 24.9438 -8.5860 105.2476 -11.9812 12.0366 -4.3358
# 4 2.7617 3.1654 -11.9812 39.2194 -2.5224 6.6401
# 5 14.6047 9.8582 12.0366 -2.5224 37.8765 0.8985
# 6 -28.1120 -5.9993 -4.3358 6.6401 0.8985 36.6767
#
#
#
# Elastic Compliance Matrix: (Units=1/GPa)
#
#
# Indices 1 2 3 4 5 6 
#
# 1 0.010249 -0.000637 -0.002076 -0.002905 -0.003513 0.008118
# 2 -0.000637 0.029617 0.003493 -0.002779 -0.008888 0.005490
# 3 -0.002076 0.003493 0.011005 0.003039 -0.003399 -0.000185
# 4 -0.002905 -0.002779 0.003039 0.028317 0.002942 -0.007521
# 5 -0.003513 -0.008888 -0.003399 0.002942 0.031484 -0.005852
# 6 0.008118 0.005490 -0.000185 -0.007521 -0.005852 0.035869
#
#
# Mechanical properties :
#
#
# Convention : Reuss Voigt Hill
#
# Bulk Modulus (GPa) = 19.07208 36.45218 27.76213
# Shear Modulus (GPa) = 30.77731 39.40727 35.09229
#
# Velocity S-wave (km/s) = 3.48473 3.94314 3.72100
# Velocity P-wave (km/s) = 4.86992 5.92567 5.42355
#
# Compressibility (1/GPa) = 0.05243266
#
# Stress axis : x y z
#
# Youngs Moduli (GPa) = 97.57050 33.76479 90.86460
#
# Poissons Ratio (x) = 0.02151 0.18859
# Poissons Ratio (y) = 0.06215 -0.31742
# Poissons Ratio (z) = 0.20251 -0.11795
#
# Static dielectric constant tensor:
#      x y z
#    x 4.566440 0.073280 0.352370 
#    y 0.073280 4.389970 0.338990 
#    z 0.352370 0.338990 3.880480 
# 
# 
# High freq. dielectric constant tensor:
#      x y z
#    x 2.003200 0.006090 0.008570 
#    y 0.006090 2.008110 0.003440 
#    z 0.008570 0.003440 2.027040 
# 
# From -- ./inp_files/426509.got.cif
#   From: 2010.06.25/outbox.cif.g09.slc.cpg/sg2_214_cif.got.tgz:426509.got - 2010.06.27 13:26:56.
