data_PCOD8016471
_publ_section_title
;
Structure prediction by ZEFSAII (Michael W. Deem and Ramdas Pophale) SiO2 
 PCOD8016471
Probable space group: P -1
;
_chemical_formula_sum "Si O2"
_cell_formula_units_Z 14
_cell_length_a 8.489090
_cell_length_b 9.818512
_cell_length_c 12.217347
_cell_angle_alpha 43.194551
_cell_angle_beta 119.520532
_cell_angle_gamma 110.789295
_cell_volume 606.513545
_symmetry_space_group_name_H-M "P -1"
_symmetry_group_IT_number 2
_symmetry_cell_setting 'triclinic'
loop_
_space_group_symop_operation_xyz
x,y,z
-x,-y,-z
loop_
_atom_site_type_symbol
_atom_site_label
_atom_site_fract_x
_atom_site_fract_y
_atom_site_fract_z
Si Si1 0.341012 0.407747 0.832959
Si Si2 0.280499 0.276393 0.661179
Si Si3 0.086813 0.622245 0.264764
Si Si4 0.634070 0.157536 0.400770
Si Si5 0.925054 0.310073 0.023332
Si Si6 0.380467 0.891774 0.819506
Si Si7 0.917624 0.090523 0.716513
O O1 0.386288 0.377251 0.738023
O O2 0.439997 0.616541 0.772888
O O3 0.127409 0.420246 0.778467
O O4 0.430471 0.229364 0.038906
O O5 0.201552 0.437716 0.457105
O O6 0.122724 0.152350 0.735779
O O7 0.411875 0.117477 0.739529
O O8 0.142123 0.819118 0.238866
O O9 0.152844 0.639891 0.152448
O O10 0.689305 0.082141 0.343840
O O11 0.804353 0.181536 0.524871
O O12 0.500000 0.000000 0.500000
O O13 0.768145 0.223869 0.094755
O O14 0.088298 0.149714 0.151527
O O15 0.000000 0.500000 0.000000
#
# Coordination Sequence:
#
# PCOD8016471 Si02
#       7
#     2   2   2   2   2   2   2
#     4  11  22  46  68  99 131 174 221 271 330 395
#     4  10  21  44  71  98 125 174 222 280 323 382
#     4  11  21  44  76  96 126 175 231 268 318 397
#     4  12  26  42  67  96 136 176 221 267 331 397
#     4  11  26  40  67 102 138 172 215 274 335 391
#     4  11  27  43  64 100 140 168 213 279 339 380
#     4  10  22  43  66  97 128 177 227 266 317 397
#
# _framework density 23.082749
#
# number of rings (size 3 to 8) (size 9 to 14) (size 15 to 20)
#    0.000    1.143    2.857    3.000    6.000    1.143 
#    2.571    1.429    0.000    0.000    0.000    0.000 
#    0.000    0.000    0.000    0.000    0.000    0.000 
#
# Total GULP energy -173564.780890 kJ/mol
# GULP energy per Si atom -12397.484349 kJ/mol
# Density = 2.303021 g / cm^3
# Si number density = 23.082749 Si / 1000 Ang^3
#
#
#
# Elastic Constant Matrix: (Units=GPa)
#
#
# Indices 1 2 3 4 5 6 
#
# 1 63.0237 36.8255 35.2650 0.4191 -16.9922 -10.1311
# 2 36.8255 132.0224 44.7518 -8.6516 -16.6260 -33.2216
# 3 35.2650 44.7518 114.5729 -0.0964 -7.4256 -19.4399
# 4 0.4191 -8.6516 -0.0964 55.6061 -15.6932 -3.1353
# 5 -16.9922 -16.6260 -7.4256 -15.6932 40.7945 7.2219
# 6 -10.1311 -33.2216 -19.4399 -3.1353 7.2219 27.8895
#
#
#
# Elastic Compliance Matrix: (Units=1/GPa)
#
#
# Indices 1 2 3 4 5 6 
#
# 1 0.022987 -0.004062 -0.005336 0.001271 0.007806 -0.002086
# 2 -0.004062 0.012918 -0.001494 0.003422 0.002380 0.012640
# 3 -0.005336 -0.001494 0.011659 -0.000383 -0.001708 0.004808
# 4 0.001271 0.003422 -0.000383 0.021378 0.009324 0.004260
# 5 0.007806 0.002380 -0.001708 0.009324 0.032523 -0.002893
# 6 -0.002086 0.012640 0.004808 0.004260 -0.002893 0.054734
#
#
# Mechanical properties :
#
#
# Convention : Reuss Voigt Hill
#
# Bulk Modulus (GPa) = 38.78752 60.36707 49.57730
# Shear Modulus (GPa) = 26.79893 37.70981 32.25437
#
# Velocity S-wave (km/s) = 3.41103 4.04626 3.74215
# Velocity P-wave (km/s) = 5.68803 6.93101 6.34006
#
# Compressibility (1/GPa) = 0.02578149
#
# Stress axis : x y z
#
# Youngs Moduli (GPa) = 43.50304 77.40844 85.77319
#
# Poissons Ratio (x) = 0.31441 0.45766
# Poissons Ratio (y) = 0.17669 0.12814
# Poissons Ratio (z) = 0.23212 0.11565
#
# Static dielectric constant tensor:
#      x y z
#    x 3.805690 -0.312560 0.062150 
#    y -0.312560 4.684080 -0.113040 
#    z 0.062150 -0.113040 4.378270 
# 
# 
# High freq. dielectric constant tensor:
#      x y z
#    x 1.882790 -0.015850 -0.004250 
#    y -0.015850 1.932350 -0.003990 
#    z -0.004250 -0.003990 1.925320 
# 
# From -- ./inp_files/159995.got.cif
#   From: 2010.06.25/outbox.cif.g09.slc.cpg/sg2_80_cif.got.tgz:159995.got - 2010.06.27 13:26:56.
