data_PCOD8016677
_publ_section_title
;
Structure prediction by ZEFSAII (Michael W. Deem and Ramdas Pophale) SiO2 
 PCOD8016677
Probable space group: P -1
;
_chemical_formula_sum "Si O2"
_cell_formula_units_Z 12
_cell_length_a 14.129341
_cell_length_b 9.504649
_cell_length_c 8.328803
_cell_angle_alpha 101.778282
_cell_angle_beta 148.205804
_cell_angle_gamma 87.860061
_cell_volume 556.438101
_symmetry_space_group_name_H-M "P -1"
_symmetry_group_IT_number 2
_symmetry_cell_setting 'triclinic'
loop_
_space_group_symop_operation_xyz
x,y,z
-x,-y,-z
loop_
_atom_site_type_symbol
_atom_site_label
_atom_site_fract_x
_atom_site_fract_y
_atom_site_fract_z
Si Si1 0.163317 0.935687 0.278072
Si Si2 0.195519 0.986769 0.709454
Si Si3 0.373981 0.543712 0.192073
Si Si4 0.524535 0.178597 0.810832
Si Si5 0.158119 0.614726 0.160931
Si Si6 0.455543 0.294484 0.078733
O O1 0.172801 0.931074 0.482010
O O2 0.107794 0.768876 0.091183
O O3 0.358023 0.030675 0.505419
O O4 0.000000 0.000000 0.000000
O O5 0.281524 0.868164 0.900648
O O6 0.000000 0.000000 0.500000
O O7 0.343590 0.146158 0.973543
O O8 0.500000 0.500000 0.500000
O O9 0.462748 0.710624 0.294251
O O10 0.181409 0.542780 0.004098
O O11 0.345410 0.422391 0.978766
O O12 0.472063 0.264832 0.908531
O O13 0.342474 0.648771 0.541329
O O14 0.000000 0.500000 0.000000
#
# Coordination Sequence:
#
# PCOD8016677 Si02
#       6
#     2   2   2   2   2   2
#     4  11  25  42  69 101 134 175 225 277 338 394
#     4  11  24  43  72  98 131 178 228 280 330 396
#     4  10  25  40  65  99 130 178 218 270 337 397
#     4  11  22  47  72  94 135 181 223 285 330 390
#     4  11  24  43  65  96 143 173 215 274 339 399
#     4  10  21  46  67  96 133 175 224 273 333 401
#
# _framework density 21.565740000000002
#
# number of rings (size 3 to 8) (size 9 to 14) (size 15 to 20)
#    0.000    1.333    3.333    1.500    9.333    2.000 
#    0.000    1.667    0.000    0.000    0.000    0.000 
#    0.000    0.000    0.000    0.000    0.000    0.000 
#
# Total GULP energy -148782.314448 kJ/mol
# GULP energy per Si atom -12398.526204 kJ/mol
# Density = 2.151666 g / cm^3
# Si number density = 21.565740 Si / 1000 Ang^3
#
#
#
# Elastic Constant Matrix: (Units=GPa)
#
#
# Indices 1 2 3 4 5 6 
#
# 1 129.0160 83.1913 36.0820 6.6033 35.4214 -1.9600
# 2 83.1913 183.4731 51.0283 -5.7568 13.0353 -4.3044
# 3 36.0820 51.0283 88.8531 -3.8682 18.8822 0.3461
# 4 6.6033 -5.7568 -3.8682 39.8167 2.6196 -2.7899
# 5 35.4214 13.0353 18.8822 2.6196 24.6458 -1.5229
# 6 -1.9600 -4.3044 0.3461 -2.7899 -1.5229 47.8573
#
#
#
# Elastic Compliance Matrix: (Units=1/GPa)
#
#
# Indices 1 2 3 4 5 6 
#
# 1 0.018772 -0.007344 0.001615 -0.002489 -0.024118 -0.000816
# 2 -0.007344 0.009405 -0.004194 0.001666 0.008676 0.000949
# 3 0.001615 -0.004194 0.015689 0.001409 -0.012318 -0.000734
# 4 -0.002489 0.001666 0.001409 0.026082 -0.001062 0.001524
# 5 -0.024118 0.008676 -0.012318 -0.001062 0.080346 0.002377
# 6 -0.000816 0.000949 -0.000734 0.001524 0.002377 0.021117
#
#
# Mechanical properties :
#
#
# Convention : Reuss Voigt Hill
#
# Bulk Modulus (GPa) = 41.63251 82.43838 62.03544
# Shear Modulus (GPa) = 25.09240 37.86667 31.47953
#
# Velocity S-wave (km/s) = 3.41476 4.19486 3.82475
# Velocity P-wave (km/s) = 5.90714 7.85952 6.95220
#
# Compressibility (1/GPa) = 0.02401969
#
# Stress axis : x y z
#
# Youngs Moduli (GPa) = 53.27212 106.32588 63.73871
#
# Poissons Ratio (x) = 0.78090 -0.10294
# Poissons Ratio (y) = 0.39125 0.26730
# Poissons Ratio (z) = -0.08604 0.44590
#
# Static dielectric constant tensor:
#      x y z
#    x 4.423170 -0.463970 0.059160 
#    y -0.463970 4.266400 0.045160 
#    z 0.059160 0.045160 3.604090 
# 
# 
# High freq. dielectric constant tensor:
#      x y z
#    x 1.858000 -0.012990 0.005020 
#    y -0.012990 1.866100 0.001100 
#    z 0.005020 0.001100 1.824280 
# 
# From -- ./inp_files/145787.got.cif
#   From: 2010.06.25/outbox.cif.g09.slc.cpg/sg2_73_cif.got.tgz:145787.got - 2010.06.27 13:26:56.
