data_PCOD8016080
_publ_section_title
;
Structure prediction by ZEFSAII (Michael W. Deem and Ramdas Pophale) SiO2 
 PCOD8016080
Probable space group: P -1
;
_chemical_formula_sum "Si O2"
_cell_formula_units_Z 16
_cell_length_a 15.344372
_cell_length_b 8.462366
_cell_length_c 12.011811
_cell_angle_alpha 57.994845
_cell_angle_beta 48.248390
_cell_angle_gamma 35.933644
_cell_volume 682.717035
_symmetry_space_group_name_H-M "P -1"
_symmetry_group_IT_number 2
_symmetry_cell_setting 'triclinic'
loop_
_space_group_symop_operation_xyz
x,y,z
-x,-y,-z
loop_
_atom_site_type_symbol
_atom_site_label
_atom_site_fract_x
_atom_site_fract_y
_atom_site_fract_z
Si Si1 0.666422 0.642197 0.701127
Si Si2 0.331780 0.175779 0.149182
Si Si3 0.901143 0.435949 0.151368
Si Si4 0.166263 0.677125 0.973325
Si Si5 0.697721 0.808267 0.398132
Si Si6 0.574631 0.314587 0.254137
Si Si7 0.056569 0.925303 0.318228
Si Si8 0.243295 0.862635 0.390044
O O1 0.604772 0.856508 0.767029
O O2 0.765846 0.635966 0.517653
O O3 0.507026 0.700653 0.776066
O O4 0.809170 0.360240 0.752412
O O5 0.256547 0.055193 0.259769
O O6 0.179370 0.483645 0.117183
O O7 0.500000 0.000000 0.000000
O O8 0.807279 0.437122 0.130545
O O9 0.775933 0.629235 0.287083
O O10 0.044515 0.133069 0.187481
O O11 0.000000 0.500000 0.000000
O O12 0.325362 0.619630 0.894830
O O13 0.000000 0.000000 0.000000
O O14 0.500000 0.000000 0.500000
O O15 0.710809 0.019174 0.308083
O O16 0.424970 0.557308 0.372839
O O17 0.875091 0.026992 0.441808
O O18 0.149448 0.842809 0.387741
#
# Coordination Sequence:
#
# PCOD8016080 Si02
#       8
#     2   2   2   2   2   2   2   2
#     4  10  24  44  72 100 140 187 237 294 357 423
#     4  12  26  46  70 106 144 186 245 296 357 427
#     4  12  25  44  73 102 145 187 233 298 362 429
#     4  12  27  45  66 106 148 185 239 294 365 420
#     4  10  22  41  67 101 136 183 234 282 355 422
#     4  10  22  42  67  99 139 186 234 291 351 424
#     4  10  21  43  70 101 136 184 236 283 361 424
#     4  10  21  43  70 101 139 185 237 291 348 428
#
# _framework density 23.435770999999999
#
# number of rings (size 3 to 8) (size 9 to 14) (size 15 to 20)
#    0.000    1.250    1.250    5.250    3.500    3.000 
#    2.250    5.000    0.000    0.000    0.000    0.000 
#    0.000    0.000    0.000    0.000    0.000    0.000 
#
# Total GULP energy -198244.511004 kJ/mol
# GULP energy per Si atom -12390.281938 kJ/mol
# Density = 2.338243 g / cm^3
# Si number density = 23.435771 Si / 1000 Ang^3
#
#
#
# Elastic Constant Matrix: (Units=GPa)
#
#
# Indices 1 2 3 4 5 6 
#
# 1 74.6447 37.0066 45.4705 12.7596 1.0894 12.8585
# 2 37.0066 155.6700 51.7855 -20.1477 2.0207 8.8368
# 3 45.4705 51.7855 124.7752 3.8859 6.1260 17.0867
# 4 12.7596 -20.1477 3.8859 40.0925 7.1080 -2.5861
# 5 1.0894 2.0207 6.1260 7.1080 38.2412 -0.9705
# 6 12.8585 8.8368 17.0867 -2.5861 -0.9705 30.4662
#
#
#
# Elastic Compliance Matrix: (Units=1/GPa)
#
#
# Indices 1 2 3 4 5 6 
#
# 1 0.020971 -0.004217 -0.004946 -0.009019 0.001953 -0.005557
# 2 -0.004217 0.009042 -0.002507 0.006396 -0.001118 0.001070
# 3 -0.004946 -0.002507 0.011466 -0.000769 -0.001515 -0.003730
# 4 -0.009019 0.006396 -0.000769 0.032460 -0.005866 0.004951
# 5 0.001953 -0.001118 -0.001515 -0.005866 0.027505 0.000728
# 6 -0.005557 0.001070 -0.003730 0.004951 0.000728 0.037393
#
#
# Mechanical properties :
#
#
# Convention : Reuss Voigt Hill
#
# Bulk Modulus (GPa) = 55.12898 69.29057 62.20977
# Shear Modulus (GPa) = 29.72240 36.48182 33.10211
#
# Velocity S-wave (km/s) = 3.56511 3.94975 3.76235
# Velocity P-wave (km/s) = 6.36563 7.10148 6.74360
#
# Compressibility (1/GPa) = 0.01813928
#
# Stress axis : x y z
#
# Youngs Moduli (GPa) = 47.68550 110.59754 87.21228
#
# Poissons Ratio (x) = 0.46639 0.43135
# Poissons Ratio (y) = 0.20109 0.21862
# Poissons Ratio (z) = 0.23585 0.27724
#
# Static dielectric constant tensor:
#      x y z
#    x 4.087520 0.149200 0.022990 
#    y 0.149200 5.149150 -0.284780 
#    z 0.022990 -0.284780 4.545330 
# 
# 
# High freq. dielectric constant tensor:
#      x y z
#    x 1.907280 0.012070 -0.006590 
#    y 0.012070 1.955860 -0.005330 
#    z -0.006590 -0.005330 1.920150 
# 
# From -- ./inp_files/461989.got.cif
#   From: 2010.06.25/outbox.cif.g09.slc.cpg/sg2_231_cif.got.tgz:461989.got - 2010.06.27 13:26:56.
