data_PCOD8016345
_publ_section_title
;
Structure prediction by ZEFSAII (Michael W. Deem and Ramdas Pophale) SiO2 
 PCOD8016345
Probable space group: P -1
;
_chemical_formula_sum "Si O2"
_cell_formula_units_Z 16
_cell_length_a 11.017685
_cell_length_b 11.454185
_cell_length_c 14.410429
_cell_angle_alpha 115.856338
_cell_angle_beta 149.893252
_cell_angle_gamma 54.394733
_cell_volume 731.437796
_symmetry_space_group_name_H-M "P -1"
_symmetry_group_IT_number 2
_symmetry_cell_setting 'triclinic'
loop_
_space_group_symop_operation_xyz
x,y,z
-x,-y,-z
loop_
_atom_site_type_symbol
_atom_site_label
_atom_site_fract_x
_atom_site_fract_y
_atom_site_fract_z
Si Si1 0.724073 0.956395 0.898932
Si Si2 0.078366 0.904343 0.611505
Si Si3 0.249444 0.655211 0.891243
Si Si4 0.706059 0.641399 0.518362
Si Si5 0.094579 0.685822 0.410471
Si Si6 0.478756 0.838073 0.001819
Si Si7 0.608576 0.168933 0.456037
Si Si8 0.297151 0.797403 0.152277
O O1 0.621904 0.837807 0.764331
O O2 0.613592 0.089137 0.797230
O O3 0.050566 0.880546 0.089716
O O4 0.608185 0.016423 0.944862
O O5 0.371119 0.878410 0.838135
O O6 0.070160 0.755766 0.521955
O O7 0.000000 0.000000 0.500000
O O8 0.847996 0.002299 0.567854
O O9 0.308413 0.756398 0.895126
O O10 0.983812 0.645315 0.679350
O O11 0.500000 0.500000 0.000000
O O12 0.198779 0.719828 0.983281
O O13 0.519116 0.770202 0.508166
O O14 0.548499 0.671079 0.327430
O O15 0.763038 0.486920 0.545027
O O16 0.283883 0.725434 0.482983
O O17 0.801456 0.739039 0.186049
#
# Coordination Sequence:
#
# PCOD8016345 Si02
#       8
#     2   2   2   2   2   2   2   2
#     4  10  21  44  67  99 134 170 226 274 333 391
#     4  10  24  44  68  98 128 177 231 266 322 396
#     4  11  24  41  64 100 129 171 219 269 331 406
#     4  12  25  43  69  98 137 175 220 274 338 392
#     4  11  25  44  64  99 138 177 221 269 331 403
#     4  11  23  42  70  97 134 173 215 284 331 380
#     4  11  23  44  67  95 134 174 229 271 317 403
#     4  10  24  42  67  97 133 173 218 280 334 389
#
# _framework density 21.874724000000001
#
# number of rings (size 3 to 8) (size 9 to 14) (size 15 to 20)
#    0.000    1.250    3.750    1.125    3.500    3.000 
#    4.500    0.625    0.000    0.000    0.000    0.000 
#    0.000    0.000    0.000    0.000    0.000    0.000 
#
# Total GULP energy -198393.280928 kJ/mol
# GULP energy per Si atom -12399.580058 kJ/mol
# Density = 2.182494 g / cm^3
# Si number density = 21.874724 Si / 1000 Ang^3
#
#
#
# Elastic Constant Matrix: (Units=GPa)
#
#
# Indices 1 2 3 4 5 6 
#
# 1 51.4391 13.1758 31.6244 -5.5778 9.9185 5.8341
# 2 13.1758 78.7962 27.1885 -4.8886 2.4873 -5.5682
# 3 31.6244 27.1885 153.3769 -11.5630 -5.0510 13.6437
# 4 -5.5778 -4.8886 -11.5630 35.0700 3.1920 7.7589
# 5 9.9185 2.4873 -5.0510 3.1920 34.7056 4.0521
# 6 5.8341 -5.5682 13.6437 7.7589 4.0521 32.2731
#
#
#
# Elastic Compliance Matrix: (Units=1/GPa)
#
#
# Indices 1 2 3 4 5 6 
#
# 1 0.024964 -0.002390 -0.004448 0.003511 -0.007591 -0.002936
# 2 -0.002390 0.014255 -0.002433 0.000012 -0.001168 0.004064
# 3 -0.004448 -0.002433 0.008518 0.002416 0.002950 -0.004168
# 4 0.003511 0.000012 0.002416 0.032106 -0.002549 -0.009053
# 5 -0.007591 -0.001168 0.002950 -0.002549 0.032139 -0.003499
# 6 -0.002936 0.004064 -0.004168 -0.009053 -0.003499 0.036595
#
#
# Mechanical properties :
#
#
# Convention : Reuss Voigt Hill
#
# Bulk Modulus (GPa) = 34.25111 47.50995 40.88053
# Shear Modulus (GPa) = 28.27228 34.51796 31.39512
#
# Velocity S-wave (km/s) = 3.59898 3.97669 3.79254
# Velocity P-wave (km/s) = 5.74126 6.54612 6.15686
#
# Compressibility (1/GPa) = 0.02919613
#
# Stress axis : x y z
#
# Youngs Moduli (GPa) = 40.05693 70.15098 117.39374
#
# Poissons Ratio (x) = 0.16764 0.52215
# Poissons Ratio (y) = 0.09572 0.28565
# Poissons Ratio (z) = 0.17817 0.17070
#
# Static dielectric constant tensor:
#      x y z
#    x 3.848520 -0.194430 0.035340 
#    y -0.194430 4.194900 0.170080 
#    z 0.035340 0.170080 4.017930 
# 
# 
# High freq. dielectric constant tensor:
#      x y z
#    x 1.854010 -0.007180 0.010540 
#    y -0.007180 1.860100 0.007580 
#    z 0.010540 0.007580 1.868330 
# 
# From -- ./inp_files/519079.got.cif
#   From: 2010.06.25/outbox.cif.g09.slc.cpg/sg2_260_cif.got.tgz:519079.got - 2010.06.27 13:26:56.
