data_PCOD8016830
_publ_section_title
;
Structure prediction by ZEFSAII (Michael W. Deem and Ramdas Pophale) SiO2 
 PCOD8016830
Probable space group: P -1
;
_chemical_formula_sum "Si O2"
_cell_formula_units_Z 14
_cell_length_a 24.306717
_cell_length_b 13.856118
_cell_length_c 6.269594
_cell_angle_alpha 71.487151
_cell_angle_beta 64.025127
_cell_angle_gamma 21.537840
_cell_volume 670.548419
_symmetry_space_group_name_H-M "P -1"
_symmetry_group_IT_number 2
_symmetry_cell_setting 'triclinic'
loop_
_space_group_symop_operation_xyz
x,y,z
-x,-y,-z
loop_
_atom_site_type_symbol
_atom_site_label
_atom_site_fract_x
_atom_site_fract_y
_atom_site_fract_z
Si Si1 0.009068 0.068392 0.754340
Si Si2 0.948656 0.867967 0.982941
Si Si3 0.741253 0.655582 0.439736
Si Si4 0.477269 0.897052 0.823617
Si Si5 0.935830 0.664514 0.190081
Si Si6 0.213814 0.268003 0.337039
Si Si7 0.770729 0.314335 0.726423
O O1 0.856254 0.286322 0.697632
O O2 0.172904 0.799493 0.527706
O O3 0.013812 0.168563 0.802683
O O4 0.000000 0.000000 0.000000
O O5 0.121375 0.615941 0.740644
O O6 0.811662 0.156990 0.922843
O O7 0.872210 0.873405 0.075388
O O8 0.600837 0.800773 0.671186
O O9 0.834546 0.564953 0.541282
O O10 0.659887 0.872451 0.286031
O O11 0.577621 0.636565 0.804052
O O12 0.394620 0.011739 0.116111
O O13 0.793707 0.825847 0.449481
O O14 0.089624 0.453069 0.224785
O O15 0.000000 0.500000 0.000000
#
# Coordination Sequence:
#
# PCOD8016830 Si02
#       7
#     2   2   2   2   2   2   2
#     4   9  19  36  56  88 123 166 203 243 300 366
#     4  11  22  38  63  92 120 162 214 253 301 368
#     4  11  23  38  62  94 128 160 206 255 310 372
#     4  11  23  38  58  95 131 163 194 255 314 379
#     4  11  23  42  65  92 119 159 219 268 294 360
#     4  11  23  40  65  88 122 165 207 260 313 357
#     4  10  22  36  59  87 132 163 199 249 310 371
#
# _framework density 20.878432
#
# number of rings (size 3 to 8) (size 9 to 14) (size 15 to 20)
#    0.000    1.429    2.857    3.000    4.000    4.571 
#    0.000    0.714    0.000    4.286    0.000    0.000 
#    0.000    0.000    0.000    0.000    0.000    0.000 
#
# Total GULP energy -173500.210054 kJ/mol
# GULP energy per Si atom -12392.872147 kJ/mol
# Density = 2.083091 g / cm^3
# Si number density = 20.878432 Si / 1000 Ang^3
#
#
#
# Elastic Constant Matrix: (Units=GPa)
#
#
# Indices 1 2 3 4 5 6 
#
# 1 110.0482 16.7784 56.3611 -5.3951 21.1676 13.1635
# 2 16.7784 108.0004 33.7360 -3.8967 8.0770 14.6236
# 3 56.3611 33.7360 148.5575 5.5189 4.8744 7.2745
# 4 -5.3951 -3.8967 5.5189 28.2154 3.8645 0.9354
# 5 21.1676 8.0770 4.8744 3.8645 51.0727 -2.3466
# 6 13.1635 14.6236 7.2745 0.9354 -2.3466 23.0068
#
#
#
# Elastic Compliance Matrix: (Units=1/GPa)
#
#
# Indices 1 2 3 4 5 6 
#
# 1 0.013922 0.001154 -0.005137 0.004938 -0.006199 -0.007908
# 2 0.001154 0.011191 -0.002644 0.002875 -0.002549 -0.007314
# 3 -0.005137 -0.002644 0.009244 -0.003501 0.002024 0.002046
# 4 0.004938 0.002875 -0.003501 0.038385 -0.005331 -0.005650
# 5 -0.006199 -0.002549 0.002024 -0.005331 0.023089 0.007099
# 6 -0.007908 -0.007314 0.002046 -0.005650 0.007099 0.052946
#
#
# Mechanical properties :
#
#
# Convention : Reuss Voigt Hill
#
# Bulk Modulus (GPa) = 47.38537 64.48413 55.93475
# Shear Modulus (GPa) = 29.57437 37.77435 33.67436
#
# Velocity S-wave (km/s) = 3.76773 4.25815 4.02042
# Velocity P-wave (km/s) = 6.45545 7.42484 6.95705
#
# Compressibility (1/GPa) = 0.02110356
#
# Stress axis : x y z
#
# Youngs Moduli (GPa) = 71.82754 89.36043 108.17587
#
# Poissons Ratio (x) = -0.10315 0.55568
# Poissons Ratio (y) = -0.08291 0.28604
# Poissons Ratio (z) = 0.36897 0.23629
#
# Static dielectric constant tensor:
#      x y z
#    x 4.249220 0.162230 0.257080 
#    y 0.162230 3.702260 -0.191530 
#    z 0.257080 -0.191530 4.179900 
# 
# 
# High freq. dielectric constant tensor:
#      x y z
#    x 1.804240 0.016590 0.009740 
#    y 0.016590 1.799520 -0.018710 
#    z 0.009740 -0.018710 1.834490 
# 
# From -- ./inp_files/123997.got.cif
#   From: 2010.06.25/outbox.cif.g09.slc.cpg/sg2_62_cif.got.tgz:123997.got - 2010.06.27 13:26:56.
