data_PCOD8016940
_publ_section_title
;
Structure prediction by ZEFSAII (Michael W. Deem and Ramdas Pophale) SiO2 
 PCOD8016940
Probable space group: P -1
;
_chemical_formula_sum "Si O2"
_cell_formula_units_Z 16
_cell_length_a 11.548952
_cell_length_b 13.878429
_cell_length_c 9.412874
_cell_angle_alpha 108.655724
_cell_angle_beta 59.299464
_cell_angle_gamma 146.951995
_cell_volume 688.403979
_symmetry_space_group_name_H-M "P -1"
_symmetry_group_IT_number 2
_symmetry_cell_setting 'triclinic'
loop_
_space_group_symop_operation_xyz
x,y,z
-x,-y,-z
loop_
_atom_site_type_symbol
_atom_site_label
_atom_site_fract_x
_atom_site_fract_y
_atom_site_fract_z
Si Si1 0.371495 0.187312 0.071004
Si Si2 0.144527 0.835343 0.726015
Si Si3 0.028112 0.215597 0.899019
Si Si4 0.735011 0.454912 0.212852
Si Si5 0.601608 0.244211 0.694927
Si Si6 0.701287 0.739498 0.451837
Si Si7 0.898042 0.431853 0.344973
Si Si8 0.975131 0.872776 0.616012
O O1 0.588372 0.319573 0.108302
O O2 0.211690 0.187303 0.190437
O O3 0.470382 0.247178 0.875544
O O4 0.211761 0.987251 0.107478
O O5 0.106280 0.691600 0.686498
O O6 0.063662 0.826631 0.618509
O O7 0.423783 0.037858 0.679286
O O8 0.977149 0.783745 0.926469
O O9 0.044326 0.339850 0.886329
O O10 0.262386 0.298153 0.737284
O O11 0.574736 0.426447 0.404263
O O12 0.841449 0.425242 0.215791
O O13 0.690489 0.348998 0.539526
O O14 0.843556 0.358194 0.677790
O O15 0.850859 0.771900 0.495474
O O16 0.793923 0.912670 0.458690
#
# Coordination Sequence:
#
# PCOD8016940 Si02
#       8
#     2   2   2   2   2   2   2   2
#     4   9  21  41  62  89 118 150 196 250 301 348
#     4  11  23  41  62  87 122 160 194 243 300 349
#     4  10  22  37  60  92 119 153 200 240 297 359
#     4  11  22  40  62  86 124 160 194 246 293 346
#     4  10  23  41  59  86 118 153 202 246 289 348
#     4   9  19  37  62  93 119 151 195 244 300 352
#     4  11  25  41  60  88 120 160 205 241 288 352
#     4   9  19  38  64  90 121 153 192 245 301 357
#
# _framework density 23.242166999999998
#
# number of rings (size 3 to 8) (size 9 to 14) (size 15 to 20)
#    0.000    2.000    0.000    3.000    0.000   10.500 
#    0.000   13.125    0.000    0.000    0.000    0.000 
#    0.000    0.000    0.000    0.000    0.000    0.000 
#
# Total GULP energy -198335.642462 kJ/mol
# GULP energy per Si atom -12395.977654 kJ/mol
# Density = 2.318927 g / cm^3
# Si number density = 23.242167 Si / 1000 Ang^3
#
#
#
# Elastic Constant Matrix: (Units=GPa)
#
#
# Indices 1 2 3 4 5 6 
#
# 1 109.6005 46.8333 8.1026 -2.6474 32.8706 -6.0848
# 2 46.8333 86.4049 5.4612 -5.9650 9.7084 -7.7314
# 3 8.1026 5.4612 89.7141 -3.1833 0.7123 -8.6568
# 4 -2.6474 -5.9650 -3.1833 29.8873 1.8799 3.7605
# 5 32.8706 9.7084 0.7123 1.8799 29.0797 -5.6156
# 6 -6.0848 -7.7314 -8.6568 3.7605 -5.6156 16.2961
#
#
#
# Elastic Compliance Matrix: (Units=1/GPa)
#
#
# Indices 1 2 3 4 5 6 
#
# 1 0.017948 -0.007844 -0.001376 0.001620 -0.018617 -0.004540
# 2 -0.007844 0.015928 0.000339 0.001468 0.004616 0.006060
# 3 -0.001376 0.000339 0.011890 0.000208 0.002443 0.006757
# 4 0.001620 0.001468 0.000208 0.035443 -0.006347 -0.008954
# 5 -0.018617 0.004616 0.002443 -0.006347 0.057695 0.017882
# 6 -0.004540 0.006060 0.006757 -0.008954 0.017882 0.074362
#
#
# Mechanical properties :
#
#
# Convention : Reuss Voigt Hill
#
# Bulk Modulus (GPa) = 35.70870 45.16818 40.43844
# Shear Modulus (GPa) = 20.80178 30.07412 25.43795
#
# Velocity S-wave (km/s) = 2.99490 3.60105 3.31187
# Velocity P-wave (km/s) = 5.23033 6.06350 5.66226
#
# Compressibility (1/GPa) = 0.02800438
#
# Stress axis : x y z
#
# Youngs Moduli (GPa) = 55.71635 62.78062 84.10305
#
# Poissons Ratio (x) = 0.49244 0.11575
# Poissons Ratio (y) = 0.43703 -0.02851
# Poissons Ratio (z) = 0.07668 -0.02128
#
# Static dielectric constant tensor:
#      x y z
#    x 3.589430 0.067570 0.000680 
#    y 0.067570 4.218570 -0.165240 
#    z 0.000680 -0.165240 4.706950 
# 
# 
# High freq. dielectric constant tensor:
#      x y z
#    x 1.872220 -0.000530 0.002010 
#    y -0.000530 1.923630 -0.007510 
#    z 0.002010 -0.007510 1.944020 
# 
# From -- ./inp_files/273358.got.cif
#   From: 2010.06.25/outbox.cif.g09.slc.cpg/sg2_137_cif.got.tgz:273358.got - 2010.06.27 13:26:56.
