data_PCOD8016982
_publ_section_title
;
Structure prediction by ZEFSAII (Michael W. Deem and Ramdas Pophale) SiO2 
 PCOD8016982
Probable space group: P -1
;
_chemical_formula_sum "Si O2"
_cell_formula_units_Z 16
_cell_length_a 17.646057
_cell_length_b 8.343313
_cell_length_c 5.132427
_cell_angle_alpha 59.676663
_cell_angle_beta 84.261665
_cell_angle_gamma 62.601707
_cell_volume 570.387786
_symmetry_space_group_name_H-M "P -1"
_symmetry_group_IT_number 2
_symmetry_cell_setting 'triclinic'
loop_
_space_group_symop_operation_xyz
x,y,z
-x,-y,-z
loop_
_atom_site_type_symbol
_atom_site_label
_atom_site_fract_x
_atom_site_fract_y
_atom_site_fract_z
Si Si1 0.035873 0.689276 0.462615
Si Si2 0.294953 0.398748 0.556350
Si Si3 0.113599 0.948406 0.059950
Si Si4 0.438113 0.750313 0.848338
Si Si5 0.193101 0.608888 0.899476
Si Si6 0.488931 0.291333 0.641474
Si Si7 0.109835 0.359276 0.281310
Si Si8 0.253058 0.040452 0.810084
O O1 0.097131 0.802171 0.407138
O O2 0.093936 0.465068 0.490033
O O3 0.973252 0.678003 0.724537
O O4 0.974034 0.835007 0.127905
O O5 0.256091 0.470039 0.224753
O O6 0.392962 0.347529 0.555153
O O7 0.286368 0.191853 0.806341
O O8 0.247798 0.582226 0.640688
O O9 0.139010 0.840525 0.850199
O O10 0.192993 0.993408 0.076179
O O11 0.446640 0.853791 0.491285
O O12 0.337201 0.818746 0.883663
O O13 0.500000 0.500000 0.000000
O O14 0.476824 0.836447 0.995024
O O15 0.126270 0.508054 0.943319
O O16 0.500000 0.500000 0.500000
O O17 0.196774 0.139354 0.483396
#
# Coordination Sequence:
#
# PCOD8016982 Si02
#       8
#     2   2   2   2   2   2   2   2
#     4   8  14  32  63  96 133 168 213 262 321 376
#     4  11  24  42  65  94 131 169 219 267 322 379
#     4   9  18  33  65  99 130 173 216 263 316 388
#     4  10  23  41  63  93 128 168 210 270 318 379
#     4  10  22  39  66  97 131 172 213 264 315 380
#     4  10  23  40  64  89 124 173 207 269 323 378
#     4   8  16  34  61  94 132 169 210 266 317 378
#     4  10  22  37  62  96 130 170 219 264 322 383
#
# _framework density 28.051095
#
# number of rings (size 3 to 8) (size 9 to 14) (size 15 to 20)
#    0.000    2.500    0.000    0.750    7.000    3.000 
#    0.000    3.750    0.000   94.500    0.000    0.000 
#    0.000    0.000    0.000    0.000    0.000    0.000 
#
# Total GULP energy -198222.387579 kJ/mol
# GULP energy per Si atom -12388.899224 kJ/mol
# Density = 2.798725 g / cm^3
# Si number density = 28.051095 Si / 1000 Ang^3
#
#
#
# Elastic Constant Matrix: (Units=GPa)
#
#
# Indices 1 2 3 4 5 6 
#
# 1 183.1671 22.8796 20.1289 -3.7697 -11.4090 -4.6685
# 2 22.8796 54.1028 16.0299 -7.7259 19.5055 -9.4630
# 3 20.1289 16.0299 60.2185 13.1532 -17.2595 7.0189
# 4 -3.7697 -7.7259 13.1532 48.0927 8.6995 0.8454
# 5 -11.4090 19.5055 -17.2595 8.6995 40.4450 -7.7922
# 6 -4.6685 -9.4630 7.0189 0.8454 -7.7922 50.9671
#
#
#
# Elastic Compliance Matrix: (Units=1/GPa)
#
#
# Indices 1 2 3 4 5 6 
#
# 1 0.006234 -0.004681 0.000756 -0.001324 0.004688 0.000337
# 2 -0.004681 0.046900 -0.027589 0.021718 -0.039283 0.005712
# 3 0.000756 -0.027589 0.038406 -0.020842 0.033450 -0.004882
# 4 -0.001324 0.021718 -0.020842 0.034689 -0.026797 0.002109
# 5 0.004688 -0.039283 0.033450 -0.026797 0.064816 -0.001117
# 6 0.000337 0.005712 -0.004882 0.002109 -0.001117 0.021179
#
#
# Mechanical properties :
#
#
# Convention : Reuss Voigt Hill
#
# Bulk Modulus (GPa) = 35.07140 46.17391 40.62265
# Shear Modulus (GPa) = 17.55886 43.79763 30.67825
#
# Velocity S-wave (km/s) = 2.50463 3.95568 3.31063
# Velocity P-wave (km/s) = 4.57100 6.11225 5.39693
#
# Compressibility (1/GPa) = 0.02851326
#
# Stress axis : x y z
#
# Youngs Moduli (GPa) = 160.39816 21.32187 26.03736
#
# Poissons Ratio (x) = 0.09980 -0.01968
# Poissons Ratio (y) = 0.75079 0.71834
# Poissons Ratio (z) = -0.12121 0.58824
#
# Static dielectric constant tensor:
#      x y z
#    x 5.546230 -0.071220 -0.319980 
#    y -0.071220 4.432830 -0.930360 
#    z -0.319980 -0.930360 3.936150 
# 
# 
# High freq. dielectric constant tensor:
#      x y z
#    x 2.152580 -0.012140 -0.000600 
#    y -0.012140 2.118130 -0.008980 
#    z -0.000600 -0.008980 2.136590 
# 
# From -- ./inp_files/106278.got.cif
#   From: 2010.06.25/outbox.cif.g09.slc.cpg/sg2_54_cif.got.tgz:106278.got - 2010.06.27 13:26:56.
