data_PCOD8016425
_publ_section_title
;
Structure prediction by ZEFSAII (Michael W. Deem and Ramdas Pophale) SiO2 
 PCOD8016425
Probable space group: P -1
;
_chemical_formula_sum "Si O2"
_cell_formula_units_Z 16
_cell_length_a 8.899228
_cell_length_b 8.217811
_cell_length_c 14.944337
_cell_angle_alpha 73.791187
_cell_angle_beta 132.839058
_cell_angle_gamma 86.796208
_cell_volume 721.175417
_symmetry_space_group_name_H-M "P -1"
_symmetry_group_IT_number 2
_symmetry_cell_setting 'triclinic'
loop_
_space_group_symop_operation_xyz
x,y,z
-x,-y,-z
loop_
_atom_site_type_symbol
_atom_site_label
_atom_site_fract_x
_atom_site_fract_y
_atom_site_fract_z
Si Si1 0.344836 0.559022 0.304907
Si Si2 0.901024 0.118731 0.216760
Si Si3 0.809055 0.007492 0.490189
Si Si4 0.039002 0.067269 0.909555
Si Si5 0.730075 0.636579 0.530583
Si Si6 0.196195 0.520586 0.776627
Si Si7 0.488544 0.354078 0.227333
Si Si8 0.582495 0.796306 0.956908
O O1 0.573296 0.595609 0.400080
O O2 0.353784 0.394861 0.399944
O O3 0.322387 0.502019 0.202105
O O4 0.136847 0.736892 0.214566
O O5 0.878625 0.323657 0.200799
O O6 0.674390 0.088829 0.155560
O O7 0.095055 0.979103 0.374838
O O8 0.967128 0.076912 0.146396
O O9 0.729198 0.836639 0.480911
O O10 0.595502 0.177853 0.358555
O O11 0.000000 0.000000 0.500000
O O12 0.284100 0.069264 0.006626
O O13 0.000000 0.000000 0.000000
O O14 0.981805 0.498284 0.648101
O O15 0.323431 0.574838 0.740685
O O16 0.351613 0.339042 0.912309
O O17 0.361807 0.313050 0.097508
#
# Coordination Sequence:
#
# PCOD8016425 Si02
#       8
#     2   2   2   2   2   2   2   2
#     4  11  27  45  62  95 140 176 214 260 336 397
#     4  10  23  43  69  94 129 167 217 277 326 376
#     4  11  21  43  72 103 127 164 231 277 323 385
#     4  12  29  44  62  97 135 175 219 264 324 401
#     4  10  23  46  64  93 138 176 211 267 329 390
#     4  10  21  44  70  95 124 168 224 274 325 385
#     4  11  24  41  70 102 124 172 222 275 325 392
#     4  11  23  44  69  92 130 171 222 274 331 378
#
# _framework density 22.186001999999998
#
# number of rings (size 3 to 8) (size 9 to 14) (size 15 to 20)
#    0.000    1.250    5.000    1.875    8.750    3.500 
#    2.250    0.000    0.000    0.000    0.000    0.000 
#    0.000    0.000    0.000    0.000    0.000    0.000 
#
# Total GULP energy -198381.023714 kJ/mol
# GULP energy per Si atom -12398.813982 kJ/mol
# Density = 2.213551 g / cm^3
# Si number density = 22.186002 Si / 1000 Ang^3
#
#
#
# Elastic Constant Matrix: (Units=GPa)
#
#
# Indices 1 2 3 4 5 6 
#
# 1 65.4097 39.7169 9.1797 3.3976 -19.3352 7.6836
# 2 39.7169 55.6313 5.2311 -3.4193 -12.4614 10.2175
# 3 9.1797 5.2311 80.4963 -3.7871 -4.5197 18.4529
# 4 3.3976 -3.4193 -3.7871 33.9426 0.4106 -6.2946
# 5 -19.3352 -12.4614 -4.5197 0.4106 42.5028 5.5792
# 6 7.6836 10.2175 18.4529 -6.2946 5.5792 47.1138
#
#
#
# Elastic Compliance Matrix: (Units=1/GPa)
#
#
# Indices 1 2 3 4 5 6 
#
# 1 0.030428 -0.019766 -0.001585 -0.005642 0.008166 -0.001776
# 2 -0.019766 0.033311 0.001319 0.004713 0.001401 -0.004053
# 3 -0.001585 0.001319 0.013946 0.000785 0.001877 -0.005607
# 4 -0.005642 0.004713 0.000785 0.031355 -0.001930 0.004008
# 5 0.008166 0.001401 0.001877 -0.001930 0.028662 -0.006023
# 6 -0.001776 -0.004053 -0.005607 0.004008 -0.006023 0.025839
#
#
# Mechanical properties :
#
#
# Convention : Reuss Voigt Hill
#
# Bulk Modulus (GPa) = 26.58149 34.42143 30.50146
# Shear Modulus (GPa) = 23.13244 34.53915 28.83579
#
# Velocity S-wave (km/s) = 3.23253 3.94991 3.60909
# Velocity P-wave (km/s) = 5.09308 6.02918 5.58079
#
# Compressibility (1/GPa) = 0.03762016
#
# Stress axis : x y z
#
# Youngs Moduli (GPa) = 32.86406 30.01999 71.70689
#
# Poissons Ratio (x) = 0.59338 0.11368
# Poissons Ratio (y) = 0.64960 -0.09458
# Poissons Ratio (z) = 0.05210 -0.03960
#
# Static dielectric constant tensor:
#      x y z
#    x 3.940960 0.156080 0.069820 
#    y 0.156080 3.891250 0.080190 
#    z 0.069820 0.080190 4.281230 
# 
# 
# High freq. dielectric constant tensor:
#      x y z
#    x 1.870780 0.012870 -0.000940 
#    y 0.012870 1.856410 0.003800 
#    z -0.000940 0.003800 1.886670 
# 
# From -- ./inp_files/492612.got.cif
#   From: 2010.06.25/outbox.cif.g09.slc.cpg/sg2_247_cif.got.tgz:492612.got - 2010.06.27 13:26:56.
