data_PCOD8016073
_publ_section_title
;
Structure prediction by ZEFSAII (Michael W. Deem and Ramdas Pophale) SiO2 
 PCOD8016073
Probable space group: P -1
;
_chemical_formula_sum "Si O2"
_cell_formula_units_Z 14
_cell_length_a 11.982384
_cell_length_b 8.944910
_cell_length_c 5.184056
_cell_angle_alpha 80.169900
_cell_angle_beta 98.638358
_cell_angle_gamma 105.720153
_cell_volume 523.824857
_symmetry_space_group_name_H-M "P -1"
_symmetry_group_IT_number 2
_symmetry_cell_setting 'triclinic'
loop_
_space_group_symop_operation_xyz
x,y,z
-x,-y,-z
loop_
_atom_site_type_symbol
_atom_site_label
_atom_site_fract_x
_atom_site_fract_y
_atom_site_fract_z
Si Si1 0.838460 0.862405 0.425804
Si Si2 0.547486 0.158542 0.284712
Si Si3 0.303576 0.552038 0.972965
Si Si4 0.672209 0.144707 0.843419
Si Si5 0.081003 0.888182 0.974924
Si Si6 0.059715 0.384224 0.701368
Si Si7 0.306579 0.221185 0.105775
O O1 0.797803 0.847664 0.709728
O O2 0.926707 0.750192 0.455753
O O3 0.896334 0.049898 0.333850
O O4 0.737330 0.799655 0.197134
O O5 0.576917 0.096363 0.592879
O O6 0.407802 0.131009 0.203783
O O7 0.606654 0.345748 0.233815
O O8 0.605635 0.074484 0.105709
O O9 0.289573 0.664741 0.175505
O O10 0.178643 0.488823 0.820845
O O11 0.353371 0.406903 0.127607
O O12 0.787354 0.078172 0.861046
O O13 0.017158 0.706380 0.055046
O O14 0.000000 0.000000 0.000000
O O15 0.000000 0.500000 0.500000
#
# Coordination Sequence:
#
# PCOD8016073 Si02
#       7
#     2   2   2   2   2   2   2
#     4  10  25  44  64  99 134 175 224 266 321 408
#     4  10  22  40  66 104 132 170 213 281 330 383
#     4   9  23  37  66 100 138 161 226 269 327 395
#     4  10  23  40  66  97 134 165 223 266 327 392
#     4  10  23  47  67  94 137 179 216 274 334 384
#     4  10  21  43  70 100 129 177 221 277 331 383
#     4  11  22  42  69  95 136 178 215 267 337 386
#
# _framework density 26.726489999999998
#
# number of rings (size 3 to 8) (size 9 to 14) (size 15 to 20)
#    0.857    1.143    0.000    2.143    6.000    2.286 
#    5.143   12.143    0.000    0.000    0.000    0.000 
#    0.000    0.000    0.000    0.000    0.000    0.000 
#
# Total GULP energy -173460.056818 kJ/mol
# GULP energy per Si atom -12390.004058 kJ/mol
# Density = 2.666566 g / cm^3
# Si number density = 26.726490 Si / 1000 Ang^3
#
#
#
# Elastic Constant Matrix: (Units=GPa)
#
#
# Indices 1 2 3 4 5 6 
#
# 1 162.6463 37.3035 56.2430 -5.7374 19.1314 -7.9496
# 2 37.3035 131.1046 46.3302 -23.9690 13.8623 -17.9745
# 3 56.2430 46.3302 137.8632 -19.3008 9.2580 -12.3468
# 4 -5.7374 -23.9690 -19.3008 54.6327 0.9763 5.3196
# 5 19.1314 13.8623 9.2580 0.9763 46.3122 -9.2572
# 6 -7.9496 -17.9745 -12.3468 5.3196 -9.2572 50.4741
#
#
#
# Elastic Compliance Matrix: (Units=1/GPa)
#
#
# Indices 1 2 3 4 5 6 
#
# 1 0.007559 -0.001102 -0.002658 -0.000567 -0.002292 -0.000213
# 2 -0.001102 0.009735 -0.002062 0.003249 -0.001688 0.002137
# 3 -0.002658 -0.002062 0.009402 0.002048 -0.000022 0.000927
# 4 -0.000567 0.003249 0.002048 0.020514 -0.001763 -0.000917
# 5 -0.002292 -0.001688 -0.000022 -0.001763 0.023803 0.003584
# 6 -0.000213 0.002137 0.000927 -0.000917 0.003584 0.021520
#
#
# Mechanical properties :
#
#
# Convention : Reuss Voigt Hill
#
# Bulk Modulus (GPa) = 66.43754 79.04081 72.73918
# Shear Modulus (GPa) = 45.78895 49.73295 47.76095
#
# Velocity S-wave (km/s) = 4.14362 4.31839 4.23191
# Velocity P-wave (km/s) = 6.91412 7.38260 7.15220
#
# Compressibility (1/GPa) = 0.01505173
#
# Stress axis : x y z
#
# Youngs Moduli (GPa) = 132.28464 102.71887 106.35716
#
# Poissons Ratio (x) = 0.11320 0.28271
# Poissons Ratio (y) = 0.14578 0.21936
# Poissons Ratio (z) = 0.35163 0.21186
#
# Static dielectric constant tensor:
#      x y z
#    x 4.952640 0.068080 -0.057090 
#    y 0.068080 5.365450 -0.619050 
#    z -0.057090 -0.619050 4.779120 
# 
# 
# High freq. dielectric constant tensor:
#      x y z
#    x 2.083270 0.011970 0.006140 
#    y 0.011970 2.102070 -0.027730 
#    z 0.006140 -0.027730 2.067260 
# 
# From -- ./inp_files/68544.got.cif
#   From: 2010.06.25/outbox.cif.g09.slc.cpg/sg2_35_cif.got.tgz:68544.got - 2010.06.27 13:26:56.
