data_PCOD8016312
_publ_section_title
;
Structure prediction by ZEFSAII (Michael W. Deem and Ramdas Pophale) SiO2 
 PCOD8016312
Probable space group: P -1
;
_chemical_formula_sum "Si O2"
_cell_formula_units_Z 16
_cell_length_a 12.104586
_cell_length_b 9.214359
_cell_length_c 9.876290
_cell_angle_alpha 99.522839
_cell_angle_beta 63.895467
_cell_angle_gamma 135.022773
_cell_volume 680.487453
_symmetry_space_group_name_H-M "P -1"
_symmetry_group_IT_number 2
_symmetry_cell_setting 'triclinic'
loop_
_space_group_symop_operation_xyz
x,y,z
-x,-y,-z
loop_
_atom_site_type_symbol
_atom_site_label
_atom_site_fract_x
_atom_site_fract_y
_atom_site_fract_z
Si Si1 0.899687 0.440960 0.319404
Si Si2 0.086651 0.214826 0.613637
Si Si3 0.777108 0.451847 0.892266
Si Si4 0.298449 0.817071 0.876259
Si Si5 0.618467 0.062984 0.572557
Si Si6 0.901574 0.878162 0.898986
Si Si7 0.613137 0.828757 0.969386
Si Si8 0.735984 0.887153 0.614271
O O1 0.860774 0.578811 0.330732
O O2 0.826225 0.286331 0.204801
O O3 0.799384 0.308851 0.491729
O O4 0.106605 0.577341 0.247134
O O5 0.257409 0.277102 0.467338
O O6 0.007452 0.044079 0.746409
O O7 0.938617 0.110900 0.562439
O O8 0.896853 0.699172 0.859786
O O9 0.738888 0.366578 0.053127
O O10 0.589952 0.322142 0.900217
O O11 0.506528 0.010585 0.757329
O O12 0.267255 0.927659 0.012202
O O13 0.500000 0.000000 0.500000
O O14 0.658087 0.922619 0.542534
O O15 0.698943 0.763807 0.991930
O O16 0.000000 0.000000 0.000000
O O17 0.623723 0.809259 0.799756
#
# Coordination Sequence:
#
# PCOD8016312 Si02
#       8
#     2   2   2   2   2   2   2   2
#     4  11  24  43  70 104 131 179 236 273 350 408
#     4  10  23  43  70  96 138 183 225 284 337 406
#     4  12  22  39  70 101 133 176 228 283 336 409
#     4  11  23  44  67 100 138 175 222 290 342 402
#     4  10  23  43  66  99 140 178 224 282 345 410
#     4  11  23  42  66 101 141 180 228 283 345 410
#     4  11  24  42  68 101 138 180 225 284 347 403
#     4  10  21  44  66  95 143 178 223 282 342 405
#
# _framework density 23.512557000000001
#
# number of rings (size 3 to 8) (size 9 to 14) (size 15 to 20)
#    0.000    1.250    1.250    4.875    1.750    1.500 
#    9.000    2.500    0.000    0.000    0.000    0.000 
#    0.000    0.000    0.000    0.000    0.000    0.000 
#
# Total GULP energy -198308.807361 kJ/mol
# GULP energy per Si atom -12394.300460 kJ/mol
# Density = 2.345904 g / cm^3
# Si number density = 23.512557 Si / 1000 Ang^3
#
#
#
# Elastic Constant Matrix: (Units=GPa)
#
#
# Indices 1 2 3 4 5 6 
#
# 1 142.2762 32.9964 55.5007 1.8937 -7.0770 -14.0115
# 2 32.9964 100.3013 53.8096 5.9006 -5.2288 -28.6681
# 3 55.5007 53.8096 124.7883 -11.8536 -16.4936 -14.7260
# 4 1.8937 5.9006 -11.8536 40.9411 -3.4355 -1.8318
# 5 -7.0770 -5.2288 -16.4936 -3.4355 35.1170 -2.0078
# 6 -14.0115 -28.6681 -14.7260 -1.8318 -2.0078 40.2695
#
#
#
# Elastic Compliance Matrix: (Units=1/GPa)
#
#
# Indices 1 2 3 4 5 6 
#
# 1 0.008704 -0.000452 -0.003663 -0.001347 -0.000091 0.001302
# 2 -0.000452 0.016143 -0.006116 -0.003713 -0.000414 0.008909
# 3 -0.003663 -0.006116 0.013450 0.005371 0.005182 -0.000207
# 4 -0.001347 -0.003713 0.005371 0.026956 0.004352 0.000295
# 5 -0.000091 -0.000414 0.005182 0.004352 0.031447 0.003335
# 6 0.001302 0.008909 -0.000207 0.000295 0.003335 0.031732
#
#
# Mechanical properties :
#
#
# Convention : Reuss Voigt Hill
#
# Bulk Modulus (GPa) = 56.06573 72.44215 64.25394
# Shear Modulus (GPa) = 32.29178 38.26945 35.28062
#
# Velocity S-wave (km/s) = 3.70994 4.03875 3.87783
# Velocity P-wave (km/s) = 6.49987 7.25435 6.88745
#
# Compressibility (1/GPa) = 0.01783621
#
# Stress axis : x y z
#
# Youngs Moduli (GPa) = 114.89344 61.94670 74.34673
#
# Poissons Ratio (x) = 0.02799 0.27230
# Poissons Ratio (y) = 0.05191 0.45470
# Poissons Ratio (z) = 0.42081 0.37887
#
# Static dielectric constant tensor:
#      x y z
#    x 7.661260 -1.964670 1.667930 
#    y -1.964670 5.100590 -1.297440 
#    z 1.667930 -1.297440 5.683560 
# 
# 
# High freq. dielectric constant tensor:
#      x y z
#    x 1.945010 -0.010690 -0.011920 
#    y -0.010690 1.907070 -0.003980 
#    z -0.011920 -0.003980 1.930620 
# 
# From -- ./inp_files/419533.got.cif
#   From: 2010.06.25/outbox.cif.g09.slc.cpg/sg2_210_cif.got.tgz:419533.got - 2010.06.27 13:26:56.
