data_PCOD8016359
_publ_section_title
;
Structure prediction by ZEFSAII (Michael W. Deem and Ramdas Pophale) SiO2 
 PCOD8016359
Probable space group: P -1
;
_chemical_formula_sum "Si O2"
_cell_formula_units_Z 16
_cell_length_a 10.539410
_cell_length_b 12.888558
_cell_length_c 11.455099
_cell_angle_alpha 81.713579
_cell_angle_beta 54.503605
_cell_angle_gamma 43.251639
_cell_volume 751.873086
_symmetry_space_group_name_H-M "P -1"
_symmetry_group_IT_number 2
_symmetry_cell_setting 'triclinic'
loop_
_space_group_symop_operation_xyz
x,y,z
-x,-y,-z
loop_
_atom_site_type_symbol
_atom_site_label
_atom_site_fract_x
_atom_site_fract_y
_atom_site_fract_z
Si Si1 0.241581 0.617972 0.047281
Si Si2 0.208665 0.488318 0.757477
Si Si3 0.550269 0.076603 0.035566
Si Si4 0.868961 0.245589 0.162844
Si Si5 0.429919 0.788247 0.579217
Si Si6 0.233522 0.291556 0.395702
Si Si7 0.768085 0.898853 0.420932
Si Si8 0.690198 0.644947 0.036461
O O1 0.211476 0.511920 0.054123
O O2 0.988791 0.785534 0.224894
O O3 0.500000 0.500000 0.000000
O O4 0.249968 0.682398 0.914809
O O5 0.223346 0.605943 0.735396
O O6 0.318473 0.393561 0.590310
O O7 0.912780 0.613141 0.913276
O O8 0.378651 0.344432 0.794426
O O9 0.319824 0.225506 0.227035
O O10 0.558185 0.170665 0.925528
O O11 0.500000 0.000000 0.000000
O O12 0.819692 0.924634 0.984938
O O13 0.770838 0.194474 0.286090
O O14 0.524041 0.794523 0.646005
O O15 0.286622 0.949396 0.543583
O O16 0.142597 0.224960 0.500970
O O17 0.000000 0.500000 0.500000
O O18 0.500000 0.000000 0.500000
#
# Coordination Sequence:
#
# PCOD8016359 Si02
#       8
#     2   2   2   2   2   2   2   2
#     4  11  25  43  67  98 139 176 224 284 351 418
#     4  10  21  44  68  93 134 183 232 280 339 411
#     4  12  25  43  70 102 135 175 232 285 336 414
#     4  11  25  42  66  99 136 181 227 284 349 408
#     4  11  24  41  67  95 139 176 222 286 347 403
#     4  11  25  42  70 102 132 175 230 287 336 406
#     4  10  22  41  64  94 130 173 220 277 337 400
#     4  10  22  41  70  94 128 181 229 276 341 408
#
# _framework density 21.280187000000002
#
# number of rings (size 3 to 8) (size 9 to 14) (size 15 to 20)
#    0.000    1.250    1.250    4.875    7.000    1.000 
#    0.000    0.625    0.000    0.000    0.000    0.000 
#    0.000    0.000    0.000    0.000    0.000    0.000 
#
# Total GULP energy -198379.853320 kJ/mol
# GULP energy per Si atom -12398.740832 kJ/mol
# Density = 2.123175 g / cm^3
# Si number density = 21.280187 Si / 1000 Ang^3
#
#
#
# Elastic Constant Matrix: (Units=GPa)
#
#
# Indices 1 2 3 4 5 6 
#
# 1 88.2750 39.6565 40.0625 -3.7089 0.0167 5.8890
# 2 39.6565 157.3765 40.1961 -11.8534 -4.1117 11.2381
# 3 40.0625 40.1961 93.6158 10.0182 3.3276 15.2175
# 4 -3.7089 -11.8534 10.0182 34.1957 5.9833 -8.3312
# 5 0.0167 -4.1117 3.3276 5.9833 33.9477 -2.9674
# 6 5.8890 11.2381 15.2175 -8.3312 -2.9674 36.8023
#
#
#
# Elastic Compliance Matrix: (Units=1/GPa)
#
#
# Indices 1 2 3 4 5 6 
#
# 1 0.015081 -0.002116 -0.006104 0.003056 -0.000078 0.001442
# 2 -0.002116 0.007873 -0.002818 0.003178 0.000659 -0.000128
# 3 -0.006104 -0.002818 0.016515 -0.007952 -0.001157 -0.006885
# 4 0.003056 0.003178 -0.007952 0.036121 -0.004360 0.009654
# 5 -0.000078 0.000659 -0.001157 -0.004360 0.030573 0.001768
# 6 0.001442 -0.000128 -0.006885 0.009654 0.001768 0.032155
#
#
# Mechanical properties :
#
#
# Convention : Reuss Voigt Hill
#
# Bulk Modulus (GPa) = 57.49137 64.34415 60.91776
# Shear Modulus (GPa) = 30.08551 35.61263 32.84907
#
# Velocity S-wave (km/s) = 3.76411 4.09530 3.93319
# Velocity P-wave (km/s) = 6.77985 7.25701 7.02248
#
# Compressibility (1/GPa) = 0.01739392
#
# Stress axis : x y z
#
# Youngs Moduli (GPa) = 66.30730 127.01941 60.54974
#
# Poissons Ratio (x) = 0.26878 0.36960
# Poissons Ratio (y) = 0.14031 0.17061
# Poissons Ratio (z) = 0.40474 0.35789
#
# Static dielectric constant tensor:
#      x y z
#    x 3.828010 0.055650 0.172620 
#    y 0.055650 4.422770 -0.166720 
#    z 0.172620 -0.166720 3.631590 
# 
# 
# High freq. dielectric constant tensor:
#      x y z
#    x 1.822980 0.009860 0.007120 
#    y 0.009860 1.861370 -0.002720 
#    z 0.007120 -0.002720 1.822880 
# 
# From -- ./inp_files/284746.got.cif
#   From: 2010.06.25/outbox.cif.g09.slc.cpg/sg2_143_cif.got.tgz:284746.got - 2010.06.27 13:26:56.
