data_PCOD8016419
_publ_section_title
;
Structure prediction by ZEFSAII (Michael W. Deem and Ramdas Pophale) SiO2 
 PCOD8016419
Probable space group: P -1
;
_chemical_formula_sum "Si O2"
_cell_formula_units_Z 14
_cell_length_a 11.383284
_cell_length_b 16.427151
_cell_length_c 8.002309
_cell_angle_alpha 42.206733
_cell_angle_beta 100.942467
_cell_angle_gamma 131.410545
_cell_volume 605.595888
_symmetry_space_group_name_H-M "P -1"
_symmetry_group_IT_number 2
_symmetry_cell_setting 'triclinic'
loop_
_space_group_symop_operation_xyz
x,y,z
-x,-y,-z
loop_
_atom_site_type_symbol
_atom_site_label
_atom_site_fract_x
_atom_site_fract_y
_atom_site_fract_z
Si Si1 0.862439 0.662768 0.195273
Si Si2 0.270761 0.321470 0.199232
Si Si3 0.159383 0.395547 0.367392
Si Si4 0.413600 0.776357 0.251018
Si Si5 0.720979 0.941213 0.352304
Si Si6 0.563792 0.183895 0.290991
Si Si7 0.261901 0.826014 0.386649
O O1 0.822544 0.678843 0.351476
O O2 0.761474 0.451776 0.493225
O O3 0.784366 0.686705 0.992254
O O4 0.093764 0.825558 0.989294
O O5 0.190011 0.350470 0.270339
O O6 0.190379 0.123824 0.517579
O O7 0.500000 0.500000 0.000000
O O8 0.943042 0.275795 0.488195
O O9 0.316248 0.630107 0.080019
O O10 0.555059 0.820829 0.351933
O O11 0.306917 0.814482 0.228317
O O12 0.557813 0.932210 0.898158
O O13 0.628951 0.900835 0.568037
O O14 0.719851 0.279712 0.335084
O O15 0.500000 0.000000 0.500000
#
# Coordination Sequence:
#
# PCOD8016419 Si02
#       7
#     2   2   2   2   2   2   2
#     4  12  26  45  77 106 135 195 236 291 363 416
#     4  12  25  51  72  99 150 185 235 307 348 414
#     4  12  26  45  75 110 135 192 246 281 357 432
#     4  10  21  44  70 102 150 181 229 301 345 421
#     4  11  24  48  69 104 146 186 237 291 361 414
#     4  11  24  41  68 106 148 184 232 296 352 426
#     4  10  22  42  67 105 148 186 230 292 353 419
#
# _framework density 23.117723999999999
#
# number of rings (size 3 to 8) (size 9 to 14) (size 15 to 20)
#    0.000    0.857    4.286    2.571    4.000    1.714 
#    0.000    0.000    0.000    0.000    0.000    0.000 
#    0.000    0.000    0.000    0.000    0.000    0.000 
#
# Total GULP energy -173468.018319 kJ/mol
# GULP energy per Si atom -12390.572737 kJ/mol
# Density = 2.306511 g / cm^3
# Si number density = 23.117724 Si / 1000 Ang^3
#
#
#
# Elastic Constant Matrix: (Units=GPa)
#
#
# Indices 1 2 3 4 5 6 
#
# 1 124.8423 35.4998 64.5878 3.1597 -9.9784 -4.1390
# 2 35.4998 69.7338 50.7893 6.6529 -6.6853 9.4635
# 3 64.5878 50.7893 163.1822 -6.9968 -18.0535 2.9449
# 4 3.1597 6.6529 -6.9968 51.8148 4.8643 9.3764
# 5 -9.9784 -6.6853 -18.0535 4.8643 42.4605 -2.8007
# 6 -4.1390 9.4635 2.9449 9.3764 -2.8007 19.8038
#
#
#
# Elastic Compliance Matrix: (Units=1/GPa)
#
#
# Indices 1 2 3 4 5 6 
#
# 1 0.011091 -0.003742 -0.003269 -0.001763 0.001198 0.005596
# 2 -0.003742 0.021364 -0.005073 -0.001456 -0.000137 -0.009567
# 3 -0.003269 -0.005073 0.009329 0.001956 0.002158 -0.000267
# 4 -0.001763 -0.001456 0.001956 0.022112 -0.003062 -0.010866
# 5 0.001198 -0.000137 0.002158 -0.003062 0.025412 0.005038
# 6 0.005596 -0.009567 -0.000267 -0.010866 0.005038 0.062133
#
#
# Mechanical properties :
#
#
# Convention : Reuss Voigt Hill
#
# Bulk Modulus (GPa) = 56.76870 73.27911 65.02391
# Shear Modulus (GPa) = 27.55095 36.60790 32.07943
#
# Velocity S-wave (km/s) = 3.45594 3.98369 3.72917
# Velocity P-wave (km/s) = 6.36666 7.27508 6.83598
#
# Compressibility (1/GPa) = 0.01761534
#
# Stress axis : x y z
#
# Youngs Moduli (GPa) = 90.15948 46.80720 107.19648
#
# Poissons Ratio (x) = 0.17513 0.35048
# Poissons Ratio (y) = 0.33734 0.54386
# Poissons Ratio (z) = 0.29477 0.23748
#
# Static dielectric constant tensor:
#      x y z
#    x 4.140390 -0.033110 0.025790 
#    y -0.033110 4.481220 0.309640 
#    z 0.025790 0.309640 4.847850 
# 
# 
# High freq. dielectric constant tensor:
#      x y z
#    x 1.894120 0.010240 -0.003210 
#    y 0.010240 1.914060 0.003830 
#    z -0.003210 0.003830 1.943740 
# 
# From -- ./inp_files/277347.got.cif
#   From: 2010.06.25/outbox.cif.g09.slc.cpg/sg2_139_cif.got.tgz:277347.got - 2010.06.27 13:26:56.
