data_PCOD8016092
_publ_section_title
;
Structure prediction by ZEFSAII (Michael W. Deem and Ramdas Pophale) SiO2 
 PCOD8016092
Probable space group: P -1
;
_chemical_formula_sum "Si O2"
_cell_formula_units_Z 12
_cell_length_a 15.184502
_cell_length_b 8.786575
_cell_length_c 9.858612
_cell_angle_alpha 71.890966
_cell_angle_beta 62.613062
_cell_angle_gamma 29.978095
_cell_volume 572.072533
_symmetry_space_group_name_H-M "P -1"
_symmetry_group_IT_number 2
_symmetry_cell_setting 'triclinic'
loop_
_space_group_symop_operation_xyz
x,y,z
-x,-y,-z
loop_
_atom_site_type_symbol
_atom_site_label
_atom_site_fract_x
_atom_site_fract_y
_atom_site_fract_z
Si Si1 0.137072 0.879432 0.051942
Si Si2 0.614867 0.705062 0.079587
Si Si3 0.104978 0.383018 0.598513
Si Si4 0.906204 0.240489 0.389160
Si Si5 0.012312 0.621794 0.061783
Si Si6 0.505989 0.685059 0.434543
O O1 0.326664 0.506031 0.019698
O O2 0.041893 0.021673 0.225961
O O3 0.000000 0.000000 0.000000
O O4 0.176110 0.006827 0.937193
O O5 0.505879 0.756491 0.260792
O O6 0.797754 0.538276 0.064807
O O7 0.500000 0.000000 0.000000
O O8 0.095630 0.576738 0.604076
O O9 0.000000 0.500000 0.500000
O O10 0.981173 0.445573 0.770811
O O11 0.321622 0.018287 0.544455
O O12 0.689835 0.487859 0.442603
O O13 0.000000 0.000000 0.500000
O O14 0.000000 0.500000 0.000000
O O15 0.500000 0.500000 0.500000
#
# Coordination Sequence:
#
# PCOD8016092 Si02
#       6
#     2   2   2   2   2   2
#     4  10  21  43  70  90 135 178 226 272 348 396
#     4  11  24  42  73  99 134 181 231 282 346 413
#     4  12  26  43  73 103 142 180 229 288 350 413
#     4  12  26  44  69 106 139 185 232 285 351 412
#     4  11  21  44  70  96 131 179 228 277 345 409
#     4  12  25  46  70 105 143 183 231 288 349 415
#
# _framework density 20.976361000000001
#
# number of rings (size 3 to 8) (size 9 to 14) (size 15 to 20)
#    0.000    0.667    5.000    3.500    9.333    0.000 
#    0.000    0.833    0.000    0.000    0.000    0.000 
#    0.000    0.000    0.000    0.000    0.000    0.000 
#
# Total GULP energy -148682.872885 kJ/mol
# GULP energy per Si atom -12390.239407 kJ/mol
# Density = 2.092862 g / cm^3
# Si number density = 20.976361 Si / 1000 Ang^3
#
#
#
# Elastic Constant Matrix: (Units=GPa)
#
#
# Indices 1 2 3 4 5 6 
#
# 1 117.3035 51.6903 55.8779 -2.7038 9.8642 30.8722
# 2 51.6903 150.9155 54.3718 -17.8150 8.8494 37.4309
# 3 55.8779 54.3718 151.1294 -22.3478 8.3093 18.7465
# 4 -2.7038 -17.8150 -22.3478 41.2383 6.3863 1.2128
# 5 9.8642 8.8494 8.3093 6.3863 40.0564 -0.9925
# 6 30.8722 37.4309 18.7465 1.2128 -0.9925 48.3943
#
#
#
# Elastic Compliance Matrix: (Units=1/GPa)
#
#
# Indices 1 2 3 4 5 6 
#
# 1 0.012439 -0.001784 -0.003404 -0.001355 -0.001877 -0.005241
# 2 -0.001784 0.009846 -0.001436 0.003878 -0.002207 -0.006063
# 3 -0.003404 -0.001436 0.009167 0.004361 -0.001452 -0.000408
# 4 -0.001355 0.003878 0.004361 0.029300 -0.006215 -0.004686
# 5 -0.001877 -0.002207 -0.001452 -0.006215 0.027310 0.004182
# 6 -0.005241 -0.006063 -0.000408 -0.004686 0.004182 0.029058
#
#
# Mechanical properties :
#
#
# Convention : Reuss Voigt Hill
#
# Bulk Modulus (GPa) = 54.93334 82.58093 68.75713
# Shear Modulus (GPa) = 36.64751 43.09836 39.87293
#
# Velocity S-wave (km/s) = 4.18435 4.53770 4.36460
# Velocity P-wave (km/s) = 7.04202 8.17975 7.63212
#
# Compressibility (1/GPa) = 0.01820388
#
# Stress axis : x y z
#
# Youngs Moduli (GPa) = 80.39552 101.56873 109.08219
#
# Poissons Ratio (x) = 0.18119 0.37135
# Poissons Ratio (y) = 0.14342 0.15660
# Poissons Ratio (z) = 0.27369 0.14581
#
# Static dielectric constant tensor:
#      x y z
#    x 3.780310 0.383050 0.311550 
#    y 0.383050 4.481380 0.336070 
#    z 0.311550 0.336070 3.080630 
# 
# 
# High freq. dielectric constant tensor:
#      x y z
#    x 1.822190 0.029200 0.002710 
#    y 0.029200 1.839780 -0.010890 
#    z 0.002710 -0.010890 1.836080 
# 
# From -- ./inp_files/146305.got.cif
#   From: 2010.06.25/outbox.cif.g09.slc.cpg/sg2_74_cif.got.tgz:146305.got - 2010.06.27 13:26:56.
