data_PCOD8016904
_publ_section_title
;
Structure prediction by ZEFSAII (Michael W. Deem and Ramdas Pophale) SiO2 
 PCOD8016904
Probable space group: P -1
;
_chemical_formula_sum "Si O2"
_cell_formula_units_Z 16
_cell_length_a 18.224556
_cell_length_b 16.087675
_cell_length_c 16.134229
_cell_angle_alpha 18.626816
_cell_angle_beta 139.048102
_cell_angle_gamma 147.224500
_cell_volume 794.023108
_symmetry_space_group_name_H-M "P -1"
_symmetry_group_IT_number 2
_symmetry_cell_setting 'triclinic'
loop_
_space_group_symop_operation_xyz
x,y,z
-x,-y,-z
loop_
_atom_site_type_symbol
_atom_site_label
_atom_site_fract_x
_atom_site_fract_y
_atom_site_fract_z
Si Si1 0.814263 0.864932 0.141433
Si Si2 0.822947 0.326513 0.597122
Si Si3 0.217695 0.191915 0.647488
Si Si4 0.095201 0.179195 0.286021
Si Si5 0.845110 0.239733 0.514124
Si Si6 0.491844 0.769099 0.278753
Si Si7 0.787341 0.130887 0.214438
Si Si8 0.142191 0.288852 0.035528
O O1 0.756377 0.500217 0.411666
O O2 0.766785 0.892934 0.165678
O O3 0.755205 0.994152 0.904368
O O4 0.979894 0.075655 0.078062
O O5 0.782862 0.245602 0.543013
O O6 0.988379 0.544529 0.544396
O O7 0.342455 0.576716 0.379394
O O8 0.224114 0.965984 0.800432
O O9 0.067365 0.123835 0.575000
O O10 0.163177 0.041578 0.525327
O O11 0.110965 0.477711 0.064591
O O12 0.169161 0.320654 0.126893
O O13 0.791530 0.364513 0.279147
O O14 0.788256 0.873529 0.790139
O O15 0.500000 0.500000 0.500000
O O16 0.630984 0.993324 0.242682
O O17 0.500000 0.000000 0.000000
#
# Coordination Sequence:
#
# PCOD8016904 Si02
#       8
#     2   2   2   2   2   2   2   2
#     4   9  18  28  43  68  98 127 166 209 253 301
#     4   9  16  26  41  66  96 130 163 202 248 312
#     4  10  22  37  56  77 107 145 177 217 270 311
#     4  11  22  35  54  80 109 137 181 224 259 307
#     4   9  15  26  43  62  96 135 163 192 256 316
#     4  10  22  39  56  75 102 139 182 221 264 314
#     4  11  22  37  54  77 107 142 181 220 260 310
#     4   9  17  28  43  67  97 132 164 206 253 303
#
# _framework density 20.150547
#
# number of rings (size 3 to 8) (size 9 to 14) (size 15 to 20)
#    0.000    2.250    0.000    3.750    0.000   11.000 
#    0.000    0.000    0.000    0.000    0.000    0.000 
#    0.000   20.000    0.000    0.000    0.000    0.000 
#
# Total GULP energy -198293.863885 kJ/mol
# GULP energy per Si atom -12393.366493 kJ/mol
# Density = 2.010468 g / cm^3
# Si number density = 20.150547 Si / 1000 Ang^3
#
#
#
# Elastic Constant Matrix: (Units=GPa)
#
#
# Indices 1 2 3 4 5 6 
#
# 1 79.9821 52.9599 54.6348 11.5311 -4.7728 -25.9796
# 2 52.9599 46.6086 38.8255 13.6593 -10.0868 -2.3333
# 3 54.6348 38.8255 160.3826 31.9067 6.2318 -4.6778
# 4 11.5311 13.6593 31.9067 28.5577 -3.4427 -6.1055
# 5 -4.7728 -10.0868 6.2318 -3.4427 31.1565 -3.6400
# 6 -25.9796 -2.3333 -4.6778 -6.1055 -3.6400 29.2115
#
#
#
# Elastic Compliance Matrix: (Units=1/GPa)
#
#
# Indices 1 2 3 4 5 6 
#
# 1 -0.248730 0.279474 0.033582 -0.116225 0.007480 -0.216870
# 2 0.279474 -0.282745 -0.044561 0.124936 0.002648 0.245276
# 3 0.033582 -0.044561 0.005224 0.007113 -0.006288 0.027846
# 4 -0.116225 0.124936 0.007113 -0.004192 0.010024 -0.091875
# 5 0.007480 0.002648 -0.006288 0.010024 0.037946 0.012680
# 6 -0.216870 0.245276 0.027846 -0.091875 0.012680 -0.152215
#
#
# Mechanical properties :
#
#
# Convention : Reuss Voigt Hill
#
# Bulk Modulus (GPa) = 93.12429 64.42375 78.77402
# Shear Modulus (GPa) = -4.24404 27.15536 11.45566
#
# Velocity S-wave (km/s) = -1.45284 3.67498 2.38692
# Velocity P-wave (km/s) = 6.59547 7.07446 6.83916
#
# Compressibility (1/GPa) = 0.01073834
#
# Stress axis : x y z
#
# Youngs Moduli (GPa) = -4.02042 -3.53675 191.41637
#
# Poissons Ratio (x) = 0.98843 -6.42805
# Poissons Ratio (y) = 1.12360 8.52963
# Poissons Ratio (z) = 0.13501 -0.15760
#
# Static dielectric constant tensor:
#      x y z
#    x 3.718460 -0.029780 -0.068230 
#    y -0.029780 3.646380 -0.053720 
#    z -0.068230 -0.053720 3.920760 
# 
# 
# High freq. dielectric constant tensor:
#      x y z
#    x 1.764980 -0.023870 0.006930 
#    y -0.023870 1.749420 0.016080 
#    z 0.006930 0.016080 1.797690 
# 
# From -- ./inp_files/538856.got.cif
#   From: 2010.06.25/outbox.cif.g09.slc.cpg/sg2_270_cif.got.tgz:538856.got - 2010.06.27 13:26:56.
