data_PCOD8016718
_publ_section_title
;
Structure prediction by ZEFSAII (Michael W. Deem and Ramdas Pophale) SiO2 
 PCOD8016718
Probable space group: P -1
;
_chemical_formula_sum "Si O2"
_cell_formula_units_Z 16
_cell_length_a 15.464057
_cell_length_b 14.793488
_cell_length_c 16.036291
_cell_angle_alpha 27.155086
_cell_angle_beta 153.147009
_cell_angle_gamma 134.397625
_cell_volume 672.743998
_symmetry_space_group_name_H-M "P -1"
_symmetry_group_IT_number 2
_symmetry_cell_setting 'triclinic'
loop_
_space_group_symop_operation_xyz
x,y,z
-x,-y,-z
loop_
_atom_site_type_symbol
_atom_site_label
_atom_site_fract_x
_atom_site_fract_y
_atom_site_fract_z
Si Si1 0.120015 0.586825 0.738439
Si Si2 0.993823 0.995644 0.594503
Si Si3 0.500047 0.003680 0.287283
Si Si4 0.677984 0.616521 0.312693
Si Si5 0.229038 0.297860 0.353789
Si Si6 0.595143 0.245403 0.460435
Si Si7 0.689001 0.252970 0.357521
Si Si8 0.522070 0.218142 0.822445
O O1 0.115358 0.715670 0.541687
O O2 0.927158 0.522055 0.629341
O O3 0.340138 0.360742 0.125395
O O4 0.089839 0.756578 0.647784
O O5 0.810323 0.919646 0.513680
O O6 0.242026 0.830347 0.969754
O O7 0.000000 0.000000 0.500000
O O8 0.638502 0.099896 0.376393
O O9 0.635987 0.746803 0.579195
O O10 0.345232 0.963370 0.253936
O O11 0.380675 0.162732 0.975261
O O12 0.658432 0.430018 0.395613
O O13 0.539413 0.650486 0.250420
O O14 0.357806 0.336038 0.509241
O O15 0.000000 0.500000 0.000000
O O16 0.734283 0.145270 0.577303
O O17 0.500000 0.500000 0.000000
O O18 0.500000 0.000000 0.000000
#
# Coordination Sequence:
#
# PCOD8016718 Si02
#       8
#     2   2   2   2   2   2   2   2
#     4  11  22  42  71  96 134 185 227 274 346 410
#     4  12  21  39  70  92 133 188 223 271 343 401
#     4  12  23  46  72 101 138 178 232 285 341 409
#     4  12  24  46  68 101 141 180 228 281 343 411
#     4  12  27  42  64 103 140 178 228 281 340 413
#     4  11  26  45  70 100 136 179 226 293 344 397
#     4  10  21  46  74  96 133 184 229 284 348 399
#     4  12  23  41  66  97 135 183 228 273 337 413
#
# _framework density 23.783193000000001
#
# number of rings (size 3 to 8) (size 9 to 14) (size 15 to 20)
#    0.000    0.500    7.500    1.125    5.250    1.000 
#    4.500    0.625    0.000    0.000    0.000    0.000 
#    0.000    0.000    0.000    0.000    0.000    0.000 
#
# Total GULP energy -198209.099425 kJ/mol
# GULP energy per Si atom -12388.068714 kJ/mol
# Density = 2.372906 g / cm^3
# Si number density = 23.783193 Si / 1000 Ang^3
#
#
#
# Elastic Constant Matrix: (Units=GPa)
#
#
# Indices 1 2 3 4 5 6 
#
# 1 91.4802 7.8095 -9.0387 -4.1292 -13.5116 -22.9494
# 2 7.8095 65.0708 14.0517 9.5679 -1.2106 -14.4759
# 3 -9.0387 14.0517 43.6001 6.9152 -4.2961 -9.9478
# 4 -4.1292 9.5679 6.9152 29.4067 3.0759 2.0463
# 5 -13.5116 -1.2106 -4.2961 3.0759 30.5526 2.5388
# 6 -22.9494 -14.4759 -9.9478 2.0463 2.5388 49.7846
#
#
#
# Elastic Compliance Matrix: (Units=1/GPa)
#
#
# Indices 1 2 3 4 5 6 
#
# 1 0.014313 -0.001234 0.005623 -0.000080 0.006495 0.007034
# 2 -0.001234 0.018137 -0.004356 -0.005308 -0.000243 0.004065
# 3 0.005623 -0.004356 0.028614 -0.005668 0.006330 0.006953
# 4 -0.000080 -0.005308 -0.005668 0.037807 -0.004513 -0.004036
# 5 0.006495 -0.000243 0.006330 -0.004513 0.036730 0.002501
# 6 0.007034 0.004065 0.006953 -0.004036 0.002501 0.025939
#
#
# Mechanical properties :
#
#
# Convention : Reuss Voigt Hill
#
# Bulk Modulus (GPa) = 16.35911 25.08846 20.72379
# Shear Modulus (GPa) = 27.49498 34.43736 30.96617
#
# Velocity S-wave (km/s) = 3.40379 3.80935 3.61226
# Velocity P-wave (km/s) = 4.72663 5.46991 5.11180
#
# Compressibility (1/GPa) = 0.06112801
#
# Stress axis : x y z
#
# Youngs Moduli (GPa) = 69.86843 55.13644 34.94759
#
# Poissons Ratio (x) = 0.06806 -0.19649
# Poissons Ratio (y) = 0.08625 0.15223
# Poissons Ratio (z) = -0.39284 0.24017
#
# Static dielectric constant tensor:
#      x y z
#    x 5.232900 -1.075320 -0.351910 
#    y -1.075320 4.336690 -0.012550 
#    z -0.351910 -0.012550 3.896360 
# 
# 
# High freq. dielectric constant tensor:
#      x y z
#    x 1.967380 -0.008500 0.003750 
#    y -0.008500 1.950980 0.005700 
#    z 0.003750 0.005700 1.907960 
# 
# From -- ./inp_files/534160.got.cif
#   From: 2010.06.25/outbox.cif.g09.slc.cpg/sg2_268_cif.got.tgz:534160.got - 2010.06.27 13:26:56.
