data_PCOD8016969
_publ_section_title
;
Structure prediction by ZEFSAII (Michael W. Deem and Ramdas Pophale) SiO2 
 PCOD8016969
Probable space group: P -1
;
_chemical_formula_sum "Si O2"
_cell_formula_units_Z 14
_cell_length_a 13.558853
_cell_length_b 23.165527
_cell_length_c 20.555849
_cell_angle_alpha 18.325311
_cell_angle_beta 21.993479
_cell_angle_gamma 32.702524
_cell_volume 717.970237
_symmetry_space_group_name_H-M "P -1"
_symmetry_group_IT_number 2
_symmetry_cell_setting 'triclinic'
loop_
_space_group_symop_operation_xyz
x,y,z
-x,-y,-z
loop_
_atom_site_type_symbol
_atom_site_label
_atom_site_fract_x
_atom_site_fract_y
_atom_site_fract_z
Si Si1 0.898099 0.849425 0.337568
Si Si2 0.679892 0.330740 0.694014
Si Si3 0.949226 0.985382 0.300228
Si Si4 0.495328 0.066638 0.719041
Si Si5 0.495338 0.311883 0.573770
Si Si6 0.892314 0.372585 0.382443
Si Si7 0.662496 0.211871 0.322415
O O1 0.644148 0.788351 0.508687
O O2 0.006741 0.664922 0.481919
O O3 0.810807 0.921035 0.383081
O O4 0.160706 0.023300 0.960852
O O5 0.619671 0.515881 0.562170
O O6 0.664488 0.328883 0.626711
O O7 0.456677 0.130471 0.072328
O O8 0.750991 0.071446 0.370117
O O9 0.978650 0.800549 0.518346
O O10 0.256918 0.139568 0.939086
O O11 0.609740 0.237867 0.518663
O O12 0.660972 0.131323 0.482103
O O13 0.749406 0.397884 0.375743
O O14 0.133840 0.570762 0.039720
#
# Coordination Sequence:
#
# PCOD8016969 Si02
#       7
#     2   2   2   2   2   2   2
#     4   8  20  42  60  84 119 152 196 230 289 358
#     4   9  20  38  61  88 106 160 195 231 288 343
#     4  10  22  37  62  91 111 154 197 242 284 337
#     4   9  23  39  59  86 119 157 190 232 294 352
#     4  11  20  41  63  81 120 155 199 231 290 347
#     4  11  23  36  63  91 111 154 201 240 278 349
#     4  12  22  39  60  90 123 146 189 251 291 328
#
# _framework density 19.499416
#
# number of rings (size 3 to 8) (size 9 to 14) (size 15 to 20)
#    0.857    1.143    2.857    1.714    0.000    4.000 
#    5.143    2.143    0.000    0.000    0.000    0.000 
#    0.000    0.000    0.000    0.000    0.000    0.000 
#
# Total GULP energy -173553.745527 kJ/mol
# GULP energy per Si atom -12396.696109 kJ/mol
# Density = 1.945503 g / cm^3
# Si number density = 19.499416 Si / 1000 Ang^3
#
#
#
# Elastic Constant Matrix: (Units=GPa)
#
#
# Indices 1 2 3 4 5 6 
#
# 1 65.3456 14.4133 26.0040 -7.9242 3.5259 6.7313
# 2 14.4133 76.3856 39.6257 -29.6741 13.9126 5.7998
# 3 26.0040 39.6257 70.0014 -28.9957 12.3681 5.6494
# 4 -7.9242 -29.6741 -28.9957 33.1237 1.7984 4.1404
# 5 3.5259 13.9126 12.3681 1.7984 26.4380 6.1460
# 6 6.7313 5.7998 5.6494 4.1404 6.1460 21.8467
#
#
#
# Elastic Compliance Matrix: (Units=1/GPa)
#
#
# Indices 1 2 3 4 5 6 
#
# 1 0.018447 -0.000680 -0.007693 -0.002601 0.002542 -0.003736
# 2 -0.000680 0.026014 -0.002352 0.022619 -0.012439 -0.006876
# 3 -0.007693 -0.002352 0.031760 0.025353 -0.012828 -0.006415
# 4 -0.002601 0.022619 0.025353 0.075749 -0.024073 -0.019344
# 5 0.002542 -0.012439 -0.012828 -0.024073 0.052699 -0.004427
# 6 -0.003736 -0.006876 -0.006415 -0.019344 -0.004427 0.055320
#
#
# Mechanical properties :
#
#
# Convention : Reuss Voigt Hill
#
# Bulk Modulus (GPa) = 18.25716 41.31317 29.78517
# Shear Modulus (GPa) = 16.68358 25.06099 20.87228
#
# Velocity S-wave (km/s) = 2.92823 3.58888 3.27525
# Velocity P-wave (km/s) = 4.56245 6.19728 5.44161
#
# Compressibility (1/GPa) = 0.05477303
#
# Stress axis : x y z
#
# Youngs Moduli (GPa) = 54.21006 38.44059 31.48580
#
# Poissons Ratio (x) = 0.02613 0.24221
# Poissons Ratio (y) = 0.03685 0.07404
# Poissons Ratio (z) = 0.41702 0.09040
#
# Static dielectric constant tensor:
#      x y z
#    x 3.380910 0.070630 0.060250 
#    y 0.070630 3.445170 -0.174160 
#    z 0.060250 -0.174160 3.411020 
# 
# 
# High freq. dielectric constant tensor:
#      x y z
#    x 1.751250 0.005630 0.005410 
#    y 0.005630 1.751940 -0.014410 
#    z 0.005410 -0.014410 1.749890 
# 
# From -- ./inp_files/398241.got.cif
#   From: 2010.06.25/outbox.cif.g09.slc.cpg/sg2_200_cif.got.tgz:398241.got - 2010.06.27 13:26:56.
