data_PCOD8016383
_publ_section_title
;
Structure prediction by ZEFSAII (Michael W. Deem and Ramdas Pophale) SiO2 
 PCOD8016383
Probable space group: P -1
;
_chemical_formula_sum "Si O2"
_cell_formula_units_Z 16
_cell_length_a 9.426019
_cell_length_b 24.332373
_cell_length_c 21.187112
_cell_angle_alpha 160.147235
_cell_angle_beta 27.684016
_cell_angle_gamma 150.585539
_cell_volume 743.907488
_symmetry_space_group_name_H-M "P -1"
_symmetry_group_IT_number 2
_symmetry_cell_setting 'triclinic'
loop_
_space_group_symop_operation_xyz
x,y,z
-x,-y,-z
loop_
_atom_site_type_symbol
_atom_site_label
_atom_site_fract_x
_atom_site_fract_y
_atom_site_fract_z
Si Si1 0.322920 0.445531 0.322158
Si Si2 0.345794 0.112934 0.499030
Si Si3 0.432851 0.402846 0.486977
Si Si4 0.326154 0.343806 0.984593
Si Si5 0.286410 0.699667 0.332450
Si Si6 0.669685 0.536779 0.166689
Si Si7 0.195514 0.862939 0.956197
Si Si8 0.826003 0.930735 0.057433
O O1 0.480103 0.459182 0.343651
O O2 0.555379 0.564924 0.311857
O O3 0.000000 0.500000 0.500000
O O4 0.327580 0.262047 0.100001
O O5 0.494776 0.145492 0.546590
O O6 0.326115 0.296960 0.691410
O O7 0.571535 0.038303 0.285003
O O8 0.000000 0.000000 0.500000
O O9 0.500000 0.500000 0.500000
O O10 0.689341 0.297460 0.285333
O O11 0.077259 0.286526 0.508179
O O12 0.566573 0.282536 0.776721
O O13 0.250859 0.510875 0.167107
O O14 0.459620 0.380759 0.042661
O O15 0.021023 0.191760 0.954587
O O16 0.000000 0.500000 0.000000
O O17 0.043530 0.946874 0.050506
O O18 0.500000 0.000000 0.000000
O O19 0.000000 0.000000 0.000000
#
# Coordination Sequence:
#
# PCOD8016383 Si02
#       8
#     2   2   2   2   2   2   2   2
#     4  12  24  44  73 101 134 187 244 290 348 423
#     4  11  26  45  68 104 144 186 235 296 363 423
#     4  12  25  45  73 107 139 186 241 297 353 432
#     4  10  21  44  69 101 139 183 241 293 346 431
#     4  10  23  43  72 102 139 187 238 292 357 426
#     4  11  22  43  73  99 136 183 241 294 345 427
#     4  12  26  45  69 104 147 186 231 298 365 420
#     4  12  27  45  69 102 146 185 236 298 361 421
#
# _framework density 21.508050999999998
#
# number of rings (size 3 to 8) (size 9 to 14) (size 15 to 20)
#    0.000    0.750    3.750    3.000    5.250    3.000 
#    0.000    1.250    0.000    0.000    0.000    0.000 
#    0.000    0.000    0.000    0.000    0.000    0.000 
#
# Total GULP energy -198276.503536 kJ/mol
# GULP energy per Si atom -12392.281471 kJ/mol
# Density = 2.145910 g / cm^3
# Si number density = 21.508051 Si / 1000 Ang^3
#
#
#
# Elastic Constant Matrix: (Units=GPa)
#
#
# Indices 1 2 3 4 5 6 
#
# 1 129.8767 59.8744 31.5822 -14.8787 17.7361 3.8037
# 2 59.8744 146.5352 34.7815 -25.6554 13.6525 3.9517
# 3 31.5822 34.7815 100.8386 -26.5563 2.3038 4.7126
# 4 -14.8787 -25.6554 -26.5563 45.2652 6.1178 7.6871
# 5 17.7361 13.6525 2.3038 6.1178 39.5768 -2.5855
# 6 3.8037 3.9517 4.7126 7.6871 -2.5855 39.7047
#
#
#
# Elastic Compliance Matrix: (Units=1/GPa)
#
#
# Indices 1 2 3 4 5 6 
#
# 1 0.010249 -0.003216 -0.001650 0.001230 -0.003639 -0.000941
# 2 -0.003216 0.009395 -0.000976 0.004289 -0.002504 -0.001504
# 3 -0.001650 -0.000976 0.012749 0.006960 -0.000916 -0.002665
# 4 0.001230 0.004289 0.006960 0.031419 -0.007813 -0.007962
# 5 -0.003639 -0.002504 -0.000916 -0.007813 0.029292 0.004127
# 6 -0.000941 -0.001504 -0.002665 -0.007962 0.004127 0.027552
#
#
# Mechanical properties :
#
#
# Convention : Reuss Voigt Hill
#
# Bulk Modulus (GPa) = 48.28983 69.96963 59.12973
# Shear Modulus (GPa) = 35.90835 41.64351 38.77593
#
# Velocity S-wave (km/s) = 4.09042 4.40498 4.25061
# Velocity P-wave (km/s) = 6.69399 7.64685 7.18623
#
# Compressibility (1/GPa) = 0.02070830
#
# Stress axis : x y z
#
# Youngs Moduli (GPa) = 97.57112 106.43951 78.43936
#
# Poissons Ratio (x) = 0.34236 0.12939
# Poissons Ratio (y) = 0.31384 0.07657
# Poissons Ratio (z) = 0.16095 0.10390
#
# Static dielectric constant tensor:
#      x y z
#    x 4.257320 0.208670 0.296460 
#    y 0.208670 3.914930 -0.030610 
#    z 0.296460 -0.030610 4.686640 
# 
# 
# High freq. dielectric constant tensor:
#      x y z
#    x 1.851930 0.003010 0.002840 
#    y 0.003010 1.848340 -0.009410 
#    z 0.002840 -0.009410 1.853060 
# 
# From -- ./inp_files/500773.got.cif
#   From: 2010.06.25/outbox.cif.g09.slc.cpg/sg2_251_cif.got.tgz:500773.got - 2010.06.27 13:26:56.
