data_PCOD8016060
_publ_section_title
;
Structure prediction by ZEFSAII (Michael W. Deem and Ramdas Pophale) SiO2 
 PCOD8016060
Probable space group: P -1
;
_chemical_formula_sum "Si O2"
_cell_formula_units_Z 16
_cell_length_a 10.774607
_cell_length_b 12.153366
_cell_length_c 20.921424
_cell_angle_alpha 42.706405
_cell_angle_beta 149.757630
_cell_angle_gamma 146.018234
_cell_volume 769.564356
_symmetry_space_group_name_H-M "P -1"
_symmetry_group_IT_number 2
_symmetry_cell_setting 'triclinic'
loop_
_space_group_symop_operation_xyz
x,y,z
-x,-y,-z
loop_
_atom_site_type_symbol
_atom_site_label
_atom_site_fract_x
_atom_site_fract_y
_atom_site_fract_z
Si Si1 0.067295 0.167471 0.509940
Si Si2 0.887959 0.224879 0.702405
Si Si3 0.113908 0.013900 0.812288
Si Si4 0.660083 0.946954 0.541426
Si Si5 0.193862 0.705432 0.035363
Si Si6 0.127131 0.574983 0.741426
Si Si7 0.690504 0.281999 0.776518
Si Si8 0.704814 0.967481 0.855432
O O1 0.402440 0.285434 0.635982
O O2 0.042722 0.323964 0.393678
O O3 0.000000 0.000000 0.500000
O O4 0.849788 0.100691 0.503108
O O5 0.628554 0.234077 0.546989
O O6 0.047908 0.156543 0.757420
O O7 0.128003 0.446926 0.738007
O O8 0.737845 0.066274 0.760012
O O9 0.456303 0.159219 0.882772
O O10 0.887179 0.909998 0.694731
O O11 0.059037 0.834305 0.907530
O O12 0.500000 0.000000 0.500000
O O13 0.164602 0.644372 0.121431
O O14 0.000000 0.500000 0.000000
O O15 0.468214 0.733801 0.844801
O O16 0.959242 0.427855 0.787476
O O17 0.588577 0.057517 0.815812
O O18 0.000000 0.000000 0.000000
#
# Coordination Sequence:
#
# PCOD8016060 Si02
#       8
#     2   2   2   2   2   2   2   2
#     4  12  21  42  71  97 135 172 221 280 339 398
#     4  10  22  42  66  97 126 169 221 265 336 397
#     4  10  23  44  65  89 134 172 215 279 322 394
#     4  10  21  43  69  96 133 179 220 277 345 392
#     4  11  25  42  64  96 127 174 225 265 327 393
#     4  11  24  41  67  99 131 169 219 276 330 405
#     4  11  24  41  65 100 130 173 220 272 336 396
#     4  11  23  41  65  93 134 175 211 270 332 398
#
# _framework density 20.790983000000001
#
# number of rings (size 3 to 8) (size 9 to 14) (size 15 to 20)
#    0.000    1.250    3.750    1.875    0.000    9.000 
#    0.000    1.250    0.000    0.000    0.000    0.000 
#    0.000    0.000    0.000    0.000    0.000    0.000 
#
# Total GULP energy -198287.577376 kJ/mol
# GULP energy per Si atom -12392.973586 kJ/mol
# Density = 2.074366 g / cm^3
# Si number density = 20.790983 Si / 1000 Ang^3
#
#
#
# Elastic Constant Matrix: (Units=GPa)
#
#
# Indices 1 2 3 4 5 6 
#
# 1 88.8566 35.2441 35.3658 7.6103 -7.7183 -7.9194
# 2 35.2441 133.7657 64.9659 15.4857 1.5882 -10.9620
# 3 35.3658 64.9659 170.5062 23.9856 -2.0670 -9.6981
# 4 7.6103 15.4857 23.9856 33.7654 -0.1928 4.7676
# 5 -7.7183 1.5882 -2.0670 -0.1928 36.0177 3.4412
# 6 -7.9194 -10.9620 -9.6981 4.7676 3.4412 24.6526
#
#
#
# Elastic Compliance Matrix: (Units=1/GPa)
#
#
# Indices 1 2 3 4 5 6 
#
# 1 0.013386 -0.002501 -0.001491 -0.001142 0.002653 0.002452
# 2 -0.002501 0.010071 -0.002792 -0.002542 -0.001467 0.003272
# 3 -0.001491 -0.002792 0.007982 -0.004373 0.000022 0.002262
# 4 -0.001142 -0.002542 -0.004373 0.035591 0.000782 -0.010209
# 5 0.002653 -0.001467 0.000022 0.000782 0.028781 -0.003960
# 6 0.002452 0.003272 0.002262 -0.010209 -0.003960 0.046223
#
#
# Mechanical properties :
#
#
# Convention : Reuss Voigt Hill
#
# Bulk Modulus (GPa) = 55.96096 73.80889 64.88493
# Shear Modulus (GPa) = 30.94791 36.05731 33.50261
#
# Velocity S-wave (km/s) = 3.86233 4.16898 4.01858
# Velocity P-wave (km/s) = 6.84577 7.66495 7.26691
#
# Compressibility (1/GPa) = 0.01786960
#
# Stress axis : x y z
#
# Youngs Moduli (GPa) = 74.70236 99.29715 125.27800
#
# Poissons Ratio (x) = 0.24835 0.18684
# Poissons Ratio (y) = 0.18684 0.34984
# Poissons Ratio (z) = 0.11141 0.27728
#
# Static dielectric constant tensor:
#      x y z
#    x 3.829500 -0.053840 -0.171900 
#    y -0.053840 3.726350 0.196970 
#    z -0.171900 0.196970 4.174750 
# 
# 
# High freq. dielectric constant tensor:
#      x y z
#    x 1.818120 -0.003530 -0.003190 
#    y -0.003530 1.801640 0.014260 
#    z -0.003190 0.014260 1.837600 
# 
# From -- ./inp_files/72314.got.cif
#   From: 2010.06.25/outbox.cif.g09.slc.cpg/sg2_37_cif.got.tgz:72314.got - 2010.06.27 13:26:56.
