data_PCOD8016108
_publ_section_title
;
Structure prediction by ZEFSAII (Michael W. Deem and Ramdas Pophale) SiO2 
 PCOD8016108
Probable space group: P -1
;
_chemical_formula_sum "Si O2"
_cell_formula_units_Z 16
_cell_length_a 6.997664
_cell_length_b 8.023050
_cell_length_c 14.062802
_cell_angle_alpha 69.394960
_cell_angle_beta 102.864641
_cell_angle_gamma 103.495994
_cell_volume 709.993066
_symmetry_space_group_name_H-M "P -1"
_symmetry_group_IT_number 2
_symmetry_cell_setting 'triclinic'
loop_
_space_group_symop_operation_xyz
x,y,z
-x,-y,-z
loop_
_atom_site_type_symbol
_atom_site_label
_atom_site_fract_x
_atom_site_fract_y
_atom_site_fract_z
Si Si1 0.469356 0.765420 0.959531
Si Si2 0.142133 0.918815 0.604707
Si Si3 0.461832 0.386907 0.706599
Si Si4 0.744502 0.903842 0.123057
Si Si5 0.914082 0.900847 0.779599
Si Si6 0.336902 0.437979 0.131390
Si Si7 0.410640 0.885158 0.359266
Si Si8 0.806799 0.378382 0.460048
O O1 0.507495 0.661018 0.889445
O O2 0.369255 0.935371 0.887094
O O3 0.678557 0.838091 0.022810
O O4 0.323493 0.628587 0.040490
O O5 0.143084 0.710652 0.616594
O O6 0.059393 0.921356 0.701364
O O7 0.363579 0.036093 0.602059
O O8 0.000000 0.000000 0.500000
O O9 0.299194 0.263388 0.777105
O O10 0.595141 0.531887 0.758536
O O11 0.599750 0.267086 0.692063
O O12 0.353999 0.491603 0.595821
O O13 0.979276 0.977063 0.146136
O O14 0.874311 0.695034 0.856191
O O15 0.700694 0.956363 0.723165
O O16 0.284177 0.792835 0.451960
O O17 0.000000 0.500000 0.500000
#
# Coordination Sequence:
#
# PCOD8016108 Si02
#       8
#     2   2   2   2   2   2   2   2
#     4   9  21  45  70  94 137 173 213 288 351 399
#     4  12  26  46  70  98 139 185 232 274 332 398
#     4  11  23  41  67  98 133 181 218 274 335 394
#     4  10  21  43  70  96 130 176 224 270 340 418
#     4  12  25  42  71 104 128 181 234 271 336 402
#     4  10  23  40  66 103 131 169 224 281 343 399
#     4  12  25  46  67  96 145 183 225 278 331 396
#     4  12  26  42  67 101 140 181 226 279 336 393
#
# _framework density 22.535430000000002
#
# number of rings (size 3 to 8) (size 9 to 14) (size 15 to 20)
#    0.000    1.000    2.500    3.750    5.250    1.000 
#    0.000    0.000    0.000    0.000    0.000    0.000 
#    0.000    0.000    0.000    0.000    0.000    0.000 
#
# Total GULP energy -198411.924572 kJ/mol
# GULP energy per Si atom -12400.745286 kJ/mol
# Density = 2.248414 g / cm^3
# Si number density = 22.535430 Si / 1000 Ang^3
#
#
#
# Elastic Constant Matrix: (Units=GPa)
#
#
# Indices 1 2 3 4 5 6 
#
# 1 89.0825 36.3302 24.1110 5.7275 5.4461 18.7739
# 2 36.3302 125.6361 26.4433 11.1361 3.1316 9.8372
# 3 24.1110 26.4433 65.3835 3.8883 8.5316 11.9203
# 4 5.7275 11.1361 3.8883 40.5269 1.0199 -9.3634
# 5 5.4461 3.1316 8.5316 1.0199 24.4672 3.2050
# 6 18.7739 9.8372 11.9203 -9.3634 3.2050 46.2079
#
#
#
# Elastic Compliance Matrix: (Units=1/GPa)
#
#
# Indices 1 2 3 4 5 6 
#
# 1 0.014454 -0.002967 -0.002993 -0.002023 -0.001080 -0.004804
# 2 -0.002967 0.009592 -0.002611 -0.002124 0.000514 -0.000629
# 3 -0.002993 -0.002611 0.018729 -0.001210 -0.005093 -0.002951
# 4 -0.002023 -0.002124 -0.001210 0.027346 -0.000938 0.007193
# 5 -0.001080 0.000514 -0.005093 -0.000938 0.043062 -0.001534
# 6 -0.004804 -0.000629 -0.002951 0.007193 -0.001534 0.026052
#
#
# Mechanical properties :
#
#
# Convention : Reuss Voigt Hill
#
# Bulk Modulus (GPa) = 39.01409 50.43013 44.72211
# Shear Modulus (GPa) = 30.31738 35.12156 32.71947
#
# Velocity S-wave (km/s) = 3.67184 3.95207 3.81453
# Velocity P-wave (km/s) = 5.94361 6.57662 6.26811
#
# Compressibility (1/GPa) = 0.02563177
#
# Stress axis : x y z
#
# Youngs Moduli (GPa) = 69.18339 104.25506 53.39375
#
# Poissons Ratio (x) = 0.30937 0.15981
# Poissons Ratio (y) = 0.20530 0.13942
# Poissons Ratio (z) = 0.20707 0.27222
#
# Static dielectric constant tensor:
#      x y z
#    x 3.815970 0.074470 0.001550 
#    y 0.074470 4.382500 0.085670 
#    z 0.001550 0.085670 4.151530 
# 
# 
# High freq. dielectric constant tensor:
#      x y z
#    x 1.865640 0.007290 -0.000320 
#    y 0.007290 1.912670 0.002210 
#    z -0.000320 0.002210 1.893900 
# 
# From -- ./inp_files/480359.got.cif
#   From: 2010.06.25/outbox.cif.g09.slc.cpg/sg2_241_cif.got.tgz:480359.got - 2010.06.27 13:26:56.
