data_PCOD8016936
_publ_section_title
;
Structure prediction by ZEFSAII (Michael W. Deem and Ramdas Pophale) SiO2 
 PCOD8016936
Probable space group: P -1
;
_chemical_formula_sum "Si O2"
_cell_formula_units_Z 12
_cell_length_a 8.348388
_cell_length_b 13.003459
_cell_length_c 10.275628
_cell_angle_alpha 60.557709
_cell_angle_beta 30.078227
_cell_angle_gamma 65.470176
_cell_volume 486.733112
_symmetry_space_group_name_H-M "P -1"
_symmetry_group_IT_number 2
_symmetry_cell_setting 'triclinic'
loop_
_space_group_symop_operation_xyz
x,y,z
-x,-y,-z
loop_
_atom_site_type_symbol
_atom_site_label
_atom_site_fract_x
_atom_site_fract_y
_atom_site_fract_z
Si Si1 0.239864 0.719776 0.816046
Si Si2 0.639421 0.676482 0.123875
Si Si3 0.762492 0.587855 0.817306
Si Si4 0.724357 0.574499 0.398267
Si Si5 0.376029 0.155111 0.337709
Si Si6 0.319442 0.898127 0.113195
O O1 0.508135 0.641484 0.609685
O O2 0.399202 0.838347 0.695109
O O3 0.966906 0.751994 0.882515
O O4 0.064806 0.646382 0.100630
O O5 0.706058 0.593841 0.007573
O O6 0.570415 0.580265 0.352068
O O7 0.373373 0.773457 0.226104
O O8 0.732726 0.712205 0.691804
O O9 0.135019 0.547453 0.562149
O O10 0.500000 0.500000 0.000000
O O11 0.057867 0.076505 0.637727
O O12 0.559825 0.101678 0.119834
O O13 0.500000 0.000000 0.000000
#
# Coordination Sequence:
#
# PCOD8016936 Si02
#       6
#     2   2   2   2   2   2
#     4  10  22  40  61  89 134 167 209 251 309 367
#     4   9  24  40  63  92 131 164 215 261 310 374
#     4  11  21  39  63  98 134 175 206 251 311 383
#     4  10  22  37  60  90 135 169 206 243 315 371
#     4  11  24  42  66  96 129 165 214 263 309 381
#     4  11  25  46  70  92 122 165 216 273 326 366
#
# _framework density 24.654170000000001
#
# number of rings (size 3 to 8) (size 9 to 14) (size 15 to 20)
#    1.000    0.667    1.667    2.000    7.000    4.000 
#    0.000    1.667    0.000    0.000    0.000    0.000 
#    0.000    0.000    0.000    0.000    0.000    0.000 
#
# Total GULP energy -148766.988132 kJ/mol
# GULP energy per Si atom -12397.249011 kJ/mol
# Density = 2.459806 g / cm^3
# Si number density = 24.654170 Si / 1000 Ang^3
#
#
#
# Elastic Constant Matrix: (Units=GPa)
#
#
# Indices 1 2 3 4 5 6 
#
# 1 113.2074 36.2083 46.2398 -3.7352 -19.6866 53.2223
# 2 36.2083 46.9848 12.1871 1.9098 6.2148 32.0987
# 3 46.2398 12.1871 132.9101 7.2314 -1.8772 18.8478
# 4 -3.7352 1.9098 7.2314 30.3918 10.6551 -6.5022
# 5 -19.6866 6.2148 -1.8772 10.6551 34.2387 -3.1204
# 6 53.2223 32.0987 18.8478 -6.5022 -3.1204 45.9246
#
#
#
# Elastic Compliance Matrix: (Units=1/GPa)
#
#
# Indices 1 2 3 4 5 6 
#
# 1 0.026776 -0.002563 -0.004645 -0.006590 0.015175 -0.027235
# 2 -0.002563 0.046019 0.001328 -0.006527 -0.010583 -0.031383
# 3 -0.004645 0.001328 0.009066 -0.002141 -0.001720 0.000315
# 4 -0.006590 -0.006527 -0.002141 0.041813 -0.014090 0.018040
# 5 0.015175 -0.010583 -0.001720 -0.014090 0.043366 -0.008532
# 6 -0.027235 -0.031383 0.000315 0.018040 -0.008532 0.077118
#
#
# Mechanical properties :
#
#
# Convention : Reuss Voigt Hill
#
# Bulk Modulus (GPa) = 14.26525 53.59695 33.93110
# Shear Modulus (GPa) = 17.90292 35.34217 26.62254
#
# Velocity S-wave (km/s) = 2.69766 3.79029 3.28966
# Velocity P-wave (km/s) = 3.93724 6.39857 5.31242
#
# Compressibility (1/GPa) = 0.07010040
#
# Stress axis : x y z
#
# Youngs Moduli (GPa) = 37.34711 21.73010 110.30412
#
# Poissons Ratio (x) = 0.05569 0.51241
# Poissons Ratio (y) = 0.09571 -0.14647
# Poissons Ratio (z) = 0.17349 -0.02886
#
# Static dielectric constant tensor:
#      x y z
#    x 4.758680 0.244980 -0.423800 
#    y 0.244980 4.111200 -0.086480 
#    z -0.423800 -0.086480 4.823000 
# 
# 
# High freq. dielectric constant tensor:
#      x y z
#    x 1.994140 0.022890 -0.027710 
#    y 0.022890 1.956500 -0.008730 
#    z -0.027710 -0.008730 2.007750 
# 
# From -- ./inp_files/28580.got.cif
#   From: 2010.06.25/outbox.cif.g09.slc.cpg/sg2_15_cif.got.tgz:28580.got - 2010.06.27 13:26:56.
