data_PCOD8016270
_publ_section_title
;
Structure prediction by ZEFSAII (Michael W. Deem and Ramdas Pophale) SiO2 
 PCOD8016270
Probable space group: P -1
;
_chemical_formula_sum "Si O2"
_cell_formula_units_Z 12
_cell_length_a 7.347633
_cell_length_b 8.105504
_cell_length_c 10.571072
_cell_angle_alpha 82.841107
_cell_angle_beta 132.731020
_cell_angle_gamma 108.575122
_cell_volume 434.556851
_symmetry_space_group_name_H-M "P -1"
_symmetry_group_IT_number 2
_symmetry_cell_setting 'triclinic'
loop_
_space_group_symop_operation_xyz
x,y,z
-x,-y,-z
loop_
_atom_site_type_symbol
_atom_site_label
_atom_site_fract_x
_atom_site_fract_y
_atom_site_fract_z
Si Si1 0.183826 0.455432 0.691848
Si Si2 0.222231 0.097691 0.737708
Si Si3 0.006067 0.269648 0.107986
Si Si4 0.187995 0.649400 0.235057
Si Si5 0.442851 0.817239 0.884879
Si Si6 0.325363 0.116382 0.436331
O O1 0.011325 0.374015 0.740395
O O2 0.000000 0.500000 0.500000
O O3 0.295640 0.301618 0.706458
O O4 0.419132 0.638866 0.812469
O O5 0.395003 0.982126 0.768899
O O6 0.281719 0.111715 0.918036
O O7 0.916915 0.991181 0.578085
O O8 0.175390 0.473344 0.173718
O O9 0.212888 0.168438 0.247995
O O10 0.786285 0.235378 0.114303
O O11 0.885203 0.222766 0.914933
O O12 0.490693 0.719990 0.414576
O O13 0.500000 0.000000 0.500000
#
# Coordination Sequence:
#
# PCOD8016270 Si02
#       6
#     2   2   2   2   2   2
#     4  11  23  43  65  95 132 172 217 270 323 385
#     4  10  21  44  65  95 128 169 220 263 324 384
#     4   9  21  42  69  93 127 170 214 271 320 381
#     4  10  21  44  66  97 126 168 221 264 327 381
#     4   9  21  44  67  93 128 169 221 266 321 387
#     4  11  21  40  63  99 133 165 211 265 327 388
#
# _framework density 27.614336000000002
#
# number of rings (size 3 to 8) (size 9 to 14) (size 15 to 20)
#    0.000    2.000    1.667    1.000    0.000    1.333 
#   30.000    0.000    0.000    0.000    0.000    0.000 
#    0.000    0.000    0.000    0.000    0.000    0.000 
#
# Total GULP energy -148693.814746 kJ/mol
# GULP energy per Si atom -12391.151229 kJ/mol
# Density = 2.755148 g / cm^3
# Si number density = 27.614336 Si / 1000 Ang^3
#
#
#
# Elastic Constant Matrix: (Units=GPa)
#
#
# Indices 1 2 3 4 5 6 
#
# 1 45.4456 17.8321 7.6527 -11.0966 2.9313 -0.3406
# 2 17.8321 173.4609 36.9967 -4.6212 13.9659 -22.1967
# 3 7.6527 36.9967 136.8874 -17.5829 16.6214 17.5258
# 4 -11.0966 -4.6212 -17.5829 76.6365 8.1905 14.0567
# 5 2.9313 13.9659 16.6214 8.1905 32.6088 -4.6151
# 6 -0.3406 -22.1967 17.5258 14.0567 -4.6151 19.8124
#
#
#
# Elastic Compliance Matrix: (Units=1/GPa)
#
#
# Indices 1 2 3 4 5 6 
#
# 1 0.025228 -0.004371 0.003167 0.007258 -0.005780 -0.013760
# 2 -0.004371 0.009945 -0.006544 -0.006025 0.004109 0.022088
# 3 0.003167 -0.006544 0.016042 0.011070 -0.013019 -0.032355
# 4 0.007258 -0.006025 0.011070 0.024797 -0.015260 -0.037566
# 5 -0.005780 0.004109 -0.013019 -0.015260 0.045185 0.037372
# 6 -0.013760 0.022088 -0.032355 -0.037566 0.037372 0.138962
#
#
# Mechanical properties :
#
#
# Convention : Reuss Voigt Hill
#
# Bulk Modulus (GPa) = 27.99669 53.41743 40.70706
# Shear Modulus (GPa) = 17.38750 45.36570 31.37660
#
# Velocity S-wave (km/s) = 2.51201 4.05758 3.37448
# Velocity P-wave (km/s) = 4.30977 6.42947 5.47321
#
# Compressibility (1/GPa) = 0.03571851
#
# Stress axis : x y z
#
# Youngs Moduli (GPa) = 39.63853 100.55035 62.33564
#
# Poissons Ratio (x) = 0.43951 -0.19741
# Poissons Ratio (y) = 0.17326 0.40794
# Poissons Ratio (z) = -0.12553 0.65803
#
# Static dielectric constant tensor:
#      x y z
#    x 4.234080 -0.489220 -0.668740 
#    y -0.489220 5.397620 -0.758330 
#    z -0.668740 -0.758330 4.369900 
# 
# 
# High freq. dielectric constant tensor:
#      x y z
#    x 2.069990 0.001610 0.008380 
#    y 0.001610 2.135900 0.001920 
#    z 0.008380 0.001920 2.134660 
# 
# From -- ./inp_files/238073.got.cif
#   From: 2010.06.25/outbox.cif.g09.slc.cpg/sg2_120_cif.got.tgz:238073.got - 2010.06.27 13:26:56.
