data_PCOD8016386
_publ_section_title
;
Structure prediction by ZEFSAII (Michael W. Deem and Ramdas Pophale) SiO2 
 PCOD8016386
Probable space group: P -1
;
_chemical_formula_sum "Si O2"
_cell_formula_units_Z 16
_cell_length_a 21.716041
_cell_length_b 15.311783
_cell_length_c 8.821347
_cell_angle_alpha 66.333568
_cell_angle_beta 123.613376
_cell_angle_gamma 161.275508
_cell_volume 696.428863
_symmetry_space_group_name_H-M "P -1"
_symmetry_group_IT_number 2
_symmetry_cell_setting 'triclinic'
loop_
_space_group_symop_operation_xyz
x,y,z
-x,-y,-z
loop_
_atom_site_type_symbol
_atom_site_label
_atom_site_fract_x
_atom_site_fract_y
_atom_site_fract_z
Si Si1 0.071322 0.497768 0.002372
Si Si2 0.545182 0.176596 0.642005
Si Si3 0.105100 0.076277 0.441989
Si Si4 0.251414 0.710063 0.783017
Si Si5 0.430243 0.154292 0.215754
Si Si6 0.551550 0.619654 0.836155
Si Si7 0.904261 0.757674 0.895624
Si Si8 0.794225 0.555187 0.205211
O O1 0.079778 0.532162 0.809582
O O2 0.310172 0.745497 0.224718
O O3 0.845130 0.152033 0.959430
O O4 0.000000 0.500000 0.000000
O O5 0.472217 0.121443 0.416170
O O6 0.724008 0.469522 0.760035
O O7 0.299277 0.853254 0.625746
O O8 0.373832 0.367141 0.636648
O O9 0.103564 0.146000 0.248550
O O10 0.000000 0.000000 0.500000
O O11 0.963006 0.805541 0.392720
O O12 0.150428 0.487921 0.726394
O O13 0.500000 0.000000 0.000000
O O14 0.551201 0.399762 0.262996
O O15 0.526670 0.235242 0.128950
O O16 0.500000 0.500000 0.000000
O O17 0.825873 0.950148 0.933950
O O18 0.812219 0.644651 0.020920
#
# Coordination Sequence:
#
# PCOD8016386 Si02
#       8
#     2   2   2   2   2   2   2   2
#     4  11  24  43  71 101 139 181 238 292 351 422
#     4  11  23  44  73  98 146 186 232 293 353 417
#     4  12  24  45  71 105 140 186 238 290 349 419
#     4  10  21  44  69 103 142 185 230 292 356 415
#     4  12  24  42  69 104 136 187 237 281 354 421
#     4  12  24  43  73 100 137 184 238 292 346 416
#     4  12  23  45  70 103 143 184 233 296 354 416
#     4  12  24  42  72 102 146 188 232 291 356 417
#
# _framework density 22.974350999999999
#
# number of rings (size 3 to 8) (size 9 to 14) (size 15 to 20)
#    0.000    0.500    7.500    1.875    0.000    3.000 
#    0.000    2.500    0.000    0.000    0.000    0.000 
#    0.000    0.000    0.000    0.000    0.000    0.000 
#
# Total GULP energy -198293.952301 kJ/mol
# GULP energy per Si atom -12393.372019 kJ/mol
# Density = 2.292206 g / cm^3
# Si number density = 22.974351 Si / 1000 Ang^3
#
#
#
# Elastic Constant Matrix: (Units=GPa)
#
#
# Indices 1 2 3 4 5 6 
#
# 1 113.8895 53.9241 33.9004 -5.0914 -16.9228 1.8554
# 2 53.9241 138.4497 39.5241 -21.3526 -9.8649 15.2243
# 3 33.9004 39.5241 91.4765 -18.8396 -0.2452 4.9894
# 4 -5.0914 -21.3526 -18.8396 43.5536 -5.9514 -11.9337
# 5 -16.9228 -9.8649 -0.2452 -5.9514 31.4898 -1.7944
# 6 1.8554 15.2243 4.9894 -11.9337 -1.7944 49.3796
#
#
#
# Elastic Compliance Matrix: (Units=1/GPa)
#
#
# Indices 1 2 3 4 5 6 
#
# 1 0.012200 -0.003713 -0.003111 -0.000739 0.005287 0.001014
# 2 -0.003713 0.010138 -0.002220 0.003282 0.001675 -0.001908
# 3 -0.003111 -0.002220 0.013945 0.004510 -0.001382 0.000432
# 4 -0.000739 0.003282 0.004510 0.028899 0.006457 0.005779
# 5 0.005287 0.001675 -0.001382 0.006457 0.036464 0.002310
# 6 0.001014 -0.001908 0.000432 0.005779 0.002310 0.022238
#
#
# Mechanical properties :
#
#
# Convention : Reuss Voigt Hill
#
# Bulk Modulus (GPa) = 54.95353 66.50143 60.72748
# Shear Modulus (GPa) = 33.77542 39.31576 36.54559
#
# Velocity S-wave (km/s) = 3.83839 4.14126 3.99270
# Velocity P-wave (km/s) = 6.60423 7.20247 6.90982
#
# Compressibility (1/GPa) = 0.01819719
#
# Stress axis : x y z
#
# Youngs Moduli (GPa) = 81.96571 98.63981 71.70930
#
# Poissons Ratio (x) = 0.36621 0.22306
# Poissons Ratio (y) = 0.30430 0.15919
# Poissons Ratio (z) = 0.25496 0.21897
#
# Static dielectric constant tensor:
#      x y z
#    x 4.139850 -0.495550 -0.734720 
#    y -0.495550 7.188060 2.160190 
#    z -0.734720 2.160190 6.131070 
# 
# 
# High freq. dielectric constant tensor:
#      x y z
#    x 1.895920 -0.002720 -0.012370 
#    y -0.002720 1.938720 0.004030 
#    z -0.012370 0.004030 1.895050 
# 
# From -- ./inp_files/347576.got.cif
#   From: 2010.06.25/outbox.cif.g09.slc.cpg/sg2_174_cif.got.tgz:347576.got - 2010.06.27 13:26:56.
