data_PCOD8016278
_publ_section_title
;
Structure prediction by ZEFSAII (Michael W. Deem and Ramdas Pophale) SiO2 
 PCOD8016278
Probable space group: P -1
;
_chemical_formula_sum "Si O2"
_cell_formula_units_Z 14
_cell_length_a 15.006642
_cell_length_b 7.812790
_cell_length_c 8.100573
_cell_angle_alpha 131.977641
_cell_angle_beta 100.834650
_cell_angle_gamma 66.219851
_cell_volume 641.421349
_symmetry_space_group_name_H-M "P -1"
_symmetry_group_IT_number 2
_symmetry_cell_setting 'triclinic'
loop_
_space_group_symop_operation_xyz
x,y,z
-x,-y,-z
loop_
_atom_site_type_symbol
_atom_site_label
_atom_site_fract_x
_atom_site_fract_y
_atom_site_fract_z
Si Si1 0.877755 0.475610 0.468266
Si Si2 0.001576 0.046601 0.722751
Si Si3 0.376250 0.498857 0.098577
Si Si4 0.818915 0.358109 0.058993
Si Si5 0.695822 0.671306 0.725158
Si Si6 0.153648 0.120552 0.038951
Si Si7 0.552359 0.092558 0.718708
O O1 0.970992 0.217480 0.347881
O O2 0.780393 0.458739 0.512484
O O3 0.902800 0.690583 0.708481
O O4 0.853800 0.537197 0.304072
O O5 0.081306 0.161805 0.883239
O O6 0.000000 0.000000 0.500000
O O7 0.894129 0.236800 0.858908
O O8 0.286757 0.486785 0.952054
O O9 0.358073 0.456469 0.256658
O O10 0.383235 0.767526 0.253086
O O11 0.475273 0.279143 0.937334
O O12 0.812762 0.154479 0.054753
O O13 0.619259 0.854158 0.689584
O O14 0.749868 0.826364 0.947137
O O15 0.500000 0.000000 0.500000
#
# Coordination Sequence:
#
# PCOD8016278 Si02
#       7
#     2   2   2   2   2   2   2
#     4   9  20  39  61  89 125 170 209 259 319 368
#     4  11  23  38  59  96 132 168 217 262 312 381
#     4  11  23  42  66  93 130 167 209 277 317 381
#     4  11  21  40  65  89 130 172 212 264 322 375
#     4  10  21  44  65  97 130 164 221 259 324 384
#     4   9  21  41  61  89 130 166 214 260 315 381
#     4  11  24  44  66  95 128 167 216 264 332 382
#
# _framework density 21.826525
#
# number of rings (size 3 to 8) (size 9 to 14) (size 15 to 20)
#    0.857    0.857    1.429    3.857    0.000    3.429 
#   10.286    0.000    0.000    0.000    0.000    0.000 
#    0.000    0.000    0.000    0.000    0.000    0.000 
#
# Total GULP energy -173513.102772 kJ/mol
# GULP energy per Si atom -12393.793055 kJ/mol
# Density = 2.177685 g / cm^3
# Si number density = 21.826525 Si / 1000 Ang^3
#
#
#
# Elastic Constant Matrix: (Units=GPa)
#
#
# Indices 1 2 3 4 5 6 
#
# 1 100.6278 47.4594 31.9557 -22.4299 -7.6668 -5.6537
# 2 47.4594 86.5224 23.3066 -18.0371 9.2584 -1.7132
# 3 31.9557 23.3066 117.4267 -27.1790 7.5964 -1.1400
# 4 -22.4299 -18.0371 -27.1790 35.1891 -7.6883 -4.2306
# 5 -7.6668 9.2584 7.5964 -7.6883 37.2492 -11.1856
# 6 -5.6537 -1.7132 -1.1400 -4.2306 -11.1856 33.1999
#
#
#
# Elastic Compliance Matrix: (Units=1/GPa)
#
#
# Indices 1 2 3 4 5 6 
#
# 1 0.017378 -0.008210 -0.001693 0.008522 0.009782 0.006859
# 2 -0.008210 0.017121 -0.000423 0.001552 -0.006273 -0.002445
# 3 -0.001693 -0.000423 0.010712 0.006880 -0.000809 0.000662
# 4 0.008522 0.001552 0.006880 0.044100 0.012556 0.011618
# 5 0.009782 -0.006273 -0.000809 0.012556 0.037883 0.015678
# 6 0.006859 -0.002445 0.000662 0.011618 0.015678 0.037948
#
#
# Mechanical properties :
#
#
# Convention : Reuss Voigt Hill
#
# Bulk Modulus (GPa) = 40.71842 56.66892 48.69367
# Shear Modulus (GPa) = 25.77581 34.58466 30.18024
#
# Velocity S-wave (km/s) = 3.44021 3.98493 3.72254
# Velocity P-wave (km/s) = 5.87163 6.86968 6.39017
#
# Compressibility (1/GPa) = 0.02455891
#
# Stress axis : x y z
#
# Youngs Moduli (GPa) = 57.54474 58.40647 93.35419
#
# Poissons Ratio (x) = 0.47953 0.15806
# Poissons Ratio (y) = 0.47246 0.03946
# Poissons Ratio (z) = 0.09743 0.02469
#
# Static dielectric constant tensor:
#      x y z
#    x 3.953610 -0.191090 0.171740 
#    y -0.191090 3.810320 -0.048870 
#    z 0.171740 -0.048870 4.080350 
# 
# 
# High freq. dielectric constant tensor:
#      x y z
#    x 1.855530 -0.016210 0.001550 
#    y -0.016210 1.849160 -0.003530 
#    z 0.001550 -0.003530 1.860790 
# 
# From -- ./inp_files/293502.got.cif
#   From: 2010.06.25/outbox.cif.g09.slc.cpg/sg2_147_cif.got.tgz:293502.got - 2010.06.27 13:26:56.
