data_PCOD8016948
_publ_section_title
;
Structure prediction by ZEFSAII (Michael W. Deem and Ramdas Pophale) SiO2 
 PCOD8016948
Probable space group: P -1
;
_chemical_formula_sum "Si O2"
_cell_formula_units_Z 14
_cell_length_a 19.523677
_cell_length_b 25.650821
_cell_length_c 5.383100
_cell_angle_alpha 129.380272
_cell_angle_beta 61.201465
_cell_angle_gamma 160.746917
_cell_volume 610.082568
_symmetry_space_group_name_H-M "P -1"
_symmetry_group_IT_number 2
_symmetry_cell_setting 'triclinic'
loop_
_space_group_symop_operation_xyz
x,y,z
-x,-y,-z
loop_
_atom_site_type_symbol
_atom_site_label
_atom_site_fract_x
_atom_site_fract_y
_atom_site_fract_z
Si Si1 0.466113 0.140922 0.853801
Si Si2 0.380969 0.795439 0.719996
Si Si3 0.070069 0.665098 0.886209
Si Si4 0.918308 0.602729 0.463172
Si Si5 0.953252 0.766464 0.673814
Si Si6 0.642230 0.570805 0.277835
Si Si7 0.822224 0.797067 0.244386
O O1 0.479023 0.102157 0.473391
O O2 0.224517 0.984358 0.785466
O O3 0.468557 0.100029 0.981875
O O4 0.675117 0.365064 0.165440
O O5 0.305059 0.811703 0.916759
O O6 0.153534 0.564281 0.412733
O O7 0.067893 0.707418 0.764728
O O8 0.068738 0.709670 0.271922
O O9 0.880023 0.652347 0.667059
O O10 0.779107 0.616276 0.285299
O O11 0.891411 0.792373 0.928395
O O12 0.500000 0.500000 0.500000
O O13 0.836584 0.777438 0.435048
O O14 0.439603 0.383622 0.872609
O O15 0.000000 0.000000 0.500000
#
# Coordination Sequence:
#
# PCOD8016948 Si02
#       7
#     2   2   2   2   2   2   2
#     4  10  22  37  60  94 129 169 214 266 323 374
#     4   9  18  37  61  90 124 171 225 263 310 381
#     4   9  18  37  63  86 125 175 219 265 315 376
#     4  10  22  38  60  93 127 173 213 263 330 372
#     4  11  25  39  63  92 132 161 207 266 322 391
#     4   9  22  43  65  93 125 162 206 262 319 396
#     4  10  23  44  70  95 122 167 215 261 323 395
#
# _framework density 22.947716
#
# number of rings (size 3 to 8) (size 9 to 14) (size 15 to 20)
#    0.000    2.286    0.000    0.857    4.000   10.286 
#    2.571    4.286    0.000    0.000    0.000    0.000 
#    0.000    0.000    0.000    0.000    0.000    0.000 
#
# Total GULP energy -173511.736913 kJ/mol
# GULP energy per Si atom -12393.695494 kJ/mol
# Density = 2.289549 g / cm^3
# Si number density = 22.947716 Si / 1000 Ang^3
#
#
#
# Elastic Constant Matrix: (Units=GPa)
#
#
# Indices 1 2 3 4 5 6 
#
# 1 198.2753 67.5221 52.4731 5.2588 22.8772 3.3237
# 2 67.5221 117.7753 23.2435 -9.8716 19.1448 -2.3894
# 3 52.4731 23.2435 67.4223 -8.2061 11.2594 -0.9427
# 4 5.2588 -9.8716 -8.2061 22.7530 -10.1105 4.2862
# 5 22.8772 19.1448 11.2594 -10.1105 36.3618 -1.2155
# 6 3.3237 -2.3894 -0.9427 4.2862 -1.2155 48.2215
#
#
#
# Elastic Compliance Matrix: (Units=1/GPa)
#
#
# Indices 1 2 3 4 5 6 
#
# 1 0.008376 -0.003735 -0.005499 -0.007066 -0.003577 -0.000332
# 2 -0.003735 0.011424 -0.000067 0.004696 -0.002327 0.000346
# 3 -0.005499 -0.000067 0.020224 0.008332 -0.000450 0.000019
# 4 -0.007066 0.004696 0.008332 0.058228 0.015453 -0.003903
# 5 -0.003577 -0.002327 -0.000450 0.015453 0.035401 -0.000359
# 6 -0.000332 0.000346 0.000019 -0.003903 -0.000359 0.021116
#
#
# Mechanical properties :
#
#
# Convention : Reuss Voigt Hill
#
# Bulk Modulus (GPa) = 46.67699 74.43893 60.55796
# Shear Modulus (GPa) = 27.69910 37.48289 32.59100
#
# Velocity S-wave (km/s) = 3.47804 4.04592 3.77268
# Velocity P-wave (km/s) = 6.04266 7.37122 6.73976
#
# Compressibility (1/GPa) = 0.02142383
#
# Stress axis : x y z
#
# Youngs Moduli (GPa) = 119.38509 87.53560 49.44572
#
# Poissons Ratio (x) = 0.32691 0.27190
# Poissons Ratio (y) = 0.44585 0.00330
# Poissons Ratio (z) = 0.65649 0.00584
#
# Static dielectric constant tensor:
#      x y z
#    x 4.877040 0.015480 0.796610 
#    y 0.015480 4.240010 -0.081190 
#    z 0.796610 -0.081190 4.430130 
# 
# 
# High freq. dielectric constant tensor:
#      x y z
#    x 1.917270 -0.005480 0.015100 
#    y -0.005480 1.919130 0.001940 
#    z 0.015100 0.001940 1.894180 
# 
# From -- ./inp_files/51106.got.cif
#   From: 2010.06.25/outbox.cif.g09.slc.cpg/sg2_26_cif.got.tgz:51106.got - 2010.06.27 13:26:56.
