data_PCOD8016003
_publ_section_title
;
Structure prediction by ZEFSAII (Michael W. Deem and Ramdas Pophale) SiO2 
 PCOD8016003
Probable space group: P -1
;
_chemical_formula_sum "Si O2"
_cell_formula_units_Z 14
_cell_length_a 13.062296
_cell_length_b 22.002160
_cell_length_c 16.280379
_cell_angle_alpha 18.984175
_cell_angle_beta 25.905903
_cell_angle_gamma 29.979743
_cell_volume 660.970491
_symmetry_space_group_name_H-M "P -1"
_symmetry_group_IT_number 2
_symmetry_cell_setting 'triclinic'
loop_
_space_group_symop_operation_xyz
x,y,z
-x,-y,-z
loop_
_atom_site_type_symbol
_atom_site_label
_atom_site_fract_x
_atom_site_fract_y
_atom_site_fract_z
Si Si1 0.348114 0.927645 0.130034
Si Si2 0.429499 0.793839 0.797349
Si Si3 0.745974 0.465723 0.320406
Si Si4 0.082162 0.453138 0.244617
Si Si5 0.822481 0.186158 0.885401
Si Si6 0.877628 0.157682 0.200726
Si Si7 0.387513 0.145611 0.137653
O O1 0.258704 0.729482 0.475926
O O2 0.503796 0.905388 0.964445
O O3 0.121332 0.075898 0.086439
O O4 0.500000 0.000000 0.000000
O O5 0.653785 0.641640 0.832608
O O6 0.312025 0.779623 0.811970
O O7 0.500000 0.000000 0.500000
O O8 0.247022 0.742276 0.064508
O O9 0.500000 0.500000 0.500000
O O10 0.962499 0.440744 0.258757
O O11 0.761170 0.645860 0.020217
O O12 0.939582 0.350770 0.546262
O O13 0.078520 0.668340 0.996625
O O14 0.591154 0.136580 0.069342
O O15 0.000000 0.000000 0.000000
O O16 0.790428 0.002921 0.521808
#
# Coordination Sequence:
#
# PCOD8016003 Si02
#       7
#     2   2   2   2   2   2   2
#     4  11  24  42  70 100 137 175 225 278 335 403
#     4  12  24  43  70 101 131 179 232 276 334 399
#     4  10  21  43  68  96 133 179 223 270 336 400
#     4  12  25  44  69  99 140 176 224 285 333 403
#     4  12  23  42  74  95 130 183 225 272 340 400
#     4  12  26  44  67 103 141 173 225 286 332 397
#     4  11  24  44  69  98 138 180 222 274 342 398
#
# _framework density 21.180975
#
# number of rings (size 3 to 8) (size 9 to 14) (size 15 to 20)
#    0.000    0.571    5.714    3.857    0.000    4.571 
#    0.000    0.000    0.000    0.000    0.000    0.000 
#    0.000    0.000    0.000    0.000    0.000    0.000 
#
# Total GULP energy -173664.460191 kJ/mol
# GULP energy per Si atom -12404.604299 kJ/mol
# Density = 2.113277 g / cm^3
# Si number density = 21.180975 Si / 1000 Ang^3
#
#
#
# Elastic Constant Matrix: (Units=GPa)
#
#
# Indices 1 2 3 4 5 6 
#
# 1 122.4302 38.2385 51.9010 -15.6209 -9.5959 -10.6639
# 2 38.2385 109.1937 33.2426 -17.4225 -5.8111 -11.0981
# 3 51.9010 33.2426 144.5846 -17.3630 -6.2445 5.1622
# 4 -15.6209 -17.4225 -17.3630 39.0831 7.2458 2.7129
# 5 -9.5959 -5.8111 -6.2445 7.2458 35.6000 -3.3752
# 6 -10.6639 -11.0981 5.1622 2.7129 -3.3752 42.7959
#
#
#
# Elastic Compliance Matrix: (Units=1/GPa)
#
#
# Indices 1 2 3 4 5 6 
#
# 1 0.010765 -0.002216 -0.003199 0.001355 0.001946 0.002561
# 2 -0.002216 0.011150 -0.001447 0.003177 0.000546 0.002356
# 3 -0.003199 -0.001447 0.008732 0.002164 -0.000233 -0.002381
# 4 0.001355 0.003177 0.002164 0.029503 -0.004870 -0.001354
# 5 0.001946 0.000546 -0.000233 -0.004870 0.029969 0.003327
# 6 0.002561 0.002356 -0.002381 -0.001354 0.003327 0.025251
#
#
# Mechanical properties :
#
#
# Convention : Reuss Voigt Hill
#
# Bulk Modulus (GPa) = 59.09295 69.21919 64.15607
# Shear Modulus (GPa) = 37.10978 40.35090 38.73034
#
# Velocity S-wave (km/s) = 4.19027 4.36943 4.28079
# Velocity P-wave (km/s) = 7.16734 7.62933 7.40194
#
# Compressibility (1/GPa) = 0.01692249
#
# Stress axis : x y z
#
# Youngs Moduli (GPa) = 92.89611 89.68685 114.51538
#
# Poissons Ratio (x) = 0.19871 0.36639
# Poissons Ratio (y) = 0.20582 0.16573
# Poissons Ratio (z) = 0.29722 0.12980
#
# Static dielectric constant tensor:
#      x y z
#    x 3.940850 -0.038260 0.242040 
#    y -0.038260 4.103440 -0.169910 
#    z 0.242040 -0.169910 4.537440 
# 
# 
# High freq. dielectric constant tensor:
#      x y z
#    x 1.834980 -0.010610 0.000220 
#    y -0.010610 1.847010 -0.004000 
#    z 0.000220 -0.004000 1.836790 
# 
# From -- ./inp_files/186222.got.cif
#   From: 2010.06.25/outbox.cif.g09.slc.cpg/sg2_94_cif.got.tgz:186222.got - 2010.06.27 13:26:56.
