data_PCOD8016261
_publ_section_title
;
Structure prediction by ZEFSAII (Michael W. Deem and Ramdas Pophale) SiO2 
 PCOD8016261
Probable space group: P -1
;
_chemical_formula_sum "Si O2"
_cell_formula_units_Z 16
_cell_length_a 26.436929
_cell_length_b 6.706397
_cell_length_c 9.015669
_cell_angle_alpha 59.584845
_cell_angle_beta 36.950758
_cell_angle_gamma 80.677484
_cell_volume 732.309021
_symmetry_space_group_name_H-M "P -1"
_symmetry_group_IT_number 2
_symmetry_cell_setting 'triclinic'
loop_
_space_group_symop_operation_xyz
x,y,z
-x,-y,-z
loop_
_atom_site_type_symbol
_atom_site_label
_atom_site_fract_x
_atom_site_fract_y
_atom_site_fract_z
Si Si1 0.246669 0.541900 0.572350
Si Si2 0.611613 0.647606 0.700299
Si Si3 0.151808 0.207619 0.633841
Si Si4 0.420951 0.564404 0.833658
Si Si5 0.369683 0.016622 0.726166
Si Si6 0.293319 0.097595 0.154707
Si Si7 0.941083 0.701343 0.710574
Si Si8 0.018898 0.322025 0.703030
O O1 0.334231 0.500232 0.446161
O O2 0.214889 0.407398 0.536577
O O3 0.285983 0.851624 0.356428
O O4 0.162651 0.417974 0.932495
O O5 0.648639 0.929053 0.423034
O O6 0.500000 0.500000 0.000000
O O7 0.632082 0.643698 0.828654
O O8 0.212698 0.172179 0.370488
O O9 0.083813 0.316637 0.685819
O O10 0.084932 0.928750 0.969198
O O11 0.530159 0.750019 0.540665
O O12 0.368220 0.739383 0.853600
O O13 0.397543 0.354645 0.835561
O O14 0.288316 0.026099 0.018334
O O15 0.926476 0.649964 0.589087
O O16 0.001993 0.568585 0.684128
O O17 0.000000 0.000000 0.500000
#
# Coordination Sequence:
#
# PCOD8016261 Si02
#       8
#     2   2   2   2   2   2   2   2
#     4  12  24  43  66  94 132 178 218 276 336 391
#     4  10  22  44  67  95 135 174 219 277 333 389
#     4  11  23  42  65  91 127 171 215 271 326 395
#     4  10  21  44  65  90 134 173 216 283 331 388
#     4  10  22  41  66  94 129 174 223 273 333 389
#     4  12  22  41  64  95 128 172 221 272 331 402
#     4  11  23  43  67  96 132 169 216 277 329 396
#     4  10  24  43  64  95 127 167 218 268 335 391
#
# _framework density 21.848703
#
# number of rings (size 3 to 8) (size 9 to 14) (size 15 to 20)
#    0.000    1.250    5.000    0.375    1.750    1.500 
#    4.500    1.250    0.000    0.000    0.000    0.000 
#    0.000    0.000    0.000    0.000    0.000    0.000 
#
# Total GULP energy -198264.375706 kJ/mol
# GULP energy per Si atom -12391.523482 kJ/mol
# Density = 2.179897 g / cm^3
# Si number density = 21.848703 Si / 1000 Ang^3
#
#
#
# Elastic Constant Matrix: (Units=GPa)
#
#
# Indices 1 2 3 4 5 6 
#
# 1 71.4416 41.2955 34.4475 -9.9211 11.6105 -18.0407
# 2 41.2955 127.6438 56.3714 -8.3930 -0.7377 -14.5254
# 3 34.4475 56.3714 105.0748 2.1613 13.2218 -9.1467
# 4 -9.9211 -8.3930 2.1613 45.8804 -1.1937 2.6765
# 5 11.6105 -0.7377 13.2218 -1.1937 42.0849 -3.6725
# 6 -18.0407 -14.5254 -9.1467 2.6765 -3.6725 20.2256
#
#
#
# Elastic Compliance Matrix: (Units=1/GPa)
#
#
# Indices 1 2 3 4 5 6 
#
# 1 0.022859 -0.003863 -0.003726 0.003450 -0.003816 0.014781
# 2 -0.003863 0.011884 -0.005279 0.001491 0.003245 0.003094
# 3 -0.003726 -0.005279 0.013979 -0.002458 -0.003624 -0.001125
# 4 0.003450 0.001491 -0.002458 0.022938 0.000505 0.000093
# 5 -0.003816 0.003245 -0.003624 0.000505 0.026197 0.001977
# 6 0.014781 0.003094 -0.001125 0.000093 0.001977 0.064686
#
#
# Mechanical properties :
#
#
# Convention : Reuss Voigt Hill
#
# Bulk Modulus (GPa) = 43.50330 63.15432 53.32881
# Shear Modulus (GPa) = 25.51797 33.10792 29.31294
#
# Velocity S-wave (km/s) = 3.42122 3.89694 3.66680
# Velocity P-wave (km/s) = 5.96328 7.01543 6.51064
#
# Compressibility (1/GPa) = 0.02298676
#
# Stress axis : x y z
#
# Youngs Moduli (GPa) = 43.74727 84.14445 71.53473
#
# Poissons Ratio (x) = 0.32506 0.26651
# Poissons Ratio (y) = 0.16900 0.37763
# Poissons Ratio (z) = 0.16298 0.44420
#
# Static dielectric constant tensor:
#      x y z
#    x 3.944840 -0.211540 0.282120 
#    y -0.211540 3.983300 0.015440 
#    z 0.282120 0.015440 4.328460 
# 
# 
# High freq. dielectric constant tensor:
#      x y z
#    x 1.838910 -0.016480 0.009630 
#    y -0.016480 1.860120 0.005480 
#    z 0.009630 0.005480 1.881260 
# 
# From -- ./inp_files/105276.got.cif
#   From: 2010.06.25/outbox.cif.g09.slc.cpg/sg2_53_cif.got.tgz:105276.got - 2010.06.27 13:26:56.
