data_PCOD8016815
_publ_section_title
;
Structure prediction by ZEFSAII (Michael W. Deem and Ramdas Pophale) SiO2 
 PCOD8016815
Probable space group: P -1
;
_chemical_formula_sum "Si O2"
_cell_formula_units_Z 16
_cell_length_a 14.937945
_cell_length_b 9.420925
_cell_length_c 13.493077
_cell_angle_alpha 43.390871
_cell_angle_beta 35.645569
_cell_angle_gamma 60.476790
_cell_volume 737.194984
_symmetry_space_group_name_H-M "P -1"
_symmetry_group_IT_number 2
_symmetry_cell_setting 'triclinic'
loop_
_space_group_symop_operation_xyz
x,y,z
-x,-y,-z
loop_
_atom_site_type_symbol
_atom_site_label
_atom_site_fract_x
_atom_site_fract_y
_atom_site_fract_z
Si Si1 0.944800 0.817261 0.367570
Si Si2 0.676281 0.559216 0.848738
Si Si3 0.487097 0.257362 0.757225
Si Si4 0.888515 0.358571 0.867095
Si Si5 0.074744 0.839697 0.451386
Si Si6 0.105164 0.760100 0.864017
Si Si7 0.623878 0.898744 0.862690
Si Si8 0.250575 0.461140 0.753889
O O1 0.804570 0.605094 0.621440
O O2 0.035543 0.774852 0.210414
O O3 0.061439 0.872349 0.328970
O O4 0.857466 0.005177 0.333304
O O5 0.716839 0.373352 0.972515
O O6 0.712812 0.777923 0.768172
O O7 0.500000 0.500000 0.000000
O O8 0.332299 0.294265 0.821093
O O9 0.640747 0.429877 0.490929
O O10 0.507297 0.014552 0.847193
O O11 0.465586 0.275645 0.886882
O O12 0.998180 0.593970 0.672978
O O13 0.851807 0.223117 0.068007
O O14 0.258546 0.906244 0.283391
O O15 0.000000 0.000000 0.500000
O O16 0.220268 0.636330 0.769284
O O17 0.917909 0.660588 0.074432
#
# Coordination Sequence:
#
# PCOD8016815 Si02
#       8
#     2   2   2   2   2   2   2   2
#     4  11  24  42  64  96 130 167 213 264 318 375
#     4  11  24  41  63  89 130 171 204 260 323 386
#     4  10  22  36  56  92 132 158 198 272 312 380
#     4  11  24  42  64  96 130 167 213 264 318 375
#     4  11  21  38  71  97 122 161 222 266 311 368
#     4  11  23  40  67  87 125 171 221 262 313 377
#     4  11  21  38  64  94 122 163 215 255 322 372
#     4  10  22  38  60  91 125 164 213 264 320 361
#
# _framework density 21.703892
#
# number of rings (size 3 to 8) (size 9 to 14) (size 15 to 20)
#    0.000    1.250    2.500    4.875    3.500    6.000 
#    0.000    0.625    0.000    0.000    0.000    0.000 
#    0.000    0.000    0.000    0.000    0.000    0.000 
#
# Total GULP energy -198337.870335 kJ/mol
# GULP energy per Si atom -12396.116896 kJ/mol
# Density = 2.165449 g / cm^3
# Si number density = 21.703892 Si / 1000 Ang^3
#
#
#
# Elastic Constant Matrix: (Units=GPa)
#
#
# Indices 1 2 3 4 5 6 
#
# 1 127.6876 24.7218 42.0593 -2.0153 7.6185 -18.7256
# 2 24.7218 66.1315 1.4795 9.4619 5.7500 -8.0981
# 3 42.0593 1.4795 64.3734 2.4391 5.6523 -4.0858
# 4 -2.0153 9.4619 2.4391 26.7287 -8.4176 1.6663
# 5 7.6185 5.7500 5.6523 -8.4176 40.8827 -5.4653
# 6 -18.7256 -8.0981 -4.0858 1.6663 -5.4653 41.9528
#
#
#
# Elastic Compliance Matrix: (Units=1/GPa)
#
#
# Indices 1 2 3 4 5 6 
#
# 1 0.011645 -0.004222 -0.007445 0.003001 0.000554 0.003611
# 2 -0.004222 0.018375 0.003095 -0.008387 -0.003710 0.001814
# 3 -0.007445 0.003095 0.020694 -0.004414 -0.002941 -0.000918
# 4 0.003001 -0.008387 -0.004414 0.044294 0.010198 -0.001140
# 5 0.000554 -0.003710 -0.002941 0.010198 0.027713 0.002450
# 6 0.003611 0.001814 -0.000918 -0.001140 0.002450 0.026073
#
#
# Mechanical properties :
#
#
# Convention : Reuss Voigt Hill
#
# Bulk Modulus (GPa) = 29.78756 43.85707 36.82231
# Shear Modulus (GPa) = 28.22817 34.57499 31.40158
#
# Velocity S-wave (km/s) = 3.61030 3.99561 3.80783
# Velocity P-wave (km/s) = 5.57973 6.44495 6.02788
#
# Compressibility (1/GPa) = 0.03357106
#
# Stress axis : x y z
#
# Youngs Moduli (GPa) = 85.87302 54.42142 48.32205
#
# Poissons Ratio (x) = 0.22977 0.35974
# Poissons Ratio (y) = 0.36257 -0.14955
# Poissons Ratio (z) = 0.63929 -0.16843
#
# Static dielectric constant tensor:
#      x y z
#    x 4.070090 -0.217960 0.112470 
#    y -0.217960 3.958030 0.094370 
#    z 0.112470 0.094370 3.875580 
# 
# 
# High freq. dielectric constant tensor:
#      x y z
#    x 1.855090 -0.023590 0.013500 
#    y -0.023590 1.853280 0.017320 
#    z 0.013500 0.017320 1.848380 
# 
# From -- ./inp_files/446756.got.cif
#   From: 2010.06.25/outbox.cif.g09.slc.cpg/sg2_224_cif.got.tgz:446756.got - 2010.06.27 13:26:56.
