data_PCOD8016199
_publ_section_title
;
Structure prediction by ZEFSAII (Michael W. Deem and Ramdas Pophale) SiO2 
 PCOD8016199
Probable space group: P -1
;
_chemical_formula_sum "Si O2"
_cell_formula_units_Z 16
_cell_length_a 14.781773
_cell_length_b 9.143290
_cell_length_c 9.941851
_cell_angle_alpha 58.331229
_cell_angle_beta 133.592999
_cell_angle_gamma 132.031933
_cell_volume 717.815496
_symmetry_space_group_name_H-M "P -1"
_symmetry_group_IT_number 2
_symmetry_cell_setting 'triclinic'
loop_
_space_group_symop_operation_xyz
x,y,z
-x,-y,-z
loop_
_atom_site_type_symbol
_atom_site_label
_atom_site_fract_x
_atom_site_fract_y
_atom_site_fract_z
Si Si1 0.775991 0.770949 0.229901
Si Si2 0.569528 0.367532 0.088589
Si Si3 0.601069 0.668594 0.331741
Si Si4 0.890773 0.560246 0.299544
Si Si5 0.871713 0.575468 0.972070
Si Si6 0.605041 0.949212 0.708286
Si Si7 0.642489 0.717254 0.639157
Si Si8 0.153566 0.800107 0.988429
O O1 0.620866 0.601222 0.079215
O O2 0.751958 0.719458 0.389216
O O3 0.904794 0.744114 0.316010
O O4 0.806076 0.991486 0.138480
O O5 0.725183 0.379840 0.223736
O O6 0.481531 0.205904 0.188885
O O7 0.494949 0.301171 0.895722
O O8 0.639993 0.800179 0.445791
O O9 0.521684 0.443651 0.411876
O O10 0.000000 0.500000 0.500000
O O11 0.934099 0.641696 0.153774
O O12 0.739075 0.612131 0.793862
O O13 0.992041 0.702175 0.924810
O O14 0.826583 0.344204 0.024271
O O15 0.689523 0.882717 0.721963
O O16 0.500000 0.000000 0.500000
O O17 0.732669 0.154241 0.798387
#
# Coordination Sequence:
#
# PCOD8016199 Si02
#       8
#     2   2   2   2   2   2   2   2
#     4  10  21  43  73  94 132 181 225 280 343 402
#     4  10  21  43  73  96 140 179 220 284 345 401
#     4  11  20  39  74 101 133 180 220 281 345 402
#     4  10  23  41  71  98 133 183 228 279 341 412
#     4  11  26  47  65  97 141 183 230 287 342 400
#     4  12  26  43  71 107 138 182 229 278 353 412
#     4  11  24  43  69 103 139 179 228 282 343 408
#     4  11  26  45  69  94 139 186 228 284 344 407
#
# _framework density 22.289852
#
# number of rings (size 3 to 8) (size 9 to 14) (size 15 to 20)
#    0.750    0.500    3.750    1.875    5.250    4.000 
#    2.250    3.125    0.000    0.000    0.000    0.000 
#    0.000    0.000    0.000    0.000    0.000    0.000 
#
# Total GULP energy -198234.505150 kJ/mol
# GULP energy per Si atom -12389.656572 kJ/mol
# Density = 2.223912 g / cm^3
# Si number density = 22.289852 Si / 1000 Ang^3
#
#
#
# Elastic Constant Matrix: (Units=GPa)
#
#
# Indices 1 2 3 4 5 6 
#
# 1 143.3447 48.9560 66.5738 -10.6586 -14.9238 -17.8742
# 2 48.9560 85.5053 27.2356 -14.4490 2.3136 -2.5932
# 3 66.5738 27.2356 143.6439 -11.6068 -14.0891 -7.4344
# 4 -10.6586 -14.4490 -11.6068 21.8768 -6.1441 3.5904
# 5 -14.9238 2.3136 -14.0891 -6.1441 43.1420 -2.4854
# 6 -17.8742 -2.5932 -7.4344 3.5904 -2.4854 18.2045
#
#
#
# Elastic Compliance Matrix: (Units=1/GPa)
#
#
# Indices 1 2 3 4 5 6 
#
# 1 0.012345 -0.005727 -0.003745 -0.000363 0.003901 0.010380
# 2 -0.005727 0.016329 -0.000263 0.008137 -0.002089 -0.005295
# 3 -0.003745 -0.000263 0.009237 0.003584 0.002226 -0.000345
# 4 -0.000363 0.008137 0.003584 0.056380 0.008192 -0.007735
# 5 0.003901 -0.002089 0.002226 0.008192 0.026909 0.006499
# 6 0.010380 -0.005295 -0.000345 -0.007735 0.006499 0.066641
#
#
# Mechanical properties :
#
#
# Convention : Reuss Voigt Hill
#
# Bulk Modulus (GPa) = 54.22840 73.11385 63.67112
# Shear Modulus (GPa) = 23.42375 31.95988 27.69181
#
# Velocity S-wave (km/s) = 3.24523 3.79070 3.52852
# Velocity P-wave (km/s) = 6.19868 7.21331 6.72516
#
# Compressibility (1/GPa) = 0.01844052
#
# Stress axis : x y z
#
# Youngs Moduli (GPa) = 81.00477 61.24014 108.25662
#
# Poissons Ratio (x) = 0.35074 0.40543
# Poissons Ratio (y) = 0.46394 0.02848
# Poissons Ratio (z) = 0.30337 0.01611
#
# Static dielectric constant tensor:
#      x y z
#    x 4.502260 0.000390 -0.304320 
#    y 0.000390 3.995100 0.181190 
#    z -0.304320 0.181190 4.245050 
# 
# 
# High freq. dielectric constant tensor:
#      x y z
#    x 1.901160 0.002130 -0.010720 
#    y 0.002130 1.851870 0.006330 
#    z -0.010720 0.006330 1.873960 
# 
# From -- ./inp_files/294603.got.cif
#   From: 2010.06.25/outbox.cif.g09.slc.cpg/sg2_148_cif.got.tgz:294603.got - 2010.06.27 13:26:56.
