data_PCOD8016303
_publ_section_title
;
Structure prediction by ZEFSAII (Michael W. Deem and Ramdas Pophale) SiO2 
 PCOD8016303
Probable space group: P -1
;
_chemical_formula_sum "Si O2"
_cell_formula_units_Z 12
_cell_length_a 14.816870
_cell_length_b 8.880565
_cell_length_c 9.676765
_cell_angle_alpha 113.206559
_cell_angle_beta 28.380078
_cell_angle_gamma 112.401021
_cell_volume 554.522847
_symmetry_space_group_name_H-M "P -1"
_symmetry_group_IT_number 2
_symmetry_cell_setting 'triclinic'
loop_
_space_group_symop_operation_xyz
x,y,z
-x,-y,-z
loop_
_atom_site_type_symbol
_atom_site_label
_atom_site_fract_x
_atom_site_fract_y
_atom_site_fract_z
Si Si1 0.808089 0.127984 0.889659
Si Si2 0.499748 0.361585 0.334929
Si Si3 0.667451 0.451796 0.848967
Si Si4 0.889673 0.784151 0.699206
Si Si5 0.100027 0.815302 0.685480
Si Si6 0.094139 0.184064 0.777933
O O1 0.901046 0.170812 0.631146
O O2 0.970880 0.184251 0.803897
O O3 0.754009 0.930162 0.897426
O O4 0.612512 0.215321 0.198146
O O5 0.500000 0.500000 0.500000
O O6 0.285311 0.304940 0.554973
O O7 0.611905 0.433032 0.076480
O O8 0.824560 0.602913 0.671751
O O9 0.733838 0.286107 0.634603
O O10 0.500000 0.500000 0.000000
O O11 0.910544 0.781686 0.835719
O O12 0.166823 0.007980 0.656782
O O13 0.045316 0.757992 0.893304
#
# Coordination Sequence:
#
# PCOD8016303 Si02
#       6
#     2   2   2   2   2   2
#     4  10  23  43  70  93 128 174 214 267 323 378
#     4  12  27  43  66 101 131 168 216 271 321 380
#     4  12  26  40  66 100 130 171 215 267 322 383
#     4  10  21  44  66  93 127 173 218 261 323 384
#     4  10  22  44  67  92 131 174 211 267 324 376
#     4  10  24  44  67  96 131 171 216 265 324 384
#
# _framework density 21.640229000000001
#
# number of rings (size 3 to 8) (size 9 to 14) (size 15 to 20)
#    0.000    1.333    1.667    2.500    7.000    1.333 
#    0.000    3.333    0.000    0.000    0.000    0.000 
#    0.000    0.000    0.000    0.000    0.000    0.000 
#
# Total GULP energy -148769.695754 kJ/mol
# GULP energy per Si atom -12397.474646 kJ/mol
# Density = 2.159097 g / cm^3
# Si number density = 21.640229 Si / 1000 Ang^3
#
#
#
# Elastic Constant Matrix: (Units=GPa)
#
#
# Indices 1 2 3 4 5 6 
#
# 1 83.0315 20.5291 34.7301 6.0590 2.1703 -4.7175
# 2 20.5291 81.1984 40.0107 9.3390 2.8494 3.0889
# 3 34.7301 40.0107 103.9777 26.1345 13.2118 -8.6646
# 4 6.0590 9.3390 26.1345 37.4949 3.9070 -3.4573
# 5 2.1703 2.8494 13.2118 3.9070 33.0693 2.6482
# 6 -4.7175 3.0889 -8.6646 -3.4573 2.6482 32.1544
#
#
#
# Elastic Compliance Matrix: (Units=1/GPa)
#
#
# Indices 1 2 3 4 5 6 
#
# 1 0.014260 -0.001623 -0.004448 0.001226 0.000747 0.001120
# 2 -0.001623 0.015763 -0.006008 0.000055 0.001421 -0.003482
# 3 -0.004448 -0.006008 0.016497 -0.008393 -0.005101 0.003887
# 4 0.001226 0.000055 -0.008393 0.032516 -0.000691 0.001466
# 5 0.000747 0.001421 -0.005101 -0.000691 0.032520 -0.004154
# 6 0.001120 -0.003482 0.003887 0.001466 -0.004154 0.033146
#
#
# Mechanical properties :
#
#
# Convention : Reuss Voigt Hill
#
# Bulk Modulus (GPa) = 44.72044 50.97194 47.84619
# Shear Modulus (GPa) = 28.35855 32.07291 30.21573
#
# Velocity S-wave (km/s) = 3.62395 3.85398 3.74073
# Velocity P-wave (km/s) = 6.18231 6.58859 6.38868
#
# Compressibility (1/GPa) = 0.02236114
#
# Stress axis : x y z
#
# Youngs Moduli (GPa) = 70.12540 63.44146 60.61836
#
# Poissons Ratio (x) = 0.10299 0.26964
# Poissons Ratio (y) = 0.11384 0.36418
# Poissons Ratio (z) = 0.31193 0.38114
#
# Static dielectric constant tensor:
#      x y z
#    x 3.907950 -0.224240 0.140860 
#    y -0.224240 3.687830 0.200580 
#    z 0.140860 0.200580 3.771530 
# 
# 
# High freq. dielectric constant tensor:
#      x y z
#    x 1.858560 -0.005160 0.014510 
#    y -0.005160 1.856450 0.014090 
#    z 0.014510 0.014090 1.841650 
# 
# From -- ./inp_files/145139.got.cif
#   From: 2010.06.25/outbox.cif.g09.slc.cpg/sg2_73_cif.got.tgz:145139.got - 2010.06.27 13:26:56.
