data_PCOD8016711
_publ_section_title
;
Structure prediction by ZEFSAII (Michael W. Deem and Ramdas Pophale) SiO2 
 PCOD8016711
Probable space group: P -1
;
_chemical_formula_sum "Si O2"
_cell_formula_units_Z 16
_cell_length_a 11.916937
_cell_length_b 9.063727
_cell_length_c 19.799179
_cell_angle_alpha 48.723557
_cell_angle_beta 31.662769
_cell_angle_gamma 36.628613
_cell_volume 667.881957
_symmetry_space_group_name_H-M "P -1"
_symmetry_group_IT_number 2
_symmetry_cell_setting 'triclinic'
loop_
_space_group_symop_operation_xyz
x,y,z
-x,-y,-z
loop_
_atom_site_type_symbol
_atom_site_label
_atom_site_fract_x
_atom_site_fract_y
_atom_site_fract_z
Si Si1 0.791665 0.758959 0.946789
Si Si2 0.300564 0.582747 0.488801
Si Si3 0.305171 0.957712 0.578987
Si Si4 0.552901 0.506223 0.167592
Si Si5 0.036924 0.695161 0.453768
Si Si6 0.810758 0.161923 0.858404
Si Si7 0.106799 0.048963 0.866133
Si Si8 0.246470 0.410345 0.709235
O O1 0.007509 0.617263 0.818411
O O2 0.876236 0.891242 0.912253
O O3 0.760977 0.568236 0.060627
O O4 0.500000 0.000000 0.000000
O O5 0.555721 0.328697 0.402024
O O6 0.057069 0.708016 0.520979
O O7 0.189800 0.546356 0.624930
O O8 0.445666 0.711619 0.387564
O O9 0.500000 0.000000 0.500000
O O10 0.232927 0.039584 0.512327
O O11 0.030278 0.136524 0.705540
O O12 0.302719 0.655350 0.301318
O O13 0.471525 0.608575 0.099915
O O14 0.674991 0.219805 0.198468
O O15 0.000000 0.500000 0.500000
O O16 0.853524 0.225934 0.891877
O O17 0.244011 0.177151 0.774699
O O18 0.000000 0.000000 0.000000
#
# Coordination Sequence:
#
# PCOD8016711 Si02
#       8
#     2   2   2   2   2   2   2   2
#     4  10  21  46  72  97 135 186 239 279 348 421
#     4  11  24  45  68 100 149 180 230 290 354 421
#     4  11  20  39  71 101 132 175 228 285 347 407
#     4  10  24  43  67 101 138 175 234 289 344 411
#     4  11  24  40  70 108 129 178 238 283 345 419
#     4  10  23  42  71  96 133 184 227 285 343 411
#     4  12  25  43  66 101 138 178 233 280 347 411
#     4  11  25  45  70 101 145 194 223 290 366 405
#
# _framework density 23.956327999999999
#
# number of rings (size 3 to 8) (size 9 to 14) (size 15 to 20)
#    0.000    1.250    3.750    1.500    3.500    2.000 
#    0.000    3.750    0.000    0.000    0.000    0.000 
#    0.000    0.000    0.000    0.000    0.000    0.000 
#
# Total GULP energy -198247.076470 kJ/mol
# GULP energy per Si atom -12390.442279 kJ/mol
# Density = 2.390180 g / cm^3
# Si number density = 23.956328 Si / 1000 Ang^3
#
#
#
# Elastic Constant Matrix: (Units=GPa)
#
#
# Indices 1 2 3 4 5 6 
#
# 1 140.0566 18.2461 28.9734 -23.6532 -14.7543 -2.5827
# 2 18.2461 70.8625 10.5562 -22.3629 -20.5106 5.2520
# 3 28.9734 10.5562 113.7406 -28.2504 -13.2301 13.5750
# 4 -23.6532 -22.3629 -28.2504 38.9791 10.8869 -5.7042
# 5 -14.7543 -20.5106 -13.2301 10.8869 35.4487 -8.0344
# 6 -2.5827 5.2520 13.5750 -5.7042 -8.0344 37.6348
#
#
#
# Elastic Compliance Matrix: (Units=1/GPa)
#
#
# Indices 1 2 3 4 5 6 
#
# 1 0.008316 -0.000320 -0.001159 0.003719 0.002168 0.002060
# 2 -0.000320 0.019597 0.001734 0.009839 0.008830 -0.000006
# 3 -0.001159 0.001734 0.011368 0.007613 0.001771 -0.002890
# 4 0.003719 0.009839 0.007613 0.039823 -0.001740 0.001800
# 5 0.002168 0.008830 0.001771 -0.001740 0.036744 0.005858
# 6 0.002060 -0.000006 -0.002890 0.001800 0.005858 0.029279
#
#
# Mechanical properties :
#
#
# Convention : Reuss Voigt Hill
#
# Bulk Modulus (GPa) = 25.13081 48.91233 37.02157
# Shear Modulus (GPa) = 31.66947 40.20478 35.93713
#
# Velocity S-wave (km/s) = 3.63983 4.10109 3.87733
# Velocity P-wave (km/s) = 5.30825 6.54881 5.96089
#
# Compressibility (1/GPa) = 0.03979180
#
# Stress axis : x y z
#
# Youngs Moduli (GPa) = 120.25343 51.02822 87.96624
#
# Poissons Ratio (x) = 0.01634 0.10192
# Poissons Ratio (y) = 0.03850 -0.15255
# Poissons Ratio (z) = 0.13932 -0.08849
#
# Static dielectric constant tensor:
#      x y z
#    x 4.229770 -0.086150 0.006550 
#    y -0.086150 4.058200 -0.345420 
#    z 0.006550 -0.345420 4.198460 
# 
# 
# High freq. dielectric constant tensor:
#      x y z
#    x 1.956940 0.000730 -0.014230 
#    y 0.000730 1.942270 -0.013600 
#    z -0.014230 -0.013600 1.953860 
# 
# From -- ./inp_files/472368.got.cif
#   From: 2010.06.25/outbox.cif.g09.slc.cpg/sg2_237_cif.got.tgz:472368.got - 2010.06.27 13:26:56.
