data_PCOD8016430
_publ_section_title
;
Structure prediction by ZEFSAII (Michael W. Deem and Ramdas Pophale) SiO2 
 PCOD8016430
Probable space group: P -1
;
_chemical_formula_sum "Si O2"
_cell_formula_units_Z 16
_cell_length_a 6.555563
_cell_length_b 18.000876
_cell_length_c 12.159115
_cell_angle_alpha 43.135423
_cell_angle_beta 53.999351
_cell_angle_gamma 46.633455
_cell_volume 702.257240
_symmetry_space_group_name_H-M "P -1"
_symmetry_group_IT_number 2
_symmetry_cell_setting 'triclinic'
loop_
_space_group_symop_operation_xyz
x,y,z
-x,-y,-z
loop_
_atom_site_type_symbol
_atom_site_label
_atom_site_fract_x
_atom_site_fract_y
_atom_site_fract_z
Si Si1 0.430488 0.384214 0.957166
Si Si2 0.113027 0.092002 0.325758
Si Si3 0.621749 0.374749 0.663894
Si Si4 0.226218 0.198580 0.727515
Si Si5 0.253611 0.771438 0.423668
Si Si6 0.252785 0.012196 0.743368
Si Si7 0.091960 0.656820 0.779442
Si Si8 0.985670 0.160909 0.049926
O O1 0.438035 0.383468 0.821416
O O2 0.327140 0.521413 0.889242
O O3 0.738536 0.298881 0.004260
O O4 0.218948 0.333218 0.121779
O O5 0.897232 0.232177 0.276617
O O6 0.138739 0.088379 0.189310
O O7 0.418826 0.049318 0.332160
O O8 0.000000 0.000000 0.500000
O O9 0.500000 0.500000 0.500000
O O10 0.617890 0.273695 0.690078
O O11 0.951920 0.328223 0.644547
O O12 0.512268 0.209060 0.600979
O O13 0.221033 0.087541 0.782646
O O14 0.224396 0.167241 0.890747
O O15 0.176418 0.671444 0.611804
O O16 0.956488 0.897219 0.381446
O O17 0.164265 0.904737 0.902875
#
# Coordination Sequence:
#
# PCOD8016430 Si02
#       8
#     2   2   2   2   2   2   2   2
#     4  10  23  44  70 100 130 183 224 270 345 399
#     4  12  27  42  67 100 136 180 229 273 339 405
#     4  10  21  44  70  97 135 178 221 279 340 398
#     4  10  24  41  67 105 130 172 232 273 343 399
#     4  11  24  42  71 100 137 176 223 287 334 395
#     4  11  23  43  67  96 135 179 222 279 340 398
#     4  11  23  44  68  98 138 173 229 273 335 410
#     4  11  24  43  68  97 137 177 221 284 333 400
#
# _framework density 22.783674000000001
#
# number of rings (size 3 to 8) (size 9 to 14) (size 15 to 20)
#    0.000    1.250    2.500    2.625    3.500    5.000 
#    0.000    0.000    0.000    0.000    0.000    0.000 
#    0.000    0.000    0.000    0.000    0.000    0.000 
#
# Total GULP energy -198357.669486 kJ/mol
# GULP energy per Si atom -12397.354343 kJ/mol
# Density = 2.273182 g / cm^3
# Si number density = 22.783674 Si / 1000 Ang^3
#
#
#
# Elastic Constant Matrix: (Units=GPa)
#
#
# Indices 1 2 3 4 5 6 
#
# 1 100.9903 38.8315 43.2368 -4.6072 -6.9698 -12.0293
# 2 38.8315 110.5773 36.2836 -15.3847 -13.3384 -1.8697
# 3 43.2368 36.2836 124.9992 -3.4429 -11.4412 -9.3063
# 4 -4.6072 -15.3847 -3.4429 38.1941 -3.2056 -0.7034
# 5 -6.9698 -13.3384 -11.4412 -3.2056 30.2853 -1.7219
# 6 -12.0293 -1.8697 -9.3063 -0.7034 -1.7219 33.0965
#
#
#
# Elastic Compliance Matrix: (Units=1/GPa)
#
#
# Indices 1 2 3 4 5 6 
#
# 1 0.013059 -0.003407 -0.003207 0.000024 0.000505 0.003679
# 2 -0.003407 0.011982 -0.001841 0.004591 0.004240 -0.000761
# 3 -0.003207 -0.001841 0.009979 -0.000004 0.002314 0.001657
# 4 0.000024 0.004591 -0.000004 0.028483 0.005105 0.001138
# 5 0.000505 0.004240 0.002314 0.005105 0.036593 0.003086
# 6 0.003679 -0.000761 0.001657 0.001138 0.003086 0.032159
#
#
# Mechanical properties :
#
#
# Convention : Reuss Voigt Hill
#
# Bulk Modulus (GPa) = 55.22500 63.69675 59.46087
# Shear Modulus (GPa) = 32.21573 34.86284 33.53929
#
# Velocity S-wave (km/s) = 3.76438 3.91598 3.84093
# Velocity P-wave (km/s) = 6.57157 6.96164 6.76941
#
# Compressibility (1/GPa) = 0.01810774
#
# Stress axis : x y z
#
# Youngs Moduli (GPa) = 76.57342 83.46190 100.20980
#
# Poissons Ratio (x) = 0.28437 0.32141
# Poissons Ratio (y) = 0.26090 0.18454
# Poissons Ratio (z) = 0.24560 0.15369
#
# Static dielectric constant tensor:
#      x y z
#    x 3.833100 -0.055670 0.049920 
#    y -0.055670 4.440250 -0.061280 
#    z 0.049920 -0.061280 4.024660 
# 
# 
# High freq. dielectric constant tensor:
#      x y z
#    x 1.873910 -0.005780 -0.000330 
#    y -0.005780 1.921420 -0.003780 
#    z -0.000330 -0.003780 1.900280 
# 
# From -- ./inp_files/368105.got.cif
#   From: 2010.06.25/outbox.cif.g09.slc.cpg/sg2_185_cif.got.tgz:368105.got - 2010.06.27 13:26:56.
