data_PCOD8016212
_publ_section_title
;
Structure prediction by ZEFSAII (Michael W. Deem and Ramdas Pophale) SiO2 
 PCOD8016212
Probable space group: P -1
;
_chemical_formula_sum "Si O2"
_cell_formula_units_Z 12
_cell_length_a 19.629367
_cell_length_b 11.001687
_cell_length_c 5.003756
_cell_angle_alpha 120.638119
_cell_angle_beta 56.380891
_cell_angle_gamma 145.620355
_cell_volume 504.924167
_symmetry_space_group_name_H-M "P -1"
_symmetry_group_IT_number 2
_symmetry_cell_setting 'triclinic'
loop_
_space_group_symop_operation_xyz
x,y,z
-x,-y,-z
loop_
_atom_site_type_symbol
_atom_site_label
_atom_site_fract_x
_atom_site_fract_y
_atom_site_fract_z
Si Si1 0.224355 0.046512 0.553449
Si Si2 0.434274 0.982821 0.373474
Si Si3 0.978733 0.104414 0.480971
Si Si4 0.391121 0.245495 0.898627
Si Si5 0.969307 0.347551 0.128912
Si Si6 0.849390 0.461263 0.613228
O O1 0.307622 0.205989 0.801645
O O2 0.131446 0.057800 0.683996
O O3 0.132724 0.796576 0.560702
O O4 0.314182 0.115974 0.192396
O O5 0.444497 0.165884 0.580051
O O6 0.500000 0.000000 0.500000
O O7 0.292159 0.748428 0.384458
O O8 0.500000 0.000000 0.000000
O O9 0.111314 0.327526 0.315565
O O10 0.923225 0.160278 0.836723
O O11 0.000000 0.000000 0.500000
O O12 0.500000 0.500000 0.000000
O O13 0.934128 0.464173 0.238509
O O14 0.108302 0.508521 0.136638
#
# Coordination Sequence:
#
# PCOD8016212 Si02
#       6
#     2   2   2   2   2   2
#     4  11  22  45  74 103 143 189 246 306 358 437
#     4  12  28  48  71 108 152 191 242 307 364 428
#     4  11  24  42  70 113 148 180 232 313 380 428
#     4  12  26  49  74 103 144 202 259 292 355 446
#     4  10  21  43  75 104 134 189 244 301 352 445
#     4  10  23  42  74 100 140 190 242 287 367 433
#
# _framework density 23.765947000000001
#
# number of rings (size 3 to 8) (size 9 to 14) (size 15 to 20)
#    0.000    1.000    3.333    2.000    2.333    5.333 
#    6.000    0.000    0.000    0.000    0.000    0.000 
#    0.000    0.000    0.000    0.000    0.000    0.000 
#
# Total GULP energy -148688.943109 kJ/mol
# GULP energy per Si atom -12390.745259 kJ/mol
# Density = 2.371185 g / cm^3
# Si number density = 23.765947 Si / 1000 Ang^3
#
#
#
# Elastic Constant Matrix: (Units=GPa)
#
#
# Indices 1 2 3 4 5 6 
#
# 1 202.7340 102.5116 34.3045 19.2536 22.3910 7.1941
# 2 102.5116 146.2550 54.7766 20.2234 -4.7453 17.8570
# 3 34.3045 54.7766 99.6623 0.7040 16.4802 1.9387
# 4 19.2536 20.2234 0.7040 32.7437 7.4166 3.1718
# 5 22.3910 -4.7453 16.4802 7.4166 35.6650 12.0407
# 6 7.1941 17.8570 1.9387 3.1718 12.0407 53.0464
#
#
#
# Elastic Compliance Matrix: (Units=1/GPa)
#
#
# Indices 1 2 3 4 5 6 
#
# 1 0.009969 -0.009381 0.003427 0.001926 -0.010851 0.004028
# 2 -0.009381 0.020699 -0.011032 -0.010453 0.018942 -0.008967
# 3 0.003427 -0.011032 0.017235 0.007280 -0.014983 0.005584
# 4 0.001926 -0.010453 0.007280 0.038800 -0.015443 0.004177
# 5 -0.010851 0.018942 -0.014983 -0.015443 0.052704 -0.015397
# 6 0.004028 -0.008967 0.005584 0.004177 -0.015397 0.024365
#
#
# Mechanical properties :
#
#
# Convention : Reuss Voigt Hill
#
# Bulk Modulus (GPa) = 71.77970 92.42631 82.10301
# Shear Modulus (GPa) = 24.70528 41.42827 33.06678
#
# Velocity S-wave (km/s) = 3.22766 4.17967 3.73413
# Velocity P-wave (km/s) = 6.64520 7.89098 7.29473
#
# Compressibility (1/GPa) = 0.01393152
#
# Stress axis : x y z
#
# Youngs Moduli (GPa) = 100.31506 48.31182 58.02152
#
# Poissons Ratio (x) = 0.45320 -0.19883
# Poissons Ratio (y) = 0.94103 0.64007
# Poissons Ratio (z) = -0.34377 0.53296
#
# Static dielectric constant tensor:
#      x y z
#    x 4.801810 -0.051200 0.569510 
#    y -0.051200 4.481040 -0.359540 
#    z 0.569510 -0.359540 5.146950 
# 
# 
# High freq. dielectric constant tensor:
#      x y z
#    x 1.952420 0.000540 0.029280 
#    y 0.000540 1.947770 -0.003930 
#    z 0.029280 -0.003930 1.954200 
# 
# From -- ./inp_files/118824.got.cif
#   From: 2010.06.25/outbox.cif.g09.slc.cpg/sg2_60_cif.got.tgz:118824.got - 2010.06.27 13:26:56.
