data_PCOD8016045
_publ_section_title
;
Structure prediction by ZEFSAII (Michael W. Deem and Ramdas Pophale) SiO2 
 PCOD8016045
Probable space group: P -1
;
_chemical_formula_sum "Si O2"
_cell_formula_units_Z 16
_cell_length_a 11.427928
_cell_length_b 13.687308
_cell_length_c 9.562949
_cell_angle_alpha 62.696030
_cell_angle_beta 115.677806
_cell_angle_gamma 148.026452
_cell_volume 700.715307
_symmetry_space_group_name_H-M "P -1"
_symmetry_group_IT_number 2
_symmetry_cell_setting 'triclinic'
loop_
_space_group_symop_operation_xyz
x,y,z
-x,-y,-z
loop_
_atom_site_type_symbol
_atom_site_label
_atom_site_fract_x
_atom_site_fract_y
_atom_site_fract_z
Si Si1 0.027573 0.031993 0.719168
Si Si2 0.188043 0.370151 0.685386
Si Si3 0.101970 0.372131 0.152091
Si Si4 0.898568 0.274914 0.821719
Si Si5 0.972002 0.568718 0.668205
Si Si6 0.630248 0.616969 0.851690
Si Si7 0.451140 0.976548 0.654284
Si Si8 0.209122 0.008927 0.617606
O O1 0.128088 0.200805 0.746507
O O2 0.229899 0.098692 0.710757
O O3 0.862833 0.841224 0.852058
O O4 0.860284 0.958587 0.562747
O O5 0.089899 0.379820 0.508551
O O6 0.455560 0.565512 0.698730
O O7 0.086426 0.330995 0.808737
O O8 0.159699 0.510843 0.198538
O O9 0.321332 0.466853 0.142127
O O10 0.988938 0.210723 0.308267
O O11 0.933025 0.293125 0.993981
O O12 0.919302 0.413110 0.681888
O O13 0.655249 0.064318 0.789334
O O14 0.234333 0.755096 0.717152
O O15 0.500000 0.500000 0.000000
O O16 0.420610 0.082147 0.626551
O O17 0.500000 0.000000 0.500000
#
# Coordination Sequence:
#
# PCOD8016045 Si02
#       8
#     2   2   2   2   2   2   2   2
#     4  10  21  43  69  93 134 172 216 284 324 394
#     4  12  24  42  70 101 130 178 227 271 339 402
#     4  10  22  48  64  99 141 167 229 280 328 402
#     4  12  25  41  69  95 139 181 217 281 334 389
#     4  11  25  43  67  99 134 174 232 273 327 403
#     4  11  25  44  69  99 134 171 217 279 340 396
#     4  11  22  40  66  97 132 173 227 271 327 399
#     4   9  20  40  66  95 133 169 216 277 325 389
#
# _framework density 22.833808000000001
#
# number of rings (size 3 to 8) (size 9 to 14) (size 15 to 20)
#    0.000    1.250    5.000    0.750    1.750    5.000 
#    0.000    0.000    0.000    0.000    0.000    0.000 
#    0.000    0.000    0.000    0.000    0.000    0.000 
#
# Total GULP energy -198284.420216 kJ/mol
# GULP energy per Si atom -12392.776264 kJ/mol
# Density = 2.278184 g / cm^3
# Si number density = 22.833808 Si / 1000 Ang^3
#
#
#
# Elastic Constant Matrix: (Units=GPa)
#
#
# Indices 1 2 3 4 5 6 
#
# 1 151.7692 34.8861 18.2924 -5.5368 -25.4131 2.2191
# 2 34.8861 66.3946 12.3625 4.5001 0.1432 2.6748
# 3 18.2924 12.3625 77.1128 -6.0773 -13.8359 4.2535
# 4 -5.5368 4.5001 -6.0773 26.7902 5.6635 3.5297
# 5 -25.4131 0.1432 -13.8359 5.6635 39.0246 3.8071
# 6 2.2191 2.6748 4.2535 3.5297 3.8071 40.7720
#
#
#
# Elastic Compliance Matrix: (Units=1/GPa)
#
#
# Indices 1 2 3 4 5 6 
#
# 1 0.008642 -0.004587 -0.000179 0.001469 0.005445 -0.000786
# 2 -0.004587 0.018260 -0.002770 -0.003911 -0.003469 0.000003
# 3 -0.000179 -0.002770 0.014677 0.003000 0.004862 -0.002053
# 4 0.001469 -0.003911 0.003000 0.040135 -0.003469 -0.003287
# 5 0.005445 -0.003469 0.004862 -0.003469 0.031726 -0.003238
# 6 -0.000786 0.000003 -0.002053 -0.003287 -0.003238 0.025370
#
#
# Mechanical properties :
#
#
# Convention : Reuss Voigt Hill
#
# Bulk Modulus (GPa) = 37.72607 47.37317 42.54962
# Shear Modulus (GPa) = 30.72839 36.63309 33.68074
#
# Velocity S-wave (km/s) = 3.67241 4.00976 3.84479
# Velocity P-wave (km/s) = 5.87708 6.49843 6.19555
#
# Compressibility (1/GPa) = 0.02650687
#
# Stress axis : x y z
#
# Youngs Moduli (GPa) = 115.71954 54.76513 68.13573
#
# Poissons Ratio (x) = 0.25120 0.01217
# Poissons Ratio (y) = 0.53080 0.18874
# Poissons Ratio (z) = 0.02066 0.15170
#
# Static dielectric constant tensor:
#      x y z
#    x 4.974630 0.000230 -0.208350 
#    y 0.000230 3.919260 0.110120 
#    z -0.208350 0.110120 3.915550 
# 
# 
# High freq. dielectric constant tensor:
#      x y z
#    x 1.926800 0.000810 -0.011240 
#    y 0.000810 1.873060 0.001360 
#    z -0.011240 0.001360 1.894730 
# 
# From -- ./inp_files/272630.got.cif
#   From: 2010.06.25/outbox.cif.g09.slc.cpg/sg2_137_cif.got.tgz:272630.got - 2010.06.27 13:26:56.
