data_PCOD8016660
_publ_section_title
;
Structure prediction by ZEFSAII (Michael W. Deem and Ramdas Pophale) SiO2 
 PCOD8016660
Probable space group: P -1
;
_chemical_formula_sum "Si O2"
_cell_formula_units_Z 14
_cell_length_a 11.814336
_cell_length_b 11.775370
_cell_length_c 14.086675
_cell_angle_alpha 133.158896
_cell_angle_beta 152.025199
_cell_angle_gamma 41.133780
_cell_volume 603.582653
_symmetry_space_group_name_H-M "P -1"
_symmetry_group_IT_number 2
_symmetry_cell_setting 'triclinic'
loop_
_space_group_symop_operation_xyz
x,y,z
-x,-y,-z
loop_
_atom_site_type_symbol
_atom_site_label
_atom_site_fract_x
_atom_site_fract_y
_atom_site_fract_z
Si Si1 0.949901 0.861981 0.504282
Si Si2 0.478352 0.076835 0.633852
Si Si3 0.466808 0.513562 0.692783
Si Si4 0.782762 0.482719 0.740541
Si Si5 0.640827 0.385946 0.950277
Si Si6 0.207885 0.105423 0.800145
Si Si7 0.226704 0.287215 0.292246
O O1 0.820510 0.836846 0.492926
O O2 0.757093 0.904030 0.293544
O O3 0.209599 0.686411 0.573420
O O4 0.026099 0.020234 0.660389
O O5 0.602101 0.212816 0.809636
O O6 0.500000 0.000000 0.500000
O O7 0.632819 0.919177 0.730050
O O8 0.726714 0.512223 0.828946
O O9 0.526813 0.507996 0.844615
O O10 0.409473 0.351549 0.527301
O O11 0.500000 0.500000 0.500000
O O12 0.827542 0.635899 0.810300
O O13 0.049116 0.305963 0.823764
O O14 0.500000 0.500000 0.000000
O O15 0.948842 0.337976 0.169207
O O16 0.500000 0.000000 0.000000
#
# Coordination Sequence:
#
# PCOD8016660 Si02
#       7
#     2   2   2   2   2   2   2
#     4  11  25  44  71 104 151 194 242 305 377 441
#     4  12  27  49  75 103 148 203 247 303 372 443
#     4  11  24  46  76 106 145 201 242 303 382 448
#     4  10  21  45  76 104 150 196 243 304 385 448
#     4  12  29  46  74 109 145 195 258 307 362 442
#     4  11  25  43  72 113 150 188 245 314 375 443
#     4  11  24  47  74 103 147 188 251 308 368 441
#
# _framework density 23.194834
#
# number of rings (size 3 to 8) (size 9 to 14) (size 15 to 20)
#    0.000    0.857    4.286    3.000    6.000    2.857 
#    0.000    0.000    0.000    0.000    0.000    0.000 
#    0.000    0.000    0.000    0.000    0.000    0.000 
#
# Total GULP energy -173568.171589 kJ/mol
# GULP energy per Si atom -12397.726542 kJ/mol
# Density = 2.314204 g / cm^3
# Si number density = 23.194834 Si / 1000 Ang^3
#
#
#
# Elastic Constant Matrix: (Units=GPa)
#
#
# Indices 1 2 3 4 5 6 
#
# 1 181.8332 55.0153 44.7297 6.5793 3.0336 -8.4005
# 2 55.0153 143.7176 41.8216 -11.5753 -2.1313 8.7180
# 3 44.7297 41.8216 60.2270 -4.2281 -14.7544 -9.5876
# 4 6.5793 -11.5753 -4.2281 41.9269 2.4580 3.6416
# 5 3.0336 -2.1313 -14.7544 2.4580 39.4584 -4.5588
# 6 -8.4005 8.7180 -9.5876 3.6416 -4.5588 35.8851
#
#
#
# Elastic Compliance Matrix: (Units=1/GPa)
#
#
# Indices 1 2 3 4 5 6 
#
# 1 0.007343 -0.001621 -0.004915 -0.002024 -0.002281 0.000715
# 2 -0.001621 0.010218 -0.007251 0.002986 -0.002852 -0.005464
# 3 -0.004915 -0.007251 0.029944 0.000183 0.012346 0.010161
# 4 -0.002024 0.002986 0.000183 0.025451 -0.001656 -0.003943
# 5 -0.002281 -0.002852 0.012346 -0.001656 0.030957 0.007558
# 6 0.000715 -0.005464 0.010161 -0.003943 0.007558 0.033437
#
#
# Mechanical properties :
#
#
# Convention : Reuss Voigt Hill
#
# Bulk Modulus (GPa) = 50.17108 74.32344 62.24726
# Shear Modulus (GPa) = 29.14281 39.73481 34.43881
#
# Velocity S-wave (km/s) = 3.54847 4.14344 3.85744
# Velocity P-wave (km/s) = 6.20210 7.41643 6.83628
#
# Compressibility (1/GPa) = 0.01993180
#
# Stress axis : x y z
#
# Youngs Moduli (GPa) = 136.17533 97.86476 33.39550
#
# Poissons Ratio (x) = 0.15863 0.16415
# Poissons Ratio (y) = 0.22073 0.24214
# Poissons Ratio (z) = 0.66937 0.70958
#
# Static dielectric constant tensor:
#      x y z
#    x 4.723030 0.245350 0.216200 
#    y 0.245350 4.342850 0.056990 
#    z 0.216200 0.056990 4.314170 
# 
# 
# High freq. dielectric constant tensor:
#      x y z
#    x 1.932950 0.007720 0.006390 
#    y 0.007720 1.927220 -0.006190 
#    z 0.006390 -0.006190 1.915520 
# 
# From -- ./inp_files/519158.got.cif
#   From: 2010.06.25/outbox.cif.g09.slc.cpg/sg2_260_cif.got.tgz:519158.got - 2010.06.27 13:26:56.
