data_PCOD8016809
_publ_section_title
;
Structure prediction by ZEFSAII (Michael W. Deem and Ramdas Pophale) SiO2 
 PCOD8016809
Probable space group: P -1
;
_chemical_formula_sum "Si O2"
_cell_formula_units_Z 16
_cell_length_a 23.105190
_cell_length_b 13.817033
_cell_length_c 25.604719
_cell_angle_alpha 32.960939
_cell_angle_beta 169.510977
_cell_angle_gamma 146.751871
_cell_volume 804.348743
_symmetry_space_group_name_H-M "P -1"
_symmetry_group_IT_number 2
_symmetry_cell_setting 'triclinic'
loop_
_space_group_symop_operation_xyz
x,y,z
-x,-y,-z
loop_
_atom_site_type_symbol
_atom_site_label
_atom_site_fract_x
_atom_site_fract_y
_atom_site_fract_z
Si Si1 0.651389 0.375813 0.805461
Si Si2 0.300906 0.919068 0.409181
Si Si3 0.719163 0.100590 0.784437
Si Si4 0.328974 0.520472 0.596076
Si Si5 0.947017 0.453209 0.774314
Si Si6 0.501870 0.946862 0.110213
Si Si7 0.096270 0.155000 0.585618
Si Si8 0.250039 0.640536 0.214346
O O1 0.297029 0.441442 0.455813
O O2 0.661132 0.222186 0.926221
O O3 0.764868 0.294957 0.888151
O O4 0.899521 0.549103 0.963766
O O5 0.339962 0.711712 0.547071
O O6 0.500000 0.000000 0.500000
O O7 0.408382 0.019563 0.513121
O O8 0.932936 0.944407 0.060140
O O9 0.920107 0.244716 0.859968
O O10 0.623518 0.195776 0.709778
O O11 0.138073 0.524331 0.371371
O O12 0.141453 0.370419 0.535359
O O13 0.686587 0.465569 0.927958
O O14 0.711370 0.879140 0.280604
O O15 0.725699 0.080697 0.285332
O O16 0.223811 0.056214 0.793148
O O17 0.500000 0.500000 0.500000
#
# Coordination Sequence:
#
# PCOD8016809 Si02
#       8
#     2   2   2   2   2   2   2   2
#     4  11  24  39  59  91 119 168 195 239 302 356
#     4  12  23  38  57  85 117 163 204 233 296 358
#     4  12  23  39  54  87 122 154 200 248 281 354
#     4  12  23  36  58  86 120 163 196 236 288 357
#     4  12  21  34  59  84 122 160 194 232 288 345
#     4  10  22  37  58  83 121 153 194 244 289 357
#     4  10  22  36  54  89 117 154 198 236 295 349
#     4  11  25  39  62  88 121 158 203 243 298 361
#
# _framework density 19.891869
#
# number of rings (size 3 to 8) (size 9 to 14) (size 15 to 20)
#    0.000    0.750    5.000    3.375    7.000    0.000 
#    0.000    0.000    0.000    0.000    0.000    5.250 
#    0.000    0.000    0.000    0.000    0.000    0.000 
#
# Total GULP energy -198440.251503 kJ/mol
# GULP energy per Si atom -12402.515719 kJ/mol
# Density = 1.984659 g / cm^3
# Si number density = 19.891869 Si / 1000 Ang^3
#
#
#
# Elastic Constant Matrix: (Units=GPa)
#
#
# Indices 1 2 3 4 5 6 
#
# 1 72.7701 44.2698 29.9728 -6.8829 -12.8007 1.2409
# 2 44.2698 119.0696 33.8267 -5.4562 -9.1489 3.0209
# 3 29.9728 33.8267 90.1589 -6.6342 -18.5910 8.2527
# 4 -6.8829 -5.4562 -6.6342 23.9865 -3.7251 -1.1653
# 5 -12.8007 -9.1489 -18.5910 -3.7251 28.5445 -2.7869
# 6 1.2409 3.0209 8.2527 -1.1653 -2.7869 29.0168
#
#
#
# Elastic Compliance Matrix: (Units=1/GPa)
#
#
# Indices 1 2 3 4 5 6 
#
# 1 0.020051 -0.005978 -0.003010 0.004535 0.005841 0.001364
# 2 -0.005978 0.011246 -0.002322 0.000091 -0.000607 -0.000309
# 3 -0.003010 -0.002322 0.015178 0.003902 0.008006 -0.003021
# 4 0.004535 0.000091 0.003902 0.045835 0.010738 0.001559
# 5 0.005841 -0.000607 0.008006 0.010738 0.044290 0.002222
# 6 0.001364 -0.000309 -0.003021 0.001559 0.002222 0.035572
#
#
# Mechanical properties :
#
#
# Convention : Reuss Voigt Hill
#
# Bulk Modulus (GPa) = 41.91976 55.34857 48.63417
# Shear Modulus (GPa) = 24.66166 27.90485 26.28326
#
# Velocity S-wave (km/s) = 3.52488 3.74950 3.63892
# Velocity P-wave (km/s) = 6.13889 6.82862 6.49292
#
# Compressibility (1/GPa) = 0.02385510
#
# Stress axis : x y z
#
# Youngs Moduli (GPa) = 49.87175 88.91905 65.88538
#
# Poissons Ratio (x) = 0.53156 0.19831
# Poissons Ratio (y) = 0.29813 0.15300
# Poissons Ratio (z) = 0.15011 0.20649
#
# Static dielectric constant tensor:
#      x y z
#    x 3.732230 -0.047060 -0.237910 
#    y -0.047060 3.731120 -0.027680 
#    z -0.237910 -0.027680 3.746070 
# 
# 
# High freq. dielectric constant tensor:
#      x y z
#    x 1.748910 -0.002930 -0.037620 
#    y -0.002930 1.765770 -0.001400 
#    z -0.037620 -0.001400 1.779900 
# 
# From -- ./inp_files/409491.got.cif
#   From: 2010.06.25/outbox.cif.g09.slc.cpg/sg2_205_cif.got.tgz:409491.got - 2010.06.27 13:26:56.
