data_PCOD8016242
_publ_section_title
;
Structure prediction by ZEFSAII (Michael W. Deem and Ramdas Pophale) SiO2 
 PCOD8016242
Probable space group: P -1
;
_chemical_formula_sum "Si O2"
_cell_formula_units_Z 16
_cell_length_a 6.933627
_cell_length_b 22.032613
_cell_length_c 10.631100
_cell_angle_alpha 146.033296
_cell_angle_beta 116.001399
_cell_angle_gamma 56.750625
_cell_volume 758.375762
_symmetry_space_group_name_H-M "P -1"
_symmetry_group_IT_number 2
_symmetry_cell_setting 'triclinic'
loop_
_space_group_symop_operation_xyz
x,y,z
-x,-y,-z
loop_
_atom_site_type_symbol
_atom_site_label
_atom_site_fract_x
_atom_site_fract_y
_atom_site_fract_z
Si Si1 0.367971 0.184229 0.780265
Si Si2 0.717807 0.470394 0.787641
Si Si3 0.855272 0.003408 0.589021
Si Si4 0.718326 0.576495 0.440288
Si Si5 0.138549 0.000537 0.913730
Si Si6 0.639981 0.813899 0.718928
Si Si7 0.793599 0.573271 0.737498
Si Si8 0.781655 0.684318 0.290106
O O1 0.646328 0.128076 0.757999
O O2 0.262957 0.234397 0.703023
O O3 0.256914 0.092371 0.632185
O O4 0.294737 0.287003 0.038323
O O5 0.512611 0.428408 0.695084
O O6 0.678148 0.521193 0.722132
O O7 0.949700 0.356861 0.668265
O O8 0.715870 0.571050 0.056585
O O9 0.010054 0.977841 0.715098
O O10 0.000000 0.000000 0.500000
O O11 0.723666 0.706433 0.655937
O O12 0.730187 0.538297 0.523228
O O13 0.929318 0.484497 0.264815
O O14 0.386492 0.900003 0.830999
O O15 0.174346 0.123069 0.116965
O O16 0.000000 0.000000 0.000000
O O17 0.625568 0.762340 0.489175
#
# Coordination Sequence:
#
# PCOD8016242 Si02
#       8
#     2   2   2   2   2   2   2   2
#     4  10  24  42  67  94 132 166 216 269 318 387
#     4  10  22  41  65  93 129 171 211 260 326 383
#     4  11  25  44  69  97 128 174 219 267 327 383
#     4  11  24  39  66  95 130 170 211 266 323 386
#     4  11  27  45  68  97 132 173 218 271 330 381
#     4  11  25  42  66  98 130 166 221 268 317 393
#     4  10  23  43  60  97 131 165 214 264 320 395
#     4  10  21  44  63  95 132 164 217 267 315 393
#
# _framework density 21.097721
#
# number of rings (size 3 to 8) (size 9 to 14) (size 15 to 20)
#    0.000    1.500    1.250    1.875    7.000    5.500 
#    4.500    0.000    0.000    0.000    0.000    0.000 
#    0.000    0.000    0.000    0.000    0.000    0.000 
#
# Total GULP energy -198455.476699 kJ/mol
# GULP energy per Si atom -12403.467294 kJ/mol
# Density = 2.104970 g / cm^3
# Si number density = 21.097721 Si / 1000 Ang^3
#
#
#
# Elastic Constant Matrix: (Units=GPa)
#
#
# Indices 1 2 3 4 5 6 
#
# 1 132.3707 34.4552 51.2873 4.3267 2.7690 -12.2387
# 2 34.4552 73.7880 19.7162 10.2115 2.2779 -11.0128
# 3 51.2873 19.7162 62.8277 12.5659 -3.0399 -11.8886
# 4 4.3267 10.2115 12.5659 38.2022 0.1078 -8.4902
# 5 2.7690 2.2779 -3.0399 0.1078 35.0067 -4.7971
# 6 -12.2387 -11.0128 -11.8886 -8.4902 -4.7971 31.2416
#
#
#
# Elastic Compliance Matrix: (Units=1/GPa)
#
#
# Indices 1 2 3 4 5 6 
#
# 1 0.012014 -0.003390 -0.009262 0.002706 -0.001474 0.000496
# 2 -0.003390 0.016339 -0.001216 -0.002891 -0.000465 0.003112
# 3 -0.009262 -0.001216 0.026187 -0.006182 0.003763 0.004806
# 4 0.002706 -0.002891 -0.006182 0.029978 0.000148 0.005858
# 5 -0.001474 -0.000465 0.003763 0.000148 0.029766 0.005301
# 6 0.000496 0.003112 0.004806 0.005858 0.005301 0.037535
#
#
# Mechanical properties :
#
#
# Convention : Reuss Voigt Hill
#
# Bulk Modulus (GPa) = 37.30744 53.32264 45.31504
# Shear Modulus (GPa) = 26.52699 31.79195 29.15947
#
# Velocity S-wave (km/s) = 3.54974 3.88608 3.72171
# Velocity P-wave (km/s) = 5.87558 6.74274 6.32404
#
# Compressibility (1/GPa) = 0.02680430
#
# Stress axis : x y z
#
# Youngs Moduli (GPa) = 83.23796 61.20340 38.18730
#
# Poissons Ratio (x) = 0.20748 0.35369
# Poissons Ratio (y) = 0.28218 0.04642
# Poissons Ratio (z) = 0.77095 0.07440
#
# Static dielectric constant tensor:
#      x y z
#    x 3.847370 -0.059470 -0.097670 
#    y -0.059470 3.844690 0.113460 
#    z -0.097670 0.113460 3.827640 
# 
# 
# High freq. dielectric constant tensor:
#      x y z
#    x 1.834440 0.000310 -0.007750 
#    y 0.000310 1.835360 0.005610 
#    z -0.007750 0.005610 1.827350 
# 
# From -- ./inp_files/369336.got.cif
#   From: 2010.06.25/outbox.cif.g09.slc.cpg/sg2_185_cif.got.tgz:369336.got - 2010.06.27 13:26:56.
