data_PCOD8016523
_publ_section_title
;
Structure prediction by ZEFSAII (Michael W. Deem and Ramdas Pophale) SiO2 
 PCOD8016523
Probable space group: P -1
;
_chemical_formula_sum "Si O2"
_cell_formula_units_Z 14
_cell_length_a 9.103538
_cell_length_b 14.354536
_cell_length_c 7.437663
_cell_angle_alpha 83.812051
_cell_angle_beta 85.507834
_cell_angle_gamma 136.165989
_cell_volume 651.790494
_symmetry_space_group_name_H-M "P -1"
_symmetry_group_IT_number 2
_symmetry_cell_setting 'triclinic'
loop_
_space_group_symop_operation_xyz
x,y,z
-x,-y,-z
loop_
_atom_site_type_symbol
_atom_site_label
_atom_site_fract_x
_atom_site_fract_y
_atom_site_fract_z
Si Si1 0.086191 0.841404 0.372324
Si Si2 0.861474 0.260503 0.299787
Si Si3 0.279486 0.569449 0.217415
Si Si4 0.633043 0.418195 0.173389
Si Si5 0.631562 0.709937 0.453955
Si Si6 0.566657 0.853676 0.629822
Si Si7 0.117908 0.693857 0.125649
O O1 0.071908 0.804644 0.591855
O O2 0.846564 0.761691 0.347649
O O3 0.169427 0.798180 0.244084
O O4 0.250638 0.005458 0.305616
O O5 0.621030 0.166593 0.426669
O O6 0.033633 0.420408 0.311855
O O7 0.847556 0.244649 0.088324
O O8 0.437200 0.614556 0.351634
O O9 0.273144 0.677841 0.156109
O O10 0.372083 0.553130 0.040081
O O11 0.458393 0.384285 0.334417
O O12 0.575699 0.280266 0.197830
O O13 0.872134 0.543663 0.204723
O O14 0.679720 0.842350 0.466828
#
# Coordination Sequence:
#
# PCOD8016523 Si02
#       7
#     2   2   2   2   2   2   2
#     4  12  26  38  58  93 128 153 195 244 299 355
#     4  11  22  40  65  90 120 151 199 256 296 337
#     4  11  19  40  68  89 113 157 203 245 293 355
#     4   9  20  39  66  85 114 155 207 239 286 351
#     4  10  23  40  60  87 122 165 192 234 301 361
#     4  10  21  45  61  83 120 164 200 238 292 355
#     4  11  21  39  65  93 114 151 205 252 293 340
#
# _framework density 21.479296999999999
#
# number of rings (size 3 to 8) (size 9 to 14) (size 15 to 20)
#    0.857    0.571    2.857    3.429    0.000    5.714 
#    2.571    3.571    0.000    0.000    0.000    0.000 
#    0.000    0.000    0.000    0.000    0.000    0.000 
#
# Total GULP energy -173438.251638 kJ/mol
# GULP energy per Si atom -12388.446546 kJ/mol
# Density = 2.143041 g / cm^3
# Si number density = 21.479297 Si / 1000 Ang^3
#
#
#
# Elastic Constant Matrix: (Units=GPa)
#
#
# Indices 1 2 3 4 5 6 
#
# 1 61.2378 11.0545 20.7204 8.6511 -4.7401 19.5937
# 2 11.0545 64.9423 22.6697 4.5022 2.1985 5.6894
# 3 20.7204 22.6697 70.4584 16.0256 3.5685 1.8848
# 4 8.6511 4.5022 16.0256 21.6888 -3.9417 2.4363
# 5 -4.7401 2.1985 3.5685 -3.9417 17.4367 -1.6724
# 6 19.5937 5.6894 1.8848 2.4363 -1.6724 25.8718
#
#
#
# Elastic Compliance Matrix: (Units=1/GPa)
#
#
# Indices 1 2 3 4 5 6 
#
# 1 0.025115 -0.000470 -0.006633 -0.001904 0.006100 -0.017860
# 2 -0.000470 0.017706 -0.005572 0.000751 -0.001366 -0.003291
# 3 -0.006633 -0.005572 0.021413 -0.014117 -0.008147 0.005491
# 4 -0.001904 0.000751 -0.014117 0.060254 0.015672 -0.002356
# 5 0.006100 -0.001366 -0.008147 0.015672 0.064291 -0.001046
# 6 -0.017860 -0.003291 0.005491 -0.002356 -0.001046 0.052656
#
#
# Mechanical properties :
#
#
# Convention : Reuss Voigt Hill
#
# Bulk Modulus (GPa) = 25.71738 33.94753 29.83245
# Shear Modulus (GPa) = 17.87345 22.47905 20.17625
#
# Velocity S-wave (km/s) = 2.88779 3.23854 3.06818
# Velocity P-wave (km/s) = 4.80814 5.46107 5.14497
#
# Compressibility (1/GPa) = 0.03888422
#
# Stress axis : x y z
#
# Youngs Moduli (GPa) = 39.81754 56.47850 46.70117
#
# Poissons Ratio (x) = 0.02652 0.30976
# Poissons Ratio (y) = 0.01870 0.26023
# Poissons Ratio (z) = 0.26410 0.31471
#
# Static dielectric constant tensor:
#      x y z
#    x 3.635700 -0.021560 -0.077740 
#    y -0.021560 3.708750 0.015980 
#    z -0.077740 0.015980 3.764380 
# 
# 
# High freq. dielectric constant tensor:
#      x y z
#    x 1.826640 0.004750 -0.005700 
#    y 0.004750 1.837200 0.004060 
#    z -0.005700 0.004060 1.833240 
# 
# From -- ./inp_files/206944.got.cif
#   From: 2010.06.25/outbox.cif.g09.slc.cpg/sg2_104_cif.got.tgz:206944.got - 2010.06.27 13:26:56.
