data_PCOD8016999
_publ_section_title
;
Structure prediction by ZEFSAII (Michael W. Deem and Ramdas Pophale) SiO2 
 PCOD8016999
Probable space group: P -1
;
_chemical_formula_sum "Si O2"
_cell_formula_units_Z 16
_cell_length_a 10.735148
_cell_length_b 9.099176
_cell_length_c 15.019964
_cell_angle_alpha 40.467302
_cell_angle_beta 83.017904
_cell_angle_gamma 65.708792
_cell_volume 821.220495
_symmetry_space_group_name_H-M "P -1"
_symmetry_group_IT_number 2
_symmetry_cell_setting 'triclinic'
loop_
_space_group_symop_operation_xyz
x,y,z
-x,-y,-z
loop_
_atom_site_type_symbol
_atom_site_label
_atom_site_fract_x
_atom_site_fract_y
_atom_site_fract_z
Si Si1 0.620858 0.777411 0.371361
Si Si2 0.636692 0.380318 0.411596
Si Si3 0.667034 0.848588 0.702362
Si Si4 0.977895 0.483417 0.908108
Si Si5 0.920664 0.306374 0.352813
Si Si6 0.362238 0.415248 0.346363
Si Si7 0.929410 0.076293 0.877182
Si Si8 0.076882 0.349875 0.651083
O O1 0.595297 0.570045 0.413277
O O2 0.667929 0.677022 0.514233
O O3 0.749206 0.809736 0.301876
O O4 0.469403 0.051812 0.263460
O O5 0.750526 0.413662 0.326180
O O6 0.501733 0.451224 0.326512
O O7 0.701744 0.084210 0.577678
O O8 0.808645 0.600047 0.843981
O O9 0.619791 0.786306 0.640218
O O10 0.045678 0.624007 0.779008
O O11 0.000000 0.500000 0.000000
O O12 0.075598 0.175466 0.035673
O O13 0.972406 0.439822 0.361547
O O14 0.000000 0.000000 0.500000
O O15 0.231457 0.692774 0.205121
O O16 0.025105 0.143509 0.771513
O O17 0.000000 0.000000 0.000000
O O18 0.000000 0.500000 0.500000
#
# Coordination Sequence:
#
# PCOD8016999 Si02
#       8
#     2   2   2   2   2   2   2   2
#     4  10  22  37  63  95 125 160 214 262 307 371
#     4  10  22  37  65  92 125 163 210 266 309 363
#     4  11  21  40  61  93 126 165 211 258 315 371
#     4  12  28  43  65  95 130 173 208 260 325 380
#     4  11  23  42  64  95 128 162 218 265 305 375
#     4  11  21  38  64  92 125 168 206 260 315 370
#     4  12  24  45  65  91 134 168 211 258 322 383
#     4  11  23  40  67  96 122 168 216 261 311 368
#
# _framework density 19.483194999999998
#
# number of rings (size 3 to 8) (size 9 to 14) (size 15 to 20)
#    0.000    1.000    5.000    3.000    5.250    1.000 
#    0.000    2.500    0.000    0.000    0.000    0.000 
#    0.000    0.000    0.000    0.000    0.000    0.000 
#
# Total GULP energy -198339.663051 kJ/mol
# GULP energy per Si atom -12396.228941 kJ/mol
# Density = 1.943885 g / cm^3
# Si number density = 19.483195 Si / 1000 Ang^3
#
#
#
# Elastic Constant Matrix: (Units=GPa)
#
#
# Indices 1 2 3 4 5 6 
#
# 1 87.4377 28.9637 32.0701 8.8940 -2.7894 -8.9496
# 2 28.9637 123.5278 34.1946 5.7691 -4.8020 6.6532
# 3 32.0701 34.1946 91.7133 8.3457 -9.4034 -8.1526
# 4 8.8940 5.7691 8.3457 39.5216 1.7826 3.8874
# 5 -2.7894 -4.8020 -9.4034 1.7826 34.5411 1.6871
# 6 -8.9496 6.6532 -8.1526 3.8874 1.6871 38.6176
#
#
#
# Elastic Compliance Matrix: (Units=1/GPa)
#
#
# Indices 1 2 3 4 5 6 
#
# 1 0.014093 -0.002387 -0.003560 -0.002375 -0.000195 0.003173
# 2 -0.002387 0.009649 -0.002970 0.000016 0.000479 -0.002865
# 3 -0.003560 -0.002970 0.014009 -0.002131 0.003090 0.002724
# 4 -0.002375 0.000016 -0.002131 0.026728 -0.001973 -0.003607
# 5 -0.000195 0.000479 0.003090 -0.001973 0.029974 -0.000586
# 6 0.003173 -0.002865 0.002724 -0.003607 -0.000586 0.028088
#
#
# Mechanical properties :
#
#
# Convention : Reuss Voigt Hill
#
# Bulk Modulus (GPa) = 50.20703 54.79284 52.49994
# Shear Modulus (GPa) = 34.01046 36.36606 35.18826
#
# Velocity S-wave (km/s) = 4.18261 4.32503 4.25441
# Velocity P-wave (km/s) = 7.01077 7.28871 7.15109
#
# Compressibility (1/GPa) = 0.01991753
#
# Stress axis : x y z
#
# Youngs Moduli (GPa) = 70.95654 103.63435 71.38437
#
# Poissons Ratio (x) = 0.24733 0.25414
# Poissons Ratio (y) = 0.16934 0.21202
# Poissons Ratio (z) = 0.25261 0.30781
#
# Static dielectric constant tensor:
#      x y z
#    x 4.073850 -0.235900 0.205600 
#    y -0.235900 3.846860 -0.106410 
#    z 0.205600 -0.106410 3.457120 
# 
# 
# High freq. dielectric constant tensor:
#      x y z
#    x 1.769240 -0.001010 0.006210 
#    y -0.001010 1.779590 -0.006230 
#    z 0.006210 -0.006230 1.736200 
# 
# From -- ./inp_files/262371.got.cif
#   From: 2010.06.25/outbox.cif.g09.slc.cpg/sg2_132_cif.got.tgz:262371.got - 2010.06.27 13:26:56.
