data_PCOD8016071
_publ_section_title
;
Structure prediction by ZEFSAII (Michael W. Deem and Ramdas Pophale) SiO2 
 PCOD8016071
Probable space group: P -1
;
_chemical_formula_sum "Si O2"
_cell_formula_units_Z 16
_cell_length_a 21.121553
_cell_length_b 12.102501
_cell_length_c 18.228955
_cell_angle_alpha 29.773873
_cell_angle_beta 161.647906
_cell_angle_gamma 141.384672
_cell_volume 701.131994
_symmetry_space_group_name_H-M "P -1"
_symmetry_group_IT_number 2
_symmetry_cell_setting 'triclinic'
loop_
_space_group_symop_operation_xyz
x,y,z
-x,-y,-z
loop_
_atom_site_type_symbol
_atom_site_label
_atom_site_fract_x
_atom_site_fract_y
_atom_site_fract_z
Si Si1 0.238777 0.914627 0.294970
Si Si2 0.725164 0.523569 0.217421
Si Si3 0.096996 0.782457 0.681530
Si Si4 0.258634 0.428581 0.632986
Si Si5 0.226431 0.354469 0.309470
Si Si6 0.557745 0.514871 0.666462
Si Si7 0.401853 0.007442 0.270401
Si Si8 0.730108 0.158325 0.319714
O O1 0.307330 0.638042 0.520765
O O2 0.361633 0.984745 0.458186
O O3 0.281123 0.035665 0.197984
O O4 0.000000 0.000000 0.000000
O O5 0.840724 0.487683 0.443791
O O6 0.822612 0.329116 0.375178
O O7 0.500000 0.500000 0.000000
O O8 0.720124 0.778505 0.036742
O O9 0.153206 0.863033 0.617357
O O10 0.915573 0.654535 0.553577
O O11 0.308180 0.612718 0.044051
O O12 0.000000 0.000000 0.500000
O O13 0.479030 0.235804 0.991338
O O14 0.402724 0.364798 0.557359
O O15 0.280372 0.462350 0.231301
O O16 0.219000 0.091262 0.442253
O O17 0.000000 0.500000 0.000000
O O18 0.409369 0.767575 0.377528
#
# Coordination Sequence:
#
# PCOD8016071 Si02
#       8
#     2   2   2   2   2   2   2   2
#     4  11  24  39  64  99 137 176 226 275 337 413
#     4  10  21  43  69  99 135 179 224 282 344 408
#     4  12  27  44  68 102 137 184 237 282 338 411
#     4  11  24  45  68 102 140 182 230 279 351 414
#     4  11  26  46  71 102 133 180 235 282 343 406
#     4  11  25  45  70  99 141 179 225 289 340 408
#     4  11  23  42  67  97 139 177 223 280 350 405
#     4  11  24  45  71  97 141 180 227 289 344 401
#
# _framework density 22.820239999999998
#
# number of rings (size 3 to 8) (size 9 to 14) (size 15 to 20)
#    0.000    1.000    2.500    4.500    3.500    9.500 
#    0.000    0.000    0.000    0.000    0.000    0.000 
#    0.000    0.000    0.000    0.000    0.000    0.000 
#
# Total GULP energy -198441.721854 kJ/mol
# GULP energy per Si atom -12402.607616 kJ/mol
# Density = 2.276830 g / cm^3
# Si number density = 22.820240 Si / 1000 Ang^3
#
#
#
# Elastic Constant Matrix: (Units=GPa)
#
#
# Indices 1 2 3 4 5 6 
#
# 1 88.4749 22.3886 11.4364 -4.8850 6.2160 -3.7203
# 2 22.3886 79.1756 19.2790 -29.0947 -5.1759 -13.8365
# 3 11.4364 19.2790 78.6678 -16.8964 8.2209 4.2711
# 4 -4.8850 -29.0947 -16.8964 41.6346 2.0741 0.3585
# 5 6.2160 -5.1759 8.2209 2.0741 36.2678 -4.8658
# 6 -3.7203 -13.8365 4.2711 0.3585 -4.8658 40.7918
#
#
#
# Elastic Compliance Matrix: (Units=1/GPa)
#
#
# Indices 1 2 3 4 5 6 
#
# 1 0.012542 -0.004204 -0.000866 -0.001688 -0.002521 -0.000477
# 2 -0.004204 0.020661 -0.002618 0.012594 0.004525 0.007328
# 3 -0.000866 -0.002618 0.015045 0.004416 -0.004303 -0.003094
# 4 -0.001688 0.012594 0.004416 0.034406 -0.000439 0.003301
# 5 -0.002521 0.004525 -0.004303 -0.000439 0.030373 0.005383
# 6 -0.000477 0.007328 -0.003094 0.003301 0.005383 0.027894
#
#
# Mechanical properties :
#
#
# Convention : Reuss Voigt Hill
#
# Bulk Modulus (GPa) = 30.42170 39.16959 34.79565
# Shear Modulus (GPa) = 29.89431 36.61981 33.25706
#
# Velocity S-wave (km/s) = 3.62331 4.01023 3.82167
# Velocity P-wave (km/s) = 5.55558 6.21645 5.89528
#
# Compressibility (1/GPa) = 0.03287127
#
# Stress axis : x y z
#
# Youngs Moduli (GPa) = 79.72996 48.40104 66.46594
#
# Poissons Ratio (x) = 0.20349 0.05758
# Poissons Ratio (y) = 0.33521 0.17401
# Poissons Ratio (z) = 0.06907 0.12671
#
# Static dielectric constant tensor:
#      x y z
#    x 4.683810 -0.357750 -0.105270 
#    y -0.357750 4.455580 0.062050 
#    z -0.105270 0.062050 3.913640 
# 
# 
# High freq. dielectric constant tensor:
#      x y z
#    x 1.910220 0.005610 -0.000600 
#    y 0.005610 1.912450 -0.001850 
#    z -0.000600 -0.001850 1.898240 
# 
# From -- ./inp_files/577928.got.cif
#   From: 2010.06.25/outbox.cif.g09.slc.cpg/sg2_289_cif.got.tgz:577928.got - 2010.06.27 13:26:56.
