data_PCOD8016329
_publ_section_title
;
Structure prediction by ZEFSAII (Michael W. Deem and Ramdas Pophale) SiO2 
 PCOD8016329
Probable space group: P -1
;
_chemical_formula_sum "Si O2"
_cell_formula_units_Z 14
_cell_length_a 8.701070
_cell_length_b 8.031852
_cell_length_c 15.318544
_cell_angle_alpha 75.189160
_cell_angle_beta 34.249032
_cell_angle_gamma 78.465433
_cell_volume 582.349880
_symmetry_space_group_name_H-M "P -1"
_symmetry_group_IT_number 2
_symmetry_cell_setting 'triclinic'
loop_
_space_group_symop_operation_xyz
x,y,z
-x,-y,-z
loop_
_atom_site_type_symbol
_atom_site_label
_atom_site_fract_x
_atom_site_fract_y
_atom_site_fract_z
Si Si1 0.487519 0.406378 0.926726
Si Si2 0.125893 0.120198 0.059761
Si Si3 0.847065 0.352188 0.039940
Si Si4 0.569219 0.055889 0.713710
Si Si5 0.061747 0.406292 0.612926
Si Si6 0.886149 0.737603 0.573700
Si Si7 0.175389 0.213703 0.745594
O O1 0.766887 0.313033 0.783503
O O2 0.500000 0.500000 0.000000
O O3 0.240184 0.262533 0.056202
O O4 0.447315 0.564208 0.853919
O O5 0.365687 0.075225 0.886797
O O6 0.008759 0.948177 0.183699
O O7 0.865387 0.183203 0.115052
O O8 0.997821 0.322531 0.881432
O O9 0.000000 0.500000 0.000000
O O10 0.450572 0.145798 0.670188
O O11 0.859789 0.140282 0.588856
O O12 0.622127 0.850520 0.707465
O O13 0.991026 0.610291 0.618353
O O14 0.197366 0.363010 0.462693
O O15 0.255223 0.340767 0.609822
#
# Coordination Sequence:
#
# PCOD8016329 Si02
#       7
#     2   2   2   2   2   2   2
#     4  11  21  39  63  95 130 164 206 267 322 383
#     4  10  22  40  64  97 128 162 204 268 327 381
#     4   9  19  36  58  92 128 162 201 242 329 375
#     4  10  21  44  67  91 126 168 217 255 315 375
#     4  11  24  42  61  93 129 168 220 255 311 377
#     4  10  24  44  66  87 122 182 215 258 302 372
#     4  11  23  40  65  99 131 160 205 275 322 376
#
# _framework density 24.040527999999998
#
# number of rings (size 3 to 8) (size 9 to 14) (size 15 to 20)
#    0.000    1.714    2.857    1.714    4.000    1.714 
#    5.143    0.000    0.000    0.000    0.000    0.000 
#    0.000    0.000    0.000    0.000    0.000    0.000 
#
# Total GULP energy -173483.487574 kJ/mol
# GULP energy per Si atom -12391.677684 kJ/mol
# Density = 2.398581 g / cm^3
# Si number density = 24.040528 Si / 1000 Ang^3
#
#
#
# Elastic Constant Matrix: (Units=GPa)
#
#
# Indices 1 2 3 4 5 6 
#
# 1 94.4393 52.2697 18.7736 9.2360 17.7126 -8.1279
# 2 52.2697 138.9331 20.5348 12.5669 17.8712 -16.3304
# 3 18.7736 20.5348 32.3086 4.1260 9.9956 -3.3095
# 4 9.2360 12.5669 4.1260 28.9300 -9.2610 4.1774
# 5 17.7126 17.8712 9.9956 -9.2610 36.3355 0.1489
# 6 -8.1279 -16.3304 -3.3095 4.1774 0.1489 44.4478
#
#
#
# Elastic Compliance Matrix: (Units=1/GPa)
#
#
# Indices 1 2 3 4 5 6 
#
# 1 0.015093 -0.003782 -0.003877 -0.004644 -0.005621 0.001537
# 2 -0.003782 0.010246 -0.002211 -0.004622 -0.003779 0.003355
# 3 -0.003877 -0.002211 0.038530 -0.006563 -0.009303 0.001995
# 4 -0.004644 -0.004622 -0.006563 0.045843 0.018057 -0.007405
# 5 -0.005621 -0.003779 -0.009303 0.018057 0.039302 -0.004938
# 6 0.001537 0.003355 0.001995 -0.007405 -0.004938 0.024873
#
#
# Mechanical properties :
#
#
# Convention : Reuss Voigt Hill
#
# Bulk Modulus (GPa) = 22.66067 49.87081 36.26574
# Shear Modulus (GPa) = 23.99947 33.54952 28.77450
#
# Velocity S-wave (km/s) = 3.16300 3.73975 3.46340
# Velocity P-wave (km/s) = 4.77346 6.27990 5.57777
#
# Compressibility (1/GPa) = 0.04412932
#
# Stress axis : x y z
#
# Youngs Moduli (GPa) = 66.25433 97.59962 25.95350
#
# Poissons Ratio (x) = 0.36908 0.10063
# Poissons Ratio (y) = 0.25054 0.05740
# Poissons Ratio (z) = 0.25688 0.21584
#
# Static dielectric constant tensor:
#      x y z
#    x 4.062290 0.442810 0.070070 
#    y 0.442810 3.665090 -0.319900 
#    z 0.070070 -0.319900 3.774670 
# 
# 
# High freq. dielectric constant tensor:
#      x y z
#    x 1.953420 -0.009630 -0.012880 
#    y -0.009630 1.979240 0.001680 
#    z -0.012880 0.001680 1.923120 
# 
# From -- ./inp_files/157101.got.cif
#   From: 2010.06.25/outbox.cif.g09.slc.cpg/sg2_79_cif.got.tgz:157101.got - 2010.06.27 13:26:56.
