data_PCOD8016590
_publ_section_title
;
Structure prediction by ZEFSAII (Michael W. Deem and Ramdas Pophale) SiO2 
 PCOD8016590
Probable space group: P -1
;
_chemical_formula_sum "Si O2"
_cell_formula_units_Z 14
_cell_length_a 22.383255
_cell_length_b 11.553060
_cell_length_c 8.097672
_cell_angle_alpha 146.339016
_cell_angle_beta 138.697632
_cell_angle_gamma 30.513075
_cell_volume 584.951117
_symmetry_space_group_name_H-M "P -1"
_symmetry_group_IT_number 2
_symmetry_cell_setting 'triclinic'
loop_
_space_group_symop_operation_xyz
x,y,z
-x,-y,-z
loop_
_atom_site_type_symbol
_atom_site_label
_atom_site_fract_x
_atom_site_fract_y
_atom_site_fract_z
Si Si1 0.322265 0.226257 0.494498
Si Si2 0.679802 0.188435 0.190169
Si Si3 0.173532 0.701684 0.524292
Si Si4 0.003593 0.231113 0.993980
Si Si5 0.338224 0.039585 0.790895
Si Si6 0.527783 0.787227 0.607462
Si Si7 0.134351 0.434978 0.605878
O O1 0.297377 0.422257 0.524914
O O2 0.221620 0.432612 0.665156
O O3 0.453840 0.044888 0.630781
O O4 0.309161 0.007060 0.153735
O O5 0.798270 0.153375 0.373017
O O6 0.569727 0.502369 0.285696
O O7 0.664087 0.130391 0.273540
O O8 0.102777 0.623229 0.189600
O O9 0.095258 0.909112 0.760085
O O10 0.952805 0.280879 0.135040
O O11 0.061797 0.374275 0.275109
O O12 0.214787 0.196237 0.625529
O O13 0.449372 0.839146 0.663673
O O14 0.355824 0.249439 0.146882
#
# Coordination Sequence:
#
# PCOD8016590 Si02
#       7
#     2   2   2   2   2   2   2
#     4  11  24  41  66  97 133 166 217 271 318 387
#     4  12  22  41  65  97 131 177 207 270 319 392
#     4  11  25  44  65  99 131 170 219 267 324 385
#     4  10  22  46  66  93 131 171 223 265 323 382
#     4  10  23  44  66  96 131 170 214 269 318 390
#     4  10  23  43  67  95 130 171 218 261 324 384
#     4  10  21  45  68  96 129 169 220 270 319 382
#
# _framework density 23.933626
#
# number of rings (size 3 to 8) (size 9 to 14) (size 15 to 20)
#    0.000    1.429    1.429    3.429    0.000    4.571 
#   20.571    0.000    0.000    0.000    0.000    0.000 
#    0.000    0.000    0.000    0.000    0.000    0.000 
#
# Total GULP energy -173538.306551 kJ/mol
# GULP energy per Si atom -12395.593325 kJ/mol
# Density = 2.387915 g / cm^3
# Si number density = 23.933626 Si / 1000 Ang^3
#
#
#
# Elastic Constant Matrix: (Units=GPa)
#
#
# Indices 1 2 3 4 5 6 
#
# 1 99.1045 39.6988 33.6944 3.3236 -1.3227 9.1597
# 2 39.6988 94.8086 31.2738 -12.5194 12.0118 8.4846
# 3 33.6944 31.2738 114.8538 -8.6810 -8.7529 1.7717
# 4 3.3236 -12.5194 -8.6810 36.1760 -5.0213 2.4333
# 5 -1.3227 12.0118 -8.7529 -5.0213 31.6692 -1.4358
# 6 9.1597 8.4846 1.7717 2.4333 -1.4358 28.5068
#
#
#
# Elastic Compliance Matrix: (Units=1/GPa)
#
#
# Indices 1 2 3 4 5 6 
#
# 1 0.013376 -0.005100 -0.002666 -0.003324 0.001126 -0.002274
# 2 -0.005100 0.015272 -0.002746 0.004463 -0.006212 -0.003430
# 3 -0.002666 -0.002746 0.010732 0.002401 0.004323 0.001020
# 4 -0.003324 0.004463 0.002401 0.030758 0.003579 -0.002855
# 5 0.001126 -0.006212 0.004323 0.003579 0.035865 0.002719
# 6 -0.002274 -0.003430 0.001020 -0.002855 0.002719 0.037148
#
#
# Mechanical properties :
#
#
# Convention : Reuss Voigt Hill
#
# Bulk Modulus (GPa) = 54.47342 57.56678 56.02010
# Shear Modulus (GPa) = 29.36123 32.87706 31.11915
#
# Velocity S-wave (km/s) = 3.50634 3.71034 3.60978
# Velocity P-wave (km/s) = 6.26116 6.51616 6.38993
#
# Compressibility (1/GPa) = 0.01835758
#
# Stress axis : x y z
#
# Youngs Moduli (GPa) = 74.75945 65.47941 93.18245
#
# Poissons Ratio (x) = 0.33393 0.24842
# Poissons Ratio (y) = 0.38125 0.25583
# Poissons Ratio (z) = 0.19930 0.17977
#
# Static dielectric constant tensor:
#      x y z
#    x 4.398710 -0.299440 -0.363870 
#    y -0.299440 4.200810 -0.077140 
#    z -0.363870 -0.077140 4.238570 
# 
# 
# High freq. dielectric constant tensor:
#      x y z
#    x 1.964460 -0.024850 -0.025350 
#    y -0.024850 1.936030 -0.002450 
#    z -0.025350 -0.002450 1.943950 
# 
# From -- ./inp_files/138764.got.cif
#   From: 2010.06.25/outbox.cif.g09.slc.cpg/sg2_70_cif.got.tgz:138764.got - 2010.06.27 13:26:56.
