data_PCOD8016307
_publ_section_title
;
Structure prediction by ZEFSAII (Michael W. Deem and Ramdas Pophale) SiO2 
 PCOD8016307
Probable space group: P -1
;
_chemical_formula_sum "Si O2"
_cell_formula_units_Z 14
_cell_length_a 16.221403
_cell_length_b 15.218571
_cell_length_c 7.456986
_cell_angle_alpha 115.327597
_cell_angle_beta 81.215411
_cell_angle_gamma 153.164728
_cell_volume 621.687494
_symmetry_space_group_name_H-M "P -1"
_symmetry_group_IT_number 2
_symmetry_cell_setting 'triclinic'
loop_
_space_group_symop_operation_xyz
x,y,z
-x,-y,-z
loop_
_atom_site_type_symbol
_atom_site_label
_atom_site_fract_x
_atom_site_fract_y
_atom_site_fract_z
Si Si1 0.906040 0.148919 0.964881
Si Si2 0.676788 0.290356 0.376516
Si Si3 0.670306 0.069094 0.127944
Si Si4 0.371450 0.663415 0.189844
Si Si5 0.945516 0.759889 0.649372
Si Si6 0.482151 0.592280 0.627305
Si Si7 0.425460 0.311494 0.907162
O O1 0.868397 0.208213 0.141936
O O2 0.112538 0.384906 0.966357
O O3 0.994650 0.165195 0.094584
O O4 0.681356 0.866500 0.699709
O O5 0.768542 0.279111 0.337708
O O6 0.608477 0.249535 0.563203
O O7 0.860174 0.558658 0.461936
O O8 0.458676 0.059673 0.127765
O O9 0.517424 0.863536 0.157726
O O10 0.445392 0.633381 0.195260
O O11 0.756481 0.632393 0.553049
O O12 0.166022 0.022222 0.693448
O O13 0.500000 0.500000 0.500000
O O14 0.517067 0.652236 0.875725
O O15 0.500000 0.500000 0.000000
#
# Coordination Sequence:
#
# PCOD8016307 Si02
#       7
#     2   2   2   2   2   2   2
#     4  10  23  42  69  97 139 178 226 292 329 415
#     4  10  23  41  74  96 137 185 224 284 347 405
#     4  11  21  48  64 105 141 172 239 281 334 417
#     4  11  23  45  66 100 139 181 226 283 345 402
#     4  10  21  44  66  94 133 184 214 284 345 392
#     4  11  24  43  68  95 134 181 229 285 348 400
#     4  11  26  43  64 100 138 174 232 287 332 420
#
# _framework density 22.519352000000001
#
# number of rings (size 3 to 8) (size 9 to 14) (size 15 to 20)
#    0.000    1.429    4.286    0.429    6.000    4.000 
#   10.286    1.429    0.000    0.000    0.000    0.000 
#    0.000    0.000    0.000    0.000    0.000    0.000 
#
# Total GULP energy -173530.578135 kJ/mol
# GULP energy per Si atom -12395.041295 kJ/mol
# Density = 2.246810 g / cm^3
# Si number density = 22.519352 Si / 1000 Ang^3
#
#
#
# Elastic Constant Matrix: (Units=GPa)
#
#
# Indices 1 2 3 4 5 6 
#
# 1 169.1106 64.2451 46.8119 25.3226 -19.7911 19.2911
# 2 64.2451 112.2784 17.9426 32.0705 -7.1284 16.5702
# 3 46.8119 17.9426 71.2143 13.0879 -7.1015 17.6260
# 4 25.3226 32.0705 13.0879 34.4062 -4.1605 4.5554
# 5 -19.7911 -7.1284 -7.1015 -4.1605 50.1207 7.4561
# 6 19.2911 16.5702 17.6260 4.5554 7.4561 36.4331
#
#
#
# Elastic Compliance Matrix: (Units=1/GPa)
#
#
# Indices 1 2 3 4 5 6 
#
# 1 0.009200 -0.003924 -0.004263 -0.000987 0.002602 -0.001433
# 2 -0.003924 0.014597 0.002012 -0.010849 0.000549 -0.004291
# 3 -0.004263 0.002012 0.019380 -0.004812 0.002119 -0.007866
# 4 -0.000987 -0.010849 -0.004812 0.041457 0.000453 0.002509
# 5 0.002602 0.000549 0.002119 0.000453 0.022483 -0.007311
# 6 -0.001433 -0.004291 -0.007866 0.002509 -0.007311 0.035146
#
#
# Mechanical properties :
#
#
# Convention : Reuss Voigt Hill
#
# Bulk Modulus (GPa) = 32.43900 67.84473 50.14187
# Shear Modulus (GPa) = 30.32347 39.09890 34.71119
#
# Velocity S-wave (km/s) = 3.67352 4.17134 3.93032
# Velocity P-wave (km/s) = 5.69467 7.30704 6.55065
#
# Compressibility (1/GPa) = 0.03082709
#
# Stress axis : x y z
#
# Youngs Moduli (GPa) = 108.69534 68.50615 51.59925
#
# Poissons Ratio (x) = 0.26884 0.21998
# Poissons Ratio (y) = 0.42655 -0.10384
# Poissons Ratio (z) = 0.46339 -0.13786
#
# Static dielectric constant tensor:
#      x y z
#    x 4.405910 0.115680 -0.139140 
#    y 0.115680 4.093290 0.237990 
#    z -0.139140 0.237990 4.478490 
# 
# 
# High freq. dielectric constant tensor:
#      x y z
#    x 1.899270 0.007530 -0.000630 
#    y 0.007530 1.875440 0.016090 
#    z -0.000630 0.016090 1.891460 
# 
# From -- ./inp_files/313857.got.cif
#   From: 2010.06.25/outbox.cif.g09.slc.cpg/sg2_157_cif.got.tgz:313857.got - 2010.06.27 13:26:56.
