data_PCOD8016079
_publ_section_title
;
Structure prediction by ZEFSAII (Michael W. Deem and Ramdas Pophale) SiO2 
 PCOD8016079
Probable space group: P -1
;
_chemical_formula_sum "Si O2"
_cell_formula_units_Z 14
_cell_length_a 9.319135
_cell_length_b 11.944929
_cell_length_c 14.269126
_cell_angle_alpha 151.139732
_cell_angle_beta 121.442428
_cell_angle_gamma 48.072102
_cell_volume 561.389371
_symmetry_space_group_name_H-M "P -1"
_symmetry_group_IT_number 2
_symmetry_cell_setting 'triclinic'
loop_
_space_group_symop_operation_xyz
x,y,z
-x,-y,-z
loop_
_atom_site_type_symbol
_atom_site_label
_atom_site_fract_x
_atom_site_fract_y
_atom_site_fract_z
Si Si1 0.461411 0.726054 0.229331
Si Si2 0.055255 0.240697 0.518782
Si Si3 0.102681 0.156667 0.109652
Si Si4 0.442721 0.107787 0.910232
Si Si5 0.483969 0.545203 0.309812
Si Si6 0.765143 0.140032 0.242414
Si Si7 0.272086 0.135076 0.685616
O O1 0.537734 0.570679 0.239806
O O2 0.591257 0.857469 0.344556
O O3 0.239010 0.976086 0.340893
O O4 0.500000 0.500000 0.000000
O O5 0.066548 0.256182 0.648818
O O6 0.019566 0.524278 0.672626
O O7 0.878408 0.192860 0.401191
O O8 0.324300 0.030304 0.134311
O O9 0.105943 0.122423 0.972099
O O10 0.000000 0.000000 0.000000
O O11 0.297402 0.257560 0.880510
O O12 0.403288 0.892109 0.788462
O O13 0.383587 0.361533 0.144117
O O14 0.676852 0.397947 0.332107
O O15 0.341234 0.831027 0.516748
#
# Coordination Sequence:
#
# PCOD8016079 Si02
#       7
#     2   2   2   2   2   2   2
#     4  11  24  45  74 103 147 187 242 300 370 420
#     4  11  27  44  70 113 141 189 244 305 349 432
#     4  11  27  45  75 109 148 184 241 306 357 420
#     4  11  25  48  73 104 145 201 232 293 362 436
#     4  10  21  43  70 101 133 191 234 293 353 425
#     4  11  27  46  73 105 151 189 245 290 362 431
#     4  11  25  42  72 101 145 187 239 291 367 425
#
# _framework density 24.938127999999999
#
# number of rings (size 3 to 8) (size 9 to 14) (size 15 to 20)
#    0.000    1.143    1.429    4.286   12.000    4.571 
#    0.000    6.429    0.000    0.000    0.000    0.000 
#    0.000    0.000    0.000    0.000    0.000    0.000 
#
# Total GULP energy -173437.971653 kJ/mol
# GULP energy per Si atom -12388.426547 kJ/mol
# Density = 2.488137 g / cm^3
# Si number density = 24.938128 Si / 1000 Ang^3
#
#
#
# Elastic Constant Matrix: (Units=GPa)
#
#
# Indices 1 2 3 4 5 6 
#
# 1 108.8348 52.8491 32.4012 2.8366 24.9204 -1.8285
# 2 52.8491 146.7945 57.2021 -22.9533 19.9602 -5.7658
# 3 32.4012 57.2021 115.7563 7.9282 23.6714 -22.1951
# 4 2.8366 -22.9533 7.9282 58.4874 4.4144 5.0127
# 5 24.9204 19.9602 23.6714 4.4144 31.0706 -5.3238
# 6 -1.8285 -5.7658 -22.1951 5.0127 -5.3238 28.0944
#
#
#
# Elastic Compliance Matrix: (Units=1/GPa)
#
#
# Indices 1 2 3 4 5 6 
#
# 1 0.012877 -0.003698 -0.000387 -0.001316 -0.007719 -0.001455
# 2 -0.003698 0.011130 -0.005162 0.005657 -0.001629 -0.003352
# 3 -0.000387 -0.005162 0.014626 -0.004486 -0.005114 0.010302
# 4 -0.001316 0.005657 -0.004486 0.020821 -0.003285 -0.006807
# 5 -0.007719 -0.001629 -0.005114 -0.003285 0.044495 0.004141
# 6 -0.001455 -0.003352 0.010302 -0.006807 0.004141 0.044949
#
#
# Mechanical properties :
#
#
# Convention : Reuss Voigt Hill
#
# Bulk Modulus (GPa) = 49.65606 72.92116 61.28861
# Shear Modulus (GPa) = 28.71828 38.79267 33.75547
#
# Velocity S-wave (km/s) = 3.39718 3.94833 3.68308
# Velocity P-wave (km/s) = 5.94497 7.07744 6.53578
#
# Compressibility (1/GPa) = 0.02013853
#
# Stress axis : x y z
#
# Youngs Moduli (GPa) = 77.65919 89.85093 68.37048
#
# Poissons Ratio (x) = 0.33231 0.02645
# Poissons Ratio (y) = 0.28722 0.35291
# Poissons Ratio (z) = 0.03004 0.46378
#
# Static dielectric constant tensor:
#      x y z
#    x 4.120530 0.099680 0.238840 
#    y 0.099680 4.783370 -0.106850 
#    z 0.238840 -0.106850 4.893960 
# 
# 
# High freq. dielectric constant tensor:
#      x y z
#    x 1.962860 0.009230 0.024070 
#    y 0.009230 2.002720 -0.009470 
#    z 0.024070 -0.009470 2.013470 
# 
# From -- ./inp_files/501287.got.cif
#   From: 2010.06.25/outbox.cif.g09.slc.cpg/sg2_251_cif.got.tgz:501287.got - 2010.06.27 13:26:56.
