data_PCOD8016198
_publ_section_title
;
Structure prediction by ZEFSAII (Michael W. Deem and Ramdas Pophale) SiO2 
 PCOD8016198
Probable space group: P -1
;
_chemical_formula_sum "Si O2"
_cell_formula_units_Z 16
_cell_length_a 7.916022
_cell_length_b 12.005378
_cell_length_c 15.585331
_cell_angle_alpha 150.527094
_cell_angle_beta 85.285437
_cell_angle_gamma 102.558083
_cell_volume 693.394965
_symmetry_space_group_name_H-M "P -1"
_symmetry_group_IT_number 2
_symmetry_cell_setting 'triclinic'
loop_
_space_group_symop_operation_xyz
x,y,z
-x,-y,-z
loop_
_atom_site_type_symbol
_atom_site_label
_atom_site_fract_x
_atom_site_fract_y
_atom_site_fract_z
Si Si1 0.185323 0.280030 0.623289
Si Si2 0.784895 0.930384 0.159310
Si Si3 0.810222 0.494463 0.969449
Si Si4 0.785482 0.171744 0.604227
Si Si5 0.385770 0.705280 0.997680
Si Si6 0.692610 0.316331 0.531026
Si Si7 0.687826 0.829625 0.630364
Si Si8 0.910894 0.688769 0.664441
O O1 0.182643 0.170800 0.455420
O O2 0.991424 0.300145 0.663477
O O3 0.244705 0.109545 0.574703
O O4 0.313309 0.549306 0.811054
O O5 0.595016 0.815037 0.045612
O O6 0.779520 0.130060 0.361094
O O7 0.844350 0.735111 0.077138
O O8 0.938157 0.053796 0.165106
O O9 0.729406 0.268450 0.759928
O O10 0.666113 0.470647 0.035707
O O11 0.000000 0.500000 0.000000
O O12 0.667116 0.245433 0.584756
O O13 0.293786 0.909593 0.158117
O O14 0.507875 0.301263 0.483415
O O15 0.822225 0.586220 0.691385
O O16 0.746407 0.687607 0.608725
O O17 0.000000 0.500000 0.500000
#
# Coordination Sequence:
#
# PCOD8016198 Si02
#       8
#     2   2   2   2   2   2   2   2
#     4  11  23  40  65  98 140 168 218 269 327 398
#     4  10  23  39  64  92 129 174 222 262 329 389
#     4  12  22  39  63  96 136 180 213 269 333 392
#     4  11  24  39  65  99 134 175 220 263 332 398
#     4  11  23  41  63 100 134 175 209 271 332 391
#     4  10  23  42  67  96 128 173 223 274 327 386
#     4  11  23  42  71  99 129 172 219 271 333 394
#     4  10  21  43  73  91 127 176 221 270 331 385
#
# _framework density 23.074871999999999
#
# number of rings (size 3 to 8) (size 9 to 14) (size 15 to 20)
#    0.000    1.250    2.500    3.750    3.500    1.500 
#    0.000    0.625    5.500    5.250    0.000    0.000 
#    0.000    0.000    0.000    0.000    0.000    0.000 
#
# Total GULP energy -198335.059831 kJ/mol
# GULP energy per Si atom -12395.941239 kJ/mol
# Density = 2.302235 g / cm^3
# Si number density = 23.074872 Si / 1000 Ang^3
#
#
#
# Elastic Constant Matrix: (Units=GPa)
#
#
# Indices 1 2 3 4 5 6 
#
# 1 87.9800 11.0593 34.1687 7.6433 6.7114 -14.4925
# 2 11.0593 53.2418 19.3228 9.6282 -1.3891 -16.5230
# 3 34.1687 19.3228 95.2081 5.5613 10.1020 -8.8162
# 4 7.6433 9.6282 5.5613 33.2266 2.3045 2.9305
# 5 6.7114 -1.3891 10.1020 2.3045 29.3492 5.2528
# 6 -14.4925 -16.5230 -8.8162 2.9305 5.2528 36.9371
#
#
#
# Elastic Compliance Matrix: (Units=1/GPa)
#
#
# Indices 1 2 3 4 5 6 
#
# 1 0.014328 0.000826 -0.004349 -0.003125 -0.002489 0.005555
# 2 0.000826 0.024898 -0.003985 -0.007777 0.001006 0.010985
# 3 -0.004349 -0.003985 0.013287 0.000177 -0.003819 0.000212
# 4 -0.003125 -0.007777 0.000177 0.033748 -0.001078 -0.007186
# 5 -0.002489 0.001006 -0.003819 -0.001078 0.037280 -0.006654
# 6 0.005555 0.010985 0.000212 -0.007186 -0.006654 0.035733
#
#
# Mechanical properties :
#
#
# Convention : Reuss Voigt Hill
#
# Bulk Modulus (GPa) = 26.66778 40.61462 33.64120
# Shear Modulus (GPa) = 26.76827 31.36117 29.06472
#
# Velocity S-wave (km/s) = 3.40966 3.69060 3.55291
# Velocity P-wave (km/s) = 5.20415 5.98333 5.60729
#
# Compressibility (1/GPa) = 0.03749843
#
# Stress axis : x y z
#
# Youngs Moduli (GPa) = 69.79517 40.16314 75.26022
#
# Poissons Ratio (x) = -0.03318 0.32728
# Poissons Ratio (y) = -0.05766 0.29991
# Poissons Ratio (z) = 0.30351 0.16005
#
# Static dielectric constant tensor:
#      x y z
#    x 4.168290 0.146270 -0.030520 
#    y 0.146270 4.420670 0.251400 
#    z -0.030520 0.251400 4.175180 
# 
# 
# High freq. dielectric constant tensor:
#      x y z
#    x 1.921060 0.001060 -0.001440 
#    y 0.001060 1.897510 0.017950 
#    z -0.001440 0.017950 1.900300 
# 
# From -- ./inp_files/355522.got.cif
#   From: 2010.06.25/outbox.cif.g09.slc.cpg/sg2_178_cif.got.tgz:355522.got - 2010.06.27 13:26:56.
