data_PCOD8016340
_publ_section_title
;
Structure prediction by ZEFSAII (Michael W. Deem and Ramdas Pophale) SiO2 
 PCOD8016340
Probable space group: P -1
;
_chemical_formula_sum "Si O2"
_cell_formula_units_Z 16
_cell_length_a 8.526588
_cell_length_b 9.594878
_cell_length_c 18.098365
_cell_angle_alpha 133.229564
_cell_angle_beta 114.793553
_cell_angle_gamma 44.902384
_cell_volume 755.290527
_symmetry_space_group_name_H-M "P -1"
_symmetry_group_IT_number 2
_symmetry_cell_setting 'triclinic'
loop_
_space_group_symop_operation_xyz
x,y,z
-x,-y,-z
loop_
_atom_site_type_symbol
_atom_site_label
_atom_site_fract_x
_atom_site_fract_y
_atom_site_fract_z
Si Si1 0.178641 0.521477 0.073339
Si Si2 0.678657 0.052617 0.958543
Si Si3 0.047736 0.744352 0.424141
Si Si4 0.673367 0.437286 0.287342
Si Si5 0.220495 0.447228 0.497273
Si Si6 0.432910 0.090058 0.602179
Si Si7 0.697295 0.596345 0.786538
Si Si8 0.971182 0.037495 0.891596
O O1 0.143521 0.552623 0.165838
O O2 0.431080 0.285737 0.017755
O O3 0.133317 0.762662 0.120942
O O4 0.000000 0.500000 0.000000
O O5 0.667376 0.840829 0.855480
O O6 0.851109 0.962197 0.026837
O O7 0.764048 0.114913 0.928691
O O8 0.174399 0.613911 0.478702
O O9 0.205437 0.573741 0.327171
O O10 0.821651 0.784864 0.387573
O O11 0.000000 0.000000 0.500000
O O12 0.690361 0.485314 0.393798
O O13 0.551030 0.690483 0.306264
O O14 0.541094 0.332464 0.217772
O O15 0.913133 0.228003 0.220514
O O16 0.000000 0.500000 0.500000
O O17 0.399815 0.154279 0.402862
O O18 0.500000 0.000000 0.500000
#
# Coordination Sequence:
#
# PCOD8016340 Si02
#       8
#     2   2   2   2   2   2   2   2
#     4  12  24  46  72 100 138 187 228 282 353 418
#     4  11  24  48  68 103 142 175 231 303 338 410
#     4  12  26  45  68 104 141 176 230 292 340 407
#     4  11  23  43  73 101 136 187 230 284 348 414
#     4  11  24  45  74  95 137 187 232 280 342 413
#     4  10  21  44  67  96 131 179 228 283 335 402
#     4  12  26  45  69 101 143 180 226 288 351 408
#     4  11  24  44  75 102 137 180 237 284 353 415
#
# _framework density 21.183902
#
# number of rings (size 3 to 8) (size 9 to 14) (size 15 to 20)
#    0.000    0.750    5.000    3.750    1.750    2.000 
#    2.250    0.000    0.000    0.000    0.000    0.000 
#    0.000    0.000    0.000    0.000    0.000    0.000 
#
# Total GULP energy -198411.457743 kJ/mol
# GULP energy per Si atom -12400.716109 kJ/mol
# Density = 2.113569 g / cm^3
# Si number density = 21.183902 Si / 1000 Ang^3
#
#
#
# Elastic Constant Matrix: (Units=GPa)
#
#
# Indices 1 2 3 4 5 6 
#
# 1 94.0193 23.5674 21.6263 -0.5180 9.2503 -0.0511
# 2 23.5674 137.9698 43.8373 7.5291 4.9904 18.9893
# 3 21.6263 43.8373 102.1373 10.7949 0.6951 13.0768
# 4 -0.5180 7.5291 10.7949 42.0012 2.6248 1.3197
# 5 9.2503 4.9904 0.6951 2.6248 39.7382 0.9043
# 6 -0.0511 18.9893 13.0768 1.3197 0.9043 36.0437
#
#
#
# Elastic Compliance Matrix: (Units=1/GPa)
#
#
# Indices 1 2 3 4 5 6 
#
# 1 0.011775 -0.001517 -0.002146 0.001082 -0.002621 0.001621
# 2 -0.001517 0.009022 -0.003008 -0.000712 -0.000598 -0.003623
# 3 -0.002146 -0.003008 0.012156 -0.002581 0.000898 -0.002757
# 4 0.001082 -0.000712 -0.002581 0.024709 -0.001760 0.000452
# 5 -0.002621 -0.000598 0.000898 -0.001760 0.025964 -0.000602
# 6 0.001621 -0.003623 -0.002757 0.000452 -0.000602 0.030654
#
#
# Mechanical properties :
#
#
# Convention : Reuss Voigt Hill
#
# Bulk Modulus (GPa) = 50.99216 56.90983 53.95100
# Shear Modulus (GPa) = 37.26967 39.89631 38.58299
#
# Velocity S-wave (km/s) = 4.19900 4.34444 4.27234
# Velocity P-wave (km/s) = 6.90161 7.21724 7.06119
#
# Compressibility (1/GPa) = 0.01961086
#
# Stress axis : x y z
#
# Youngs Moduli (GPa) = 84.92800 110.84231 82.26562
#
# Poissons Ratio (x) = 0.16811 0.17655
# Poissons Ratio (y) = 0.12881 0.24745
# Poissons Ratio (z) = 0.18227 0.33340
#
# Static dielectric constant tensor:
#      x y z
#    x 3.676560 0.234630 0.374950 
#    y 0.234630 4.522830 -0.462380 
#    z 0.374950 -0.462380 3.511120 
# 
# 
# High freq. dielectric constant tensor:
#      x y z
#    x 1.844360 0.005110 -0.000350 
#    y 0.005110 1.836080 0.010630 
#    z -0.000350 0.010630 1.831470 
# 
# From -- ./inp_files/357750.got.cif
#   From: 2010.06.25/outbox.cif.g09.slc.cpg/sg2_179_cif.got.tgz:357750.got - 2010.06.27 13:26:56.
