data_PCOD8016371
_publ_section_title
;
Structure prediction by ZEFSAII (Michael W. Deem and Ramdas Pophale) SiO2 
 PCOD8016371
Probable space group: P -1
;
_chemical_formula_sum "Si O2"
_cell_formula_units_Z 14
_cell_length_a 9.192991
_cell_length_b 8.497976
_cell_length_c 16.212919
_cell_angle_alpha 64.963517
_cell_angle_beta 142.341424
_cell_angle_gamma 96.554243
_cell_volume 642.877441
_symmetry_space_group_name_H-M "P -1"
_symmetry_group_IT_number 2
_symmetry_cell_setting 'triclinic'
loop_
_space_group_symop_operation_xyz
x,y,z
-x,-y,-z
loop_
_atom_site_type_symbol
_atom_site_label
_atom_site_fract_x
_atom_site_fract_y
_atom_site_fract_z
Si Si1 0.862085 0.271316 0.168818
Si Si2 0.229645 0.209312 0.201588
Si Si3 0.931733 0.490966 0.565364
Si Si4 0.689483 0.809891 0.503646
Si Si5 0.013975 0.196948 0.939807
Si Si6 0.561336 0.573892 0.636346
Si Si7 0.299271 0.322967 0.914716
O O1 0.786771 0.490867 0.108281
O O2 0.981227 0.229049 0.140341
O O3 0.083750 0.141298 0.361484
O O4 0.611329 0.220365 0.071359
O O5 0.374733 0.336625 0.272310
O O6 0.429520 0.992245 0.336387
O O7 0.132408 0.273992 0.051506
O O8 0.792965 0.708478 0.485569
O O9 0.741273 0.381826 0.510595
O O10 0.000000 0.500000 0.500000
O O11 0.185215 0.375353 0.759727
O O12 0.636447 0.658432 0.570459
O O13 0.723858 0.347782 0.757822
O O14 0.194543 0.179342 0.944544
O O15 0.000000 0.000000 0.000000
#
# Coordination Sequence:
#
# PCOD8016371 Si02
#       7
#     2   2   2   2   2   2   2
#     4   9  19  40  71  95 130 169 226 273 339 381
#     4  11  23  40  71  99 128 172 235 270 330 397
#     4  11  24  40  68  98 132 175 223 271 342 396
#     4  10  21  44  68  98 129 176 223 281 328 392
#     4  12  25  41  64 102 139 178 220 272 328 403
#     4  11  22  42  68  94 132 179 226 271 329 394
#     4  10  22  41  64 101 135 174 214 282 336 387
#
# _framework density 21.777090999999999
#
# number of rings (size 3 to 8) (size 9 to 14) (size 15 to 20)
#    0.000    1.429    4.286    3.429    4.000    2.286 
#    0.000    7.857    0.000    0.000    0.000    0.000 
#    0.000    0.000    0.000    0.000    0.000    0.000 
#
# Total GULP energy -173627.377219 kJ/mol
# GULP energy per Si atom -12401.955516 kJ/mol
# Density = 2.172753 g / cm^3
# Si number density = 21.777091 Si / 1000 Ang^3
#
#
#
# Elastic Constant Matrix: (Units=GPa)
#
#
# Indices 1 2 3 4 5 6 
#
# 1 139.9855 40.9072 74.6081 16.6277 -0.6164 -2.8250
# 2 40.9072 62.3971 20.3860 3.1727 -2.2404 8.2151
# 3 74.6081 20.3860 106.5384 8.0742 3.1975 4.8519
# 4 16.6277 3.1727 8.0742 37.2336 -0.5637 0.2954
# 5 -0.6164 -2.2404 3.1975 -0.5637 40.0044 9.8133
# 6 -2.8250 8.2151 4.8519 0.2954 9.8133 32.4538
#
#
#
# Elastic Compliance Matrix: (Units=1/GPa)
#
#
# Indices 1 2 3 4 5 6 
#
# 1 0.014323 -0.007007 -0.008575 -0.003986 -0.000655 0.004537
# 2 -0.007007 0.021254 0.000985 0.001201 0.002731 -0.006974
# 3 -0.008575 0.000985 0.015328 0.000438 -0.000528 -0.003132
# 4 -0.003986 0.001201 0.000438 0.028459 0.000660 -0.001175
# 5 -0.000655 0.002731 -0.000528 0.000660 0.027389 -0.008957
# 6 0.004537 -0.006974 -0.003132 -0.001175 -0.008957 0.036161
#
#
# Mechanical properties :
#
#
# Convention : Reuss Voigt Hill
#
# Bulk Modulus (GPa) = 46.05981 64.52485 55.29233
# Shear Modulus (GPa) = 27.87929 33.47301 30.67615
#
# Velocity S-wave (km/s) = 3.58189 3.92481 3.75726
# Velocity P-wave (km/s) = 6.18895 7.08751 6.65342
#
# Compressibility (1/GPa) = 0.02171090
#
# Stress axis : x y z
#
# Youngs Moduli (GPa) = 69.81593 47.05087 65.24069
#
# Poissons Ratio (x) = 0.32969 0.55942
# Poissons Ratio (y) = 0.48920 -0.06424
# Poissons Ratio (z) = 0.59865 -0.04633
#
# Static dielectric constant tensor:
#      x y z
#    x 4.035750 -0.008220 0.388760 
#    y -0.008220 3.814760 0.432170 
#    z 0.388760 0.432170 4.533600 
# 
# 
# High freq. dielectric constant tensor:
#      x y z
#    x 1.848770 -0.008760 0.007520 
#    y -0.008760 1.840850 0.017090 
#    z 0.007520 0.017090 1.868610 
# 
# From -- ./inp_files/158840.got.cif
#   From: 2010.06.25/outbox.cif.g09.slc.cpg/sg2_80_cif.got.tgz:158840.got - 2010.06.27 13:26:56.
