data_PCOD8016294
_publ_section_title
;
Structure prediction by ZEFSAII (Michael W. Deem and Ramdas Pophale) SiO2 
 PCOD8016294
Probable space group: P -1
;
_chemical_formula_sum "Si O2"
_cell_formula_units_Z 16
_cell_length_a 18.318029
_cell_length_b 13.318311
_cell_length_c 8.244529
_cell_angle_alpha 61.290441
_cell_angle_beta 53.787038
_cell_angle_gamma 28.144903
_cell_volume 761.135514
_symmetry_space_group_name_H-M "P -1"
_symmetry_group_IT_number 2
_symmetry_cell_setting 'triclinic'
loop_
_space_group_symop_operation_xyz
x,y,z
-x,-y,-z
loop_
_atom_site_type_symbol
_atom_site_label
_atom_site_fract_x
_atom_site_fract_y
_atom_site_fract_z
Si Si1 0.532378 0.096573 0.178771
Si Si2 0.175660 0.867695 0.914042
Si Si3 0.026832 0.740169 0.952608
Si Si4 0.949615 0.586687 0.319993
Si Si5 0.116847 0.212357 0.195245
Si Si6 0.642746 0.535755 0.091857
Si Si7 0.678238 0.123144 0.548447
Si Si8 0.420154 0.976812 0.475138
O O1 0.487298 0.170151 0.370323
O O2 0.519372 0.973844 0.257367
O O3 0.396470 0.309610 0.082159
O O4 0.721110 0.934351 0.014405
O O5 0.302789 0.626648 0.975208
O O6 0.255515 0.846056 0.672063
O O7 0.133509 0.001448 0.010268
O O8 0.000000 0.000000 0.000000
O O9 0.002244 0.661344 0.168029
O O10 0.208936 0.599875 0.865338
O O11 0.019031 0.709948 0.798460
O O12 0.000000 0.500000 0.500000
O O13 0.036695 0.416296 0.201613
O O14 0.749689 0.785553 0.413179
O O15 0.164795 0.083713 0.385844
O O16 0.477469 0.668083 0.300348
O O17 0.610478 0.088075 0.563573
#
# Coordination Sequence:
#
# PCOD8016294 Si02
#       8
#     2   2   2   2   2   2   2   2
#     4  10  23  40  59  95 126 168 204 253 310 369
#     4  10  21  44  66  87 121 163 211 263 305 364
#     4  11  22  40  61  92 123 163 209 254 306 362
#     4  12  21  36  60  90 123 167 199 249 308 366
#     4  11  23  38  64  93 130 161 207 252 312 377
#     4  10  24  39  66  88 126 164 211 251 313 364
#     4  11  22  41  62  93 123 160 208 256 317 363
#     4  11  22  38  62  89 135 161 205 256 306 375
#
# _framework density 21.021222999999999
#
# number of rings (size 3 to 8) (size 9 to 14) (size 15 to 20)
#    0.000    1.250    3.750    1.500    1.750    3.000 
#    0.000    9.375    0.000    0.000    0.000    0.000 
#    0.000    0.000    0.000    0.000    0.000    0.000 
#
# Total GULP energy -198358.954691 kJ/mol
# GULP energy per Si atom -12397.434668 kJ/mol
# Density = 2.097338 g / cm^3
# Si number density = 21.021223 Si / 1000 Ang^3
#
#
#
# Elastic Constant Matrix: (Units=GPa)
#
#
# Indices 1 2 3 4 5 6 
#
# 1 94.0993 35.5006 20.3961 -9.6409 12.6491 7.8001
# 2 35.5006 96.0353 12.0971 9.8514 4.7938 16.6561
# 3 20.3961 12.0971 64.6214 -10.1990 -1.3672 1.5561
# 4 -9.6409 9.8514 -10.1990 26.0611 0.0304 1.3672
# 5 12.6491 4.7938 -1.3672 0.0304 31.7539 2.8895
# 6 7.8001 16.6561 1.5561 1.3672 2.8895 34.1006
#
#
#
# Elastic Compliance Matrix: (Units=1/GPa)
#
#
# Indices 1 2 3 4 5 6 
#
# 1 0.014625 -0.005402 -0.002688 0.006428 -0.005095 -0.000410
# 2 -0.005402 0.014417 -0.002117 -0.007993 0.000385 -0.005422
# 3 -0.002688 -0.002117 0.017821 0.006757 0.002116 0.000385
# 4 0.006428 -0.007993 0.006757 0.046397 -0.001140 0.000362
# 5 -0.005095 0.000385 0.002116 -0.001140 0.033732 -0.001932
# 6 -0.000410 -0.005422 0.000385 0.000362 -0.001932 0.032199
#
#
# Mechanical properties :
#
#
# Convention : Reuss Voigt Hill
#
# Bulk Modulus (GPa) = 37.80646 43.41594 40.61120
# Shear Modulus (GPa) = 26.53626 30.83394 28.68510
#
# Velocity S-wave (km/s) = 3.55682 3.83404 3.69803
# Velocity P-wave (km/s) = 5.90694 6.34807 6.13147
#
# Compressibility (1/GPa) = 0.02645051
#
# Stress axis : x y z
#
# Youngs Moduli (GPa) = 68.37602 69.36124 56.11204
#
# Poissons Ratio (x) = 0.37466 0.15085
# Poissons Ratio (y) = 0.36934 0.11878
# Poissons Ratio (z) = 0.18382 0.14682
#
# Static dielectric constant tensor:
#      x y z
#    x 3.150000 1.055770 -1.135940 
#    y 1.055770 2.959990 1.641100 
#    z -1.135940 1.641100 1.820050 
# 
# 
# High freq. dielectric constant tensor:
#      x y z
#    x 1.819250 0.002280 -0.003750 
#    y 0.002280 1.827980 0.002300 
#    z -0.003750 0.002300 1.822790 
# 
# From -- ./inp_files/178685.got.cif
#   From: 2010.06.25/outbox.cif.g09.slc.cpg/sg2_90_cif.got.tgz:178685.got - 2010.06.27 13:26:56.
