data_PCOD8016493
_publ_section_title
;
Structure prediction by ZEFSAII (Michael W. Deem and Ramdas Pophale) SiO2 
 PCOD8016493
Probable space group: P -1
;
_chemical_formula_sum "Si O2"
_cell_formula_units_Z 16
_cell_length_a 9.901345
_cell_length_b 13.632064
_cell_length_c 11.493643
_cell_angle_alpha 147.683108
_cell_angle_beta 70.113685
_cell_angle_gamma 96.392933
_cell_volume 730.479737
_symmetry_space_group_name_H-M "P -1"
_symmetry_group_IT_number 2
_symmetry_cell_setting 'triclinic'
loop_
_space_group_symop_operation_xyz
x,y,z
-x,-y,-z
loop_
_atom_site_type_symbol
_atom_site_label
_atom_site_fract_x
_atom_site_fract_y
_atom_site_fract_z
Si Si1 0.933995 0.719188 0.932991
Si Si2 0.111334 0.857240 0.558508
Si Si3 0.410836 0.199998 0.951630
Si Si4 0.903466 0.224803 0.266098
Si Si5 0.545053 0.271717 0.753165
Si Si6 0.570496 0.450740 0.555668
Si Si7 0.408331 0.222015 0.514238
Si Si8 0.054040 0.384689 0.750114
O O1 0.011834 0.660575 0.723414
O O2 0.013892 0.539818 0.813878
O O3 0.753949 0.764914 0.020677
O O4 0.968278 0.910124 0.162494
O O5 0.106599 0.727347 0.544862
O O6 0.283064 0.825169 0.438944
O O7 0.027403 0.777085 0.403021
O O8 0.528007 0.195163 0.808808
O O9 0.483244 0.987978 0.779634
O O10 0.398457 0.362583 0.214110
O O11 0.731027 0.271986 0.317838
O O12 0.000000 0.000000 0.000000
O O13 0.431748 0.219944 0.644646
O O14 0.500000 0.500000 0.000000
O O15 0.500000 0.500000 0.500000
O O16 0.455849 0.393406 0.615533
O O17 0.233262 0.261126 0.575080
O O18 0.000000 0.500000 0.000000
#
# Coordination Sequence:
#
# PCOD8016493 Si02
#       8
#     2   2   2   2   2   2   2   2
#     4  11  24  45  72 100 134 182 231 284 344 408
#     4  11  24  45  71  98 134 182 229 281 339 410
#     4  12  26  43  75 104 132 188 238 280 344 417
#     4  10  21  44  72  97 131 177 236 279 337 407
#     4  12  21  44  75  98 136 179 234 285 337 411
#     4  12  26  45  68 102 143 185 227 285 352 408
#     4  12  25  45  67 105 142 177 230 290 344 409
#     4  12  28  42  64 105 144 179 225 279 351 410
#
# _framework density 21.903413
#
# number of rings (size 3 to 8) (size 9 to 14) (size 15 to 20)
#    0.000    0.500    3.750    4.875    1.750    7.000 
#    0.000    0.000    0.000    0.000    0.000    0.000 
#    0.000    0.000    0.000    0.000    0.000    0.000 
#
# Total GULP energy -198434.451842 kJ/mol
# GULP energy per Si atom -12402.153240 kJ/mol
# Density = 2.185356 g / cm^3
# Si number density = 21.903413 Si / 1000 Ang^3
#
#
#
# Elastic Constant Matrix: (Units=GPa)
#
#
# Indices 1 2 3 4 5 6 
#
# 1 145.7075 36.1753 63.5157 4.0059 -2.2791 -14.8661
# 2 36.1753 81.9429 30.2964 -10.5680 4.0179 1.9765
# 3 63.5157 30.2964 92.9063 1.5911 11.3394 -7.9434
# 4 4.0059 -10.5680 1.5911 40.1433 5.1449 -7.2420
# 5 -2.2791 4.0179 11.3394 5.1449 45.4061 2.8929
# 6 -14.8661 1.9765 -7.9434 -7.2420 2.8929 31.7326
#
#
#
# Elastic Compliance Matrix: (Units=1/GPa)
#
#
# Indices 1 2 3 4 5 6 
#
# 1 0.010735 -0.002705 -0.006458 -0.001272 0.002339 0.003078
# 2 -0.002705 0.015230 -0.003233 0.004182 -0.001024 -0.001977
# 3 -0.006458 -0.003233 0.016922 0.000011 -0.004381 0.001814
# 4 -0.001272 0.004182 0.000011 0.027695 -0.003946 0.005827
# 5 0.002339 -0.001024 -0.004381 -0.003946 0.023965 -0.003022
# 6 0.003078 -0.001977 0.001814 0.005827 -0.003022 0.035138
#
#
# Mechanical properties :
#
#
# Convention : Reuss Voigt Hill
#
# Bulk Modulus (GPa) = 55.25883 64.50351 59.88117
# Shear Modulus (GPa) = 31.15093 36.16102 33.65597
#
# Velocity S-wave (km/s) = 3.77529 4.06757 3.92415
# Velocity P-wave (km/s) = 6.65484 7.18145 6.92315
#
# Compressibility (1/GPa) = 0.01809665
#
# Stress axis : x y z
#
# Youngs Moduli (GPa) = 93.15267 65.65870 59.09366
#
# Poissons Ratio (x) = 0.17758 0.38161
# Poissons Ratio (y) = 0.25194 0.19106
# Poissons Ratio (z) = 0.60155 0.21229
#
# Static dielectric constant tensor:
#      x y z
#    x 5.483640 3.720740 -2.713430 
#    y 3.720740 13.339250 -6.719650 
#    z -2.713430 -6.719650 9.101800 
# 
# 
# High freq. dielectric constant tensor:
#      x y z
#    x 1.858710 0.005680 -0.004820 
#    y 0.005680 1.868990 0.002430 
#    z -0.004820 0.002430 1.874720 
# 
# From -- ./inp_files/399951.got.cif
#   From: 2010.06.25/outbox.cif.g09.slc.cpg/sg2_200_cif.got.tgz:399951.got - 2010.06.27 13:26:56.
