data_PCOD8016187
_publ_section_title
;
Structure prediction by ZEFSAII (Michael W. Deem and Ramdas Pophale) SiO2 
 PCOD8016187
Probable space group: P -1
;
_chemical_formula_sum "Si O2"
_cell_formula_units_Z 14
_cell_length_a 8.789447
_cell_length_b 10.604675
_cell_length_c 9.091603
_cell_angle_alpha 112.563186
_cell_angle_beta 64.271123
_cell_angle_gamma 66.598999
_cell_volume 518.430732
_symmetry_space_group_name_H-M "P -1"
_symmetry_group_IT_number 2
_symmetry_cell_setting 'triclinic'
loop_
_space_group_symop_operation_xyz
x,y,z
-x,-y,-z
loop_
_atom_site_type_symbol
_atom_site_label
_atom_site_fract_x
_atom_site_fract_y
_atom_site_fract_z
Si Si1 0.213726 0.869388 0.242166
Si Si2 0.611481 0.763342 0.893782
Si Si3 0.941372 0.303068 0.293535
Si Si4 0.782378 0.383221 0.710350
Si Si5 0.438792 0.268626 0.420183
Si Si6 0.917167 0.935644 0.137410
Si Si7 0.116285 0.311044 0.784376
O O1 0.351672 0.669573 0.178548
O O2 0.121244 0.882123 0.126107
O O3 0.386852 0.905321 0.159721
O O4 0.000000 0.000000 0.500000
O O5 0.840433 0.713585 0.826213
O O6 0.620389 0.593250 0.818125
O O7 0.560847 0.825044 0.771708
O O8 0.922546 0.257680 0.448177
O O9 0.713672 0.510909 0.433986
O O10 0.977134 0.150704 0.108284
O O11 0.960387 0.343830 0.733403
O O12 0.351934 0.229063 0.576417
O O13 0.700710 0.157306 0.307614
O O14 0.829607 0.838118 0.190502
O O15 0.000000 0.500000 0.000000
#
# Coordination Sequence:
#
# PCOD8016187 Si02
#       7
#     2   2   2   2   2   2   2
#     4  11  28  48  65 102 146 186 228 285 356 421
#     4  11  22  45  74 101 138 186 228 289 351 412
#     4  11  22  46  77 106 134 179 240 298 335 414
#     4  10  21  43  72  98 137 183 234 281 350 412
#     4  11  22  41  69 106 139 175 234 286 346 403
#     4  11  26  42  71 100 143 184 233 280 355 410
#     4  11  19  39  68 103 138 174 226 293 339 402
#
# _framework density 27.004574000000002
#
# number of rings (size 3 to 8) (size 9 to 14) (size 15 to 20)
#    0.000    1.143    4.286    1.714    2.000    5.714 
#    2.571    1.429    0.000    0.000    0.000    0.000 
#    0.000    0.000    0.000    0.000    0.000    0.000 
#
# Total GULP energy -173495.868984 kJ/mol
# GULP energy per Si atom -12392.562070 kJ/mol
# Density = 2.694311 g / cm^3
# Si number density = 27.004574 Si / 1000 Ang^3
#
#
#
# Elastic Constant Matrix: (Units=GPa)
#
#
# Indices 1 2 3 4 5 6 
#
# 1 82.1608 34.0346 46.7471 -11.0194 -13.6912 -7.0275
# 2 34.0346 103.2734 54.9289 -10.5609 -24.1965 -23.6237
# 3 46.7471 54.9289 141.3067 -29.6513 -10.0828 -3.3510
# 4 -11.0194 -10.5609 -29.6513 56.5956 -4.1691 -4.4676
# 5 -13.6912 -24.1965 -10.0828 -4.1691 41.1171 -9.9073
# 6 -7.0275 -23.6237 -3.3510 -4.4676 -9.9073 28.3806
#
#
#
# Elastic Compliance Matrix: (Units=1/GPa)
#
#
# Indices 1 2 3 4 5 6 
#
# 1 0.016481 -0.000243 -0.004454 0.001701 0.005784 0.005639
# 2 -0.000243 0.024564 -0.006392 0.004809 0.019879 0.027328
# 3 -0.004454 -0.006392 0.011301 0.003137 -0.003563 -0.005839
# 4 0.001701 0.004809 0.003137 0.022123 0.009175 0.011480
# 5 0.005784 0.019879 -0.003563 0.009175 0.046491 0.035232
# 6 0.005639 0.027328 -0.005839 0.011480 0.035232 0.072796
#
#
# Mechanical properties :
#
#
# Convention : Reuss Voigt Hill
#
# Bulk Modulus (GPa) = 33.15043 66.46245 49.80644
# Shear Modulus (GPa) = 22.12477 37.95400 30.03939
#
# Velocity S-wave (km/s) = 2.86544 3.75302 3.33886
# Velocity P-wave (km/s) = 4.82184 6.59130 5.77475
#
# Compressibility (1/GPa) = 0.03016552
#
# Stress axis : x y z
#
# Youngs Moduli (GPa) = 60.67747 40.71027 88.48922
#
# Poissons Ratio (x) = 0.00990 0.39415
# Poissons Ratio (y) = 0.01476 0.56566
# Poissons Ratio (z) = 0.27027 0.26024
#
# Static dielectric constant tensor:
#      x y z
#    x 4.270270 0.244490 -0.037800 
#    y 0.244490 5.687620 -0.311260 
#    z -0.037800 -0.311260 5.322170 
# 
# 
# High freq. dielectric constant tensor:
#      x y z
#    x 2.066030 0.009400 -0.013210 
#    y 0.009400 2.114950 -0.018030 
#    z -0.013210 -0.018030 2.106640 
# 
# From -- ./inp_files/189106.got.cif
#   From: 2010.06.25/outbox.cif.g09.slc.cpg/sg2_95_cif.got.tgz:189106.got - 2010.06.27 13:26:56.
