data_PCOD8016631
_publ_section_title
;
Structure prediction by ZEFSAII (Michael W. Deem and Ramdas Pophale) SiO2 
 PCOD8016631
Probable space group: P -1
;
_chemical_formula_sum "Si O2"
_cell_formula_units_Z 16
_cell_length_a 9.533433
_cell_length_b 11.979228
_cell_length_c 11.756189
_cell_angle_alpha 66.648318
_cell_angle_beta 44.965303
_cell_angle_gamma 46.613698
_cell_volume 678.932242
_symmetry_space_group_name_H-M "P -1"
_symmetry_group_IT_number 2
_symmetry_cell_setting 'triclinic'
loop_
_space_group_symop_operation_xyz
x,y,z
-x,-y,-z
loop_
_atom_site_type_symbol
_atom_site_label
_atom_site_fract_x
_atom_site_fract_y
_atom_site_fract_z
Si Si1 0.896424 0.483026 0.953625
Si Si2 0.291406 0.681169 0.932320
Si Si3 0.012727 0.761118 0.284919
Si Si4 0.865536 0.138884 0.430069
Si Si5 0.894022 0.351070 0.480768
Si Si6 0.396895 0.255565 0.160034
Si Si7 0.308031 0.309440 0.606951
Si Si8 0.939348 0.982501 0.867386
O O1 0.711192 0.436323 0.100931
O O2 0.740303 0.645373 0.913981
O O3 0.146969 0.344468 0.798215
O O4 0.000000 0.500000 0.000000
O O5 0.213782 0.659697 0.109783
O O6 0.555168 0.652423 0.813457
O O7 0.095726 0.854222 0.925900
O O8 0.163665 0.675914 0.349423
O O9 0.768795 0.765571 0.409801
O O10 0.936686 0.931884 0.255621
O O11 0.603864 0.181264 0.517175
O O12 0.796289 0.294010 0.464943
O O13 0.046899 0.088511 0.235574
O O14 0.000000 0.000000 0.500000
O O15 0.202545 0.238364 0.338748
O O16 0.754195 0.533397 0.471286
O O17 0.653250 0.093515 0.035250
#
# Coordination Sequence:
#
# PCOD8016631 Si02
#       8
#     2   2   2   2   2   2   2   2
#     4  10  23  42  69  99 132 178 221 277 333 391
#     4  10  23  44  68  99 136 176 225 271 335 393
#     4  10  21  45  71  97 133 173 225 273 329 396
#     4  12  27  45  65  99 138 182 218 273 338 401
#     4  11  24  45  70 102 131 174 228 274 336 388
#     4  10  23  43  68 100 132 173 227 275 331 393
#     4  10  25  44  68  99 132 174 228 275 327 393
#     4  11  25  45  68 100 137 177 221 274 336 400
#
# _framework density 23.566416
#
# number of rings (size 3 to 8) (size 9 to 14) (size 15 to 20)
#    0.000    1.500    1.250    2.625    7.000    5.000 
#    4.500    0.000    0.000    0.000    0.000    0.000 
#    0.000    0.000    0.000    0.000    0.000    0.000 
#
# Total GULP energy -198357.223452 kJ/mol
# GULP energy per Si atom -12397.326466 kJ/mol
# Density = 2.351278 g / cm^3
# Si number density = 23.566416 Si / 1000 Ang^3
#
#
#
# Elastic Constant Matrix: (Units=GPa)
#
#
# Indices 1 2 3 4 5 6 
#
# 1 122.3340 17.4108 13.0229 0.1057 8.8543 6.2686
# 2 17.4108 73.1804 14.6731 -11.1732 5.2027 -1.7258
# 3 13.0229 14.6731 49.6020 -4.7248 2.6065 -11.3522
# 4 0.1057 -11.1732 -4.7248 28.5396 -0.7597 -6.7591
# 5 8.8543 5.2027 2.6065 -0.7597 35.1568 3.0438
# 6 6.2686 -1.7258 -11.3522 -6.7591 3.0438 40.7781
#
#
#
# Elastic Compliance Matrix: (Units=1/GPa)
#
#
# Indices 1 2 3 4 5 6 
#
# 1 0.008930 -0.001846 -0.002401 -0.001738 -0.001638 -0.002285
# 2 -0.001846 0.015800 -0.003287 0.005874 -0.001601 0.001130
# 3 -0.002401 -0.003287 0.024035 0.004506 -0.001266 0.007763
# 4 -0.001738 0.005874 0.004506 0.040078 -0.000632 0.008460
# 5 -0.001638 -0.001601 -0.001266 -0.000632 0.029387 -0.002467
# 6 -0.002285 0.001130 0.007763 0.008460 -0.002467 0.028669
#
#
# Mechanical properties :
#
#
# Convention : Reuss Voigt Hill
#
# Bulk Modulus (GPa) = 29.67556 37.25888 33.46722
# Shear Modulus (GPa) = 28.86830 34.22887 31.54859
#
# Velocity S-wave (km/s) = 3.50376 3.81523 3.66281
# Velocity P-wave (km/s) = 5.38406 5.93738 5.66748
#
# Compressibility (1/GPa) = 0.03369776
#
# Stress axis : x y z
#
# Youngs Moduli (GPa) = 111.98513 63.28975 41.60514
#
# Poissons Ratio (x) = 0.11683 0.09989
# Poissons Ratio (y) = 0.20672 0.13676
# Poissons Ratio (z) = 0.26887 0.20804
#
# Static dielectric constant tensor:
#      x y z
#    x 4.580950 0.294500 -0.011800 
#    y 0.294500 4.246490 -0.038840 
#    z -0.011800 -0.038840 4.353820 
# 
# 
# High freq. dielectric constant tensor:
#      x y z
#    x 1.946400 0.001820 0.004140 
#    y 0.001820 1.929790 -0.010070 
#    z 0.004140 -0.010070 1.925730 
# 
# From -- ./inp_files/392437.got.cif
#   From: 2010.06.25/outbox.cif.g09.slc.cpg/sg2_197_cif.got.tgz:392437.got - 2010.06.27 13:26:56.
