data_PCOD8016512
_publ_section_title
;
Structure prediction by ZEFSAII (Michael W. Deem and Ramdas Pophale) SiO2 
 PCOD8016512
Probable space group: P -1
;
_chemical_formula_sum "Si O2"
_cell_formula_units_Z 16
_cell_length_a 14.074195
_cell_length_b 12.326308
_cell_length_c 8.692253
_cell_angle_alpha 84.572334
_cell_angle_beta 102.219381
_cell_angle_gamma 151.646083
_cell_volume 686.141221
_symmetry_space_group_name_H-M "P -1"
_symmetry_group_IT_number 2
_symmetry_cell_setting 'triclinic'
loop_
_space_group_symop_operation_xyz
x,y,z
-x,-y,-z
loop_
_atom_site_type_symbol
_atom_site_label
_atom_site_fract_x
_atom_site_fract_y
_atom_site_fract_z
Si Si1 0.717524 0.968447 0.641211
Si Si2 0.862447 0.724307 0.753396
Si Si3 0.611344 0.261051 0.650246
Si Si4 0.326967 0.894705 0.870033
Si Si5 0.940303 0.408254 0.660659
Si Si6 0.273378 0.239896 0.511030
Si Si7 0.489578 0.418187 0.857639
Si Si8 0.739657 0.967232 0.999325
O O1 0.503142 0.812424 0.534095
O O2 0.782671 0.934459 0.555146
O O3 0.898746 0.238184 0.673063
O O4 0.687813 0.894696 0.813404
O O5 0.770616 0.513801 0.717649
O O6 0.889448 0.825783 0.591858
O O7 0.705440 0.639770 0.812946
O O8 0.069054 0.918669 0.897306
O O9 0.738707 0.276533 0.664129
O O10 0.425693 0.054979 0.736047
O O11 0.223314 0.871245 0.964790
O O12 0.141959 0.629499 0.802540
O O13 0.500000 0.000000 0.000000
O O14 0.000000 0.500000 0.500000
O O15 0.500000 0.500000 0.500000
O O16 0.292823 0.252870 0.701421
O O17 0.456654 0.263688 0.932951
O O18 0.500000 0.500000 0.000000
#
# Coordination Sequence:
#
# PCOD8016512 Si02
#       8
#     2   2   2   2   2   2   2   2
#     4  12  25  44  74 106 148 190 243 297 364 434
#     4  11  24  46  74 102 145 190 241 299 363 432
#     4  12  24  49  73 104 147 191 239 300 361 437
#     4  12  27  47  73 105 144 192 244 299 368 427
#     4  12  28  46  75 108 142 192 247 294 362 436
#     4  10  21  44  74 101 141 194 237 296 362 433
#     4  11  24  44  72 104 145 188 245 300 364 428
#     4  12  26  44  70 108 143 185 243 301 361 433
#
# _framework density 23.318815000000001
#
# number of rings (size 3 to 8) (size 9 to 14) (size 15 to 20)
#    0.000    0.500    6.250    2.625    3.500    3.500 
#    0.000    1.250    0.000    0.000    0.000    0.000 
#    0.000    0.000    0.000    0.000    0.000    0.000 
#
# Total GULP energy -198370.462499 kJ/mol
# GULP energy per Si atom -12398.153906 kJ/mol
# Density = 2.326574 g / cm^3
# Si number density = 23.318815 Si / 1000 Ang^3
#
#
#
# Elastic Constant Matrix: (Units=GPa)
#
#
# Indices 1 2 3 4 5 6 
#
# 1 118.1498 25.5280 56.6620 16.9491 2.7114 -11.9265
# 2 25.5280 64.5297 35.0130 11.2878 1.7479 -24.8686
# 3 56.6620 35.0130 188.8785 9.5508 10.7535 -1.1586
# 4 16.9491 11.2878 9.5508 41.7220 -3.0569 0.1886
# 5 2.7114 1.7479 10.7535 -3.0569 48.2750 7.5431
# 6 -11.9265 -24.8686 -1.1586 0.1886 7.5431 38.5594
#
#
#
# Elastic Compliance Matrix: (Units=1/GPa)
#
#
# Indices 1 2 3 4 5 6 
#
# 1 0.010844 -0.001085 -0.002824 -0.003520 -0.000586 0.002701
# 2 -0.001085 0.025522 -0.003837 -0.005879 -0.002978 0.016621
# 3 -0.002824 -0.003837 0.006846 0.000579 -0.000721 -0.003004
# 4 -0.003520 -0.005879 0.000579 0.027091 0.002865 -0.005556
# 5 -0.000586 -0.002978 -0.000721 0.002865 0.022210 -0.006482
# 6 0.002701 0.016621 -0.003004 -0.005556 -0.006482 0.038694
#
#
# Mechanical properties :
#
#
# Convention : Reuss Voigt Hill
#
# Bulk Modulus (GPa) = 36.07425 67.32933 51.70179
# Shear Modulus (GPa) = 32.06371 42.66828 37.36599
#
# Velocity S-wave (km/s) = 3.71214 4.28223 4.00734
# Velocity P-wave (km/s) = 5.82039 7.30658 6.60542
#
# Compressibility (1/GPa) = 0.02772060
#
# Stress axis : x y z
#
# Youngs Moduli (GPa) = 92.21975 39.18159 146.06581
#
# Poissons Ratio (x) = 0.04251 0.41249
# Poissons Ratio (y) = 0.10004 0.56044
# Poissons Ratio (z) = 0.26043 0.15034
#
# Static dielectric constant tensor:
#      x y z
#    x -14.597960 2.768510 1.108720 
#    y 2.768510 4.338890 -0.376970 
#    z 1.108720 -0.376970 4.583680 
# 
# 
# High freq. dielectric constant tensor:
#      x y z
#    x 1.913000 -0.012370 0.002720 
#    y -0.012370 1.934300 -0.000080 
#    z 0.002720 -0.000080 1.941490 
# 
# From -- ./inp_files/307392.got.cif
#   From: 2010.06.25/outbox.cif.g09.slc.cpg/sg2_154_cif.got.tgz:307392.got - 2010.06.27 13:26:56.
