data_PCOD8016463
_publ_section_title
;
Structure prediction by ZEFSAII (Michael W. Deem and Ramdas Pophale) SiO2 
 PCOD8016463
Probable space group: P -1
;
_chemical_formula_sum "Si O2"
_cell_formula_units_Z 16
_cell_length_a 5.048983
_cell_length_b 13.756099
_cell_length_c 10.362071
_cell_angle_alpha 105.809583
_cell_angle_beta 91.086821
_cell_angle_gamma 84.579001
_cell_volume 689.352013
_symmetry_space_group_name_H-M "P -1"
_symmetry_group_IT_number 2
_symmetry_cell_setting 'triclinic'
loop_
_space_group_symop_operation_xyz
x,y,z
-x,-y,-z
loop_
_atom_site_type_symbol
_atom_site_label
_atom_site_fract_x
_atom_site_fract_y
_atom_site_fract_z
Si Si1 0.795396 0.537101 0.121210
Si Si2 0.036778 0.881307 0.470971
Si Si3 0.998509 0.546661 0.657222
Si Si4 0.490073 0.951971 0.124001
Si Si5 0.473286 0.677201 0.747464
Si Si6 0.542559 0.858590 0.625779
Si Si7 0.987382 0.169075 0.837343
Si Si8 0.590889 0.336036 0.985431
O O1 0.920564 0.541759 0.267304
O O2 0.601930 0.447004 0.090216
O O3 0.634449 0.646527 0.122889
O O4 0.000000 0.500000 0.000000
O O5 0.336683 0.848272 0.504574
O O6 0.988745 0.830789 0.315770
O O7 0.836127 0.847734 0.565086
O O8 0.000000 0.000000 0.500000
O O9 0.186351 0.638485 0.699454
O O10 0.000000 0.500000 0.500000
O O11 0.697531 0.585545 0.698526
O O12 0.209130 0.908914 0.134376
O O13 0.721830 0.859410 0.108875
O O14 0.532588 0.035880 0.262625
O O15 0.500000 0.000000 0.000000
O O16 0.529332 0.767600 0.689216
O O17 0.487182 0.725645 0.910198
O O18 0.869627 0.284123 0.913062
#
# Coordination Sequence:
#
# PCOD8016463 Si02
#       8
#     2   2   2   2   2   2   2   2
#     4  10  21  44  71  94 132 186 220 277 355 406
#     4  12  23  45  68  93 136 183 225 278 344 401
#     4  11  24  44  71 101 143 175 228 283 345 416
#     4  12  25  42  67  98 133 177 224 281 338 399
#     4  11  24  44  68 101 135 181 222 286 342 400
#     4  12  24  44  68  95 136 181 226 272 348 411
#     4  12  26  42  68 100 132 176 230 284 332 405
#     4  10  24  43  68 100 135 174 233 286 337 413
#
# _framework density 23.210204999999998
#
# number of rings (size 3 to 8) (size 9 to 14) (size 15 to 20)
#    0.000    0.750    3.750    3.375    1.750    4.000 
#    4.500    0.000    0.000    0.000    0.000    0.000 
#    0.000    0.000    0.000    0.000    0.000    0.000 
#
# Total GULP energy -198403.931354 kJ/mol
# GULP energy per Si atom -12400.245710 kJ/mol
# Density = 2.315738 g / cm^3
# Si number density = 23.210205 Si / 1000 Ang^3
#
#
#
# Elastic Constant Matrix: (Units=GPa)
#
#
# Indices 1 2 3 4 5 6 
#
# 1 68.8694 -5.1578 16.1159 -1.3254 -6.6820 -6.6608
# 2 -5.1578 77.6640 38.5744 -12.5450 1.5423 -18.2273
# 3 16.1159 38.5744 151.1247 -10.7810 -4.9502 -14.5774
# 4 -1.3254 -12.5450 -10.7810 38.3121 -5.1672 -9.0692
# 5 -6.6820 1.5423 -4.9502 -5.1672 39.0505 -6.4377
# 6 -6.6608 -18.2273 -14.5774 -9.0692 -6.4377 40.2945
#
#
#
# Elastic Compliance Matrix: (Units=1/GPa)
#
#
# Indices 1 2 3 4 5 6 
#
# 1 0.016063 0.003468 -0.001826 0.002779 0.003531 0.004753
# 2 0.003468 0.018309 -0.003498 0.007688 0.002034 0.009645
# 3 -0.001826 -0.003498 0.008015 0.001600 0.001315 0.001586
# 4 0.002779 0.007688 0.001600 0.033199 0.006926 0.013095
# 5 0.003531 0.002034 0.001315 0.006926 0.028550 0.008100
# 6 0.004753 0.009645 0.001586 0.013095 0.008100 0.034781
#
#
# Mechanical properties :
#
#
# Convention : Reuss Voigt Hill
#
# Bulk Modulus (GPa) = 25.85620 44.08035 34.96827
# Shear Modulus (GPa) = 32.15032 40.07312 36.11172
#
# Velocity S-wave (km/s) = 3.72584 4.15966 3.94871
# Velocity P-wave (km/s) = 5.44733 6.48871 5.99069
#
# Compressibility (1/GPa) = 0.03867544
#
# Stress axis : x y z
#
# Youngs Moduli (GPa) = 62.25488 54.61885 124.77197
#
# Poissons Ratio (x) = -0.18941 0.22780
# Poissons Ratio (y) = -0.21589 0.43640
# Poissons Ratio (z) = 0.11366 0.19103
#
# Static dielectric constant tensor:
#      x y z
#    x 5.168680 0.260680 -0.397340 
#    y 0.260680 4.487110 -0.326670 
#    z -0.397340 -0.326670 4.126290 
# 
# 
# High freq. dielectric constant tensor:
#      x y z
#    x 1.928810 -0.003680 -0.007200 
#    y -0.003680 1.918070 -0.018250 
#    z -0.007200 -0.018250 1.928190 
# 
# From -- ./inp_files/135525.got.cif
#   From: 2010.06.25/outbox.cif.g09.slc.cpg/sg2_68_cif.got.tgz:135525.got - 2010.06.27 13:26:56.
