data_PCOD8016234
_publ_section_title
;
Structure prediction by ZEFSAII (Michael W. Deem and Ramdas Pophale) SiO2 
 PCOD8016234
Probable space group: P -1
;
_chemical_formula_sum "Si O2"
_cell_formula_units_Z 16
_cell_length_a 6.504498
_cell_length_b 20.534944
_cell_length_c 20.142907
_cell_angle_alpha 158.952734
_cell_angle_beta 73.517055
_cell_angle_gamma 116.678698
_cell_volume 782.889052
_symmetry_space_group_name_H-M "P -1"
_symmetry_group_IT_number 2
_symmetry_cell_setting 'triclinic'
loop_
_space_group_symop_operation_xyz
x,y,z
-x,-y,-z
loop_
_atom_site_type_symbol
_atom_site_label
_atom_site_fract_x
_atom_site_fract_y
_atom_site_fract_z
Si Si1 0.007495 0.272453 0.110313
Si Si2 0.761459 0.503571 0.097135
Si Si3 0.312793 0.219223 0.307506
Si Si4 0.472647 0.244413 0.594567
Si Si5 0.816771 0.450459 0.408871
Si Si6 0.947830 0.492844 0.208322
Si Si7 0.292387 0.854092 0.325860
Si Si8 0.569833 0.612617 0.400725
O O1 0.898505 0.373595 0.265254
O O2 0.937787 0.301115 0.068618
O O3 0.308860 0.385980 0.197665
O O4 0.896049 0.029575 0.907910
O O5 0.560753 0.572358 0.194387
O O6 0.816277 0.412389 0.072150
O O7 0.015931 0.717467 0.252979
O O8 0.644661 0.312503 0.872042
O O9 0.529944 0.266565 0.279760
O O10 0.166580 0.331873 0.404967
O O11 0.442843 0.296887 0.441186
O O12 0.402007 0.223160 0.503002
O O13 0.762043 0.313109 0.643814
O O14 0.288281 0.011066 0.420939
O O15 0.000000 0.500000 0.500000
O O16 0.806816 0.584260 0.350277
O O17 0.500000 0.000000 0.500000
#
# Coordination Sequence:
#
# PCOD8016234 Si02
#       8
#     2   2   2   2   2   2   2   2
#     4  11  23  41  65  92 124 168 207 259 315 367
#     4  10  23  42  63  95 126 163 211 256 306 377
#     4  11  24  41  66  93 123 169 206 257 318 366
#     4  10  22  42  64  90 128 168 205 261 310 362
#     4  11  23  43  64  94 130 159 210 261 307 380
#     4  10  21  44  62  89 132 160 212 262 300 373
#     4  11  22  42  66  94 128 165 206 258 313 367
#     4  10  22  43  61  93 128 160 217 258 301 380
#
# _framework density 20.437123
#
# number of rings (size 3 to 8) (size 9 to 14) (size 15 to 20)
#    0.000    1.500    3.750    0.750    1.750    2.000 
#    9.000    0.000    0.000    0.000    0.000    0.000 
#    0.000    0.000    0.000    0.000    0.000    0.000 
#
# Total GULP energy -198439.058427 kJ/mol
# GULP energy per Si atom -12402.441152 kJ/mol
# Density = 2.039061 g / cm^3
# Si number density = 20.437123 Si / 1000 Ang^3
#
#
#
# Elastic Constant Matrix: (Units=GPa)
#
#
# Indices 1 2 3 4 5 6 
#
# 1 113.1666 49.1311 52.8953 5.2107 -2.7220 5.5245
# 2 49.1311 118.5652 51.4939 17.2464 -3.7173 -1.4168
# 3 52.8953 51.4939 100.0770 19.4459 1.2521 -3.7370
# 4 5.2107 17.2464 19.4459 30.3617 -3.5470 -7.7337
# 5 -2.7220 -3.7173 1.2521 -3.5470 20.5169 -2.7881
# 6 5.5245 -1.4168 -3.7370 -7.7337 -2.7881 35.6833
#
#
#
# Elastic Compliance Matrix: (Units=1/GPa)
#
#
# Indices 1 2 3 4 5 6 
#
# 1 0.012996 -0.003242 -0.005897 0.003099 0.001767 -0.001949
# 2 -0.003242 0.011989 -0.003751 -0.003729 0.001310 -0.000121
# 3 -0.005897 -0.003751 0.016624 -0.007811 -0.003756 0.000519
# 4 0.003099 -0.003729 -0.007811 0.042711 0.008750 0.008495
# 5 0.001767 0.001310 -0.003756 0.008750 0.051677 0.005319
# 6 -0.001949 -0.000121 0.000519 0.008495 0.005319 0.030632
#
#
# Mechanical properties :
#
#
# Convention : Reuss Voigt Hill
#
# Bulk Modulus (GPa) = 63.18817 70.98325 67.08571
# Shear Modulus (GPa) = 25.29253 29.19830 27.24541
#
# Velocity S-wave (km/s) = 3.52174 3.78390 3.65517
# Velocity P-wave (km/s) = 6.89364 7.34156 7.12112
#
# Compressibility (1/GPa) = 0.01582575
#
# Stress axis : x y z
#
# Youngs Moduli (GPa) = 76.94829 83.40917 60.15494
#
# Poissons Ratio (x) = 0.27045 0.35476
# Poissons Ratio (y) = 0.24950 0.22567
# Poissons Ratio (z) = 0.45380 0.31291
#
# Static dielectric constant tensor:
#      x y z
#    x 3.669790 0.012040 -0.056160 
#    y 0.012040 4.183560 0.009160 
#    z -0.056160 0.009160 3.447670 
# 
# 
# High freq. dielectric constant tensor:
#      x y z
#    x 1.802180 0.000230 -0.003470 
#    y 0.000230 1.828760 0.002940 
#    z -0.003470 0.002940 1.773530 
# 
# From -- ./inp_files/120385.got.cif
#   From: 2010.06.25/outbox.cif.g09.slc.cpg/sg2_61_cif.got.tgz:120385.got - 2010.06.27 13:26:56.
