data_PCOD8016094
_publ_section_title
;
Structure prediction by ZEFSAII (Michael W. Deem and Ramdas Pophale) SiO2 
 PCOD8016094
Probable space group: P -1
;
_chemical_formula_sum "Si O2"
_cell_formula_units_Z 16
_cell_length_a 12.070588
_cell_length_b 7.794011
_cell_length_c 8.701330
_cell_angle_alpha 110.558379
_cell_angle_beta 64.423610
_cell_angle_gamma 103.930743
_cell_volume 687.504637
_symmetry_space_group_name_H-M "P -1"
_symmetry_group_IT_number 2
_symmetry_cell_setting 'triclinic'
loop_
_space_group_symop_operation_xyz
x,y,z
-x,-y,-z
loop_
_atom_site_type_symbol
_atom_site_label
_atom_site_fract_x
_atom_site_fract_y
_atom_site_fract_z
Si Si1 0.036000 0.408552 0.798509
Si Si2 0.405708 0.922586 0.662882
Si Si3 0.605441 0.786981 0.691400
Si Si4 0.963564 0.983506 0.726893
Si Si5 0.816091 0.458213 0.746037
Si Si6 0.191720 0.938288 0.428346
Si Si7 0.265620 0.547424 0.537779
Si Si8 0.276988 0.181625 0.038438
O O1 0.180325 0.471631 0.705793
O O2 0.008078 0.195872 0.786220
O O3 0.955508 0.479438 0.730050
O O4 0.000000 0.500000 0.000000
O O5 0.467408 0.825180 0.740036
O O6 0.309778 0.765454 0.591547
O O7 0.500000 0.000000 0.500000
O O8 0.336126 0.087787 0.827916
O O9 0.617765 0.572464 0.581646
O O10 0.641251 0.843340 0.864189
O O11 0.689614 0.918905 0.561224
O O12 0.886001 0.945064 0.604792
O O13 0.867674 0.904359 0.890776
O O14 0.092613 0.885007 0.610480
O O15 0.760457 0.244175 0.735025
O O16 0.817809 0.500550 0.577635
O O17 0.729857 0.599921 0.923483
#
# Coordination Sequence:
#
# PCOD8016094 Si02
#       8
#     2   2   2   2   2   2   2   2
#     4  11  22  38  61  98 135 165 201 259 324 385
#     4  12  26  45  63  91 130 171 219 269 315 368
#     4  10  21  43  70  91 123 171 220 264 311 376
#     4   9  18  34  61  94 129 157 203 254 315 381
#     4  10  23  39  65  96 131 168 207 257 318 391
#     4   9  17  34  64  97 122 163 203 254 314 376
#     4  11  23  42  65  94 122 169 218 258 318 376
#     4  10  23  42  65  97 128 169 215 261 318 379
#
# _framework density 23.272569000000001
#
# number of rings (size 3 to 8) (size 9 to 14) (size 15 to 20)
#    0.000    1.750    1.250    2.625    7.000    1.000 
#    2.250   11.875    0.000    0.000    0.000    0.000 
#    0.000    0.000    0.000    0.000    0.000    0.000 
#
# Total GULP energy -198242.661710 kJ/mol
# GULP energy per Si atom -12390.166357 kJ/mol
# Density = 2.321960 g / cm^3
# Si number density = 23.272569 Si / 1000 Ang^3
#
#
#
# Elastic Constant Matrix: (Units=GPa)
#
#
# Indices 1 2 3 4 5 6 
#
# 1 65.0440 32.2278 26.5674 15.6734 -7.6485 -1.1142
# 2 32.2278 94.9334 51.5822 25.9783 -4.8949 -2.5663
# 3 26.5674 51.5822 140.2580 26.8252 -16.6540 4.8996
# 4 15.6734 25.9783 26.8252 38.3869 -4.0862 -7.1220
# 5 -7.6485 -4.8949 -16.6540 -4.0862 21.7743 9.3918
# 6 -1.1142 -2.5663 4.8996 -7.1220 9.3918 30.8796
#
#
#
# Elastic Compliance Matrix: (Units=1/GPa)
#
#
# Indices 1 2 3 4 5 6 
#
# 1 0.019690 -0.005164 -0.000253 -0.004197 0.005816 -0.002416
# 2 -0.005164 0.016072 -0.004232 -0.005883 -0.003156 0.001424
# 3 -0.000253 -0.004232 0.010928 -0.004815 0.008974 -0.005935
# 4 -0.004197 -0.005883 -0.004815 0.036504 -0.003814 0.009703
# 5 0.005816 -0.003156 0.008974 -0.003814 0.062641 -0.021408
# 6 -0.002416 0.001424 -0.005935 0.009703 -0.021408 0.042105
#
#
# Mechanical properties :
#
#
# Convention : Reuss Voigt Hill
#
# Bulk Modulus (GPa) = 36.50645 57.88781 47.19713
# Shear Modulus (GPa) = 23.10880 30.86538 26.98709
#
# Velocity S-wave (km/s) = 3.15455 3.64573 3.40900
# Velocity P-wave (km/s) = 5.38412 6.53067 5.98491
#
# Compressibility (1/GPa) = 0.02739242
#
# Stress axis : x y z
#
# Youngs Moduli (GPa) = 50.78726 62.22168 91.51030
#
# Poissons Ratio (x) = 0.32130 0.02313
# Poissons Ratio (y) = 0.26225 0.38726
# Poissons Ratio (z) = 0.01284 0.26331
#
# Static dielectric constant tensor:
#      x y z
#    x 4.304270 -0.105330 -0.194060 
#    y -0.105330 4.086110 0.190180 
#    z -0.194060 0.190180 3.929880 
# 
# 
# High freq. dielectric constant tensor:
#      x y z
#    x 1.915570 -0.006610 -0.006040 
#    y -0.006610 1.919960 0.023860 
#    z -0.006040 0.023860 1.901980 
# 
# From -- ./inp_files/245370.got.cif
#   From: 2010.06.25/outbox.cif.g09.slc.cpg/sg2_123_cif.got.tgz:245370.got - 2010.06.27 13:26:56.
