data_PCOD8016207
_publ_section_title
;
Structure prediction by ZEFSAII (Michael W. Deem and Ramdas Pophale) SiO2 
 PCOD8016207
Probable space group: P -1
;
_chemical_formula_sum "Si O2"
_cell_formula_units_Z 16
_cell_length_a 30.784568
_cell_length_b 8.688897
_cell_length_c 5.237800
_cell_angle_alpha 95.059532
_cell_angle_beta 88.944904
_cell_angle_gamma 29.218222
_cell_volume 667.992853
_symmetry_space_group_name_H-M "P -1"
_symmetry_group_IT_number 2
_symmetry_cell_setting 'triclinic'
loop_
_space_group_symop_operation_xyz
x,y,z
-x,-y,-z
loop_
_atom_site_type_symbol
_atom_site_label
_atom_site_fract_x
_atom_site_fract_y
_atom_site_fract_z
Si Si1 0.137059 0.823490 0.719972
Si Si2 0.590031 0.368298 0.206537
Si Si3 0.049374 0.695912 0.057679
Si Si4 0.303694 0.757364 0.175409
Si Si5 0.478849 0.198820 0.339596
Si Si6 0.403576 0.984214 0.009604
Si Si7 0.777521 0.312446 0.798147
Si Si8 0.158156 0.401431 0.528634
O O1 0.155708 0.871521 0.475965
O O2 0.165797 0.557680 0.619844
O O3 0.190575 0.709758 0.947083
O O4 0.029839 0.178378 0.845785
O O5 0.566532 0.499675 0.510084
O O6 0.620911 0.095019 0.154621
O O7 0.673077 0.215374 0.074433
O O8 0.495437 0.682269 0.113408
O O9 0.104168 0.556178 0.290399
O O10 0.113419 0.444501 0.776842
O O11 0.000000 0.000000 0.000000
O O12 0.400819 0.379312 0.187954
O O13 0.233760 0.834246 0.157090
O O14 0.258150 0.017436 0.422382
O O15 0.576135 0.939365 0.176792
O O16 0.500000 0.000000 0.500000
O O17 0.316078 0.311468 0.225969
#
# Coordination Sequence:
#
# PCOD8016207 Si02
#       8
#     2   2   2   2   2   2   2   2
#     4  11  24  43  69 100 132 176 222 281 335 411
#     4  10  22  41  65  87 134 165 244 278 340 393
#     4  10  21  43  74 103 133 173 226 281 345 409
#     4  11  27  41  63 102 133 184 225 284 342 402
#     4  11  23  40  67  89 138 180 231 275 347 404
#     4  10  23  40  62  98 121 183 225 294 330 398
#     4  12  26  41  65  97 144 174 226 272 346 405
#     4  11  23  43  75 101 134 175 231 283 337 407
#
# _framework density 23.952354
#
# number of rings (size 3 to 8) (size 9 to 14) (size 15 to 20)
#    0.000    1.250    0.000    6.375    8.750    2.000 
#    0.000    3.750    0.000    0.000    0.000    0.000 
#    0.000    0.000    0.000    0.000    0.000    0.000 
#
# Total GULP energy -198279.520181 kJ/mol
# GULP energy per Si atom -12392.470011 kJ/mol
# Density = 2.389784 g / cm^3
# Si number density = 23.952354 Si / 1000 Ang^3
#
#
#
# Elastic Constant Matrix: (Units=GPa)
#
#
# Indices 1 2 3 4 5 6 
#
# 1 127.2203 28.2759 42.4787 -11.7347 -11.3974 -15.0271
# 2 28.2759 44.8133 15.0072 -2.1470 -12.8270 -8.1743
# 3 42.4787 15.0072 132.2783 -10.5040 -13.3926 -18.8005
# 4 -11.7347 -2.1470 -10.5040 30.9155 0.6053 -4.6194
# 5 -11.3974 -12.8270 -13.3926 0.6053 37.2296 9.9459
# 6 -15.0271 -8.1743 -18.8005 -4.6194 9.9459 23.8337
#
#
#
# Elastic Compliance Matrix: (Units=1/GPa)
#
#
# Indices 1 2 3 4 5 6 
#
# 1 0.010429 -0.005127 -0.001936 0.003576 -0.000442 0.004167
# 2 -0.005127 0.028332 -0.000359 0.000244 0.007191 0.003248
# 3 -0.001936 -0.000359 0.009500 0.003410 0.000930 0.006423
# 4 0.003576 0.000244 0.003410 0.036830 -0.001625 0.012844
# 5 -0.000442 0.007191 0.000930 -0.001625 0.032489 -0.010951
# 6 0.004167 0.003248 0.006423 0.012844 -0.010951 0.057825
#
#
# Mechanical properties :
#
#
# Convention : Reuss Voigt Hill
#
# Bulk Modulus (GPa) = 29.92396 52.87061 41.39728
# Shear Modulus (GPa) = 24.82777 32.96579 28.89678
#
# Velocity S-wave (km/s) = 3.22304 3.71389 3.47713
# Velocity P-wave (km/s) = 5.13526 6.36488 5.78285
#
# Compressibility (1/GPa) = 0.03341804
#
# Stress axis : x y z
#
# Youngs Moduli (GPa) = 95.88867 35.29529 105.26375
#
# Poissons Ratio (x) = 0.18096 0.20377
# Poissons Ratio (y) = 0.49161 0.03777
# Poissons Ratio (z) = 0.18562 0.01267
#
# Static dielectric constant tensor:
#      x y z
#    x 4.682840 -0.215830 -0.164220 
#    y -0.215830 4.209460 0.354490 
#    z -0.164220 0.354490 4.777390 
# 
# 
# High freq. dielectric constant tensor:
#      x y z
#    x 1.955680 -0.011230 -0.007240 
#    y -0.011230 1.939610 0.011540 
#    z -0.007240 0.011540 1.959230 
# 
# From -- ./inp_files/85101.got.cif
#   From: 2010.06.25/outbox.cif.g09.slc.cpg/sg2_43_cif.got.tgz:85101.got - 2010.06.27 13:26:56.
