data_PCOD8016627
_publ_section_title
;
Structure prediction by ZEFSAII (Michael W. Deem and Ramdas Pophale) SiO2 
 PCOD8016627
Probable space group: P -1
;
_chemical_formula_sum "Si O2"
_cell_formula_units_Z 16
_cell_length_a 8.615991
_cell_length_b 17.381841
_cell_length_c 11.182955
_cell_angle_alpha 61.424669
_cell_angle_beta 129.426480
_cell_angle_gamma 147.394068
_cell_volume 690.608820
_symmetry_space_group_name_H-M "P -1"
_symmetry_group_IT_number 2
_symmetry_cell_setting 'triclinic'
loop_
_space_group_symop_operation_xyz
x,y,z
-x,-y,-z
loop_
_atom_site_type_symbol
_atom_site_label
_atom_site_fract_x
_atom_site_fract_y
_atom_site_fract_z
Si Si1 0.329273 0.758483 0.710808
Si Si2 0.774191 0.491447 0.969077
Si Si3 0.156445 0.187300 0.005622
Si Si4 0.349983 0.524554 0.328139
Si Si5 0.519739 0.014606 0.277931
Si Si6 0.856858 0.051450 0.204202
Si Si7 0.480969 0.176923 0.505690
Si Si8 0.378620 0.731274 0.232999
O O1 0.682332 0.853825 0.871737
O O2 0.309332 0.734113 0.577464
O O3 0.039076 0.598645 0.741366
O O4 0.276902 0.841451 0.657987
O O5 0.611825 0.491464 0.780451
O O6 0.466673 0.355784 0.001062
O O7 0.000000 0.500000 0.000000
O O8 0.025538 0.630742 0.073697
O O9 0.994779 0.151209 0.082926
O O10 0.872408 0.097897 0.833286
O O11 0.500000 0.500000 0.500000
O O12 0.505503 0.675148 0.314934
O O13 0.648024 0.050571 0.177311
O O14 0.594895 0.952508 0.432567
O O15 0.638850 0.889780 0.185274
O O16 0.146079 0.116539 0.383449
O O17 0.677125 0.271851 0.650456
#
# Coordination Sequence:
#
# PCOD8016627 Si02
#       8
#     2   2   2   2   2   2   2   2
#     4  11  24  42  65 102 138 178 227 281 339 406
#     4  10  22  45  66  98 138 175 225 273 341 405
#     4  11  23  44  68 105 133 182 229 281 340 407
#     4  11  26  41  68 100 136 177 226 276 349 403
#     4  11  23  40  70  99 139 176 234 285 334 400
#     4  10  24  44  70 102 138 182 229 279 345 397
#     4  10  24  44  67 102 135 180 232 279 342 395
#     4  10  21  45  71  90 139 182 219 279 337 400
#
# _framework density 23.167964000000001
#
# number of rings (size 3 to 8) (size 9 to 14) (size 15 to 20)
#    0.000    1.500    2.500    2.625    7.000    4.500 
#    0.000    2.500    0.000    0.000    0.000    0.000 
#    0.000    0.000    0.000    0.000    0.000    0.000 
#
# Total GULP energy -198294.813155 kJ/mol
# GULP energy per Si atom -12393.425822 kJ/mol
# Density = 2.311523 g / cm^3
# Si number density = 23.167964 Si / 1000 Ang^3
#
#
#
# Elastic Constant Matrix: (Units=GPa)
#
#
# Indices 1 2 3 4 5 6 
#
# 1 84.9814 54.9577 38.7116 3.4978 -8.6259 7.7048
# 2 54.9577 106.6785 41.9199 3.9404 -33.7568 21.0910
# 3 38.7116 41.9199 124.0699 -4.5924 -19.0363 3.2475
# 4 3.4978 3.9404 -4.5924 31.4514 1.6552 -9.6933
# 5 -8.6259 -33.7568 -19.0363 1.6552 30.4200 -1.6638
# 6 7.7048 21.0910 3.2475 -9.6933 -1.6638 40.4351
#
#
#
# Elastic Compliance Matrix: (Units=1/GPa)
#
#
# Indices 1 2 3 4 5 6 
#
# 1 0.020629 -0.013235 -0.003721 0.000291 -0.011024 0.002888
# 2 -0.013235 0.027551 -0.001165 -0.007347 0.025809 -0.012454
# 3 -0.003721 -0.001165 0.010284 0.002215 0.004032 0.001188
# 4 0.000291 -0.007347 0.002215 0.037184 -0.008041 0.012182
# 5 -0.011024 0.025809 0.004032 -0.008041 0.060740 -0.011114
# 6 0.002888 -0.012454 0.001188 0.012182 -0.011114 0.033045
#
#
# Mechanical properties :
#
#
# Convention : Reuss Voigt Hill
#
# Bulk Modulus (GPa) = 45.00156 65.21202 55.10679
# Shear Modulus (GPa) = 21.45167 32.47068 26.96117
#
# Velocity S-wave (km/s) = 3.04619 3.74777 3.41504
# Velocity P-wave (km/s) = 5.64257 6.85101 6.27594
#
# Compressibility (1/GPa) = 0.02222145
#
# Stress axis : x y z
#
# Youngs Moduli (GPa) = 48.47613 36.29662 97.23701
#
# Poissons Ratio (x) = 0.48039 0.36181
# Poissons Ratio (y) = 0.64159 0.11329
# Poissons Ratio (z) = 0.18037 0.04229
#
# Static dielectric constant tensor:
#      x y z
#    x 4.061940 0.200140 -0.082920 
#    y 0.200140 3.992790 -0.047150 
#    z -0.082920 -0.047150 4.575190 
# 
# 
# High freq. dielectric constant tensor:
#      x y z
#    x 1.900270 0.015140 -0.002440 
#    y 0.015140 1.904100 -0.006120 
#    z -0.002440 -0.006120 1.936340 
# 
# From -- ./inp_files/403088.got.cif
#   From: 2010.06.25/outbox.cif.g09.slc.cpg/sg2_202_cif.got.tgz:403088.got - 2010.06.27 13:26:56.
