data_PCOD8016681
_publ_section_title
;
Structure prediction by ZEFSAII (Michael W. Deem and Ramdas Pophale) SiO2 
 PCOD8016681
Probable space group: P -1
;
_chemical_formula_sum "Si O2"
_cell_formula_units_Z 16
_cell_length_a 8.758265
_cell_length_b 9.086591
_cell_length_c 23.117921
_cell_angle_alpha 32.234093
_cell_angle_beta 51.378479
_cell_angle_gamma 61.121811
_cell_volume 762.192495
_symmetry_space_group_name_H-M "P -1"
_symmetry_group_IT_number 2
_symmetry_cell_setting 'triclinic'
loop_
_space_group_symop_operation_xyz
x,y,z
-x,-y,-z
loop_
_atom_site_type_symbol
_atom_site_label
_atom_site_fract_x
_atom_site_fract_y
_atom_site_fract_z
Si Si1 0.598550 0.788626 0.812447
Si Si2 0.286101 0.084315 0.017495
Si Si3 0.145426 0.772763 0.540053
Si Si4 0.936436 0.458341 0.794347
Si Si5 0.633258 0.387816 0.555807
Si Si6 0.445254 0.080588 0.550389
Si Si7 0.845937 0.431631 0.178350
Si Si8 0.755065 0.669943 0.936602
O O1 0.768736 0.664460 0.775963
O O2 0.667792 0.819198 0.852526
O O3 0.553873 0.089196 0.700409
O O4 0.395704 0.591182 0.920883
O O5 0.208097 0.115402 0.090766
O O6 0.154234 0.854388 0.089022
O O7 0.294812 0.366080 0.885027
O O8 0.500000 0.000000 0.000000
O O9 0.158145 0.643364 0.515233
O O10 0.360692 0.919115 0.456894
O O11 0.068363 0.535209 0.681694
O O12 0.000000 0.000000 0.500000
O O13 0.087421 0.459154 0.810854
O O14 0.500000 0.500000 0.500000
O O15 0.642787 0.619207 0.527355
O O16 0.500000 0.000000 0.500000
O O17 0.275216 0.867982 0.688528
O O18 0.036077 0.431314 0.093172
#
# Coordination Sequence:
#
# PCOD8016681 Si02
#       8
#     2   2   2   2   2   2   2   2
#     4  10  21  46  68 100 144 172 232 284 344 409
#     4  12  26  42  70 105 132 178 231 285 342 402
#     4  11  23  43  70  99 134 178 222 283 337 405
#     4  11  23  45  69 101 139 179 226 280 351 403
#     4  10  24  40  69 101 135 181 226 278 345 404
#     4  11  25  47  66 100 134 180 230 279 344 404
#     4  11  26  46  68  95 141 178 229 284 340 415
#     4  10  24  44  70  98 134 186 223 288 341 400
#
# _framework density 20.992073999999999
#
# number of rings (size 3 to 8) (size 9 to 14) (size 15 to 20)
#    0.000    1.250    3.750    0.750    7.000    3.000 
#    0.000    3.125    0.000    0.000    0.000    0.000 
#    0.000    0.000    0.000    0.000    0.000    0.000 
#
# Total GULP energy -198389.349013 kJ/mol
# GULP energy per Si atom -12399.334313 kJ/mol
# Density = 2.094429 g / cm^3
# Si number density = 20.992074 Si / 1000 Ang^3
#
#
#
# Elastic Constant Matrix: (Units=GPa)
#
#
# Indices 1 2 3 4 5 6 
#
# 1 70.9633 32.3592 49.5123 -9.7315 1.5537 -16.4401
# 2 32.3592 150.2000 57.8209 -4.6462 9.1792 1.4869
# 3 49.5123 57.8209 134.5054 -2.4957 4.3074 -2.5861
# 4 -9.7315 -4.6462 -2.4957 38.0739 -5.0063 -3.0923
# 5 1.5537 9.1792 4.3074 -5.0063 37.5323 -1.3429
# 6 -16.4401 1.4869 -2.5861 -3.0923 -1.3429 32.6103
#
#
#
# Elastic Compliance Matrix: (Units=1/GPa)
#
#
# Indices 1 2 3 4 5 6 
#
# 1 0.024202 -0.002309 -0.007611 0.006645 0.001767 0.012406
# 2 -0.002309 0.008317 -0.002708 -0.000127 -0.001710 -0.001841
# 3 -0.007611 -0.002708 0.011329 -0.001868 -0.000680 -0.003020
# 4 0.006645 -0.000127 -0.001868 0.028852 0.004038 0.006110
# 5 0.001767 -0.001710 -0.000680 0.004038 0.027693 0.002438
# 6 0.012406 -0.001841 -0.003020 0.006110 0.002438 0.037443
#
#
# Mechanical properties :
#
#
# Convention : Reuss Voigt Hill
#
# Bulk Modulus (GPa) = 53.78870 70.56151 62.17511
# Shear Modulus (GPa) = 29.53520 36.04171 32.78846
#
# Velocity S-wave (km/s) = 3.75503 4.14807 3.95643
# Velocity P-wave (km/s) = 6.66928 7.52518 7.11012
#
# Compressibility (1/GPa) = 0.01859126
#
# Stress axis : x y z
#
# Youngs Moduli (GPa) = 41.31959 120.24129 88.26599
#
# Poissons Ratio (x) = 0.27768 0.67177
# Poissons Ratio (y) = 0.09542 0.23902
# Poissons Ratio (z) = 0.31447 0.32561
#
# Static dielectric constant tensor:
#      x y z
#    x 3.691010 0.262930 0.135350 
#    y 0.262930 5.142280 0.456080 
#    z 0.135350 0.456080 4.125950 
# 
# 
# High freq. dielectric constant tensor:
#      x y z
#    x 1.817420 0.002280 0.003530 
#    y 0.002280 1.840490 0.008340 
#    z 0.003530 0.008340 1.823830 
# 
# From -- ./inp_files/217843.got.cif
#   From: 2010.06.25/outbox.cif.g09.slc.cpg/sg2_109_cif.got.tgz:217843.got - 2010.06.27 13:26:56.
