data_PCOD8016869
_publ_section_title
;
Structure prediction by ZEFSAII (Michael W. Deem and Ramdas Pophale) SiO2 
 PCOD8016869
Probable space group: P -1
;
_chemical_formula_sum "Si O2"
_cell_formula_units_Z 16
_cell_length_a 8.603938
_cell_length_b 14.774411
_cell_length_c 11.856273
_cell_angle_alpha 33.430535
_cell_angle_beta 107.089682
_cell_angle_gamma 110.591397
_cell_volume 777.278139
_symmetry_space_group_name_H-M "P -1"
_symmetry_group_IT_number 2
_symmetry_cell_setting 'triclinic'
loop_
_space_group_symop_operation_xyz
x,y,z
-x,-y,-z
loop_
_atom_site_type_symbol
_atom_site_label
_atom_site_fract_x
_atom_site_fract_y
_atom_site_fract_z
Si Si1 0.234091 0.155047 0.867338
Si Si2 0.882294 0.378179 0.332207
Si Si3 0.186009 0.512777 0.561175
Si Si4 0.687256 0.534019 0.958235
Si Si5 0.431614 0.668206 0.287556
Si Si6 0.936651 0.031789 0.769242
Si Si7 0.208290 0.606742 0.093108
Si Si8 0.034912 0.154241 0.258914
O O1 0.232686 0.340084 0.717853
O O2 0.420404 0.166998 0.847030
O O3 0.196078 0.038876 0.089355
O O4 0.113612 0.093358 0.802105
O O5 0.792199 0.453716 0.336634
O O6 0.074780 0.466501 0.274553
O O7 0.868484 0.181494 0.542874
O O8 0.785143 0.406587 0.170648
O O9 0.297252 0.671720 0.354144
O O10 0.000000 0.500000 0.500000
O O11 0.692606 0.485109 0.879705
O O12 0.787940 0.725449 0.798297
O O13 0.500000 0.500000 0.000000
O O14 0.500000 0.500000 0.500000
O O15 0.346409 0.682451 0.134154
O O16 0.953675 0.901044 0.810899
O O17 0.116024 0.745152 0.872862
O O18 0.000000 0.000000 0.500000
#
# Coordination Sequence:
#
# PCOD8016869 Si02
#       8
#     2   2   2   2   2   2   2   2
#     4  10  22  38  59  94 129 165 205 257 312 374
#     4  11  21  41  65  92 124 172 214 254 307 388
#     4  11  19  37  65  93 121 165 217 254 307 375
#     4  11  26  43  68  95 121 162 221 271 310 370
#     4  10  22  36  63  94 127 158 205 263 308 371
#     4  11  22  39  65  88 131 168 208 253 321 379
#     4  11  22  42  69  91 123 167 218 254 312 384
#     4  11  24  44  67  91 126 171 211 262 320 378
#
# _framework density 20.584651000000001
#
# number of rings (size 3 to 8) (size 9 to 14) (size 15 to 20)
#    0.000    1.250    2.500    5.250    5.250    0.000 
#    2.250    2.500    0.000    0.000    0.000    0.000 
#    0.000    0.000    0.000    0.000    0.000    0.000 
#
# Total GULP energy -198348.942418 kJ/mol
# GULP energy per Si atom -12396.808901 kJ/mol
# Density = 2.053780 g / cm^3
# Si number density = 20.584651 Si / 1000 Ang^3
#
#
#
# Elastic Constant Matrix: (Units=GPa)
#
#
# Indices 1 2 3 4 5 6 
#
# 1 140.0623 40.0156 43.0587 -3.9475 -35.1821 11.9120
# 2 40.0156 85.7737 24.3429 1.5007 -17.8974 -11.4985
# 3 43.0587 24.3429 107.0483 -3.2774 -16.4550 12.3279
# 4 -3.9475 1.5007 -3.2774 29.1557 -2.1394 -2.0460
# 5 -35.1821 -17.8974 -16.4550 -2.1394 33.3431 -1.1542
# 6 11.9120 -11.4985 12.3279 -2.0460 -1.1542 40.9254
#
#
#
# Elastic Compliance Matrix: (Units=1/GPa)
#
#
# Indices 1 2 3 4 5 6 
#
# 1 0.011331 -0.003275 -0.001956 0.001932 0.009244 -0.003272
# 2 -0.003275 0.015483 -0.002334 -0.000793 0.003863 0.006076
# 3 -0.001956 -0.002334 0.011435 0.001068 0.002277 -0.003413
# 4 0.001932 -0.000793 0.001068 0.035100 0.004419 0.000773
# 5 0.009244 0.003863 0.002277 0.004419 0.043196 -0.000852
# 6 -0.003272 0.006076 -0.003413 0.000773 -0.000852 0.028137
#
#
# Mechanical properties :
#
#
# Convention : Reuss Voigt Hill
#
# Bulk Modulus (GPa) = 43.25337 60.85763 52.05550
# Shear Modulus (GPa) = 29.84757 35.71598 32.78178
#
# Velocity S-wave (km/s) = 3.81201 4.16995 3.99499
# Velocity P-wave (km/s) = 6.35871 7.26728 6.82813
#
# Compressibility (1/GPa) = 0.02311959
#
# Stress axis : x y z
#
# Youngs Moduli (GPa) = 88.25099 64.58664 87.45135
#
# Poissons Ratio (x) = 0.21150 0.17109
# Poissons Ratio (y) = 0.28900 0.20409
# Poissons Ratio (z) = 0.17265 0.15073
#
# Static dielectric constant tensor:
#      x y z
#    x 4.476840 -0.035340 -0.372850 
#    y -0.035340 3.822590 0.058450 
#    z -0.372850 0.058450 3.823280 
# 
# 
# High freq. dielectric constant tensor:
#      x y z
#    x 1.811070 -0.004770 -0.014640 
#    y -0.004770 1.805020 0.010410 
#    z -0.014640 0.010410 1.808380 
# 
# From -- ./inp_files/223479.got.cif
#   From: 2010.06.25/outbox.cif.g09.slc.cpg/sg2_112_cif.got.tgz:223479.got - 2010.06.27 13:26:56.
