data_PCOD8016757
_publ_section_title
;
Structure prediction by ZEFSAII (Michael W. Deem and Ramdas Pophale) SiO2 
 PCOD8016757
Probable space group: P -1
;
_chemical_formula_sum "Si O2"
_cell_formula_units_Z 16
_cell_length_a 15.359010
_cell_length_b 9.375967
_cell_length_c 9.376007
_cell_angle_alpha 109.492731
_cell_angle_beta 54.895435
_cell_angle_gamma 76.205438
_cell_volume 864.107041
_symmetry_space_group_name_H-M "P -1"
_symmetry_group_IT_number 2
_symmetry_cell_setting 'triclinic'
loop_
_space_group_symop_operation_xyz
x,y,z
-x,-y,-z
loop_
_atom_site_type_symbol
_atom_site_label
_atom_site_fract_x
_atom_site_fract_y
_atom_site_fract_z
Si Si1 0.529744 0.935978 0.112865
Si Si2 0.330053 0.891538 0.194670
Si Si3 0.970259 0.172353 0.995464
Si Si4 0.969991 0.338012 0.325605
Si Si5 0.830049 0.145230 0.448358
Si Si6 0.695286 0.328332 0.348935
Si Si7 0.530013 0.265583 0.277990
Si Si8 0.804717 0.739509 0.718898
O O1 0.429739 0.879028 0.218159
O O2 0.506124 0.107192 0.284043
O O3 0.679257 0.769217 0.926736
O O4 0.500000 0.000000 0.000000
O O5 0.250003 0.822336 0.322338
O O6 0.234446 0.097950 0.299358
O O7 0.406480 0.759792 0.945516
O O8 0.993881 0.296289 0.119436
O O9 0.820747 0.285255 0.127730
O O10 0.000000 0.000000 0.000000
O O11 0.070267 0.077632 0.738502
O O12 0.906475 0.241531 0.427251
O O13 0.874791 0.554131 0.502656
O O14 0.105633 0.261738 0.244457
O O15 0.734443 0.231758 0.433160
O O16 0.625222 0.252225 0.303689
O O17 0.605630 0.544280 0.526986
#
# Coordination Sequence:
#
# PCOD8016757 Si02
#       8
#     2   2   2   2   2   2   2   2
#     4   8  18  30  53  72 103 138 172 206 256 308
#     4  10  22  34  52  81 110 135 167 219 272 299
#     4   8  18  30  53  72 103 138 172 206 256 308
#     4   9  18  33  57  78  96 146 175 219 242 311
#     4  10  22  34  52  81 110 135 167 219 272 299
#     4   9  18  33  56  77 103 133 188 206 251 315
#     4   9  18  33  57  78  96 146 175 219 242 311
#     4   9  18  33  56  77 103 133 188 206 251 315
#
# _framework density 18.516226
#
# number of rings (size 3 to 8) (size 9 to 14) (size 15 to 20)
#    0.000    3.500    0.000    0.000   21.000    1.000 
#    0.000    1.250    0.000    0.000    0.000    0.000 
#    0.000    0.000    0.000    0.000    0.000    0.000 
#
# Total GULP energy -198227.173881 kJ/mol
# GULP energy per Si atom -12389.198368 kJ/mol
# Density = 1.847408 g / cm^3
# Si number density = 18.516226 Si / 1000 Ang^3
#
#
#
# Elastic Constant Matrix: (Units=GPa)
#
#
# Indices 1 2 3 4 5 6 
#
# 1 96.4508 17.2708 45.7478 24.0664 -16.9557 8.8035
# 2 17.2708 23.3212 15.9396 4.4833 -6.8546 3.5271
# 3 45.7478 15.9396 86.9639 18.4776 -15.7636 0.3485
# 4 24.0664 4.4833 18.4776 28.2404 1.2137 0.4018
# 5 -16.9557 -6.8546 -15.7636 1.2137 30.6703 6.2687
# 6 8.8035 3.5271 0.3485 0.4018 6.2687 18.3144
#
#
#
# Elastic Compliance Matrix: (Units=1/GPa)
#
#
# Indices 1 2 3 4 5 6 
#
# 1 0.019540 -0.003771 -0.004860 -0.013152 0.010404 -0.011847
# 2 -0.003771 0.054648 -0.005840 -0.001886 0.009624 -0.011853
# 3 -0.004860 -0.005840 0.017395 -0.006545 0.004880 0.001603
# 4 -0.013152 -0.001886 -0.006545 0.051704 -0.015335 0.010925
# 5 0.010404 0.009624 0.004880 -0.015335 0.048356 -0.023162
# 6 -0.011847 -0.011853 0.001603 0.010925 -0.023162 0.070237
#
#
# Mechanical properties :
#
#
# Convention : Reuss Voigt Hill
#
# Bulk Modulus (GPa) = 15.96412 40.51694 28.24053
# Shear Modulus (GPa) = 16.04092 23.96354 20.00223
#
# Velocity S-wave (km/s) = 2.94652 3.60139 3.29029
# Velocity P-wave (km/s) = 4.49626 6.26280 5.45156
#
# Compressibility (1/GPa) = 0.06264045
#
# Stress axis : x y z
#
# Youngs Moduli (GPa) = 51.17583 18.29906 57.48802
#
# Poissons Ratio (x) = 0.06901 0.27941
# Poissons Ratio (y) = 0.19299 0.33572
# Poissons Ratio (z) = 0.24873 0.10686
#
# Static dielectric constant tensor:
#      x y z
#    x 3.794370 0.408630 -0.295100 
#    y 0.408630 3.082440 0.067080 
#    z -0.295100 0.067080 4.136170 
# 
# 
# High freq. dielectric constant tensor:
#      x y z
#    x 1.730430 0.020730 -0.013570 
#    y 0.020730 1.666610 0.026250 
#    z -0.013570 0.026250 1.729010 
# 
# From -- ./inp_files/446293.got.cif
#   From: 2010.06.25/outbox.cif.g09.slc.cpg/sg2_224_cif.got.tgz:446293.got - 2010.06.27 13:26:56.
