data_PCOD8016617
_publ_section_title
;
Structure prediction by ZEFSAII (Michael W. Deem and Ramdas Pophale) SiO2 
 PCOD8016617
Probable space group: P -1
;
_chemical_formula_sum "Si O2"
_cell_formula_units_Z 14
_cell_length_a 11.953311
_cell_length_b 12.257886
_cell_length_c 11.647159
_cell_angle_alpha 85.296425
_cell_angle_beta 39.667453
_cell_angle_gamma 116.532173
_cell_volume 649.412568
_symmetry_space_group_name_H-M "P -1"
_symmetry_group_IT_number 2
_symmetry_cell_setting 'triclinic'
loop_
_space_group_symop_operation_xyz
x,y,z
-x,-y,-z
loop_
_atom_site_type_symbol
_atom_site_label
_atom_site_fract_x
_atom_site_fract_y
_atom_site_fract_z
Si Si1 0.390610 0.874902 0.810168
Si Si2 0.682591 0.889765 0.749652
Si Si3 0.346159 0.508377 0.037318
Si Si4 0.255967 0.975100 0.080845
Si Si5 0.768297 0.490572 0.316209
Si Si6 0.386314 0.377168 0.428620
Si Si7 0.301568 0.764739 0.469356
O O1 0.629316 0.904330 0.659007
O O2 0.536714 0.049947 0.609939
O O3 0.285461 0.865526 0.021024
O O4 0.103299 0.681572 0.992449
O O5 0.446109 0.678600 0.981138
O O6 0.660331 0.973777 0.856247
O O7 0.000000 0.000000 0.500000
O O8 0.429567 0.517694 0.841409
O O9 0.500000 0.500000 0.000000
O O10 0.995150 0.333929 0.342006
O O11 0.916206 0.838058 0.339620
O O12 0.478121 0.162854 0.813393
O O13 0.565111 0.390228 0.373885
O O14 0.657630 0.523864 0.492571
O O15 0.754985 0.361984 0.388527
#
# Coordination Sequence:
#
# PCOD8016617 Si02
#       7
#     2   2   2   2   2   2   2
#     4   9  21  41  61  91 126 165 214 256 314 377
#     4  12  21  38  62  89 130 171 204 263 323 369
#     4  12  26  40  61  99 134 163 215 265 321 379
#     4   9  22  39  62  92 124 169 209 258 316 377
#     4  10  21  45  70  88 128 172 218 253 320 375
#     4  10  23  44  66  92 130 171 208 269 313 377
#     4  10  23  41  64  97 124 165 217 260 310 387
#
# _framework density 21.557942000000001
#
# number of rings (size 3 to 8) (size 9 to 14) (size 15 to 20)
#    0.857    0.857    2.857    1.286    2.000    2.857 
#    0.000    0.714    0.000    0.000    0.000    0.000 
#    0.000    0.000    0.000    0.000    0.000    0.000 
#
# Total GULP energy -173447.179421 kJ/mol
# GULP energy per Si atom -12389.084244 kJ/mol
# Density = 2.150888 g / cm^3
# Si number density = 21.557942 Si / 1000 Ang^3
#
#
#
# Elastic Constant Matrix: (Units=GPa)
#
#
# Indices 1 2 3 4 5 6 
#
# 1 134.4977 35.6777 37.1976 -17.8709 -17.7669 -5.3951
# 2 35.6777 50.0302 24.7436 -23.3053 0.3289 -4.6546
# 3 37.1976 24.7436 106.4941 -27.2206 -15.6805 5.8668
# 4 -17.8709 -23.3053 -27.2206 41.9483 5.0275 5.8958
# 5 -17.7669 0.3289 -15.6805 5.0275 33.2658 -3.3898
# 6 -5.3951 -4.6546 5.8668 5.8958 -3.3898 38.8094
#
#
#
# Elastic Compliance Matrix: (Units=1/GPa)
#
#
# Indices 1 2 3 4 5 6 
#
# 1 0.010333 -0.007129 -0.001645 -0.001459 0.005188 0.001505
# 2 -0.007129 0.033261 -0.002659 0.014544 -0.007534 0.000532
# 3 -0.001645 -0.002659 0.012914 0.006158 0.003990 -0.003087
# 4 -0.001459 0.014544 0.006158 0.036527 -0.004080 -0.005295
# 5 0.005188 -0.007534 0.003990 -0.004080 0.035704 0.002953
# 6 0.001505 0.000532 -0.003087 -0.005295 0.002953 0.027569
#
#
# Mechanical properties :
#
#
# Convention : Reuss Voigt Hill
#
# Bulk Modulus (GPa) = 29.72438 54.02887 41.87663
# Shear Modulus (GPa) = 26.26224 35.69821 30.98023
#
# Velocity S-wave (km/s) = 3.49408 4.07371 3.79498
# Velocity P-wave (km/s) = 5.48600 6.87339 6.21851
#
# Compressibility (1/GPa) = 0.03364241
#
# Stress axis : x y z
#
# Youngs Moduli (GPa) = 96.77926 30.06526 77.43528
#
# Poissons Ratio (x) = 0.21433 0.12737
# Poissons Ratio (y) = 0.68993 0.20590
# Poissons Ratio (z) = 0.15919 0.07994
#
# Static dielectric constant tensor:
#      x y z
#    x 3.769310 0.029980 -0.325790 
#    y 0.029980 3.729200 -0.019580 
#    z -0.325790 -0.019580 3.911400 
# 
# 
# High freq. dielectric constant tensor:
#      x y z
#    x 1.841510 0.001880 -0.026410 
#    y 0.001880 1.842640 -0.007140 
#    z -0.026410 -0.007140 1.844180 
# 
# From -- ./inp_files/428075.got.cif
#   From: 2010.06.25/outbox.cif.g09.slc.cpg/sg2_215_cif.got.tgz:428075.got - 2010.06.27 13:26:56.
