data_PCOD8016290
_publ_section_title
;
Structure prediction by ZEFSAII (Michael W. Deem and Ramdas Pophale) SiO2 
 PCOD8016290
Probable space group: P -1
;
_chemical_formula_sum "Si O2"
_cell_formula_units_Z 14
_cell_length_a 10.112174
_cell_length_b 9.221187
_cell_length_c 7.582660
_cell_angle_alpha 120.205964
_cell_angle_beta 97.219641
_cell_angle_gamma 81.010356
_cell_volume 602.628754
_symmetry_space_group_name_H-M "P -1"
_symmetry_group_IT_number 2
_symmetry_cell_setting 'triclinic'
loop_
_space_group_symop_operation_xyz
x,y,z
-x,-y,-z
loop_
_atom_site_type_symbol
_atom_site_label
_atom_site_fract_x
_atom_site_fract_y
_atom_site_fract_z
Si Si1 0.793378 0.785025 0.582895
Si Si2 0.351001 0.457492 0.142868
Si Si3 0.734510 0.867628 0.226537
Si Si4 0.350873 0.661174 0.941706
Si Si5 0.544648 0.997779 0.805188
Si Si6 0.041816 0.916170 0.638744
Si Si7 0.203387 0.581017 0.526447
O O1 0.785255 0.785204 0.368671
O O2 0.849143 0.596854 0.539508
O O3 0.905251 0.913177 0.732338
O O4 0.645447 0.833671 0.670581
O O5 0.510717 0.446040 0.154607
O O6 0.316742 0.545477 0.376192
O O7 0.295927 0.274896 0.006504
O O8 0.286045 0.570778 0.039600
O O9 0.595516 0.988479 0.319190
O O10 0.840771 0.974761 0.207398
O O11 0.255522 0.669836 0.762350
O O12 0.372748 0.845979 0.126091
O O13 0.500000 0.000000 0.000000
O O14 0.091559 0.716782 0.505285
O O15 0.000000 0.000000 0.500000
#
# Coordination Sequence:
#
# PCOD8016290 Si02
#       7
#     2   2   2   2   2   2   2
#     4  11  23  43  68  98 137 177 223 282 333 394
#     4  10  22  40  67 102 139 171 223 277 333 402
#     4  10  21  44  66 100 137 177 221 277 334 403
#     4  10  22  40  63 104 139 171 222 274 339 399
#     4  11  23  41  67 101 136 174 228 271 335 405
#     4  10  25  44  68  96 135 179 230 275 341 400
#     4  12  23  42  70  95 134 180 226 278 335 397
#
# _framework density 23.231549999999999
#
# number of rings (size 3 to 8) (size 9 to 14) (size 15 to 20)
#    0.000    1.429    1.429    3.857    4.000    1.143 
#    0.000   10.714    0.000    0.000    0.000    0.000 
#    0.000    0.000    0.000    0.000    0.000    0.000 
#
# Total GULP energy -173506.744706 kJ/mol
# GULP energy per Si atom -12393.338908 kJ/mol
# Density = 2.317867 g / cm^3
# Si number density = 23.231550 Si / 1000 Ang^3
#
#
#
# Elastic Constant Matrix: (Units=GPa)
#
#
# Indices 1 2 3 4 5 6 
#
# 1 105.8465 46.2000 8.8693 3.5980 14.9042 11.3082
# 2 46.2000 153.5483 18.6482 -0.4137 3.2257 -6.2226
# 3 8.8693 18.6482 38.6881 -8.3361 5.1043 1.2110
# 4 3.5980 -0.4137 -8.3361 24.1741 5.0423 -3.0146
# 5 14.9042 3.2257 5.1043 5.0423 26.1702 6.7430
# 6 11.3082 -6.2226 1.2110 -3.0146 6.7430 35.3371
#
#
#
# Elastic Compliance Matrix: (Units=1/GPa)
#
#
# Indices 1 2 3 4 5 6 
#
# 1 0.012271 -0.003668 -0.000558 -0.001457 -0.005197 -0.003686
# 2 -0.003668 0.008101 -0.003392 -0.000431 0.001204 0.002450
# 3 -0.000558 -0.003392 0.031379 0.012681 -0.008121 0.001137
# 4 -0.001457 -0.000431 0.012681 0.049450 -0.012824 0.006622
# 5 -0.005197 0.001204 -0.008121 -0.012824 0.047121 -0.007932
# 6 -0.003686 0.002450 0.001137 0.006622 -0.007932 0.031950
#
#
# Mechanical properties :
#
#
# Convention : Reuss Voigt Hill
#
# Bulk Modulus (GPa) = 27.38684 49.50199 38.44442
# Shear Modulus (GPa) = 24.07555 32.09397 28.08476
#
# Velocity S-wave (km/s) = 3.22270 3.72086 3.48070
# Velocity P-wave (km/s) = 5.06576 6.30984 5.72172
#
# Compressibility (1/GPa) = 0.03651389
#
# Stress axis : x y z
#
# Youngs Moduli (GPa) = 81.49490 123.43843 31.86850
#
# Poissons Ratio (x) = 0.45283 0.01778
# Poissons Ratio (y) = 0.29896 0.10811
# Poissons Ratio (z) = 0.04546 0.41873
#
# Static dielectric constant tensor:
#      x y z
#    x 4.589270 0.037120 0.150860 
#    y 0.037120 4.621130 0.054730 
#    z 0.150860 0.054730 3.784970 
# 
# 
# High freq. dielectric constant tensor:
#      x y z
#    x 1.916240 0.004560 0.005940 
#    y 0.004560 1.946720 -0.006360 
#    z 0.005940 -0.006360 1.882290 
# 
# From -- ./inp_files/158660.got.cif
#   From: 2010.06.25/outbox.cif.g09.slc.cpg/sg2_80_cif.got.tgz:158660.got - 2010.06.27 13:26:56.
