data_PCOD8016878
_publ_section_title
;
Structure prediction by ZEFSAII (Michael W. Deem and Ramdas Pophale) SiO2 
 PCOD8016878
Probable space group: P -1
;
_chemical_formula_sum "Si O2"
_cell_formula_units_Z 16
_cell_length_a 9.360042
_cell_length_b 21.894015
_cell_length_c 22.273906
_cell_angle_alpha 161.443625
_cell_angle_beta 38.261571
_cell_angle_gamma 144.343871
_cell_volume 844.020846
_symmetry_space_group_name_H-M "P -1"
_symmetry_group_IT_number 2
_symmetry_cell_setting 'triclinic'
loop_
_space_group_symop_operation_xyz
x,y,z
-x,-y,-z
loop_
_atom_site_type_symbol
_atom_site_label
_atom_site_fract_x
_atom_site_fract_y
_atom_site_fract_z
Si Si1 0.622025 0.269620 0.628389
Si Si2 0.020369 0.712022 0.721319
Si Si3 0.608875 0.864039 0.015955
Si Si4 0.780813 0.682352 0.891701
Si Si5 0.751977 0.349883 0.797930
Si Si6 0.072068 0.991231 0.536452
Si Si7 0.922768 0.195035 0.875854
Si Si8 0.221985 0.097656 0.786402
O O1 0.657751 0.454303 0.743684
O O2 0.731423 0.340220 0.723811
O O3 0.335150 0.148533 0.615444
O O4 0.755723 0.123799 0.419786
O O5 0.000000 0.500000 0.500000
O O6 0.001149 0.689119 0.779278
O O7 0.276930 0.888592 0.784465
O O8 0.794430 0.784592 0.840682
O O9 0.342255 0.796004 0.009744
O O10 0.581185 0.754866 0.988972
O O11 0.878836 0.838319 0.059561
O O12 0.484050 0.266149 0.838679
O O13 0.929560 0.232695 0.654186
O O14 0.878379 0.581859 0.992734
O O15 0.880563 0.058422 0.701954
O O16 0.000000 0.000000 0.500000
O O17 0.015822 0.078029 0.786903
#
# Coordination Sequence:
#
# PCOD8016878 Si02
#       8
#     2   2   2   2   2   2   2   2
#     4  11  21  39  60  85 123 172 206 232 290 357
#     4   9  21  45  66  84 119 153 189 251 326 366
#     4   9  24  39  62  94 114 146 199 253 314 352
#     4  10  22  36  65  90 108 156 207 240 300 366
#     4  11  22  40  57  84 129 176 203 227 300 344
#     4  11  25  35  54  88 127 165 208 248 281 344
#     4  12  22  38  61  88 125 157 199 255 295 339
#     4  11  21  38  59  86 126 168 201 240 283 359
#
# _framework density 18.956879000000001
#
# number of rings (size 3 to 8) (size 9 to 14) (size 15 to 20)
#    0.750    0.750    3.750    1.875    7.000    1.500 
#    0.000    0.625    0.000    1.500    0.000    0.000 
#    0.000    0.000    0.000    0.000    0.000    0.000 
#
# Total GULP energy -198341.195344 kJ/mol
# GULP energy per Si atom -12396.324709 kJ/mol
# Density = 1.891373 g / cm^3
# Si number density = 18.956879 Si / 1000 Ang^3
#
#
#
# Elastic Constant Matrix: (Units=GPa)
#
#
# Indices 1 2 3 4 5 6 
#
# 1 73.5448 27.7251 37.0294 -3.2182 -3.3872 5.7482
# 2 27.7251 50.7618 31.9489 -0.1136 -4.7264 -12.0478
# 3 37.0294 31.9489 122.8322 -0.9193 6.4318 -8.2504
# 4 -3.2182 -0.1136 -0.9193 29.4366 -11.3699 -3.1380
# 5 -3.3872 -4.7264 6.4318 -11.3699 29.6446 -3.0920
# 6 5.7482 -12.0478 -8.2504 -3.1380 -3.0920 27.1591
#
#
#
# Elastic Compliance Matrix: (Units=1/GPa)
#
#
# Indices 1 2 3 4 5 6 
#
# 1 0.020758 -0.011114 -0.004098 0.001362 0.000937 -0.010305
# 2 -0.011114 0.033559 -0.004630 0.003832 0.008351 0.017226
# 3 -0.004098 -0.004630 0.010879 -0.001508 -0.003990 0.001490
# 4 0.001362 0.003832 -0.001508 0.041863 0.017967 0.007836
# 5 0.000937 0.008351 -0.003990 0.017967 0.043906 0.009369
# 6 -0.010305 0.017226 0.001490 0.007836 0.009369 0.049067
#
#
# Mechanical properties :
#
#
# Convention : Reuss Voigt Hill
#
# Bulk Modulus (GPa) = 39.19759 48.94951 44.07355
# Shear Modulus (GPa) = 20.14351 27.27710 23.71030
#
# Velocity S-wave (km/s) = 3.26329 3.79740 3.54043
# Velocity P-wave (km/s) = 5.90939 6.71599 6.32556
#
# Compressibility (1/GPa) = 0.02551178
#
# Stress axis : x y z
#
# Youngs Moduli (GPa) = 48.17319 29.79864 91.92413
#
# Poissons Ratio (x) = 0.33118 0.37672
# Poissons Ratio (y) = 0.53539 0.42559
# Poissons Ratio (z) = 0.19742 0.13796
#
# Static dielectric constant tensor:
#      x y z
#    x 3.413880 -0.132230 -0.154060 
#    y -0.132230 3.267530 0.061600 
#    z -0.154060 0.061600 3.636350 
# 
# 
# High freq. dielectric constant tensor:
#      x y z
#    x 1.725010 -0.013110 -0.007890 
#    y -0.013110 1.712490 0.006440 
#    z -0.007890 0.006440 1.754810 
# 
# From -- ./inp_files/348888.got.cif
#   From: 2010.06.25/outbox.cif.g09.slc.cpg/sg2_175_cif.got.tgz:348888.got - 2010.06.27 13:26:56.
