data_PCOD8016692
_publ_section_title
;
Structure prediction by ZEFSAII (Michael W. Deem and Ramdas Pophale) SiO2 
 PCOD8016692
Probable space group: P -1
;
_chemical_formula_sum "Si O2"
_cell_formula_units_Z 10
_cell_length_a 13.050325
_cell_length_b 8.543673
_cell_length_c 4.822675
_cell_angle_alpha 113.521129
_cell_angle_beta 75.917822
_cell_angle_gamma 62.879890
_cell_volume 374.550694
_symmetry_space_group_name_H-M "P -1"
_symmetry_group_IT_number 2
_symmetry_cell_setting 'triclinic'
loop_
_space_group_symop_operation_xyz
x,y,z
-x,-y,-z
loop_
_atom_site_type_symbol
_atom_site_label
_atom_site_fract_x
_atom_site_fract_y
_atom_site_fract_z
Si Si1 0.061191 0.793741 0.124071
Si Si2 0.474906 0.703048 0.513987
Si Si3 0.184702 0.970116 0.886316
Si Si4 0.684746 0.900695 0.766313
Si Si5 0.286247 0.355146 0.934895
O O1 0.158069 0.796677 0.845727
O O2 0.142657 0.574494 0.092696
O O3 0.000000 0.000000 0.500000
O O4 0.937499 0.826893 0.067961
O O5 0.500000 0.500000 0.500000
O O6 0.330843 0.831880 0.534099
O O7 0.595219 0.624776 0.169079
O O8 0.459094 0.872872 0.875153
O O9 0.199816 0.070560 0.228321
O O10 0.681315 0.848577 0.411179
O O11 0.721819 0.693639 0.775780
#
# Coordination Sequence:
#
# PCOD8016692 Si02
#       5
#     2   2   2   2   2
#     4  11  25  44  68  97 137 186 232 274 333 414
#     4  10  21  46  70 102 133 184 224 283 334 414
#     4   9  24  44  66  97 139 173 237 270 341 401
#     4  10  26  43  71 105 139 171 230 280 349 394
#     4  12  24  46  72 102 139 178 222 289 338 401
#
# _framework density 26.69866
#
# number of rings (size 3 to 8) (size 9 to 14) (size 15 to 20)
#    1.200    0.400    2.000    1.200    8.400    1.600 
#    3.600    3.000    0.000    0.000    0.000    0.000 
#    0.000    0.000    0.000    0.000    0.000    0.000 
#
# Total GULP energy -123953.923904 kJ/mol
# GULP energy per Si atom -12395.392390 kJ/mol
# Density = 2.663789 g / cm^3
# Si number density = 26.698660 Si / 1000 Ang^3
#
#
#
# Elastic Constant Matrix: (Units=GPa)
#
#
# Indices 1 2 3 4 5 6 
#
# 1 119.8965 20.9003 -2.2650 -0.5987 -27.1378 -13.8542
# 2 20.9003 111.9734 -7.7860 27.7466 -13.9745 6.5017
# 3 -2.2650 -7.7860 40.1903 13.9787 1.3334 -9.0496
# 4 -0.5987 27.7466 13.9787 35.3257 -10.5696 3.2092
# 5 -27.1378 -13.9745 1.3334 -10.5696 29.7772 13.5541
# 6 -13.8542 6.5017 -9.0496 3.2092 13.5541 35.1952
#
#
#
# Elastic Compliance Matrix: (Units=1/GPa)
#
#
# Indices 1 2 3 4 5 6 
#
# 1 0.011450 -0.002505 -0.003086 0.007269 0.012584 -0.001333
# 2 -0.002505 0.013089 0.007239 -0.013633 -0.001415 0.000245
# 3 -0.003086 0.007239 0.041394 -0.029913 -0.020385 0.018670
# 4 0.007269 -0.013633 -0.029913 0.062868 0.033398 -0.020906
# 5 0.012584 -0.001415 -0.020385 0.033398 0.070999 -0.030414
# 6 -0.001333 0.000245 0.018670 -0.020906 -0.030414 0.046262
#
#
# Mechanical properties :
#
#
# Convention : Reuss Voigt Hill
#
# Bulk Modulus (GPa) = 14.44496 32.63988 23.54242
# Shear Modulus (GPa) = 18.80807 37.47368 28.14088
#
# Velocity S-wave (km/s) = 2.65704 3.75050 3.25009
# Velocity P-wave (km/s) = 3.85166 5.56838 4.78759
#
# Compressibility (1/GPa) = 0.06922831
#
# Stress axis : x y z
#
# Youngs Moduli (GPa) = 87.33976 76.39999 24.15788
#
# Poissons Ratio (x) = 0.19138 0.07455
# Poissons Ratio (y) = 0.21879 -0.17487
# Poissons Ratio (z) = 0.26952 -0.55303
#
# Static dielectric constant tensor:
#      x y z
#    x 5.123930 0.085500 -0.251750 
#    y 0.085500 4.948700 0.150110 
#    z -0.251750 0.150110 4.448300 
# 
# 
# High freq. dielectric constant tensor:
#      x y z
#    x 2.085780 0.002580 -0.010730 
#    y 0.002580 2.076600 0.007510 
#    z -0.010730 0.007510 2.037840 
# 
# From -- ./inp_files/15995.got.cif
#   From: 2010.06.25/outbox.cif.g09.slc.cpg/sg2_8_cif.got.tgz:15995.got - 2010.06.27 13:26:56.
