data_PCOD8016222
_publ_section_title
;
Structure prediction by ZEFSAII (Michael W. Deem and Ramdas Pophale) SiO2 
 PCOD8016222
Probable space group: P -1
;
_chemical_formula_sum "Si O2"
_cell_formula_units_Z 14
_cell_length_a 12.816875
_cell_length_b 16.068772
_cell_length_c 7.956500
_cell_angle_alpha 125.400123
_cell_angle_beta 57.212628
_cell_angle_gamma 156.648054
_cell_volume 529.207626
_symmetry_space_group_name_H-M "P -1"
_symmetry_group_IT_number 2
_symmetry_cell_setting 'triclinic'
loop_
_space_group_symop_operation_xyz
x,y,z
-x,-y,-z
loop_
_atom_site_type_symbol
_atom_site_label
_atom_site_fract_x
_atom_site_fract_y
_atom_site_fract_z
Si Si1 0.081932 0.742621 0.185677
Si Si2 0.096183 0.680339 0.741857
Si Si3 0.270255 0.752638 0.337874
Si Si4 0.483299 0.728866 0.939921
Si Si5 0.265083 0.254157 0.065434
Si Si6 0.374499 0.548232 0.294970
Si Si7 0.198461 0.048881 0.387262
O O1 0.251832 0.816550 0.272611
O O2 0.801925 0.483445 0.145724
O O3 0.068349 0.855053 0.360341
O O4 0.205573 0.811893 0.971463
O O5 0.014492 0.505491 0.664712
O O6 0.824066 0.536167 0.751623
O O7 0.320410 0.847288 0.587834
O O8 0.481901 0.817733 0.185868
O O9 0.522926 0.645265 0.881975
O O10 0.727957 0.930278 0.841581
O O11 0.217496 0.336816 0.262807
O O12 0.377591 0.326194 0.864304
O O13 0.000000 0.000000 0.000000
O O14 0.514146 0.719796 0.512364
O O15 0.000000 0.000000 0.500000
#
# Coordination Sequence:
#
# PCOD8016222 Si02
#       7
#     2   2   2   2   2   2   2
#     4  11  24  47  74 106 148 189 237 299 361 432
#     4  10  21  43  77 104 142 189 241 296 360 428
#     4  10  22  44  73 108 142 191 239 298 364 423
#     4  11  23  45  69 102 144 185 236 298 360 423
#     4  11  24  41  72 100 139 183 235 290 354 423
#     4  11  24  44  68 102 141 183 233 298 357 418
#     4  12  28  44  70 107 146 189 242 296 361 434
#
# _framework density 26.454644999999999
#
# number of rings (size 3 to 8) (size 9 to 14) (size 15 to 20)
#    0.000    1.143    2.857    4.286    4.000    7.429 
#    0.000    1.429    0.000    0.000    0.000    0.000 
#    0.000    0.000    0.000    0.000    0.000    0.000 
#
# Total GULP energy -173484.724909 kJ/mol
# GULP energy per Si atom -12391.766065 kJ/mol
# Density = 2.639443 g / cm^3
# Si number density = 26.454645 Si / 1000 Ang^3
#
#
#
# Elastic Constant Matrix: (Units=GPa)
#
#
# Indices 1 2 3 4 5 6 
#
# 1 153.0012 37.2640 57.0973 8.3560 1.1864 -22.9194
# 2 37.2640 72.5098 61.2416 -1.2734 -2.4995 0.2331
# 3 57.0973 61.2416 138.5458 -19.1374 6.2914 -13.7190
# 4 8.3560 -1.2734 -19.1374 63.3546 -7.8159 -2.3005
# 5 1.1864 -2.4995 6.2914 -7.8159 36.8003 5.6613
# 6 -22.9194 0.2331 -13.7190 -2.3005 5.6613 39.8514
#
#
#
# Elastic Compliance Matrix: (Units=1/GPa)
#
#
# Indices 1 2 3 4 5 6 
#
# 1 0.008786 -0.002776 -0.002163 -0.001853 -0.001170 0.004384
# 2 -0.002776 0.024398 -0.010723 -0.002102 0.004077 -0.006131
# 3 -0.002163 -0.010723 0.013966 0.004094 -0.002833 0.004265
# 4 -0.001853 -0.002102 0.004094 0.017604 0.002806 0.000973
# 5 -0.001170 0.004077 -0.002833 0.002806 0.029444 -0.005693
# 6 0.004384 -0.006131 0.004265 0.000973 -0.005693 0.029984
#
#
# Mechanical properties :
#
#
# Convention : Reuss Voigt Hill
#
# Bulk Modulus (GPa) = 63.18651 75.02917 69.10784
# Shear Modulus (GPa) = 31.09820 41.89818 36.49819
#
# Velocity S-wave (km/s) = 3.43232 3.98398 3.71840
# Velocity P-wave (km/s) = 6.29638 7.04172 6.67946
#
# Compressibility (1/GPa) = 0.01582616
#
# Stress axis : x y z
#
# Youngs Moduli (GPa) = 113.81785 40.98701 71.60419
#
# Poissons Ratio (x) = 0.11377 0.15485
# Poissons Ratio (y) = 0.31592 0.76784
# Poissons Ratio (z) = 0.24615 0.43952
#
# Static dielectric constant tensor:
#      x y z
#    x 5.252810 -0.451820 -0.276590 
#    y -0.451820 4.722450 -0.034640 
#    z -0.276590 -0.034640 5.232030 
# 
# 
# High freq. dielectric constant tensor:
#      x y z
#    x 2.058750 -0.016710 -0.004830 
#    y -0.016710 2.067580 -0.001650 
#    z -0.004830 -0.001650 2.068320 
# 
# From -- ./inp_files/270833.got.cif
#   From: 2010.06.25/outbox.cif.g09.slc.cpg/sg2_136_cif.got.tgz:270833.got - 2010.06.27 13:26:56.
