data_PCOD8016925
_publ_section_title
;
Structure prediction by ZEFSAII (Michael W. Deem and Ramdas Pophale) SiO2 
 PCOD8016925
Probable space group: P -1
;
_chemical_formula_sum "Si O2"
_cell_formula_units_Z 16
_cell_length_a 9.179594
_cell_length_b 14.550587
_cell_length_c 14.762164
_cell_angle_alpha 39.494768
_cell_angle_beta 47.611682
_cell_angle_gamma 78.139435
_cell_volume 687.658975
_symmetry_space_group_name_H-M "P -1"
_symmetry_group_IT_number 2
_symmetry_cell_setting 'triclinic'
loop_
_space_group_symop_operation_xyz
x,y,z
-x,-y,-z
loop_
_atom_site_type_symbol
_atom_site_label
_atom_site_fract_x
_atom_site_fract_y
_atom_site_fract_z
Si Si1 0.521951 0.394893 0.950381
Si Si2 0.911441 0.286409 0.109216
Si Si3 0.754356 0.015381 0.657328
Si Si4 0.304762 0.035790 0.069131
Si Si5 0.852952 0.849835 0.258011
Si Si6 0.454375 0.036159 0.634736
Si Si7 0.478862 0.419021 0.752757
Si Si8 0.179351 0.454596 0.118659
O O1 0.449426 0.526112 0.905490
O O2 0.278722 0.158991 0.242103
O O3 0.620309 0.437427 0.773070
O O4 0.761637 0.466447 0.862871
O O5 0.728825 0.163247 0.366140
O O6 0.776447 0.161180 0.170440
O O7 0.945461 0.476269 0.939284
O O8 0.197340 0.352722 0.949487
O O9 0.497141 0.981999 0.756357
O O10 0.001032 0.226155 0.358392
O O11 0.789876 0.016527 0.748451
O O12 0.440357 0.260334 0.824913
O O13 0.061072 0.896671 0.209268
O O14 0.500000 0.000000 0.000000
O O15 0.641293 0.848341 0.397418
O O16 0.679696 0.629658 0.459885
O O17 0.000000 0.000000 0.000000
#
# Coordination Sequence:
#
# PCOD8016925 Si02
#       8
#     2   2   2   2   2   2   2   2
#     4  10  22  37  59  94 133 174 221 268 329 403
#     4  11  23  41  69 101 141 182 224 281 345 410
#     4  11  22  40  64  90 133 172 225 275 335 396
#     4  11  26  48  68  99 134 181 232 291 343 405
#     4  12  26  47  73 104 137 179 233 288 343 411
#     4  11  23  43  67 102 141 180 228 283 338 406
#     4  11  24  46  71 101 136 182 228 282 352 410
#     4  11  21  37  60  95 131 177 219 267 334 406
#
# _framework density 23.267347000000001
#
# number of rings (size 3 to 8) (size 9 to 14) (size 15 to 20)
#    0.000    1.000    2.500    4.125    0.000    4.500 
#    2.250    0.000    0.000    0.000    0.000    0.000 
#    0.000    0.000    0.000    0.000    0.000    0.000 
#
# Total GULP energy -198330.404318 kJ/mol
# GULP energy per Si atom -12395.650270 kJ/mol
# Density = 2.321439 g / cm^3
# Si number density = 23.267347 Si / 1000 Ang^3
#
#
#
# Elastic Constant Matrix: (Units=GPa)
#
#
# Indices 1 2 3 4 5 6 
#
# 1 133.7694 31.8133 28.0541 -2.9424 -3.4374 2.2504
# 2 31.8133 87.3290 31.3414 -18.3422 -7.9306 -26.2637
# 3 28.0541 31.3414 106.6553 -30.2396 4.9670 -3.3306
# 4 -2.9424 -18.3422 -30.2396 30.5958 -5.0201 5.2292
# 5 -3.4374 -7.9306 4.9670 -5.0201 29.3176 -5.8301
# 6 2.2504 -26.2637 -3.3306 5.2292 -5.8301 43.9311
#
#
#
# Elastic Compliance Matrix: (Units=1/GPa)
#
#
# Indices 1 2 3 4 5 6 
#
# 1 0.008840 -0.004064 -0.002130 -0.003356 -0.000824 -0.002754
# 2 -0.004064 0.020184 -0.002438 0.008731 0.009335 0.012290
# 3 -0.002130 -0.002438 0.014191 0.012436 -0.001574 -0.001962
# 4 -0.003356 0.008731 0.012436 0.051102 0.008897 0.001433
# 5 -0.000824 0.009335 -0.001574 0.008897 0.040275 0.009790
# 6 -0.002754 0.012290 -0.001962 0.001433 0.009790 0.031231
#
#
# Mechanical properties :
#
#
# Convention : Reuss Voigt Hill
#
# Bulk Modulus (GPa) = 38.53352 56.68571 47.60961
# Shear Modulus (GPa) = 26.07742 36.53856 31.30799
#
# Velocity S-wave (km/s) = 3.35143 3.96710 3.67219
# Velocity P-wave (km/s) = 5.61901 6.73792 6.20374
#
# Compressibility (1/GPa) = 0.02595143
#
# Stress axis : x y z
#
# Youngs Moduli (GPa) = 113.12112 49.54432 70.46867
#
# Poissons Ratio (x) = 0.20134 0.15012
# Poissons Ratio (y) = 0.45970 0.17178
# Poissons Ratio (z) = 0.24097 0.12077
#
# Static dielectric constant tensor:
#      x y z
#    x 4.543000 0.098800 0.033770 
#    y 0.098800 4.437290 -0.407320 
#    z 0.033770 -0.407320 3.953760 
# 
# 
# High freq. dielectric constant tensor:
#      x y z
#    x 1.941180 0.005320 0.001800 
#    y 0.005320 1.916310 -0.034640 
#    z 0.001800 -0.034640 1.898490 
# 
# From -- ./inp_files/505244.got.cif
#   From: 2010.06.25/outbox.cif.g09.slc.cpg/sg2_253_cif.got.tgz:505244.got - 2010.06.27 13:26:56.
