data_PCOD8016709
_publ_section_title
;
Structure prediction by ZEFSAII (Michael W. Deem and Ramdas Pophale) SiO2 
 PCOD8016709
Probable space group: P -1
;
_chemical_formula_sum "Si O2"
_cell_formula_units_Z 14
_cell_length_a 11.739011
_cell_length_b 10.771832
_cell_length_c 5.683541
_cell_angle_alpha 121.251497
_cell_angle_beta 94.166351
_cell_angle_gamma 106.777079
_cell_volume 566.121053
_symmetry_space_group_name_H-M "P -1"
_symmetry_group_IT_number 2
_symmetry_cell_setting 'triclinic'
loop_
_space_group_symop_operation_xyz
x,y,z
-x,-y,-z
loop_
_atom_site_type_symbol
_atom_site_label
_atom_site_fract_x
_atom_site_fract_y
_atom_site_fract_z
Si Si1 0.366335 0.979995 0.192681
Si Si2 0.506046 0.232549 0.085870
Si Si3 0.277347 0.448997 0.581021
Si Si4 0.112263 0.870071 0.857172
Si Si5 0.307930 0.216855 0.694498
Si Si6 0.031101 0.437425 0.693957
Si Si7 0.883184 0.811679 0.024547
O O1 0.454449 0.130688 0.209101
O O2 0.314388 0.049621 0.467739
O O3 0.441150 0.872442 0.177931
O O4 0.245853 0.864044 0.917357
O O5 0.617025 0.391428 0.333771
O O6 0.402780 0.279458 0.987618
O O7 0.343625 0.346038 0.622393
O O8 0.178346 0.480660 0.768302
O O9 0.206143 0.356962 0.252623
O O10 0.045459 0.752083 0.516739
O O11 0.023581 0.821836 0.030811
O O12 0.135330 0.050249 0.988901
O O13 0.164901 0.181801 0.712041
O O14 0.000000 0.500000 0.500000
O O15 0.000000 0.500000 0.000000
#
# Coordination Sequence:
#
# PCOD8016709 Si02
#       7
#     2   2   2   2   2   2   2
#     4  11  24  46  69 103 139 194 239 297 372 433
#     4  11  25  45  67  99 146 191 242 302 357 445
#     4  11  25  45  70 104 144 190 239 308 364 436
#     4  10  21  46  71  99 142 184 234 302 368 436
#     4  12  23  43  69 105 138 185 252 294 366 441
#     4  11  27  49  74 112 149 196 244 303 382 446
#     4  10  23  42  68 104 134 179 239 300 372 428
#
# _framework density 24.729690999999999
#
# number of rings (size 3 to 8) (size 9 to 14) (size 15 to 20)
#    0.000    1.143    2.857    1.714    4.000    6.286 
#    5.143    0.000    0.000    0.000    0.000    0.000 
#    0.000    0.000    0.000    0.000    0.000    0.000 
#
# Total GULP energy -173505.773207 kJ/mol
# GULP energy per Si atom -12393.269515 kJ/mol
# Density = 2.467341 g / cm^3
# Si number density = 24.729691 Si / 1000 Ang^3
#
#
#
# Elastic Constant Matrix: (Units=GPa)
#
#
# Indices 1 2 3 4 5 6 
#
# 1 100.3264 33.4705 13.3513 6.2935 -12.0260 12.2539
# 2 33.4705 97.5501 31.1667 16.8967 8.8994 15.9446
# 3 13.3513 31.1667 91.6327 11.5212 -24.6192 19.3997
# 4 6.2935 16.8967 11.5212 35.4646 2.3390 11.0390
# 5 -12.0260 8.8994 -24.6192 2.3390 43.4539 -0.5913
# 6 12.2539 15.9446 19.3997 11.0390 -0.5913 45.4442
#
#
#
# Elastic Compliance Matrix: (Units=1/GPa)
#
#
# Indices 1 2 3 4 5 6 
#
# 1 0.012295 -0.004909 0.001827 -0.000083 0.005417 -0.002282
# 2 -0.004909 0.015292 -0.005920 -0.003769 -0.007651 -0.000698
# 3 0.001827 -0.005920 0.017080 -0.002247 0.011447 -0.005012
# 4 -0.000083 -0.003769 -0.002247 0.032655 -0.002359 -0.005659
# 5 0.005417 -0.007651 0.011447 -0.002359 0.032655 -0.002665
# 6 -0.002282 -0.000698 -0.005012 -0.005659 -0.002665 0.026345
#
#
# Mechanical properties :
#
#
# Convention : Reuss Voigt Hill
#
# Bulk Modulus (GPa) = 37.50405 49.49845 43.50125
# Shear Modulus (GPa) = 30.63488 38.97394 34.80441
#
# Velocity S-wave (km/s) = 3.52346 3.97419 3.75559
# Velocity P-wave (km/s) = 5.63485 6.41235 6.03613
#
# Compressibility (1/GPa) = 0.02666378
#
# Stress axis : x y z
#
# Youngs Moduli (GPa) = 81.33148 65.39436 58.54952
#
# Poissons Ratio (x) = 0.32103 -0.10699
# Poissons Ratio (y) = 0.39927 0.34659
# Poissons Ratio (z) = -0.14862 0.38711
#
# Static dielectric constant tensor:
#      x y z
#    x 4.970420 0.100890 -0.362060 
#    y 0.100890 4.388800 0.245620 
#    z -0.362060 0.245620 4.270950 
# 
# 
# High freq. dielectric constant tensor:
#      x y z
#    x 2.002600 0.006720 -0.018800 
#    y 0.006720 1.975470 0.019530 
#    z -0.018800 0.019530 1.968450 
# 
# From -- ./inp_files/72229.got.cif
#   From: 2010.06.25/outbox.cif.g09.slc.cpg/sg2_37_cif.got.tgz:72229.got - 2010.06.27 13:26:56.
