data_PCOD8016607
_publ_section_title
;
Structure prediction by ZEFSAII (Michael W. Deem and Ramdas Pophale) SiO2 
 PCOD8016607
Probable space group: P -1
;
_chemical_formula_sum "Si O2"
_cell_formula_units_Z 16
_cell_length_a 11.676778
_cell_length_b 8.722863
_cell_length_c 17.863608
_cell_angle_alpha 150.340209
_cell_angle_beta 53.377551
_cell_angle_gamma 131.345765
_cell_volume 674.705512
_symmetry_space_group_name_H-M "P -1"
_symmetry_group_IT_number 2
_symmetry_cell_setting 'triclinic'
loop_
_space_group_symop_operation_xyz
x,y,z
-x,-y,-z
loop_
_atom_site_type_symbol
_atom_site_label
_atom_site_fract_x
_atom_site_fract_y
_atom_site_fract_z
Si Si1 0.137297 0.877773 0.877246
Si Si2 0.528320 0.379516 0.165622
Si Si3 0.218905 0.928229 0.422424
Si Si4 0.055592 0.878315 0.162298
Si Si5 0.526589 0.249722 0.527467
Si Si6 0.226206 0.005565 0.728496
Si Si7 0.728996 0.714807 0.868636
Si Si8 0.027733 0.877345 0.340736
O O1 0.078756 0.484461 0.741209
O O2 0.215126 0.016943 0.827190
O O3 0.266284 0.048870 0.962533
O O4 0.000000 0.000000 0.000000
O O5 0.473667 0.416899 0.288578
O O6 0.697170 0.635201 0.189852
O O7 0.440465 0.499756 0.184547
O O8 0.500000 0.000000 0.000000
O O9 0.189208 0.543567 0.254359
O O10 0.170974 0.054924 0.416122
O O11 0.391460 0.143188 0.472393
O O12 0.091838 0.928884 0.533306
O O13 0.943640 0.083788 0.276200
O O14 0.099211 0.888631 0.236616
O O15 0.206746 0.060438 0.133954
O O16 0.000000 0.500000 0.000000
O O17 0.500000 0.000000 0.500000
O O18 0.690172 0.260341 0.434901
#
# Coordination Sequence:
#
# PCOD8016607 Si02
#       8
#     2   2   2   2   2   2   2   2
#     4  12  23  44  68 100 142 178 231 295 342 416
#     4  11  25  45  72 108 137 179 235 291 348 423
#     4  11  23  44  67 100 139 187 225 295 350 412
#     4  12  23  41  72 104 133 185 235 294 349 406
#     4  10  21  45  69  97 141 180 230 284 345 425
#     4  11  23  44  74  99 138 191 227 280 369 409
#     4  12  24  43  70 100 140 182 232 289 350 415
#     4  11  24  42  68 100 144 179 238 291 343 413
#
# _framework density 23.714048999999999
#
# number of rings (size 3 to 8) (size 9 to 14) (size 15 to 20)
#    0.000    0.750    6.250    2.250    1.750    1.000 
#    4.500    0.625    0.000    0.000    0.000    0.000 
#    0.000    0.000    0.000    0.000    0.000    0.000 
#
# Total GULP energy -198238.525074 kJ/mol
# GULP energy per Si atom -12389.907817 kJ/mol
# Density = 2.366008 g / cm^3
# Si number density = 23.714049 Si / 1000 Ang^3
#
#
#
# Elastic Constant Matrix: (Units=GPa)
#
#
# Indices 1 2 3 4 5 6 
#
# 1 121.2638 -1.8633 33.5162 -13.7030 14.1263 -3.6026
# 2 -1.8633 58.6226 31.1843 -22.5948 3.3776 -20.7581
# 3 33.5162 31.1843 146.5397 -15.3548 7.5479 -9.4383
# 4 -13.7030 -22.5948 -15.3548 42.5454 -6.9203 6.9830
# 5 14.1263 3.3776 7.5479 -6.9203 44.8550 -8.0376
# 6 -3.6026 -20.7581 -9.4383 6.9830 -8.0376 24.4186
#
#
#
# Elastic Compliance Matrix: (Units=1/GPa)
#
#
# Indices 1 2 3 4 5 6 
#
# 1 0.009675 0.003828 -0.002413 0.003615 -0.002003 0.002056
# 2 0.003828 0.033753 -0.005218 0.013851 0.003655 0.024483
# 3 -0.002413 -0.005218 0.008374 -0.000354 -0.000607 -0.001654
# 4 0.003615 0.013851 -0.000354 0.031775 0.003542 0.004250
# 5 -0.002003 0.003655 -0.000607 0.003542 0.025056 0.009812
# 6 0.002056 0.024483 -0.001654 0.004250 0.009812 0.063443
#
#
# Mechanical properties :
#
#
# Convention : Reuss Voigt Hill
#
# Bulk Modulus (GPa) = 22.62691 50.23340 36.43016
# Shear Modulus (GPa) = 25.71790 39.93639 32.82715
#
# Velocity S-wave (km/s) = 3.29675 4.10821 3.72464
# Velocity P-wave (km/s) = 4.90445 6.61303 5.82176
#
# Compressibility (1/GPa) = 0.04419516
#
# Stress axis : x y z
#
# Youngs Moduli (GPa) = 103.35751 29.62679 119.41456
#
# Poissons Ratio (x) = -0.11340 0.28816
# Poissons Ratio (y) = -0.39562 0.62314
# Poissons Ratio (z) = 0.24941 0.15460
#
# Static dielectric constant tensor:
#      x y z
#    x 7.763160 -7.608160 12.600110 
#    y -7.608160 21.351160 -29.288310 
#    z 12.600110 -29.288310 53.254540 
# 
# 
# High freq. dielectric constant tensor:
#      x y z
#    x 1.952920 -0.002430 0.001450 
#    y -0.002430 1.909520 -0.005060 
#    z 0.001450 -0.005060 1.957140 
# 
# From -- ./inp_files/567116.got.cif
#   From: 2010.06.25/outbox.cif.g09.slc.cpg/sg2_284_cif.got.tgz:567116.got - 2010.06.27 13:26:56.
