data_PCOD8016831
_publ_section_title
;
Structure prediction by ZEFSAII (Michael W. Deem and Ramdas Pophale) SiO2 
 PCOD8016831
Probable space group: P -1
;
_chemical_formula_sum "Si O2"
_cell_formula_units_Z 16
_cell_length_a 8.794621
_cell_length_b 20.562320
_cell_length_c 11.768716
_cell_angle_alpha 152.947074
_cell_angle_beta 117.524324
_cell_angle_gamma 55.251766
_cell_volume 789.414818
_symmetry_space_group_name_H-M "P -1"
_symmetry_group_IT_number 2
_symmetry_cell_setting 'triclinic'
loop_
_space_group_symop_operation_xyz
x,y,z
-x,-y,-z
loop_
_atom_site_type_symbol
_atom_site_label
_atom_site_fract_x
_atom_site_fract_y
_atom_site_fract_z
Si Si1 0.070321 0.392693 0.088791
Si Si2 0.505983 0.809460 0.473906
Si Si3 0.584282 0.368383 0.229702
Si Si4 0.030741 0.623020 0.618350
Si Si5 0.576748 0.831224 0.016868
Si Si6 0.289753 0.625987 0.142872
Si Si7 0.630634 0.821365 0.773488
Si Si8 0.698306 0.576169 0.979416
O O1 0.065412 0.548524 0.389347
O O2 0.219536 0.243896 0.972810
O O3 0.133271 0.403938 0.998920
O O4 0.869262 0.381861 0.008739
O O5 0.305979 0.791792 0.385688
O O6 0.602150 0.740903 0.522959
O O7 0.635075 0.708892 0.261181
O O8 0.479648 0.985276 0.719254
O O9 0.500000 0.500000 0.500000
O O10 0.795731 0.336869 0.222281
O O11 0.573029 0.209645 0.026109
O O12 0.470610 0.412757 0.143169
O O13 0.000000 0.500000 0.500000
O O14 0.850706 0.785675 0.805068
O O15 0.578686 0.760682 0.780511
O O16 0.500000 0.500000 0.000000
O O17 0.233423 0.593071 0.199350
O O18 0.500000 0.000000 0.000000
#
# Coordination Sequence:
#
# PCOD8016831 Si02
#       8
#     2   2   2   2   2   2   2   2
#     4  11  22  38  62  95 121 161 210 268 310 365
#     4  10  23  40  62  88 130 174 196 257 320 375
#     4  11  22  39  64  97 122 163 207 272 314 368
#     4  12  22  36  67  95 121 160 214 268 308 369
#     4  10  22  43  63  90 127 163 214 258 315 375
#     4  10  22  36  59  90 122 163 205 248 311 370
#     4  10  22  41  61  89 129 168 208 256 311 371
#     4  10  22  40  62  92 129 159 210 259 316 378
#
# _framework density 20.268179
#
# number of rings (size 3 to 8) (size 9 to 14) (size 15 to 20)
#    0.000    1.500    3.750    1.875    7.000    2.500 
#    0.000    6.250    0.000    0.000    0.000    0.000 
#    0.000    0.000    0.000    0.000    0.000    0.000 
#
# Total GULP energy -198244.935767 kJ/mol
# GULP energy per Si atom -12390.308485 kJ/mol
# Density = 2.022205 g / cm^3
# Si number density = 20.268179 Si / 1000 Ang^3
#
#
#
# Elastic Constant Matrix: (Units=GPa)
#
#
# Indices 1 2 3 4 5 6 
#
# 1 125.9203 55.9100 41.0822 -1.8548 17.2319 -13.7285
# 2 55.9100 80.9090 25.8395 -7.0982 5.9255 4.1845
# 3 41.0822 25.8395 82.8963 -4.1293 4.2052 7.0631
# 4 -1.8548 -7.0982 -4.1293 37.6098 4.6790 -1.3468
# 5 17.2319 5.9255 4.2052 4.6790 41.1288 -6.7476
# 6 -13.7285 4.1845 7.0631 -1.3468 -6.7476 46.4669
#
#
#
# Elastic Compliance Matrix: (Units=1/GPa)
#
#
# Indices 1 2 3 4 5 6 
#
# 1 0.014233 -0.008416 -0.004743 -0.000808 -0.003325 0.005178
# 2 -0.008416 0.019048 -0.001284 0.002906 -0.000063 -0.003932
# 3 -0.004743 -0.001284 0.015177 0.001073 -0.000088 -0.003574
# 4 -0.000808 0.002906 0.001073 0.027624 -0.003391 -0.000355
# 5 -0.003325 -0.000063 -0.000088 -0.003391 0.026569 0.002797
# 6 0.005178 -0.003932 -0.003574 -0.000355 0.002797 0.024344
#
#
# Mechanical properties :
#
#
# Convention : Reuss Voigt Hill
#
# Bulk Modulus (GPa) = 51.09332 59.48766 55.29049
# Shear Modulus (GPa) = 30.78714 36.16736 33.47725
#
# Velocity S-wave (km/s) = 3.90165 4.22885 4.06854
# Velocity P-wave (km/s) = 6.74985 7.29782 7.02918
#
# Compressibility (1/GPa) = 0.01957203
#
# Stress axis : x y z
#
# Youngs Moduli (GPa) = 70.25710 52.49881 65.89103
#
# Poissons Ratio (x) = 0.44183 0.31254
# Poissons Ratio (y) = 0.59128 0.08458
# Poissons Ratio (z) = 0.33325 0.06739
#
# Static dielectric constant tensor:
#      x y z
#    x 4.059040 0.187020 0.086580 
#    y 0.187020 4.055280 -0.261100 
#    z 0.086580 -0.261100 3.713560 
# 
# 
# High freq. dielectric constant tensor:
#      x y z
#    x 1.797340 0.008270 -0.001860 
#    y 0.008270 1.806230 -0.017550 
#    z -0.001860 -0.017550 1.768470 
# 
# From -- ./inp_files/271542.got.cif
#   From: 2010.06.25/outbox.cif.g09.slc.cpg/sg2_136_cif.got.tgz:271542.got - 2010.06.27 13:26:56.
