data_PCOD8016922
_publ_section_title
;
Structure prediction by ZEFSAII (Michael W. Deem and Ramdas Pophale) SiO2 
 PCOD8016922
Probable space group: P -1
;
_chemical_formula_sum "Si O2"
_cell_formula_units_Z 12
_cell_length_a 14.898269
_cell_length_b 10.165089
_cell_length_c 12.478473
_cell_angle_alpha 106.651832
_cell_angle_beta 161.527218
_cell_angle_gamma 73.597304
_cell_volume 573.320493
_symmetry_space_group_name_H-M "P -1"
_symmetry_group_IT_number 2
_symmetry_cell_setting 'triclinic'
loop_
_space_group_symop_operation_xyz
x,y,z
-x,-y,-z
loop_
_atom_site_type_symbol
_atom_site_label
_atom_site_fract_x
_atom_site_fract_y
_atom_site_fract_z
Si Si1 0.187775 0.474849 0.604507
Si Si2 0.993716 0.237036 0.199236
Si Si3 0.786222 0.415682 0.826254
Si Si4 0.945429 0.352200 0.713124
Si Si5 0.555993 0.209415 0.368749
Si Si6 0.512720 0.938015 0.380482
O O1 0.000000 0.500000 0.500000
O O2 0.163247 0.317435 0.501024
O O3 0.092923 0.581328 0.430080
O O4 0.500000 0.500000 0.000000
O O5 0.220205 0.167822 0.356044
O O6 0.785867 0.345989 0.927482
O O7 0.788895 0.129235 0.998267
O O8 0.500000 0.500000 0.500000
O O9 0.797082 0.284412 0.729785
O O10 0.045981 0.525162 0.154093
O O11 0.690314 0.245178 0.413126
O O12 0.242768 0.271033 0.037552
O O13 0.555071 0.051164 0.362579
O O14 0.500000 0.000000 0.500000
#
# Coordination Sequence:
#
# PCOD8016922 Si02
#       6
#     2   2   2   2   2   2
#     4  11  23  44  71  91 117 157 213 280 324 353
#     4  11  24  40  63  94 127 163 217 252 307 375
#     4   9  20  35  57  87 127 161 197 247 309 371
#     4  10  22  37  59  91 118 158 204 259 314 360
#     4  11  21  36  58  86 131 165 196 240 304 376
#     4  12  24  39  61  91 136 179 204 236 297 387
#
# _framework density 20.930702
#
# number of rings (size 3 to 8) (size 9 to 14) (size 15 to 20)
#    0.000    1.333    1.667    4.000    2.333    6.667 
#    0.000    0.000    0.000   20.000    0.000    0.000 
#    0.000    0.000    0.000    0.000    0.000    0.000 
#
# Total GULP energy -148689.697677 kJ/mol
# GULP energy per Si atom -12390.808140 kJ/mol
# Density = 2.088306 g / cm^3
# Si number density = 20.930702 Si / 1000 Ang^3
#
#
#
# Elastic Constant Matrix: (Units=GPa)
#
#
# Indices 1 2 3 4 5 6 
#
# 1 93.8747 58.0691 42.4344 8.5818 22.7616 -3.8934
# 2 58.0691 120.9537 60.4384 15.3018 5.5191 12.8378
# 3 42.4344 60.4384 101.2743 11.3290 12.3161 -5.6946
# 4 8.5818 15.3018 11.3290 36.6885 5.9764 12.2967
# 5 22.7616 5.5191 12.3161 5.9764 40.4096 6.2180
# 6 -3.8934 12.8378 -5.6946 12.2967 6.2180 33.2397
#
#
#
# Elastic Compliance Matrix: (Units=1/GPa)
#
#
# Indices 1 2 3 4 5 6 
#
# 1 0.019899 -0.009357 -0.000799 -0.001570 -0.010747 0.008399
# 2 -0.009357 0.017566 -0.007958 -0.000318 0.006948 -0.010426
# 3 -0.000799 -0.007958 0.016288 -0.003476 -0.004117 0.007827
# 4 -0.001570 -0.000318 -0.003476 0.033272 -0.000967 -0.012784
# 5 -0.010747 0.006948 -0.004117 -0.000967 0.032855 -0.010436
# 6 0.008399 -0.010426 0.007827 -0.012784 -0.010436 0.043117
#
#
# Mechanical properties :
#
#
# Convention : Reuss Voigt Hill
#
# Bulk Modulus (GPa) = 57.06058 70.88739 63.97399
# Shear Modulus (GPa) = 24.38223 32.41162 28.39693
#
# Velocity S-wave (km/s) = 3.41677 3.93939 3.68735
# Velocity P-wave (km/s) = 6.54879 7.39141 6.98282
#
# Compressibility (1/GPa) = 0.01752523
#
# Stress axis : x y z
#
# Youngs Moduli (GPa) = 50.25295 56.92817 61.39503
#
# Poissons Ratio (x) = 0.53266 0.04907
# Poissons Ratio (y) = 0.47020 0.48859
# Poissons Ratio (z) = 0.04016 0.45305
#
# Static dielectric constant tensor:
#      x y z
#    x 4.129180 0.682010 -0.880440 
#    y 0.682010 4.750540 -0.908730 
#    z -0.880440 -0.908730 6.030690 
# 
# 
# High freq. dielectric constant tensor:
#      x y z
#    x 1.813730 0.023510 0.018810 
#    y 0.023510 1.824580 0.003590 
#    z 0.018810 0.003590 1.818800 
# 
# From -- ./inp_files/81475.got.cif
#   From: 2010.06.25/outbox.cif.g09.slc.cpg/sg2_41_cif.got.tgz:81475.got - 2010.06.27 13:26:56.
