data_PCOD8016404
_publ_section_title
;
Structure prediction by ZEFSAII (Michael W. Deem and Ramdas Pophale) SiO2 
 PCOD8016404
Probable space group: P -1
;
_chemical_formula_sum "Si O2"
_cell_formula_units_Z 16
_cell_length_a 11.658441
_cell_length_b 6.755510
_cell_length_c 14.778532
_cell_angle_alpha 44.094535
_cell_angle_beta 70.126389
_cell_angle_gamma 86.502919
_cell_volume 731.245771
_symmetry_space_group_name_H-M "P -1"
_symmetry_group_IT_number 2
_symmetry_cell_setting 'triclinic'
loop_
_space_group_symop_operation_xyz
x,y,z
-x,-y,-z
loop_
_atom_site_type_symbol
_atom_site_label
_atom_site_fract_x
_atom_site_fract_y
_atom_site_fract_z
Si Si1 0.615435 0.804052 0.246971
Si Si2 0.248920 0.120705 0.134775
Si Si3 0.762555 0.379485 0.402092
Si Si4 0.462250 0.294142 0.892097
Si Si5 0.594058 0.919521 0.725303
Si Si6 0.015125 0.274176 0.646176
Si Si7 0.895686 0.296272 0.214713
Si Si8 0.161220 0.665124 0.988371
O O1 0.660034 0.566995 0.372639
O O2 0.534016 0.640125 0.237312
O O3 0.530236 0.959121 0.280167
O O4 0.742410 0.038320 0.095388
O O5 0.340976 0.020133 0.213541
O O6 0.319218 0.235932 0.984933
O O7 0.208842 0.392367 0.100074
O O8 0.124728 0.855306 0.231088
O O9 0.893248 0.554046 0.356751
O O10 0.793901 0.312694 0.312939
O O11 0.696938 0.077261 0.571147
O O12 0.554648 0.571991 0.827706
O O13 0.500000 0.000000 0.000000
O O14 0.000000 0.500000 0.500000
O O15 0.064654 0.006955 0.680416
O O16 0.830832 0.291283 0.136574
O O17 0.016395 0.593397 0.086965
#
# Coordination Sequence:
#
# PCOD8016404 Si02
#       8
#     2   2   2   2   2   2   2   2
#     4  12  25  44  70 100 138 185 227 279 340 406
#     4  11  22  44  70  97 140 174 227 288 340 396
#     4  12  27  44  71 104 135 186 226 273 351 412
#     4  12  25  42  71 102 130 187 232 276 339 398
#     4  12  26  47  65  99 148 177 228 286 329 410
#     4  11  24  46  70 100 137 181 219 283 351 406
#     4  10  24  44  68 101 138 174 227 287 335 407
#     4  10  21  44  69  97 139 175 219 290 342 389
#
# _framework density 21.880469000000002
#
# number of rings (size 3 to 8) (size 9 to 14) (size 15 to 20)
#    0.000    0.750    5.000    2.250    1.750    3.500 
#    0.000    0.000    0.000    0.000    0.000    0.000 
#    0.000    0.000    0.000    0.000    0.000    0.000 
#
# Total GULP energy -198410.482260 kJ/mol
# GULP energy per Si atom -12400.655141 kJ/mol
# Density = 2.183067 g / cm^3
# Si number density = 21.880469 Si / 1000 Ang^3
#
#
#
# Elastic Constant Matrix: (Units=GPa)
#
#
# Indices 1 2 3 4 5 6 
#
# 1 106.3854 32.9147 32.7605 -10.1806 2.6730 5.2943
# 2 32.9147 79.5277 37.2251 -2.1791 -9.2767 0.7146
# 3 32.7605 37.2251 112.0752 -6.0326 -10.7697 -0.1114
# 4 -10.1806 -2.1791 -6.0326 34.4365 0.8490 3.0560
# 5 2.6730 -9.2767 -10.7697 0.8490 44.4007 -1.6870
# 6 5.2943 0.7146 -0.1114 3.0560 -1.6870 29.1730
#
#
#
# Elastic Compliance Matrix: (Units=1/GPa)
#
#
# Indices 1 2 3 4 5 6 
#
# 1 0.011789 -0.004020 -0.002159 0.003130 -0.002228 -0.002506
# 2 -0.004020 0.016430 -0.004072 -0.000980 0.002728 0.000572
# 3 -0.002159 -0.004072 0.011149 0.000960 0.001986 0.000548
# 4 0.003130 -0.000980 0.000960 0.030428 -0.000886 -0.003779
# 5 -0.002228 0.002728 0.001986 -0.000886 0.023794 0.001814
# 6 -0.002506 0.000572 0.000548 -0.003779 0.001814 0.035222
#
#
# Mechanical properties :
#
#
# Convention : Reuss Voigt Hill
#
# Bulk Modulus (GPa) = 53.00590 55.97653 54.49121
# Shear Modulus (GPa) = 32.13321 34.60791 33.37056
#
# Velocity S-wave (km/s) = 3.83636 3.98135 3.90953
# Velocity P-wave (km/s) = 6.62581 6.83910 6.73330
#
# Compressibility (1/GPa) = 0.01886583
#
# Stress axis : x y z
#
# Youngs Moduli (GPa) = 84.82784 60.86289 89.69256
#
# Poissons Ratio (x) = 0.24468 0.19363
# Poissons Ratio (y) = 0.34103 0.36525
# Poissons Ratio (z) = 0.18312 0.24785
#
# Static dielectric constant tensor:
#      x y z
#    x 4.255880 -0.020590 -0.098050 
#    y -0.020590 3.856400 -0.113450 
#    z -0.098050 -0.113450 4.017240 
# 
# 
# High freq. dielectric constant tensor:
#      x y z
#    x 1.876720 -0.000390 -0.000660 
#    y -0.000390 1.840390 -0.009330 
#    z -0.000660 -0.009330 1.864830 
# 
# From -- ./inp_files/118115.got.cif
#   From: 2010.06.25/outbox.cif.g09.slc.cpg/sg2_60_cif.got.tgz:118115.got - 2010.06.27 13:26:56.
