data_PCOD8016046
_publ_section_title
;
Structure prediction by ZEFSAII (Michael W. Deem and Ramdas Pophale) SiO2 
 PCOD8016046
Probable space group: P -1
;
_chemical_formula_sum "Si O2"
_cell_formula_units_Z 16
_cell_length_a 10.940774
_cell_length_b 11.954170
_cell_length_c 7.059681
_cell_angle_alpha 78.466460
_cell_angle_beta 86.920777
_cell_angle_gamma 55.917453
_cell_volume 747.343488
_symmetry_space_group_name_H-M "P -1"
_symmetry_group_IT_number 2
_symmetry_cell_setting 'triclinic'
loop_
_space_group_symop_operation_xyz
x,y,z
-x,-y,-z
loop_
_atom_site_type_symbol
_atom_site_label
_atom_site_fract_x
_atom_site_fract_y
_atom_site_fract_z
Si Si1 0.146356 0.957744 0.392197
Si Si2 0.719999 0.978124 0.311990
Si Si3 0.493239 0.246762 0.020762
Si Si4 0.958905 0.853150 0.026608
Si Si5 0.684784 0.735446 0.322531
Si Si6 0.978940 0.588225 0.150331
Si Si7 0.723436 0.286211 0.790172
Si Si8 0.301479 0.441557 0.298201
O O1 0.242090 0.795413 0.384256
O O2 0.250776 0.987653 0.492848
O O3 0.000000 0.000000 0.500000
O O4 0.103925 0.039895 0.173265
O O5 0.866657 0.930500 0.196355
O O6 0.687045 0.860752 0.369148
O O7 0.578080 0.111926 0.188461
O O8 0.366695 0.374467 0.111039
O O9 0.424142 0.212109 0.865019
O O10 0.598898 0.289670 0.920615
O O11 0.935156 0.733808 0.019027
O O12 0.130334 0.790178 0.065939
O O13 0.628945 0.674846 0.505276
O O14 0.848416 0.611217 0.286986
O O15 0.125643 0.515658 0.288317
O O16 0.000000 0.500000 0.000000
O O17 0.665671 0.443565 0.694879
#
# Coordination Sequence:
#
# PCOD8016046 Si02
#       8
#     2   2   2   2   2   2   2   2
#     4  12  23  40  70 102 130 176 222 275 333 378
#     4  11  25  43  69 100 131 173 225 274 329 391
#     4  12  25  46  67  94 139 181 216 269 336 393
#     4  10  22  43  67  96 134 169 220 280 323 383
#     4  11  26  45  69  98 132 174 224 276 332 392
#     4  10  21  43  69  94 129 171 217 276 332 385
#     4  11  24  46  66 100 139 171 224 273 323 400
#     4  11  26  45  68  99 132 175 223 272 331 396
#
# _framework density 21.409165000000002
#
# number of rings (size 3 to 8) (size 9 to 14) (size 15 to 20)
#    0.000    1.000    3.750    2.250    3.500    2.000 
#    2.250    0.000    0.000    0.000    0.000    0.000 
#    0.000    0.000    0.000    0.000    0.000    0.000 
#
# Total GULP energy -198483.428853 kJ/mol
# GULP energy per Si atom -12405.214303 kJ/mol
# Density = 2.136044 g / cm^3
# Si number density = 21.409165 Si / 1000 Ang^3
#
#
#
# Elastic Constant Matrix: (Units=GPa)
#
#
# Indices 1 2 3 4 5 6 
#
# 1 90.9415 32.7694 39.9373 -1.8085 1.7964 6.1205
# 2 32.7694 118.2371 52.7308 5.1677 1.1002 26.6639
# 3 39.9373 52.7308 98.3661 2.8944 -1.8959 27.1329
# 4 -1.8085 5.1677 2.8944 33.1478 5.1717 4.9111
# 5 1.7964 1.1002 -1.8959 5.1717 32.4342 5.5251
# 6 6.1205 26.6639 27.1329 4.9111 5.5251 35.6392
#
#
#
# Elastic Compliance Matrix: (Units=1/GPa)
#
#
# Indices 1 2 3 4 5 6 
#
# 1 0.014085 -0.002279 -0.005575 0.001363 -0.001865 0.003631
# 2 -0.002279 0.012185 -0.004015 -0.000930 0.000586 -0.005631
# 3 -0.005575 -0.004015 0.017319 -0.000247 0.003145 -0.009678
# 4 0.001363 -0.000930 -0.000247 0.031567 -0.004583 -0.002989
# 5 -0.001865 0.000586 0.003145 -0.004583 0.033022 -0.007001
# 6 0.003631 -0.005631 -0.009678 -0.002989 -0.007001 0.040513
#
#
# Mechanical properties :
#
#
# Convention : Reuss Voigt Hill
#
# Bulk Modulus (GPa) = 50.37204 62.04665 56.20934
# Shear Modulus (GPa) = 27.92600 32.38472 30.15536
#
# Velocity S-wave (km/s) = 3.61556 3.89351 3.75710
# Velocity P-wave (km/s) = 6.40383 7.01832 6.71810
#
# Compressibility (1/GPa) = 0.01985228
#
# Stress axis : x y z
#
# Youngs Moduli (GPa) = 70.99824 82.07064 57.73966
#
# Poissons Ratio (x) = 0.18700 0.32189
# Poissons Ratio (y) = 0.16177 0.23182
# Poissons Ratio (z) = 0.39580 0.32950
#
# Static dielectric constant tensor:
#      x y z
#    x 7.638000 -1.986740 -2.913440 
#    y -1.986740 5.273580 1.683170 
#    z -2.913440 1.683170 6.099530 
# 
# 
# High freq. dielectric constant tensor:
#      x y z
#    x 1.851020 0.002070 -0.001350 
#    y 0.002070 1.853530 0.007280 
#    z -0.001350 0.007280 1.833420 
# 
# From -- ./inp_files/69860.got.cif
#   From: 2010.06.25/outbox.cif.g09.slc.cpg/sg2_35_cif.got.tgz:69860.got - 2010.06.27 13:26:56.
