data_PCOD8016314
_publ_section_title
;
Structure prediction by ZEFSAII (Michael W. Deem and Ramdas Pophale) SiO2 
 PCOD8016314
Probable space group: P -1
;
_chemical_formula_sum "Si O2"
_cell_formula_units_Z 16
_cell_length_a 8.790699
_cell_length_b 14.604280
_cell_length_c 8.465899
_cell_angle_alpha 63.046476
_cell_angle_beta 125.897488
_cell_angle_gamma 92.448283
_cell_volume 746.416716
_symmetry_space_group_name_H-M "P -1"
_symmetry_group_IT_number 2
_symmetry_cell_setting 'triclinic'
loop_
_space_group_symop_operation_xyz
x,y,z
-x,-y,-z
loop_
_atom_site_type_symbol
_atom_site_label
_atom_site_fract_x
_atom_site_fract_y
_atom_site_fract_z
Si Si1 0.206923 0.929236 0.737666
Si Si2 0.931235 0.585835 0.029424
Si Si3 0.477988 0.253718 0.434908
Si Si4 0.673797 0.415583 0.576833
Si Si5 0.488242 0.984548 0.319978
Si Si6 0.782968 0.229627 0.377747
Si Si7 0.893244 0.960055 0.104309
Si Si8 0.275682 0.536231 0.779750
O O1 0.247507 0.807426 0.790953
O O2 0.344411 0.989160 0.694472
O O3 0.206540 0.937938 0.919617
O O4 0.000000 0.000000 0.500000
O O5 0.846252 0.537448 0.165406
O O6 0.120474 0.622134 0.169855
O O7 0.755327 0.685363 0.774859
O O8 0.000000 0.500000 0.000000
O O9 0.594441 0.315061 0.568663
O O10 0.501406 0.138345 0.616436
O O11 0.579221 0.239741 0.335576
O O12 0.500000 0.500000 0.500000
O O13 0.722306 0.470126 0.403692
O O14 0.500000 0.000000 0.500000
O O15 0.286052 0.069123 0.065842
O O16 0.829093 0.342388 0.314750
O O17 0.965545 0.143489 0.642125
O O18 0.000000 0.000000 0.000000
O O19 0.500000 0.500000 0.000000
#
# Coordination Sequence:
#
# PCOD8016314 Si02
#       8
#     2   2   2   2   2   2   2   2
#     4  10  22  43  64  96 134 173 223 280 328 399
#     4  12  24  45  71 100 138 183 225 283 351 404
#     4  11  23  44  70 102 139 179 233 276 345 406
#     4  11  23  46  68  98 142 174 229 288 336 407
#     4  12  23  42  70  98 139 177 226 279 338 403
#     4  10  21  44  66  97 135 175 224 279 337 398
#     4  11  22  42  67  94 135 177 218 276 335 399
#     4  11  22  43  71  98 138 177 225 284 337 405
#
# _framework density 21.435748
#
# number of rings (size 3 to 8) (size 9 to 14) (size 15 to 20)
#    0.000    1.000    6.250    1.500    0.000    4.000 
#    9.000    0.000    0.000    0.000    0.000    0.000 
#    0.000    0.000    0.000    0.000    0.000    0.000 
#
# Total GULP energy -198323.536078 kJ/mol
# GULP energy per Si atom -12395.221005 kJ/mol
# Density = 2.138696 g / cm^3
# Si number density = 21.435748 Si / 1000 Ang^3
#
#
#
# Elastic Constant Matrix: (Units=GPa)
#
#
# Indices 1 2 3 4 5 6 
#
# 1 123.8513 48.0301 35.4690 14.3156 10.5021 -7.0698
# 2 48.0301 121.7234 44.9247 8.2869 1.6438 -11.4396
# 3 35.4690 44.9247 124.0905 16.3459 28.3887 -2.5063
# 4 14.3156 8.2869 16.3459 39.1679 0.8646 -3.9398
# 5 10.5021 1.6438 28.3887 0.8646 46.4334 6.8132
# 6 -7.0698 -11.4396 -2.5063 -3.9398 6.8132 43.4151
#
#
#
# Elastic Compliance Matrix: (Units=1/GPa)
#
#
# Indices 1 2 3 4 5 6 
#
# 1 0.010128 -0.003385 -0.000950 -0.002478 -0.001652 0.000737
# 2 -0.003385 0.010968 -0.003557 0.000535 0.002274 0.001825
# 3 -0.000950 -0.003557 0.011641 -0.003578 -0.006756 0.000316
# 4 -0.002478 0.000535 -0.003578 0.027951 0.001950 0.001761
# 5 -0.001652 0.002274 -0.006756 0.001950 0.026517 -0.004044
# 6 0.000737 0.001825 0.000316 0.001761 -0.004044 0.024447
#
#
# Mechanical properties :
#
#
# Convention : Reuss Voigt Hill
#
# Bulk Modulus (GPa) = 58.98860 69.61252 64.30056
# Shear Modulus (GPa) = 37.56909 41.88605 39.72757
#
# Velocity S-wave (km/s) = 4.19099 4.42523 4.30971
# Velocity P-wave (km/s) = 7.14127 7.65870 7.40451
#
# Compressibility (1/GPa) = 0.01695243
#
# Stress axis : x y z
#
# Youngs Moduli (GPa) = 98.73907 91.17081 85.90151
#
# Poissons Ratio (x) = 0.30865 0.08160
# Poissons Ratio (y) = 0.33427 0.30557
# Poissons Ratio (z) = 0.09380 0.32431
#
# Static dielectric constant tensor:
#      x y z
#    x 4.193920 -0.329600 0.005960 
#    y -0.329600 4.256160 0.268630 
#    z 0.005960 0.268630 3.856490 
# 
# 
# High freq. dielectric constant tensor:
#      x y z
#    x 1.852330 -0.012770 0.011420 
#    y -0.012770 1.840680 0.010380 
#    z 0.011420 0.010380 1.844500 
# 
# From -- ./inp_files/201069.got.cif
#   From: 2010.06.25/outbox.cif.g09.slc.cpg/sg2_101_cif.got.tgz:201069.got - 2010.06.27 13:26:56.
