data_PCOD8016257
_publ_section_title
;
Structure prediction by ZEFSAII (Michael W. Deem and Ramdas Pophale) SiO2 
 PCOD8016257
Probable space group: P -1
;
_chemical_formula_sum "Si O2"
_cell_formula_units_Z 16
_cell_length_a 9.413561
_cell_length_b 8.163880
_cell_length_c 13.859294
_cell_angle_alpha 121.013860
_cell_angle_beta 67.224452
_cell_angle_gamma 81.266032
_cell_volume 753.913634
_symmetry_space_group_name_H-M "P -1"
_symmetry_group_IT_number 2
_symmetry_cell_setting 'triclinic'
loop_
_space_group_symop_operation_xyz
x,y,z
-x,-y,-z
loop_
_atom_site_type_symbol
_atom_site_label
_atom_site_fract_x
_atom_site_fract_y
_atom_site_fract_z
Si Si1 0.421204 0.761862 0.467603
Si Si2 0.622607 0.907525 0.849086
Si Si3 0.225028 0.224546 0.608291
Si Si4 0.005821 0.431366 0.367554
Si Si5 0.808582 0.168699 0.273465
Si Si6 0.427699 0.670634 0.786515
Si Si7 0.995754 0.692106 0.121809
Si Si8 0.649853 0.317700 0.963153
O O1 0.617878 0.716596 0.411247
O O2 0.353533 0.779951 0.599490
O O3 0.422479 0.562430 0.349665
O O4 0.301787 0.969066 0.498758
O O5 0.799483 0.697217 0.762286
O O6 0.509314 0.832806 0.787103
O O7 0.500000 0.000000 0.000000
O O8 0.665427 0.091826 0.849320
O O9 0.095634 0.344913 0.592710
O O10 0.122234 0.298855 0.755984
O O11 0.000000 0.500000 0.500000
O O12 0.920129 0.272969 0.324534
O O13 0.741743 0.266525 0.215150
O O14 0.919231 0.915613 0.152189
O O15 0.378381 0.672335 0.911512
O O16 0.183589 0.649645 0.095873
O O17 0.000000 0.500000 0.000000
O O18 0.500000 0.500000 0.000000
#
# Coordination Sequence:
#
# PCOD8016257 Si02
#       8
#     2   2   2   2   2   2   2   2
#     4  10  21  44  65 103 130 173 223 281 344 398
#     4  10  25  45  64  98 137 183 223 279 347 401
#     4  10  24  41  68  97 142 170 222 284 336 410
#     4  12  25  44  70 104 138 182 228 287 343 403
#     4  11  24  43  70  99 134 170 238 280 329 414
#     4  11  23  42  72  95 129 184 222 278 337 401
#     4  11  25  44  68 100 132 179 225 282 340 400
#     4  11  26  45  64  98 139 177 226 275 343 411
#
# _framework density 21.222588999999999
#
# number of rings (size 3 to 8) (size 9 to 14) (size 15 to 20)
#    0.000    1.250    2.500    1.875    7.000    2.500 
#    0.000    1.875    0.000    0.000    0.000    0.000 
#    0.000    0.000    0.000    0.000    0.000    0.000 
#
# Total GULP energy -198364.582029 kJ/mol
# GULP energy per Si atom -12397.786377 kJ/mol
# Density = 2.117429 g / cm^3
# Si number density = 21.222589 Si / 1000 Ang^3
#
#
#
# Elastic Constant Matrix: (Units=GPa)
#
#
# Indices 1 2 3 4 5 6 
#
# 1 119.2359 32.7873 60.7453 1.7044 -3.4206 3.1560
# 2 32.7873 75.3510 40.0013 6.9869 7.7964 -24.3284
# 3 60.7453 40.0013 121.9340 20.4276 0.2959 -7.7355
# 4 1.7044 6.9869 20.4276 35.6214 8.0324 -1.0876
# 5 -3.4206 7.7964 0.2959 8.0324 46.0280 7.8292
# 6 3.1560 -24.3284 -7.7355 -1.0876 7.8292 42.9853
#
#
#
# Elastic Compliance Matrix: (Units=1/GPa)
#
#
# Indices 1 2 3 4 5 6 
#
# 1 0.012637 -0.004569 -0.005591 0.002885 0.002066 -0.004823
# 2 -0.004569 0.022539 -0.004264 0.000108 -0.006445 0.013501
# 3 -0.005591 -0.004264 0.013553 -0.006993 0.001440 -0.000003
# 4 0.002885 0.000108 -0.006993 0.033208 -0.005632 0.000457
# 5 0.002066 -0.006445 0.001440 -0.005632 0.025357 -0.008301
# 6 -0.004823 0.013501 -0.000003 0.000457 -0.008301 0.032782
#
#
# Mechanical properties :
#
#
# Convention : Reuss Voigt Hill
#
# Bulk Modulus (GPa) = 50.29851 64.84319 57.57085
# Shear Modulus (GPa) = 28.48173 37.12608 32.80390
#
# Velocity S-wave (km/s) = 3.66737 4.18708 3.93581
# Velocity P-wave (km/s) = 6.45637 7.34818 6.91666
#
# Compressibility (1/GPa) = 0.01988131
#
# Stress axis : x y z
#
# Youngs Moduli (GPa) = 79.13117 44.36778 73.78404
#
# Poissons Ratio (x) = 0.20273 0.41252
# Poissons Ratio (y) = 0.36158 0.31459
# Poissons Ratio (z) = 0.44241 0.18917
#
# Static dielectric constant tensor:
#      x y z
#    x 3.983220 0.286870 -0.023120 
#    y 0.286870 3.992360 0.281230 
#    z -0.023120 0.281230 4.051900 
# 
# 
# High freq. dielectric constant tensor:
#      x y z
#    x 1.838590 0.013170 -0.008600 
#    y 0.013170 1.832020 0.018830 
#    z -0.008600 0.018830 1.844740 
# 
# From -- ./inp_files/495677.got.cif
#   From: 2010.06.25/outbox.cif.g09.slc.cpg/sg2_248_cif.got.tgz:495677.got - 2010.06.27 13:26:56.
