data_PCOD8016805
_publ_section_title
;
Structure prediction by ZEFSAII (Michael W. Deem and Ramdas Pophale) SiO2 
 PCOD8016805
Probable space group: P -1
;
_chemical_formula_sum "Si O2"
_cell_formula_units_Z 16
_cell_length_a 17.077424
_cell_length_b 22.130443
_cell_length_c 12.018974
_cell_angle_alpha 30.927984
_cell_angle_beta 158.761689
_cell_angle_gamma 149.929390
_cell_volume 791.025068
_symmetry_space_group_name_H-M "P -1"
_symmetry_group_IT_number 2
_symmetry_cell_setting 'triclinic'
loop_
_space_group_symop_operation_xyz
x,y,z
-x,-y,-z
loop_
_atom_site_type_symbol
_atom_site_label
_atom_site_fract_x
_atom_site_fract_y
_atom_site_fract_z
Si Si1 0.071638 0.387326 0.815143
Si Si2 0.585750 0.455294 0.425953
Si Si3 0.671275 0.338744 0.937310
Si Si4 0.081746 0.971732 0.271196
Si Si5 0.100582 0.293850 0.469059
Si Si6 0.851690 0.125555 0.824307
Si Si7 0.544854 0.083730 0.264172
Si Si8 0.985018 0.589205 0.044863
O O1 0.000000 0.500000 0.500000
O O2 0.929156 0.266007 0.747630
O O3 0.002891 0.357498 0.899772
O O4 0.342932 0.420854 0.095975
O O5 0.537382 0.369505 0.607982
O O6 0.668185 0.600759 0.343808
O O7 0.773949 0.428537 0.638617
O O8 0.502278 0.213513 0.973145
O O9 0.892640 0.312097 0.230782
O O10 0.767762 0.457504 0.960391
O O11 0.332455 0.960227 0.608178
O O12 0.896786 0.844067 0.281563
O O13 0.000000 0.000000 0.000000
O O14 0.076945 0.085829 0.164013
O O15 0.068132 0.313734 0.263403
O O16 0.707694 0.113156 0.540735
O O17 0.694953 0.028848 0.859934
#
# Coordination Sequence:
#
# PCOD8016805 Si02
#       8
#     2   2   2   2   2   2   2   2
#     4  12  26  38  52  80 114 148 185 220 271 337
#     4   9  20  37  58  83 111 142 179 228 276 318
#     4   8  15  34  62  86 106 137 184 229 271 319
#     4   9  18  33  57  83 106 135 177 225 271 318
#     4   8  16  34  61  88 108 138 186 228 268 320
#     4  10  22  36  52  79 108 142 186 221 267 330
#     4   9  18  36  59  78 105 139 179 235 272 305
#     4   9  19  37  58  83 114 143 180 226 270 322
#
# _framework density 20.226918999999999
#
# number of rings (size 3 to 8) (size 9 to 14) (size 15 to 20)
#    0.000    2.750    0.000    2.250    0.000    9.500 
#    0.000    2.500    0.000    4.500    0.000    0.000 
#    0.000    0.000    0.000    0.000    0.000    0.000 
#
# Total GULP energy -198317.508093 kJ/mol
# GULP energy per Si atom -12394.844256 kJ/mol
# Density = 2.018088 g / cm^3
# Si number density = 20.226919 Si / 1000 Ang^3
#
#
#
# Elastic Constant Matrix: (Units=GPa)
#
#
# Indices 1 2 3 4 5 6 
#
# 1 86.2548 48.8925 19.2304 -8.6177 1.5896 2.6834
# 2 48.8925 128.7351 49.7965 -19.8912 -0.4533 5.8980
# 3 19.2304 49.7965 73.3318 -8.2549 0.7990 8.1089
# 4 -8.6177 -19.8912 -8.2549 37.4029 8.3462 -3.9319
# 5 1.5896 -0.4533 0.7990 8.3462 20.7622 -7.1799
# 6 2.6834 5.8980 8.1089 -3.9319 -7.1799 34.5351
#
#
#
# Elastic Compliance Matrix: (Units=1/GPa)
#
#
# Indices 1 2 3 4 5 6 
#
# 1 0.014836 -0.005491 0.000006 0.000842 -0.001763 -0.000487
# 2 -0.005491 0.013263 -0.007082 0.004406 -0.000728 0.000175
# 3 0.000006 -0.007082 0.018939 0.000560 -0.002378 -0.003668
# 4 0.000842 0.004406 0.000560 0.032292 -0.012959 0.000033
# 5 -0.001763 -0.000728 -0.002378 -0.012959 0.057491 0.011297
# 6 -0.000487 0.000175 -0.003668 0.000033 0.011297 0.032178
#
#
# Mechanical properties :
#
#
# Convention : Reuss Voigt Hill
#
# Bulk Modulus (GPa) = 45.65323 58.24007 51.94665
# Shear Modulus (GPa) = 24.82211 29.90020 27.36115
#
# Velocity S-wave (km/s) = 3.50692 3.84896 3.68191
# Velocity P-wave (km/s) = 6.24640 6.97198 6.61914
#
# Compressibility (1/GPa) = 0.02190426
#
# Stress axis : x y z
#
# Youngs Moduli (GPa) = 67.40172 75.39903 52.80223
#
# Poissons Ratio (x) = 0.41400 -0.00030
# Poissons Ratio (y) = 0.37009 0.37393
# Poissons Ratio (z) = -0.00038 0.53395
#
# Static dielectric constant tensor:
#      x y z
#    x 3.896470 0.250050 0.066400 
#    y 0.250050 3.844240 -0.501930 
#    z 0.066400 -0.501930 3.755030 
# 
# 
# High freq. dielectric constant tensor:
#      x y z
#    x 1.795890 0.015350 0.011390 
#    y 0.015350 1.771680 -0.027380 
#    z 0.011390 -0.027380 1.779390 
# 
# From -- ./inp_files/282072.got.cif
#   From: 2010.06.25/outbox.cif.g09.slc.cpg/sg2_142_cif.got.tgz:282072.got - 2010.06.27 13:26:56.
