data_PCOD8016156
_publ_section_title
;
Structure prediction by ZEFSAII (Michael W. Deem and Ramdas Pophale) SiO2 
 PCOD8016156
Probable space group: P -1
;
_chemical_formula_sum "Si O2"
_cell_formula_units_Z 14
_cell_length_a 14.233005
_cell_length_b 11.374872
_cell_length_c 11.625208
_cell_angle_alpha 132.733764
_cell_angle_beta 25.682324
_cell_angle_gamma 126.651160
_cell_volume 598.489103
_symmetry_space_group_name_H-M "P -1"
_symmetry_group_IT_number 2
_symmetry_cell_setting 'triclinic'
loop_
_space_group_symop_operation_xyz
x,y,z
-x,-y,-z
loop_
_atom_site_type_symbol
_atom_site_label
_atom_site_fract_x
_atom_site_fract_y
_atom_site_fract_z
Si Si1 0.107158 0.383045 0.712085
Si Si2 0.383483 0.104239 0.930934
Si Si3 0.700003 0.389786 0.794336
Si Si4 0.687020 0.408758 0.572732
Si Si5 0.745037 0.903718 0.508662
Si Si6 0.122383 0.928431 0.927839
Si Si7 0.944651 0.195472 0.580562
O O1 0.221559 0.477532 0.548803
O O2 0.279951 0.262340 0.505898
O O3 0.920849 0.279313 0.787804
O O4 0.000000 0.500000 0.000000
O O5 0.534736 0.252883 0.850047
O O6 0.523195 0.946959 0.715521
O O7 0.275593 0.061921 0.899521
O O8 0.197664 0.143705 0.255418
O O9 0.801910 0.439000 0.591004
O O10 0.884869 0.321878 0.629447
O O11 0.569322 0.540937 0.097486
O O12 0.723129 0.224761 0.375454
O O13 0.792619 0.044851 0.641453
O O14 0.945703 0.880633 0.184400
O O15 0.000000 0.000000 0.000000
#
# Coordination Sequence:
#
# PCOD8016156 Si02
#       7
#     2   2   2   2   2   2   2
#     4  12  24  44  66  98 139 181 216 270 345 391
#     4  10  21  43  71  96 129 175 224 275 329 388
#     4  10  23  45  69 102 127 175 230 277 334 381
#     4  11  23  44  66  98 142 166 223 280 328 403
#     4  10  23  42  67  97 130 179 227 268 327 398
#     4  11  23  43  68 100 133 173 222 279 333 392
#     4  10  22  44  71  96 131 178 228 275 323 400
#
# _framework density 23.392237999999999
#
# number of rings (size 3 to 8) (size 9 to 14) (size 15 to 20)
#    0.000    1.429    2.857    3.000    0.000    4.571 
#   10.286    1.429    0.000    0.000    0.000    0.000 
#    0.000    0.000    0.000    0.000    0.000    0.000 
#
# Total GULP energy -173581.774199 kJ/mol
# GULP energy per Si atom -12398.698157 kJ/mol
# Density = 2.333900 g / cm^3
# Si number density = 23.392238 Si / 1000 Ang^3
#
#
#
# Elastic Constant Matrix: (Units=GPa)
#
#
# Indices 1 2 3 4 5 6 
#
# 1 142.9286 49.4742 64.2207 9.3070 9.1098 -6.8928
# 2 49.4742 88.6455 40.2668 21.5339 1.7195 -22.1729
# 3 64.2207 40.2668 129.7744 30.5833 5.7343 -2.7381
# 4 9.3070 21.5339 30.5833 33.6530 0.9036 0.6333
# 5 9.1098 1.7195 5.7343 0.9036 42.9370 7.4887
# 6 -6.8928 -22.1729 -2.7381 0.6333 7.4887 43.6393
#
#
#
# Elastic Compliance Matrix: (Units=1/GPa)
#
#
# Indices 1 2 3 4 5 6 
#
# 1 0.010645 -0.005187 -0.004739 0.004738 -0.001327 -0.001092
# 2 -0.005187 0.019403 -0.000752 -0.010447 -0.000980 0.009312
# 3 -0.004739 -0.000752 0.012566 -0.009614 -0.000417 -0.000131
# 4 0.004738 -0.010447 -0.009614 0.043916 0.000809 -0.005939
# 5 -0.001327 -0.000980 -0.000417 0.000809 0.024513 -0.004952
# 6 -0.001092 0.009312 -0.000131 -0.005939 -0.004952 0.028402
#
#
# Mechanical properties :
#
#
# Convention : Reuss Voigt Hill
#
# Bulk Modulus (GPa) = 47.04221 74.36354 60.70287
# Shear Modulus (GPa) = 29.78192 37.87166 33.82679
#
# Velocity S-wave (km/s) = 3.57200 4.02803 3.80685
# Velocity P-wave (km/s) = 6.09640 7.31383 6.73269
#
# Compressibility (1/GPa) = 0.02125751
#
# Stress axis : x y z
#
# Youngs Moduli (GPa) = 93.94362 51.53770 79.58154
#
# Poissons Ratio (x) = 0.26730 0.37717
# Poissons Ratio (y) = 0.48725 0.05985
# Poissons Ratio (z) = 0.44524 0.03876
#
# Static dielectric constant tensor:
#      x y z
#    x 4.491210 -0.156680 0.185880 
#    y -0.156680 4.163370 0.350310 
#    z 0.185880 0.350310 4.439190 
# 
# 
# High freq. dielectric constant tensor:
#      x y z
#    x 1.931400 -0.019310 0.006650 
#    y -0.019310 1.918690 0.022420 
#    z 0.006650 0.022420 1.927690 
# 
# From -- ./inp_files/450568.got.cif
#   From: 2010.06.25/outbox.cif.g09.slc.cpg/sg2_226_cif.got.tgz:450568.got - 2010.06.27 13:26:56.
