data_PCOD8016203
_publ_section_title
;
Structure prediction by ZEFSAII (Michael W. Deem and Ramdas Pophale) SiO2 
 PCOD8016203
Probable space group: P -1
;
_chemical_formula_sum "Si O2"
_cell_formula_units_Z 16
_cell_length_a 9.599338
_cell_length_b 14.995966
_cell_length_c 9.634270
_cell_angle_alpha 103.951562
_cell_angle_beta 114.228047
_cell_angle_gamma 37.028998
_cell_volume 752.123570
_symmetry_space_group_name_H-M "P -1"
_symmetry_group_IT_number 2
_symmetry_cell_setting 'triclinic'
loop_
_space_group_symop_operation_xyz
x,y,z
-x,-y,-z
loop_
_atom_site_type_symbol
_atom_site_label
_atom_site_fract_x
_atom_site_fract_y
_atom_site_fract_z
Si Si1 0.838084 0.611996 0.601613
Si Si2 0.303050 0.773756 0.416030
Si Si3 0.064237 0.990979 0.865589
Si Si4 0.275538 0.118468 0.351228
Si Si5 0.632121 0.452671 0.684288
Si Si6 0.185141 0.772297 0.675453
Si Si7 0.552121 0.051654 0.930555
Si Si8 0.052177 0.407220 0.859192
O O1 0.571762 0.688139 0.526153
O O2 0.803853 0.737753 0.642682
O O3 0.000000 0.500000 0.500000
O O4 0.009830 0.498695 0.754288
O O5 0.302474 0.680567 0.288460
O O6 0.166777 0.816176 0.523411
O O7 0.159221 0.909708 0.302913
O O8 0.248870 0.825453 0.823487
O O9 0.203449 0.020458 0.929071
O O10 0.000000 0.000000 0.000000
O O11 0.059745 0.163804 0.352938
O O12 0.500000 0.000000 0.500000
O O13 0.368387 0.030894 0.212701
O O14 0.500000 0.500000 0.500000
O O15 0.416087 0.597711 0.743242
O O16 0.869533 0.406521 0.768196
O O17 0.330130 0.232231 0.897477
O O18 0.500000 0.000000 0.000000
O O19 0.000000 0.500000 0.000000
#
# Coordination Sequence:
#
# PCOD8016203 Si02
#       8
#     2   2   2   2   2   2   2   2
#     4  12  26  45  72 108 143 189 243 297 366 424
#     4  11  25  45  76 100 137 194 239 290 356 431
#     4  12  26  47  66 103 146 181 237 289 359 427
#     4  12  27  43  69 107 144 184 239 300 358 424
#     4  10  21  43  74 101 135 181 245 288 349 428
#     4  11  23  46  71 101 138 183 238 290 351 428
#     4  12  28  46  73 103 148 190 231 296 370 433
#     4  12  25  47  74 107 144 186 241 299 358 431
#
# _framework density 21.273102000000002
#
# number of rings (size 3 to 8) (size 9 to 14) (size 15 to 20)
#    0.000    0.500    3.750    4.875   10.500    0.000 
#    0.000    0.625    0.000    0.000    0.000    0.000 
#    0.000    0.000    0.000    0.000    0.000    0.000 
#
# Total GULP energy -198219.622811 kJ/mol
# GULP energy per Si atom -12388.726426 kJ/mol
# Density = 2.122468 g / cm^3
# Si number density = 21.273102 Si / 1000 Ang^3
#
#
#
# Elastic Constant Matrix: (Units=GPa)
#
#
# Indices 1 2 3 4 5 6 
#
# 1 134.4586 43.6030 53.0232 7.0389 -13.3321 2.4905
# 2 43.6030 147.4960 65.5490 22.3697 -16.9570 7.5917
# 3 53.0232 65.5490 120.8339 12.7955 -14.6289 2.3916
# 4 7.0389 22.3697 12.7955 45.9642 3.0431 3.7070
# 5 -13.3321 -16.9570 -14.6289 3.0431 39.5523 5.8868
# 6 2.4905 7.5917 2.3916 3.7070 5.8868 40.7589
#
#
#
# Elastic Compliance Matrix: (Units=1/GPa)
#
#
# Indices 1 2 3 4 5 6 
#
# 1 0.009236 -0.001075 -0.003275 -0.000048 0.001502 -0.000384
# 2 -0.001075 0.009888 -0.004137 -0.003554 0.002862 -0.001623
# 3 -0.003275 -0.004137 0.012273 -0.001023 0.001726 0.000094
# 4 -0.000048 -0.003554 -0.001023 0.024095 -0.003632 -0.000942
# 5 0.001502 0.002862 0.001726 -0.003632 0.028608 -0.004528
# 6 -0.000384 -0.001623 0.000094 -0.000942 -0.004528 0.025594
#
#
# Mechanical properties :
#
#
# Convention : Reuss Voigt Hill
#
# Bulk Modulus (GPa) = 69.33944 80.79321 75.06632
# Shear Modulus (GPa) = 38.02990 41.29596 39.66293
#
# Velocity S-wave (km/s) = 4.23271 4.41072 4.32263
# Velocity P-wave (km/s) = 7.52020 8.00005 7.76383
#
# Compressibility (1/GPa) = 0.01442181
#
# Stress axis : x y z
#
# Youngs Moduli (GPa) = 108.27256 101.13373 81.48127
#
# Poissons Ratio (x) = 0.10873 0.26686
# Poissons Ratio (y) = 0.11641 0.33710
# Poissons Ratio (z) = 0.35460 0.41841
#
# Static dielectric constant tensor:
#      x y z
#    x 3.968960 0.365990 0.093400 
#    y 0.365990 4.598540 0.193210 
#    z 0.093400 0.193210 3.778490 
# 
# 
# High freq. dielectric constant tensor:
#      x y z
#    x 1.846420 0.008370 0.008440 
#    y 0.008370 1.860830 0.009270 
#    z 0.008440 0.009270 1.839550 
# 
# From -- ./inp_files/207883.got.cif
#   From: 2010.06.25/outbox.cif.g09.slc.cpg/sg2_104_cif.got.tgz:207883.got - 2010.06.27 13:26:56.
