data_PCOD8016696
_publ_section_title
;
Structure prediction by ZEFSAII (Michael W. Deem and Ramdas Pophale) SiO2 
 PCOD8016696
Probable space group: P -1
;
_chemical_formula_sum "Si O2"
_cell_formula_units_Z 16
_cell_length_a 18.132719
_cell_length_b 8.879715
_cell_length_c 12.737422
_cell_angle_alpha 29.568536
_cell_angle_beta 130.612786
_cell_angle_gamma 129.066197
_cell_volume 756.955642
_symmetry_space_group_name_H-M "P -1"
_symmetry_group_IT_number 2
_symmetry_cell_setting 'triclinic'
loop_
_space_group_symop_operation_xyz
x,y,z
-x,-y,-z
loop_
_atom_site_type_symbol
_atom_site_label
_atom_site_fract_x
_atom_site_fract_y
_atom_site_fract_z
Si Si1 0.115029 0.107918 0.514616
Si Si2 0.400839 0.062449 0.653499
Si Si3 0.725792 0.990759 0.627863
Si Si4 0.620213 0.239679 0.777356
Si Si5 0.061655 0.164274 0.863204
Si Si6 0.279469 0.724662 0.933607
Si Si7 0.907320 0.148687 0.563392
Si Si8 0.228471 0.783523 0.248753
O O1 0.157598 0.450252 0.387879
O O2 0.179302 0.865367 0.768955
O O3 0.126889 0.118352 0.392274
O O4 0.000000 0.000000 0.500000
O O5 0.366066 0.988917 0.546017
O O6 0.514704 0.024086 0.790078
O O7 0.387339 0.405350 0.464330
O O8 0.336397 0.835117 0.812711
O O9 0.825269 0.173163 0.558973
O O10 0.709417 0.161862 0.618093
O O11 0.745749 0.643642 0.873446
O O12 0.697637 0.159505 0.813881
O O13 0.652290 0.168639 0.967469
O O14 0.075154 0.528499 0.679154
O O15 0.006624 0.086706 0.748302
O O16 0.165343 0.054968 0.016595
O O17 0.000000 0.000000 0.000000
#
# Coordination Sequence:
#
# PCOD8016696 Si02
#       8
#     2   2   2   2   2   2   2   2
#     4  12  26  40  64 100 133 170 221 274 326 383
#     4  10  21  46  70  95 130 178 222 265 342 403
#     4  11  24  41  70  93 135 176 221 266 329 406
#     4  10  23  42  71 100 130 170 222 283 329 388
#     4  11  24  42  68  90 129 176 223 261 332 396
#     4  11  22  45  67  95 130 183 218 263 335 405
#     4  11  24  44  65  91 128 185 216 263 329 406
#     4  12  25  43  63 104 134 171 222 285 322 383
#
# _framework density 21.137301999999998
#
# number of rings (size 3 to 8) (size 9 to 14) (size 15 to 20)
#    0.000    1.000    3.750    2.625    5.250    1.000 
#    0.000    0.625    0.000    0.000    0.000    0.000 
#    0.000    0.000    0.000    0.000    0.000    0.000 
#
# Total GULP energy -198455.320537 kJ/mol
# GULP energy per Si atom -12403.457534 kJ/mol
# Density = 2.108919 g / cm^3
# Si number density = 21.137302 Si / 1000 Ang^3
#
#
#
# Elastic Constant Matrix: (Units=GPa)
#
#
# Indices 1 2 3 4 5 6 
#
# 1 100.8996 36.4482 38.5446 5.6489 2.5483 6.9769
# 2 36.4482 131.6003 48.7814 17.2142 4.4033 -8.2547
# 3 38.5446 48.7814 110.7631 11.0220 -7.6970 3.7593
# 4 5.6489 17.2142 11.0220 24.6492 9.6935 -4.3481
# 5 2.5483 4.4033 -7.6970 9.6935 26.9362 5.6578
# 6 6.9769 -8.2547 3.7593 -4.3481 5.6578 41.4423
#
#
#
# Elastic Compliance Matrix: (Units=1/GPa)
#
#
# Indices 1 2 3 4 5 6 
#
# 1 0.012141 -0.002275 -0.003317 0.000544 -0.001514 -0.001932
# 2 -0.002275 0.010273 -0.003528 -0.004013 -0.001562 0.002542
# 3 -0.003317 -0.003528 0.012943 -0.005978 0.007360 -0.002951
# 4 0.000544 -0.004013 -0.005978 0.056645 -0.023333 0.008780
# 5 -0.001514 -0.001562 0.007360 -0.023333 0.050127 -0.010015
# 6 -0.001932 0.002542 -0.002951 0.008780 -0.010015 0.027518
#
#
# Mechanical properties :
#
#
# Convention : Reuss Voigt Hill
#
# Bulk Modulus (GPa) = 58.42117 65.64571 62.03344
# Shear Modulus (GPa) = 25.82747 33.23812 29.53279
#
# Velocity S-wave (km/s) = 3.49935 3.96976 3.74195
# Velocity P-wave (km/s) = 6.63522 7.22054 6.93406
#
# Compressibility (1/GPa) = 0.01711708
#
# Stress axis : x y z
#
# Youngs Moduli (GPa) = 82.36499 97.33980 77.26200
#
# Poissons Ratio (x) = 0.22143 0.25627
# Poissons Ratio (y) = 0.18736 0.27261
# Poissons Ratio (z) = 0.27320 0.34345
#
# Static dielectric constant tensor:
#      x y z
#    x 3.952690 -0.010300 0.130890 
#    y -0.010300 4.078490 0.190780 
#    z 0.130890 0.190780 4.020800 
# 
# 
# High freq. dielectric constant tensor:
#      x y z
#    x 1.820340 0.004470 -0.009190 
#    y 0.004470 1.842400 0.014220 
#    z -0.009190 0.014220 1.832470 
# 
# From -- ./inp_files/39504.got.cif
#   From: 2010.06.25/outbox.cif.g09.slc.cpg/sg2_20_cif.got.tgz:39504.got - 2010.06.27 13:26:56.
