data_PCOD8016892
_publ_section_title
;
Structure prediction by ZEFSAII (Michael W. Deem and Ramdas Pophale) SiO2 
 PCOD8016892
Probable space group: P -1
;
_chemical_formula_sum "Si O2"
_cell_formula_units_Z 16
_cell_length_a 13.103783
_cell_length_b 9.448498
_cell_length_c 10.345679
_cell_angle_alpha 76.820079
_cell_angle_beta 146.399566
_cell_angle_gamma 102.804168
_cell_volume 688.984681
_symmetry_space_group_name_H-M "P -1"
_symmetry_group_IT_number 2
_symmetry_cell_setting 'triclinic'
loop_
_space_group_symop_operation_xyz
x,y,z
-x,-y,-z
loop_
_atom_site_type_symbol
_atom_site_label
_atom_site_fract_x
_atom_site_fract_y
_atom_site_fract_z
Si Si1 0.227291 0.931323 0.744580
Si Si2 0.789319 0.535834 0.293326
Si Si3 0.091666 0.220965 0.444839
Si Si4 0.441571 0.130747 0.501861
Si Si5 0.725344 0.381622 0.688096
Si Si6 0.503157 0.932240 0.822612
Si Si7 0.881028 0.687651 0.843952
Si Si8 0.480059 0.625867 0.780527
O O1 0.395553 0.876931 0.849395
O O2 0.108610 0.784989 0.693467
O O3 0.131394 0.049500 0.528518
O O4 0.292636 0.013578 0.928138
O O5 0.775357 0.673345 0.348093
O O6 0.671333 0.402206 0.261108
O O7 0.000000 0.500000 0.500000
O O8 0.681127 0.567560 0.038949
O O9 0.087594 0.281305 0.282340
O O10 0.599309 0.260707 0.656119
O O11 0.244807 0.195216 0.244020
O O12 0.500000 0.000000 0.500000
O O13 0.411478 0.066011 0.627242
O O14 0.775797 0.529024 0.790639
O O15 0.609476 0.435739 0.432597
O O16 0.920337 0.309794 0.875201
O O17 0.511636 0.799827 0.758148
#
# Coordination Sequence:
#
# PCOD8016892 Si02
#       8
#     2   2   2   2   2   2   2   2
#     4  10  22  36  70  95 131 171 210 275 346 403
#     4  11  24  42  66  98 133 173 221 277 341 408
#     4  11  20  42  64  98 128 170 221 274 335 406
#     4  12  25  44  69 101 136 183 232 286 347 400
#     4  11  25  47  69  97 135 187 233 283 338 404
#     4  11  21  42  62 100 136 170 221 280 341 405
#     4  11  25  47  70  98 138 181 242 284 333 416
#     4  11  23  43  66  96 136 173 222 279 339 405
#
# _framework density 23.222577999999999
#
# number of rings (size 3 to 8) (size 9 to 14) (size 15 to 20)
#    0.000    1.000    5.000    1.875    0.000    1.500 
#    4.500    0.000    0.000    0.000    0.000    0.000 
#    0.000    0.000    0.000    0.000    0.000    0.000 
#
# Total GULP energy -198271.089665 kJ/mol
# GULP energy per Si atom -12391.943104 kJ/mol
# Density = 2.316972 g / cm^3
# Si number density = 23.222578 Si / 1000 Ang^3
#
#
#
# Elastic Constant Matrix: (Units=GPa)
#
#
# Indices 1 2 3 4 5 6 
#
# 1 67.1093 27.9054 31.3594 -2.6082 15.8289 5.9235
# 2 27.9054 95.6640 31.1568 -6.1933 7.0638 17.9704
# 3 31.3594 31.1568 151.7372 -3.8685 18.3558 -3.1368
# 4 -2.6082 -6.1933 -3.8685 34.0989 -3.9154 4.3110
# 5 15.8289 7.0638 18.3558 -3.9154 34.4854 -1.6618
# 6 5.9235 17.9704 -3.1368 4.3110 -1.6618 31.9361
#
#
#
# Elastic Compliance Matrix: (Units=1/GPa)
#
#
# Indices 1 2 3 4 5 6 
#
# 1 0.019510 -0.004035 -0.002405 -0.000067 -0.006950 -0.001937
# 2 -0.004035 0.013957 -0.002127 0.002970 0.000091 -0.007710
# 3 -0.002405 -0.002127 0.007876 -0.000265 -0.002571 0.002318
# 4 -0.000067 0.002970 -0.000265 0.030873 0.002793 -0.005707
# 5 -0.006950 0.000091 -0.002571 0.002793 0.033969 0.002376
# 6 -0.001937 -0.007710 0.002318 -0.005707 0.002376 0.037132
#
#
# Mechanical properties :
#
#
# Convention : Reuss Voigt Hill
#
# Bulk Modulus (GPa) = 41.30454 55.03929 48.17191
# Shear Modulus (GPa) = 29.66993 35.04334 32.35664
#
# Velocity S-wave (km/s) = 3.57828 3.88883 3.73678
# Velocity P-wave (km/s) = 5.90737 6.62693 6.27747
#
# Compressibility (1/GPa) = 0.02421042
#
# Stress axis : x y z
#
# Youngs Moduli (GPa) = 51.25508 71.64938 126.96518
#
# Poissons Ratio (x) = 0.28913 0.30530
# Poissons Ratio (y) = 0.20683 0.26999
# Poissons Ratio (z) = 0.12325 0.15236
#
# Static dielectric constant tensor:
#      x y z
#    x 3.952460 0.358550 0.114370 
#    y 0.358550 4.301870 0.027170 
#    z 0.114370 0.027170 4.269010 
# 
# 
# High freq. dielectric constant tensor:
#      x y z
#    x 1.898320 0.021980 0.006740 
#    y 0.021980 1.928390 -0.001060 
#    z 0.006740 -0.001060 1.920190 
# 
# From -- ./inp_files/447287.got.cif
#   From: 2010.06.25/outbox.cif.g09.slc.cpg/sg2_224_cif.got.tgz:447287.got - 2010.06.27 13:26:56.
