data_PCOD8016244
_publ_section_title
;
Structure prediction by ZEFSAII (Michael W. Deem and Ramdas Pophale) SiO2 
 PCOD8016244
Probable space group: P -1
;
_chemical_formula_sum "Si O2"
_cell_formula_units_Z 14
_cell_length_a 8.417958
_cell_length_b 23.349223
_cell_length_c 17.713321
_cell_angle_alpha 20.999937
_cell_angle_beta 32.585238
_cell_angle_gamma 42.940191
_cell_volume 644.538115
_symmetry_space_group_name_H-M "P -1"
_symmetry_group_IT_number 2
_symmetry_cell_setting 'triclinic'
loop_
_space_group_symop_operation_xyz
x,y,z
-x,-y,-z
loop_
_atom_site_type_symbol
_atom_site_label
_atom_site_fract_x
_atom_site_fract_y
_atom_site_fract_z
Si Si1 0.184077 0.126750 0.014506
Si Si2 0.920351 0.671779 0.323699
Si Si3 0.197155 0.523287 0.056190
Si Si4 0.118914 0.803717 0.347596
Si Si5 0.062050 0.845981 0.763235
Si Si6 0.527187 0.951752 0.770606
Si Si7 0.407363 0.272905 0.471270
O O1 0.183966 0.288470 0.766308
O O2 0.529276 0.150364 0.878006
O O3 0.953102 0.107104 0.201165
O O4 0.058084 0.963609 0.214522
O O5 0.646978 0.661458 0.505469
O O6 0.000000 0.500000 0.500000
O O7 0.206734 0.816507 0.058789
O O8 0.940073 0.345146 0.383297
O O9 0.500000 0.500000 0.000000
O O10 0.291852 0.590139 0.851184
O O11 0.072716 0.656256 0.988512
O O12 0.894568 0.750259 0.431835
O O13 0.765475 0.861055 0.818708
O O14 0.365957 0.969074 0.452293
O O15 0.489053 0.097798 0.661887
#
# Coordination Sequence:
#
# PCOD8016244 Si02
#       7
#     2   2   2   2   2   2   2
#     4  11  25  39  61  96 125 159 203 255 304 359
#     4  12  27  39  61  94 127 161 203 255 308 355
#     4   9  21  40  66  88 114 164 208 247 301 361
#     4  10  22  41  64  91 121 166 203 246 311 363
#     4  10  23  41  67  92 121 158 212 253 299 363
#     4  10  22  44  65  89 122 170 200 247 311 364
#     4  10  21  44  64  85 124 168 204 244 306 376
#
# _framework density 21.720979
#
# number of rings (size 3 to 8) (size 9 to 14) (size 15 to 20)
#    0.000    1.714    1.429    1.286   10.000    2.286 
#    0.000    0.714    0.000    0.000    0.000    0.000 
#    0.000    0.000    0.000    0.000    0.000    0.000 
#
# Total GULP energy -173628.453000 kJ/mol
# GULP energy per Si atom -12402.032357 kJ/mol
# Density = 2.167154 g / cm^3
# Si number density = 21.720979 Si / 1000 Ang^3
#
#
#
# Elastic Constant Matrix: (Units=GPa)
#
#
# Indices 1 2 3 4 5 6 
#
# 1 44.2581 22.6898 0.0933 -4.4152 21.1225 2.2194
# 2 22.6898 156.8546 41.5936 -6.7820 28.9084 5.3028
# 3 0.0933 41.5936 91.3090 -10.3681 18.8503 7.5890
# 4 -4.4152 -6.7820 -10.3681 35.4208 -5.7322 17.6119
# 5 21.1225 28.9084 18.8503 -5.7322 25.3165 5.1110
# 6 2.2194 5.3028 7.5890 17.6119 5.1110 35.4927
#
#
#
# Elastic Compliance Matrix: (Units=1/GPa)
#
#
# Indices 1 2 3 4 5 6 
#
# 1 0.042797 -0.000936 0.008866 0.000377 -0.041425 0.001346
# 2 -0.000936 0.008469 -0.002492 -0.000812 -0.007378 0.000791
# 3 0.008866 -0.002492 0.015962 0.004906 -0.014531 -0.003937
# 4 0.000377 -0.000812 0.004906 0.043494 0.011697 -0.024218
# 5 -0.041425 -0.007378 -0.014531 0.011697 0.098621 -0.013206
# 6 0.001346 0.000791 -0.003937 -0.024218 -0.013206 0.042733
#
#
# Mechanical properties :
#
#
# Convention : Reuss Voigt Hill
#
# Bulk Modulus (GPa) = 12.80352 46.79724 29.80038
# Shear Modulus (GPa) = 18.71003 34.44899 26.57951
#
# Velocity S-wave (km/s) = 2.93811 3.98675 3.50191
# Velocity P-wave (km/s) = 4.17341 6.54093 5.48640
#
# Compressibility (1/GPa) = 0.07810349
#
# Stress axis : x y z
#
# Youngs Moduli (GPa) = 23.36633 118.07088 62.64850
#
# Poissons Ratio (x) = 0.11053 -0.55542
# Poissons Ratio (y) = 0.02187 0.15611
# Poissons Ratio (z) = -0.20716 0.29422
#
# Static dielectric constant tensor:
#      x y z
#    x 3.601400 -0.192550 0.282970 
#    y -0.192550 4.032930 0.021580 
#    z 0.282970 0.021580 4.539390 
# 
# 
# High freq. dielectric constant tensor:
#      x y z
#    x 1.830850 -0.017590 0.019100 
#    y -0.017590 1.864220 0.005990 
#    z 0.019100 0.005990 1.865140 
# 
# From -- ./inp_files/157476.got.cif
#   From: 2010.06.25/outbox.cif.g09.slc.cpg/sg2_79_cif.got.tgz:157476.got - 2010.06.27 13:26:56.
