data_PCOD8016727
_publ_section_title
;
Structure prediction by ZEFSAII (Michael W. Deem and Ramdas Pophale) SiO2 
 PCOD8016727
Probable space group: P -1
;
_chemical_formula_sum "Si O2"
_cell_formula_units_Z 16
_cell_length_a 24.650175
_cell_length_b 11.726631
_cell_length_c 6.849344
_cell_angle_alpha 66.133726
_cell_angle_beta 126.463542
_cell_angle_gamma 150.376154
_cell_volume 755.183133
_symmetry_space_group_name_H-M "P -1"
_symmetry_group_IT_number 2
_symmetry_cell_setting 'triclinic'
loop_
_space_group_symop_operation_xyz
x,y,z
-x,-y,-z
loop_
_atom_site_type_symbol
_atom_site_label
_atom_site_fract_x
_atom_site_fract_y
_atom_site_fract_z
Si Si1 0.622021 0.434003 0.733063
Si Si2 0.457259 0.573106 0.831471
Si Si3 0.229207 0.574382 0.942883
Si Si4 0.613774 0.959740 0.201477
Si Si5 0.190818 0.867826 0.247035
Si Si6 0.090924 0.472683 0.079706
Si Si7 0.752947 0.808269 0.055640
Si Si8 0.032914 0.194905 0.461655
O O1 0.568696 0.431925 0.442806
O O2 0.500781 0.212329 0.766485
O O3 0.686951 0.409533 0.807627
O O4 0.733374 0.686560 0.911750
O O5 0.325645 0.375538 0.808882
O O6 0.500000 0.500000 0.000000
O O7 0.563133 0.833083 0.971015
O O8 0.111041 0.335091 0.729424
O O9 0.325262 0.807553 0.853466
O O10 0.166812 0.562929 0.981808
O O11 0.725188 0.039155 0.451152
O O12 0.160628 0.699314 0.171491
O O13 0.060588 0.732025 0.139875
O O14 0.280982 0.104496 0.147227
O O15 0.109270 0.377647 0.316753
O O16 0.897208 0.051930 0.279271
O O17 0.000000 0.000000 0.500000
#
# Coordination Sequence:
#
# PCOD8016727 Si02
#       8
#     2   2   2   2   2   2   2   2
#     4  11  25  45  65  99 137 174 224 277 327 396
#     4  11  25  42  68  99 128 181 227 270 327 393
#     4  12  26  42  70 102 133 177 225 268 341 407
#     4  11  25  43  68  96 136 179 218 279 329 391
#     4  10  21  47  66  95 142 169 222 281 330 386
#     4  10  25  42  68 101 133 177 218 276 335 396
#     4  10  23  42  68  96 131 175 218 277 334 386
#     4  11  23  44  68  96 137 172 212 279 336 395
#
# _framework density 21.186913000000001
#
# number of rings (size 3 to 8) (size 9 to 14) (size 15 to 20)
#    0.000    1.250    2.500    1.875    5.250    6.500 
#    0.000    0.000    0.000    0.000    0.000    0.000 
#    0.000    0.000    0.000    0.000    0.000    0.000 
#
# Total GULP energy -198390.343753 kJ/mol
# GULP energy per Si atom -12399.396485 kJ/mol
# Density = 2.113869 g / cm^3
# Si number density = 21.186913 Si / 1000 Ang^3
#
#
#
# Elastic Constant Matrix: (Units=GPa)
#
#
# Indices 1 2 3 4 5 6 
#
# 1 103.8921 42.6304 46.7292 -6.0365 2.1602 -5.5878
# 2 42.6304 109.9993 38.1670 -5.5580 -3.9282 -16.9475
# 3 46.7292 38.1670 114.0043 -2.9212 4.5851 5.8205
# 4 -6.0365 -5.5580 -2.9212 35.9227 -4.6270 8.1255
# 5 2.1602 -3.9282 4.5851 -4.6270 33.8954 -4.9018
# 6 -5.5878 -16.9475 5.8205 8.1255 -4.9018 30.5595
#
#
#
# Elastic Compliance Matrix: (Units=1/GPa)
#
#
# Indices 1 2 3 4 5 6 
#
# 1 0.013037 -0.003404 -0.004211 0.001057 -0.000373 0.000957
# 2 -0.003404 0.012918 -0.003464 -0.000192 0.003281 0.007778
# 3 -0.004211 -0.003464 0.012058 0.000677 -0.002476 -0.005565
# 4 0.001057 -0.000192 0.000677 0.030124 0.002832 -0.007597
# 5 -0.000373 0.003281 -0.002476 0.002832 0.031573 0.006534
# 6 0.000957 0.007778 -0.005565 -0.007597 0.006534 0.041340
#
#
# Mechanical properties :
#
#
# Convention : Reuss Voigt Hill
#
# Bulk Modulus (GPa) = 63.06629 64.77211 63.91920
# Shear Modulus (GPa) = 29.67517 33.43347 31.55432
#
# Velocity S-wave (km/s) = 3.74657 3.97675 3.86337
# Velocity P-wave (km/s) = 6.96756 7.19195 7.08065
#
# Compressibility (1/GPa) = 0.01585633
#
# Stress axis : x y z
#
# Youngs Moduli (GPa) = 76.70662 77.41280 82.93133
#
# Poissons Ratio (x) = 0.26349 0.34921
# Poissons Ratio (y) = 0.26109 0.28724
# Poissons Ratio (z) = 0.32300 0.26812
#
# Static dielectric constant tensor:
#      x y z
#    x 3.775600 -0.049660 0.136910 
#    y -0.049660 4.179740 -0.016060 
#    z 0.136910 -0.016060 4.260780 
# 
# 
# High freq. dielectric constant tensor:
#      x y z
#    x 1.820530 -0.009540 0.011050 
#    y -0.009540 1.850560 0.001880 
#    z 0.011050 0.001880 1.836500 
# 
# From -- ./inp_files/78770.got.cif
#   From: 2010.06.25/outbox.cif.g09.slc.cpg/sg2_40_cif.got.tgz:78770.got - 2010.06.27 13:26:56.
