data_PCOD8016129
_publ_section_title
;
Structure prediction by ZEFSAII (Michael W. Deem and Ramdas Pophale) SiO2 
 PCOD8016129
Probable space group: P -1
;
_chemical_formula_sum "Si O2"
_cell_formula_units_Z 16
_cell_length_a 8.392723
_cell_length_b 9.195461
_cell_length_c 11.627094
_cell_angle_alpha 84.678644
_cell_angle_beta 101.459033
_cell_angle_gamma 125.275738
_cell_volume 717.683201
_symmetry_space_group_name_H-M "P -1"
_symmetry_group_IT_number 2
_symmetry_cell_setting 'triclinic'
loop_
_space_group_symop_operation_xyz
x,y,z
-x,-y,-z
loop_
_atom_site_type_symbol
_atom_site_label
_atom_site_fract_x
_atom_site_fract_y
_atom_site_fract_z
Si Si1 0.541465 0.247656 0.058007
Si Si2 0.218633 0.086023 0.664051
Si Si3 0.842501 0.065592 0.581983
Si Si4 0.462150 0.269534 0.304885
Si Si5 0.621173 0.443773 0.693166
Si Si6 0.139507 0.441885 0.058703
Si Si7 0.781148 0.355229 0.515948
Si Si8 0.794969 0.083853 0.097849
O O1 0.480774 0.276252 0.170673
O O2 0.674382 0.171689 0.090580
O O3 0.663120 0.445191 0.001029
O O4 0.337039 0.104831 0.972797
O O5 0.437102 0.249128 0.717577
O O6 0.076640 0.153969 0.622135
O O7 0.229381 0.003506 0.552546
O O8 0.143041 0.942328 0.765567
O O9 0.784158 0.201391 0.592488
O O10 0.738468 0.912522 0.673048
O O11 0.451328 0.428623 0.335377
O O12 0.646327 0.281436 0.388426
O O13 0.795861 0.507557 0.803959
O O14 0.702731 0.441096 0.581153
O O15 0.002065 0.224099 0.047378
O O16 0.000000 0.500000 0.000000
O O17 0.000000 0.500000 0.500000
#
# Coordination Sequence:
#
# PCOD8016129 Si02
#       8
#     2   2   2   2   2   2   2   2
#     4  10  23  42  70 101 138 183 240 285 350 409
#     4  11  23  45  71  99 143 180 235 288 358 414
#     4  11  26  43  70 103 137 187 232 288 349 425
#     4  12  26  46  69 104 142 184 233 292 346 426
#     4  12  26  46  71 100 145 187 229 293 358 411
#     4  10  23  43  69 102 138 184 232 292 346 419
#     4  12  28  44  70 105 140 185 235 289 354 422
#     4  10  21  43  71 101 136 186 229 296 347 411
#
# _framework density 22.293956999999999
#
# number of rings (size 3 to 8) (size 9 to 14) (size 15 to 20)
#    0.000    1.000    2.500    3.000   10.500    0.500 
#    2.250    1.250    0.000    0.000    0.000    0.000 
#    0.000    0.000    0.000    0.000    0.000    0.000 
#
# Total GULP energy -198418.625980 kJ/mol
# GULP energy per Si atom -12401.164124 kJ/mol
# Density = 2.224321 g / cm^3
# Si number density = 22.293957 Si / 1000 Ang^3
#
#
#
# Elastic Constant Matrix: (Units=GPa)
#
#
# Indices 1 2 3 4 5 6 
#
# 1 80.8583 51.8437 31.4612 4.6806 -10.0962 6.6077
# 2 51.8437 125.5743 60.3418 -15.0674 -11.8315 26.2402
# 3 31.4612 60.3418 109.9710 -12.4581 -17.8494 13.5290
# 4 4.6806 -15.0674 -12.4581 35.5660 5.3655 1.5319
# 5 -10.0962 -11.8315 -17.8494 5.3655 43.8724 2.9584
# 6 6.6077 26.2402 13.5290 1.5319 2.9584 41.4500
#
#
#
# Elastic Compliance Matrix: (Units=1/GPa)
#
#
# Indices 1 2 3 4 5 6 
#
# 1 0.018655 -0.008121 -0.001674 -0.006917 0.002077 0.002821
# 2 -0.008121 0.015962 -0.004742 0.006460 0.000223 -0.007517
# 3 -0.001674 -0.004742 0.013178 0.002358 0.003501 -0.001369
# 4 -0.006917 0.006460 0.002358 0.033193 -0.002626 -0.004796
# 5 0.002077 0.000223 0.003501 -0.002626 0.025301 -0.003324
# 6 0.002821 -0.007517 -0.001369 -0.004796 -0.003324 0.029296
#
#
# Mechanical properties :
#
#
# Convention : Reuss Voigt Hill
#
# Bulk Modulus (GPa) = 53.41863 67.07745 60.24804
# Shear Modulus (GPa) = 29.25688 35.69479 32.47584
#
# Velocity S-wave (km/s) = 3.62653 4.00571 3.82083
# Velocity P-wave (km/s) = 6.44583 7.17965 6.82261
#
# Compressibility (1/GPa) = 0.01872006
#
# Stress axis : x y z
#
# Youngs Moduli (GPa) = 53.60529 62.64951 75.88197
#
# Poissons Ratio (x) = 0.50876 0.12706
# Poissons Ratio (y) = 0.43532 0.35985
# Poissons Ratio (z) = 0.08976 0.29710
#
# Static dielectric constant tensor:
#      x y z
#    x 4.536770 -0.278630 0.082040 
#    y -0.278630 4.580230 0.085210 
#    z 0.082040 0.085210 3.749530 
# 
# 
# High freq. dielectric constant tensor:
#      x y z
#    x 1.877470 0.016180 0.014420 
#    y 0.016180 1.886580 -0.011260 
#    z 0.014420 -0.011260 1.882070 
# 
# From -- ./inp_files/208056.got.cif
#   From: 2010.06.25/outbox.cif.g09.slc.cpg/sg2_105_cif.got.tgz:208056.got - 2010.06.27 13:26:56.
