data_PCOD8016843
_publ_section_title
;
Structure prediction by ZEFSAII (Michael W. Deem and Ramdas Pophale) SiO2 
 PCOD8016843
Probable space group: P -1
;
_chemical_formula_sum "Si O2"
_cell_formula_units_Z 16
_cell_length_a 8.249544
_cell_length_b 14.652523
_cell_length_c 17.349516
_cell_angle_alpha 25.819566
_cell_angle_beta 124.723394
_cell_angle_gamma 135.055000
_cell_volume 629.519027
_symmetry_space_group_name_H-M "P -1"
_symmetry_group_IT_number 2
_symmetry_cell_setting 'triclinic'
loop_
_space_group_symop_operation_xyz
x,y,z
-x,-y,-z
loop_
_atom_site_type_symbol
_atom_site_label
_atom_site_fract_x
_atom_site_fract_y
_atom_site_fract_z
Si Si1 0.840986 0.686139 0.629131
Si Si2 0.675020 0.989735 0.434802
Si Si3 0.602408 0.068847 0.742277
Si Si4 0.088925 0.401742 0.534601
Si Si5 0.288897 0.181901 0.662118
Si Si6 0.766038 0.459037 0.300197
Si Si7 0.386963 0.235202 0.894083
Si Si8 0.997979 0.092834 0.077680
O O1 0.778160 0.819801 0.575186
O O2 0.834961 0.791472 0.465207
O O3 0.652167 0.387836 0.814943
O O4 0.109199 0.754631 0.662825
O O5 0.580678 0.055231 0.282989
O O6 0.456415 0.823935 0.559915
O O7 0.820779 0.362030 0.558050
O O8 0.507863 0.161993 0.716701
O O9 0.636804 0.867345 0.947193
O O10 0.319104 0.391218 0.576455
O O11 0.987709 0.446366 0.395217
O O12 0.910420 0.104908 0.746055
O O13 0.097699 0.918138 0.853706
O O14 0.706606 0.579926 0.264382
O O15 0.814383 0.621273 0.112246
O O16 0.213441 0.008062 0.964582
#
# Coordination Sequence:
#
# PCOD8016843 Si02
#       8
#     2   2   2   2   2   2   2   2
#     4   9  19  42  58  86 113 159 207 242 294 335
#     4   9  21  37  65  80 117 162 196 253 288 338
#     4  11  21  36  59  94 120 155 195 247 303 345
#     4  10  22  36  61  85 125 159 185 248 294 355
#     4   9  22  38  60  83 123 159 196 241 295 355
#     4  11  22  40  57  92 122 156 200 236 301 357
#     4  11  23  33  62  92 122 152 195 252 293 359
#     4  10  22  37  57  93 118 159 187 240 302 355
#
# _framework density 25.416228
#
# number of rings (size 3 to 8) (size 9 to 14) (size 15 to 20)
#    0.750    1.250    1.250    3.000    3.500    3.000 
#    0.000    1.250    0.000    0.000    0.000    0.000 
#    0.000    0.000    0.000    0.000    0.000    0.000 
#
# Total GULP energy -198252.681563 kJ/mol
# GULP energy per Si atom -12390.792598 kJ/mol
# Density = 2.535838 g / cm^3
# Si number density = 25.416228 Si / 1000 Ang^3
#
#
#
# Elastic Constant Matrix: (Units=GPa)
#
#
# Indices 1 2 3 4 5 6 
#
# 1 48.8640 -9.6148 25.9934 -7.2636 -0.1046 8.9958
# 2 -9.6148 93.5982 37.4277 5.9902 -2.5091 25.6563
# 3 25.9934 37.4277 168.1726 16.1080 -21.0900 15.8242
# 4 -7.2636 5.9902 16.1080 30.1090 6.4582 -1.1677
# 5 -0.1046 -2.5091 -21.0900 6.4582 39.6813 4.6915
# 6 8.9958 25.6563 15.8242 -1.1677 4.6915 24.4324
#
#
#
# Elastic Compliance Matrix: (Units=1/GPa)
#
#
# Indices 1 2 3 4 5 6 
#
# 1 0.029834 0.009323 -0.006287 0.008560 -0.002190 -0.015873
# 2 0.009323 0.019056 -0.003230 -0.001151 0.002283 -0.021845
# 3 -0.006287 -0.003230 0.009260 -0.007203 0.006086 -0.001804
# 4 0.008560 -0.001151 -0.007203 0.042108 -0.011554 0.006953
# 5 -0.002190 0.002283 0.006086 -0.011554 0.031898 -0.012210
# 6 -0.015873 -0.021845 -0.001804 0.006953 -0.012210 0.073557
#
#
# Mechanical properties :
#
#
# Convention : Reuss Voigt Hill
#
# Bulk Modulus (GPa) = 17.31249 46.47193 31.89221
# Shear Modulus (GPa) = 22.18715 35.96643 29.07679
#
# Velocity S-wave (km/s) = 2.95778 3.76586 3.38601
# Velocity P-wave (km/s) = 4.30012 6.10188 5.27845
#
# Compressibility (1/GPa) = 0.05776177
#
# Stress axis : x y z
#
# Youngs Moduli (GPa) = 33.51893 52.47691 107.99333
#
# Poissons Ratio (x) = -0.48925 0.67896
# Poissons Ratio (y) = -0.31250 0.34883
# Poissons Ratio (z) = 0.21074 0.16950
#
# Static dielectric constant tensor:
#      x y z
#    x 5.192560 0.517490 -0.388740 
#    y 0.517490 4.205620 -0.239710 
#    z -0.388740 -0.239710 4.762270 
# 
# 
# High freq. dielectric constant tensor:
#      x y z
#    x 2.044030 0.029010 -0.018190 
#    y 0.029010 1.964500 0.001600 
#    z -0.018190 0.001600 2.032940 
# 
# From -- ./inp_files/596224.got.cif
#   From: 2010.06.25/outbox.cif.g09.slc.cpg/sg2_299_cif.got.tgz:596224.got - 2010.06.27 13:26:56.
