data_PCOD8016895
_publ_section_title
;
Structure prediction by ZEFSAII (Michael W. Deem and Ramdas Pophale) SiO2 
 PCOD8016895
Probable space group: P -1
;
_chemical_formula_sum "Si O2"
_cell_formula_units_Z 14
_cell_length_a 14.728028
_cell_length_b 5.259614
_cell_length_c 11.801592
_cell_angle_alpha 103.095052
_cell_angle_beta 125.510711
_cell_angle_gamma 96.163654
_cell_volume 691.101889
_symmetry_space_group_name_H-M "P -1"
_symmetry_group_IT_number 2
_symmetry_cell_setting 'triclinic'
loop_
_space_group_symop_operation_xyz
x,y,z
-x,-y,-z
loop_
_atom_site_type_symbol
_atom_site_label
_atom_site_fract_x
_atom_site_fract_y
_atom_site_fract_z
Si Si1 0.625113 0.398754 0.180837
Si Si2 0.636626 0.827454 0.042867
Si Si3 0.090418 0.107416 0.236201
Si Si4 0.845367 0.756946 0.061217
Si Si5 0.845817 0.536177 0.479404
Si Si6 0.130641 0.580139 0.144315
Si Si7 0.023036 0.267442 0.617861
O O1 0.490543 0.346050 0.114848
O O2 0.704773 0.449256 0.357629
O O3 0.665905 0.668298 0.157444
O O4 0.638298 0.133985 0.100007
O O5 0.733860 0.854621 0.019213
O O6 0.107704 0.170984 0.391225
O O7 0.146855 0.392944 0.241997
O O8 0.164673 0.899344 0.236503
O O9 0.950167 0.988509 0.094780
O O10 0.907881 0.698731 0.212560
O O11 0.798679 0.487884 0.919569
O O12 0.890895 0.513440 0.381489
O O13 0.900837 0.328093 0.565078
O O14 0.000000 0.500000 0.000000
O O15 0.000000 0.000000 0.500000
#
# Coordination Sequence:
#
# PCOD8016895 Si02
#       7
#     2   2   2   2   2   2   2
#     4  10  22  38  54  82 115 149 184 222 274 336
#     4  10  22  37  57  81 112 149 187 225 271 328
#     4  11  23  36  54  83 112 148 182 228 278 329
#     4  11  20  37  60  80 117 145 188 232 275 331
#     4  11  22  33  56  79 121 144 180 225 286 339
#     4  10  22  37  53  80 111 147 189 224 274 324
#     4  11  21  33  50  90 113 146 177 224 288 342
#
# _framework density 20.257503
#
# number of rings (size 3 to 8) (size 9 to 14) (size 15 to 20)
#    0.000    1.429    2.857    4.286    2.000    3.429 
#    0.000    0.000    0.000    1.714    0.000    0.000 
#    0.000    1.143    0.000    0.000    0.000    0.000 
#
# Total GULP energy -173456.949403 kJ/mol
# GULP energy per Si atom -12389.782100 kJ/mol
# Density = 2.021140 g / cm^3
# Si number density = 20.257503 Si / 1000 Ang^3
#
#
#
# Elastic Constant Matrix: (Units=GPa)
#
#
# Indices 1 2 3 4 5 6 
#
# 1 98.0306 29.2674 43.1408 0.4321 -0.7725 -24.4194
# 2 29.2674 98.9667 22.6755 -2.4175 -7.2936 -17.8594
# 3 43.1408 22.6755 81.2633 0.9375 0.6572 -19.1367
# 4 0.4321 -2.4175 0.9375 26.5712 -3.4684 -2.9017
# 5 -0.7725 -7.2936 0.6572 -3.4684 35.6830 -0.3381
# 6 -24.4194 -17.8594 -19.1367 -2.9017 -0.3381 28.2966
#
#
#
# Elastic Compliance Matrix: (Units=1/GPa)
#
#
# Indices 1 2 3 4 5 6 
#
# 1 0.015287 -0.001670 -0.005689 0.000746 0.000246 0.008370
# 2 -0.001670 0.012153 -0.001219 0.002150 0.002733 0.005657
# 3 -0.005689 -0.001219 0.017046 -0.000066 -0.000637 0.005835
# 4 0.000746 0.002150 -0.000066 0.039039 0.004309 0.006012
# 5 0.000246 0.002733 -0.000637 0.004309 0.029041 0.002295
# 6 0.008370 0.005657 0.005835 0.006012 0.002295 0.050724
#
#
# Mechanical properties :
#
#
# Convention : Reuss Voigt Hill
#
# Bulk Modulus (GPa) = 36.59138 52.04755 44.31946
# Shear Modulus (GPa) = 26.37757 30.32196 28.34976
#
# Velocity S-wave (km/s) = 3.61240 3.87308 3.74501
# Velocity P-wave (km/s) = 5.95832 6.76386 6.37383
#
# Compressibility (1/GPa) = 0.02732884
#
# Stress axis : x y z
#
# Youngs Moduli (GPa) = 65.41618 82.28738 58.66549
#
# Poissons Ratio (x) = 0.13746 0.33373
# Poissons Ratio (y) = 0.10928 0.07150
# Poissons Ratio (z) = 0.37214 0.10030
#
# Static dielectric constant tensor:
#      x y z
#    x 4.400730 -0.217730 -0.402180 
#    y -0.217730 3.998020 -0.043070 
#    z -0.402180 -0.043070 4.118630 
# 
# 
# High freq. dielectric constant tensor:
#      x y z
#    x 1.764780 -0.018380 -0.018710 
#    y -0.018380 1.803240 -0.003590 
#    z -0.018710 -0.003590 1.771800 
# 
# From -- ./inp_files/63719.got.cif
#   From: 2010.06.25/outbox.cif.g09.slc.cpg/sg2_32_cif.got.tgz:63719.got - 2010.06.27 13:26:56.
