data_PCOD8016191
_publ_section_title
;
Structure prediction by ZEFSAII (Michael W. Deem and Ramdas Pophale) SiO2 
 PCOD8016191
Probable space group: P -1
;
_chemical_formula_sum "Si O2"
_cell_formula_units_Z 16
_cell_length_a 6.975531
_cell_length_b 19.782999
_cell_length_c 5.458842
_cell_angle_alpha 85.754619
_cell_angle_beta 104.994919
_cell_angle_gamma 111.524191
_cell_volume 676.724894
_symmetry_space_group_name_H-M "P -1"
_symmetry_group_IT_number 2
_symmetry_cell_setting 'triclinic'
loop_
_space_group_symop_operation_xyz
x,y,z
-x,-y,-z
loop_
_atom_site_type_symbol
_atom_site_label
_atom_site_fract_x
_atom_site_fract_y
_atom_site_fract_z
Si Si1 0.505739 0.695810 0.166350
Si Si2 0.034099 0.444955 0.211913
Si Si3 0.648962 0.202022 0.229833
Si Si4 0.886724 0.784091 0.603259
Si Si5 0.725939 0.646288 0.877008
Si Si6 0.724671 0.899828 0.605613
Si Si7 0.599267 0.938763 0.046496
Si Si8 0.304790 0.583664 0.504329
O O1 0.701399 0.758543 0.344442
O O2 0.309814 0.643176 0.280643
O O3 0.395897 0.729207 0.914490
O O4 0.615102 0.640798 0.104996
O O5 0.093859 0.387980 0.080275
O O6 0.214750 0.497946 0.435980
O O7 0.825099 0.401058 0.312707
O O8 0.000000 0.500000 0.000000
O O9 0.496058 0.170645 0.422805
O O10 0.887667 0.219718 0.405711
O O11 0.591579 0.139662 0.016196
O O12 0.818471 0.732238 0.829797
O O13 0.913105 0.866790 0.663155
O O14 0.550709 0.601854 0.636029
O O15 0.726272 0.943972 0.343565
O O16 0.750759 0.948942 0.849172
O O17 0.500000 0.000000 0.000000
#
# Coordination Sequence:
#
# PCOD8016191 Si02
#       8
#     2   2   2   2   2   2   2   2
#     4  11  23  46  67  98 138 174 229 297 342 417
#     4  11  25  44  64  93 129 173 223 275 352 428
#     4  10  24  41  71  98 141 179 226 282 350 406
#     4  11  23  42  66 101 132 181 226 280 350 408
#     4  11  24  42  65  94 127 174 222 285 345 413
#     4  10  21  44  65 101 144 176 234 288 335 414
#     4  10  21  43  72  99 144 190 226 284 347 406
#     4  10  25  43  65  89 131 169 222 279 354 412
#
# _framework density 23.643287000000001
#
# number of rings (size 3 to 8) (size 9 to 14) (size 15 to 20)
#    0.750    0.750    2.500    1.500    3.500    7.000 
#    0.000    1.250    0.000    0.000    0.000    0.000 
#    0.000    0.000    0.000    0.000    0.000    0.000 
#
# Total GULP energy -198234.482739 kJ/mol
# GULP energy per Si atom -12389.655171 kJ/mol
# Density = 2.358947 g / cm^3
# Si number density = 23.643287 Si / 1000 Ang^3
#
#
#
# Elastic Constant Matrix: (Units=GPa)
#
#
# Indices 1 2 3 4 5 6 
#
# 1 111.0467 27.6875 34.9588 -8.0097 -10.5184 -35.6375
# 2 27.6875 68.2015 30.4810 -4.4549 -9.9597 -38.5423
# 3 34.9588 30.4810 110.2592 -20.9324 -24.0543 -26.9284
# 4 -8.0097 -4.4549 -20.9324 32.0696 -1.5725 0.3425
# 5 -10.5184 -9.9597 -24.0543 -1.5725 34.5331 5.6797
# 6 -35.6375 -38.5423 -26.9284 0.3425 5.6797 47.4640
#
#
#
# Elastic Compliance Matrix: (Units=1/GPa)
#
#
# Indices 1 2 3 4 5 6 
#
# 1 0.012451 0.001246 -0.001045 0.002596 0.001978 0.009513
# 2 0.001246 0.028401 -0.001075 0.003518 0.004223 0.022858
# 3 -0.001045 -0.001075 0.014958 0.009749 0.009306 0.005645
# 4 0.002596 0.003518 0.009749 0.039023 0.008894 0.008991
# 5 0.001978 0.004223 0.009306 0.008894 0.036722 0.005735
# 6 0.009513 0.022858 0.005645 0.008991 0.005735 0.049223
#
#
# Mechanical properties :
#
#
# Convention : Reuss Voigt Hill
#
# Bulk Modulus (GPa) = 18.49701 52.86242 35.67972
# Shear Modulus (GPa) = 24.93216 35.90533 30.41874
#
# Velocity S-wave (km/s) = 3.25085 3.90118 3.59077
# Velocity P-wave (km/s) = 4.68306 6.53446 5.68464
#
# Compressibility (1/GPa) = 0.05406279
#
# Stress axis : x y z
#
# Youngs Moduli (GPa) = 80.31677 35.21049 66.85561
#
# Poissons Ratio (x) = -0.04389 0.06983
# Poissons Ratio (y) = -0.10011 0.07187
# Poissons Ratio (z) = 0.08389 0.03785
#
# Static dielectric constant tensor:
#      x y z
#    x 4.110420 -0.039020 -0.176530 
#    y -0.039020 5.041200 0.364400 
#    z -0.176530 0.364400 4.311750 
# 
# 
# High freq. dielectric constant tensor:
#      x y z
#    x 1.930280 -0.008890 -0.008180 
#    y -0.008890 1.930710 0.001020 
#    z -0.008180 0.001020 1.928120 
# 
# From -- ./inp_files/11195.got.cif
#   From: 2010.06.25/outbox.cif.g09.slc.cpg/sg2_6_cif.got.tgz:11195.got - 2010.06.27 13:26:56.
