data_PCOD8016435
_publ_section_title
;
Structure prediction by ZEFSAII (Michael W. Deem and Ramdas Pophale) SiO2 
 PCOD8016435
Probable space group: P -1
;
_chemical_formula_sum "Si O2"
_cell_formula_units_Z 16
_cell_length_a 14.598058
_cell_length_b 16.317835
_cell_length_c 6.967518
_cell_angle_alpha 46.612521
_cell_angle_beta 127.488917
_cell_angle_gamma 142.108331
_cell_volume 732.520270
_symmetry_space_group_name_H-M "P -1"
_symmetry_group_IT_number 2
_symmetry_cell_setting 'triclinic'
loop_
_space_group_symop_operation_xyz
x,y,z
-x,-y,-z
loop_
_atom_site_type_symbol
_atom_site_label
_atom_site_fract_x
_atom_site_fract_y
_atom_site_fract_z
Si Si1 0.854281 0.802147 0.819532
Si Si2 0.583330 0.812674 0.102965
Si Si3 0.339630 0.702756 0.281153
Si Si4 0.848886 0.036713 0.287627
Si Si5 0.149076 0.374928 0.573220
Si Si6 0.465132 0.077927 0.478193
Si Si7 0.676575 0.631212 0.526097
Si Si8 0.835315 0.209843 0.278189
O O1 0.741031 0.655124 0.783537
O O2 0.023947 0.911496 0.785759
O O3 0.808062 0.905891 0.591246
O O4 0.846452 0.737427 0.118888
O O5 0.450410 0.715654 0.245013
O O6 0.692253 0.773537 0.272347
O O7 0.697582 0.977297 0.073004
O O8 0.523418 0.804157 0.828893
O O9 0.245563 0.540402 0.516905
O O10 0.422509 0.829834 0.346761
O O11 0.225290 0.708987 0.004506
O O12 0.904326 0.180365 0.241044
O O13 0.224707 0.387694 0.449265
O O14 0.976961 0.312986 0.436553
O O15 0.500000 0.000000 0.500000
O O16 0.298544 0.949098 0.548722
O O17 0.500000 0.500000 0.500000
#
# Coordination Sequence:
#
# PCOD8016435 Si02
#       8
#     2   2   2   2   2   2   2   2
#     4  10  24  44  67 101 136 176 227 281 341 401
#     4  11  23  42  67 102 135 174 225 281 337 392
#     4  12  26  45  67 101 143 178 225 283 337 402
#     4  10  21  44  70  98 139 173 224 292 333 391
#     4  12  27  44  69 104 138 184 224 273 348 412
#     4  12  25  44  74 102 129 183 235 277 335 406
#     4  11  24  42  67  95 140 177 215 279 336 406
#     4  12  24  46  70  98 139 181 229 282 333 401
#
# _framework density 21.842399
#
# number of rings (size 3 to 8) (size 9 to 14) (size 15 to 20)
#    0.000    0.750    5.000    2.250    3.500    1.000 
#    0.000    1.250    0.000    0.000    0.000    0.000 
#    0.000    0.000    0.000    0.000    0.000    0.000 
#
# Total GULP energy -198252.648343 kJ/mol
# GULP energy per Si atom -12390.790521 kJ/mol
# Density = 2.179268 g / cm^3
# Si number density = 21.842399 Si / 1000 Ang^3
#
#
#
# Elastic Constant Matrix: (Units=GPa)
#
#
# Indices 1 2 3 4 5 6 
#
# 1 73.8854 23.9408 11.6211 4.8356 8.7835 -1.2849
# 2 23.9408 118.6474 27.0105 8.2555 1.9940 14.7299
# 3 11.6211 27.0105 90.3863 8.6658 4.3799 6.6665
# 4 4.8356 8.2555 8.6658 33.4721 3.0917 6.6065
# 5 8.7835 1.9940 4.3799 3.0917 24.2895 0.4716
# 6 -1.2849 14.7299 6.6665 6.6065 0.4716 32.4866
#
#
#
# Elastic Compliance Matrix: (Units=1/GPa)
#
#
# Indices 1 2 3 4 5 6 
#
# 1 0.015385 -0.003040 -0.000888 -0.001271 -0.005041 0.002500
# 2 -0.003040 0.010110 -0.002300 -0.000730 0.000856 -0.004096
# 3 -0.000888 -0.002300 0.012214 -0.002131 -0.001401 -0.001045
# 4 -0.001271 -0.000730 -0.002131 0.032218 -0.003085 -0.005789
# 5 -0.005041 0.000856 -0.001401 -0.003085 0.043574 -0.000305
# 6 0.002500 -0.004096 -0.001045 -0.005789 -0.000305 0.034134
#
#
# Mechanical properties :
#
#
# Convention : Reuss Voigt Hill
#
# Bulk Modulus (GPa) = 39.59680 45.34042 42.46861
# Shear Modulus (GPa) = 29.67200 32.73944 31.20572
#
# Velocity S-wave (km/s) = 3.68973 3.87576 3.78388
# Velocity P-wave (km/s) = 6.02660 6.38997 6.21094
#
# Compressibility (1/GPa) = 0.02525456
#
# Stress axis : x y z
#
# Youngs Moduli (GPa) = 64.99868 98.91040 81.87078
#
# Poissons Ratio (x) = 0.30064 0.07271
# Poissons Ratio (y) = 0.19756 0.18829
# Poissons Ratio (z) = 0.05772 0.22748
#
# Static dielectric constant tensor:
#      x y z
#    x 5.503290 -1.471160 -1.161030 
#    y -1.471160 5.472840 1.234580 
#    z -1.161030 1.234580 5.183750 
# 
# 
# High freq. dielectric constant tensor:
#      x y z
#    x 1.857350 0.004310 0.012630 
#    y 0.004310 1.868960 0.008870 
#    z 0.012630 0.008870 1.850490 
# 
# From -- ./inp_files/99522.got.cif
#   From: 2010.06.25/outbox.cif.g09.slc.cpg/sg2_50_cif.got.tgz:99522.got - 2010.06.27 13:26:56.
