data_PCOD8016484
_publ_section_title
;
Structure prediction by ZEFSAII (Michael W. Deem and Ramdas Pophale) SiO2 
 PCOD8016484
Probable space group: P -1
;
_chemical_formula_sum "Si O2"
_cell_formula_units_Z 16
_cell_length_a 8.183281
_cell_length_b 17.500856
_cell_length_c 11.789057
_cell_angle_alpha 50.621486
_cell_angle_beta 120.325438
_cell_angle_gamma 146.143026
_cell_volume 726.130327
_symmetry_space_group_name_H-M "P -1"
_symmetry_group_IT_number 2
_symmetry_cell_setting 'triclinic'
loop_
_space_group_symop_operation_xyz
x,y,z
-x,-y,-z
loop_
_atom_site_type_symbol
_atom_site_label
_atom_site_fract_x
_atom_site_fract_y
_atom_site_fract_z
Si Si1 0.911572 0.918934 0.163501
Si Si2 0.586939 0.098892 0.545707
Si Si3 0.418144 0.368649 0.159858
Si Si4 0.797870 0.193809 0.183782
Si Si5 0.593332 0.148635 0.909336
Si Si6 0.461596 0.184461 0.243916
Si Si7 0.902894 0.552242 0.336457
Si Si8 0.765137 0.644147 0.383893
O O1 0.698954 0.907346 0.164696
O O2 0.736082 0.747292 0.244091
O O3 0.199720 0.018732 0.246915
O O4 0.000000 0.000000 0.000000
O O5 0.478430 0.163232 0.403955
O O6 0.930077 0.249455 0.544816
O O7 0.500000 0.000000 0.500000
O O8 0.417980 0.986954 0.700658
O O9 0.393527 0.274841 0.139626
O O10 0.675754 0.430860 0.273305
O O11 0.122997 0.275368 0.215686
O O12 0.500000 0.500000 0.000000
O O13 0.751117 0.261463 0.200786
O O14 0.720569 0.214440 0.018158
O O15 0.817349 0.280005 0.773135
O O16 0.500000 0.000000 0.000000
O O17 0.736808 0.569040 0.332496
O O18 0.000000 0.500000 0.500000
O O19 0.500000 0.500000 0.500000
#
# Coordination Sequence:
#
# PCOD8016484 Si02
#       8
#     2   2   2   2   2   2   2   2
#     4  12  23  42  72 110 139 196 257 298 374 446
#     4  10  21  44  72 106 144 185 249 301 368 449
#     4  12  28  47  72 110 147 197 253 306 382 442
#     4  11  23  46  74 102 146 196 245 307 367 446
#     4  12  24  43  72 103 148 193 246 310 375 445
#     4  11  25  45  76 104 148 192 255 306 363 458
#     4  12  28  49  69 108 156 189 247 313 383 450
#     4  12  26  45  75 108 148 187 243 315 376 447
#
# _framework density 22.034611000000002
#
# number of rings (size 3 to 8) (size 9 to 14) (size 15 to 20)
#    0.000    0.500    5.000    3.750    5.250    2.000 
#    0.000    0.000    0.000    0.000    0.000    0.000 
#    0.000    0.000    0.000    0.000    0.000    0.000 
#
# Total GULP energy -198295.504565 kJ/mol
# GULP energy per Si atom -12393.469035 kJ/mol
# Density = 2.198446 g / cm^3
# Si number density = 22.034611 Si / 1000 Ang^3
#
#
#
# Elastic Constant Matrix: (Units=GPa)
#
#
# Indices 1 2 3 4 5 6 
#
# 1 154.1477 31.9545 46.3964 -27.7017 -1.0305 2.0768
# 2 31.9545 95.8212 40.8569 -15.8356 -3.5214 12.2313
# 3 46.3964 40.8569 163.4975 -24.1805 -2.1091 9.1060
# 4 -27.7017 -15.8356 -24.1805 46.5606 4.0600 2.4676
# 5 -1.0305 -3.5214 -2.1091 4.0600 40.9685 -8.9424
# 6 2.0768 12.2313 9.1060 2.4676 -8.9424 46.8090
#
#
#
# Elastic Compliance Matrix: (Units=1/GPa)
#
#
# Indices 1 2 3 4 5 6 
#
# 1 0.007820 -0.001480 -0.001342 0.003478 -0.000333 0.000054
# 2 -0.001480 0.012652 -0.002220 0.002419 0.000058 -0.002925
# 3 -0.001342 -0.002220 0.007458 0.002398 -0.000295 -0.000994
# 4 0.003478 0.002419 0.002398 0.026032 -0.002853 -0.003170
# 5 -0.000333 0.000058 -0.000295 -0.002853 0.025794 0.005135
# 6 0.000054 -0.002925 -0.000994 -0.003170 0.005135 0.023467
#
#
# Mechanical properties :
#
#
# Convention : Reuss Voigt Hill
#
# Bulk Modulus (GPa) = 56.03618 72.43133 64.23376
# Shear Modulus (GPa) = 41.92673 46.48486 44.20579
#
# Velocity S-wave (km/s) = 4.36680 4.59805 4.48392
# Velocity P-wave (km/s) = 7.13523 7.81872 7.48478
#
# Compressibility (1/GPa) = 0.01784561
#
# Stress axis : x y z
#
# Youngs Moduli (GPa) = 127.87388 79.04174 134.08055
#
# Poissons Ratio (x) = 0.11697 0.17997
# Poissons Ratio (y) = 0.18923 0.29768
# Poissons Ratio (z) = 0.17163 0.17548
#
# Static dielectric constant tensor:
#      x y z
#    x 4.184980 0.046390 0.219600 
#    y 0.046390 4.146700 -0.030130 
#    z 0.219600 -0.030130 4.606330 
# 
# 
# High freq. dielectric constant tensor:
#      x y z
#    x 1.874090 0.002660 0.008620 
#    y 0.002660 1.865170 -0.000650 
#    z 0.008620 -0.000650 1.882490 
# 
# From -- ./inp_files/403040.got.cif
#   From: 2010.06.25/outbox.cif.g09.slc.cpg/sg2_202_cif.got.tgz:403040.got - 2010.06.27 13:26:56.
