data_PCOD8016597
_publ_section_title
;
Structure prediction by ZEFSAII (Michael W. Deem and Ramdas Pophale) SiO2 
 PCOD8016597
Probable space group: P -1
;
_chemical_formula_sum "Si O2"
_cell_formula_units_Z 14
_cell_length_a 13.853282
_cell_length_b 10.699347
_cell_length_c 8.973022
_cell_angle_alpha 99.098152
_cell_angle_beta 121.786094
_cell_angle_gamma 126.567049
_cell_volume 656.093760
_symmetry_space_group_name_H-M "P -1"
_symmetry_group_IT_number 2
_symmetry_cell_setting 'triclinic'
loop_
_space_group_symop_operation_xyz
x,y,z
-x,-y,-z
loop_
_atom_site_type_symbol
_atom_site_label
_atom_site_fract_x
_atom_site_fract_y
_atom_site_fract_z
Si Si1 0.799035 0.610429 0.589820
Si Si2 0.368704 0.005511 0.410776
Si Si3 0.043115 0.611316 0.900709
Si Si4 0.331370 0.494313 0.225370
Si Si5 0.935012 0.066176 0.375309
Si Si6 0.458023 0.388496 0.094467
Si Si7 0.988110 0.303238 0.721462
O O1 0.727593 0.615894 0.682373
O O2 0.631376 0.454685 0.300091
O O3 0.861908 0.526647 0.675486
O O4 0.969964 0.841741 0.693291
O O5 0.504888 0.250763 0.570355
O O6 0.500000 0.000000 0.500000
O O7 0.228554 0.885294 0.419574
O O8 0.227671 0.870272 0.124120
O O9 0.072074 0.519733 0.793916
O O10 0.000000 0.500000 0.000000
O O11 0.416682 0.455256 0.197733
O O12 0.135822 0.368280 0.966456
O O13 0.710035 0.861539 0.121145
O O14 0.000000 0.000000 0.500000
O O15 0.985076 0.232055 0.547087
O O16 0.500000 0.500000 0.000000
#
# Coordination Sequence:
#
# PCOD8016597 Si02
#       7
#     2   2   2   2   2   2   2
#     4  12  26  45  70 104 138 181 236 287 339 413
#     4  11  21  38  71 103 132 176 225 284 351 400
#     4  10  21  45  68  99 142 168 226 293 341 400
#     4  12  23  41  71 106 135 179 231 288 343 409
#     4  12  26  47  70  96 145 190 226 283 347 408
#     4  12  26  47  67 100 146 184 231 280 342 418
#     4  11  22  45  72 100 140 184 225 282 353 406
#
# _framework density 21.338411000000001
#
# number of rings (size 3 to 8) (size 9 to 14) (size 15 to 20)
#    0.000    0.571    7.143    2.143    2.000    1.143 
#    0.000    0.714    0.000    0.000    0.000    0.000 
#    0.000    0.000    0.000    0.000    0.000    0.000 
#
# Total GULP energy -173498.993329 kJ/mol
# GULP energy per Si atom -12392.785238 kJ/mol
# Density = 2.128984 g / cm^3
# Si number density = 21.338411 Si / 1000 Ang^3
#
#
#
# Elastic Constant Matrix: (Units=GPa)
#
#
# Indices 1 2 3 4 5 6 
#
# 1 104.6278 37.5228 49.2563 -2.8158 -11.8711 -0.7619
# 2 37.5228 106.5451 55.1239 -9.6223 -6.1893 15.0537
# 3 49.2563 55.1239 160.0486 1.7838 6.1690 -4.6210
# 4 -2.8158 -9.6223 1.7838 41.1250 -10.8434 6.7682
# 5 -11.8711 -6.1893 6.1690 -10.8434 52.0968 -0.9969
# 6 -0.7619 15.0537 -4.6210 6.7682 -0.9969 38.9232
#
#
#
# Elastic Compliance Matrix: (Units=1/GPa)
#
#
# Indices 1 2 3 4 5 6 
#
# 1 0.012286 -0.002624 -0.002984 0.001035 0.003072 0.000800
# 2 -0.002624 0.014191 -0.004435 0.005140 0.002551 -0.006895
# 3 -0.002984 -0.004435 0.008925 -0.002886 -0.002804 0.003146
# 4 0.001035 0.005140 -0.002886 0.028743 0.007034 -0.007128
# 5 0.003072 0.002551 -0.002804 0.007034 0.021958 -0.001920
# 6 0.000800 -0.006895 0.003146 -0.007128 -0.001920 0.029938
#
#
# Mechanical properties :
#
#
# Convention : Reuss Voigt Hill
#
# Bulk Modulus (GPa) = 65.29144 72.78084 69.03614
# Shear Modulus (GPa) = 35.40308 41.71690 38.55999
#
# Velocity S-wave (km/s) = 4.07765 4.42635 4.25558
# Velocity P-wave (km/s) = 7.26871 7.76565 7.52129
#
# Compressibility (1/GPa) = 0.01531594
#
# Stress axis : x y z
#
# Youngs Moduli (GPa) = 81.39472 70.46831 112.04453
#
# Poissons Ratio (x) = 0.18490 0.33436
# Poissons Ratio (y) = 0.21357 0.49689
# Poissons Ratio (z) = 0.24290 0.31251
#
# Static dielectric constant tensor:
#      x y z
#    x 4.248460 0.024650 -0.076620 
#    y 0.024650 4.023550 0.166170 
#    z -0.076620 0.166170 4.373210 
# 
# 
# High freq. dielectric constant tensor:
#      x y z
#    x 1.846340 0.000570 0.006840 
#    y 0.000570 1.819560 0.005160 
#    z 0.006840 0.005160 1.854380 
# 
# From -- ./inp_files/305412.got.cif
#   From: 2010.06.25/outbox.cif.g09.slc.cpg/sg2_153_cif.got.tgz:305412.got - 2010.06.27 13:26:56.
