data_PCOD8016846
_publ_section_title
;
Structure prediction by ZEFSAII (Michael W. Deem and Ramdas Pophale) SiO2 
 PCOD8016846
Probable space group: P -1
;
_chemical_formula_sum "Si O2"
_cell_formula_units_Z 14
_cell_length_a 16.006111
_cell_length_b 18.258491
_cell_length_c 7.072129
_cell_angle_alpha 62.317316
_cell_angle_beta 141.546164
_cell_angle_gamma 146.209241
_cell_volume 602.348608
_symmetry_space_group_name_H-M "P -1"
_symmetry_group_IT_number 2
_symmetry_cell_setting 'triclinic'
loop_
_space_group_symop_operation_xyz
x,y,z
-x,-y,-z
loop_
_atom_site_type_symbol
_atom_site_label
_atom_site_fract_x
_atom_site_fract_y
_atom_site_fract_z
Si Si1 0.490904 0.648401 0.032270
Si Si2 0.775157 0.617008 0.905971
Si Si3 0.518992 0.224720 0.420197
Si Si4 0.422942 0.001977 0.056841
Si Si5 0.390271 0.166042 0.682898
Si Si6 0.824467 0.239444 0.801612
Si Si7 0.963553 0.880549 0.821959
O O1 0.273674 0.464480 0.894608
O O2 0.431065 0.692611 0.020249
O O3 0.782632 0.770359 0.447989
O O4 0.467560 0.673491 0.750648
O O5 0.500000 0.500000 0.500000
O O6 0.940460 0.787091 0.029064
O O7 0.888077 0.619063 0.934053
O O8 0.538516 0.233848 0.668326
O O9 0.755917 0.296619 0.673429
O O10 0.259028 0.045860 0.095568
O O11 0.667537 0.129256 0.471579
O O12 0.207960 0.838214 0.983125
O O13 0.316776 0.038211 0.786695
O O14 0.500000 0.000000 0.000000
O O15 0.133996 0.086483 0.287693
#
# Coordination Sequence:
#
# PCOD8016846 Si02
#       7
#     2   2   2   2   2   2   2
#     4   9  22  39  62  83 127 165 201 247 305 358
#     4  10  22  43  64  86 122 172 207 251 303 369
#     4  12  20  39  62  97 117 156 210 252 313 360
#     4  11  21  39  61 101 127 152 202 263 311 362
#     4  10  22  36  61  91 126 155 196 256 306 359
#     4  11  23  37  67  87 123 165 205 248 316 360
#     4   9  20  38  64  86 125 158 203 257 302 359
#
# _framework density 23.242356000000001
#
# number of rings (size 3 to 8) (size 9 to 14) (size 15 to 20)
#    0.857    0.857    2.857    2.571    0.000    1.714 
#    0.000    2.857    0.000    0.000    0.000    0.000 
#    0.000    0.000    0.000    0.000    0.000    0.000 
#
# Total GULP energy -173442.736604 kJ/mol
# GULP energy per Si atom -12388.766900 kJ/mol
# Density = 2.318946 g / cm^3
# Si number density = 23.242356 Si / 1000 Ang^3
#
#
#
# Elastic Constant Matrix: (Units=GPa)
#
#
# Indices 1 2 3 4 5 6 
#
# 1 67.7572 3.0482 31.0555 -6.0988 13.3965 9.2776
# 2 3.0482 172.5311 28.2133 -34.7234 10.7435 6.8251
# 3 31.0555 28.2133 44.4614 -8.3884 22.7448 5.3245
# 4 -6.0988 -34.7234 -8.3884 30.0842 9.8140 7.3791
# 5 13.3965 10.7435 22.7448 9.8140 40.0588 -8.2590
# 6 9.2776 6.8251 5.3245 7.3791 -8.2590 37.2996
#
#
#
# Elastic Compliance Matrix: (Units=1/GPa)
#
#
# Indices 1 2 3 4 5 6 
#
# 1 0.024042 0.004476 -0.014262 0.009647 -0.005115 -0.007804
# 2 0.004476 0.010618 0.000988 0.019631 -0.011710 -0.009674
# 3 -0.014262 0.000988 0.066040 0.037972 -0.047250 -0.024035
# 4 0.009647 0.019631 0.037972 0.100488 -0.064045 -0.045473
# 5 -0.005115 -0.011710 -0.047250 -0.064045 0.080725 0.040705
# 6 -0.007804 -0.009674 -0.024035 -0.045473 0.040705 0.051961
#
#
# Mechanical properties :
#
#
# Convention : Reuss Voigt Hill
#
# Bulk Modulus (GPa) = 12.03297 45.48706 28.76002
# Shear Modulus (GPa) = 13.18661 36.31737 24.75199
#
# Velocity S-wave (km/s) = 2.38450 3.95720 3.26690
# Velocity P-wave (km/s) = 3.57345 6.36337 5.16052
#
# Compressibility (1/GPa) = 0.08310499
#
# Stress axis : x y z
#
# Youngs Moduli (GPa) = 41.59334 94.17789 15.14231
#
# Poissons Ratio (x) = -0.42156 0.21596
# Poissons Ratio (y) = -0.18618 -0.01496
# Poissons Ratio (z) = 0.59321 -0.09305
#
# Static dielectric constant tensor:
#      x y z
#    x 3.952670 -0.049250 0.225400 
#    y -0.049250 5.076990 -0.275290 
#    z 0.225400 -0.275290 3.882630 
# 
# 
# High freq. dielectric constant tensor:
#      x y z
#    x 1.899390 0.004570 0.023750 
#    y 0.004570 1.927020 -0.028550 
#    z 0.023750 -0.028550 1.892230 
# 
# From -- ./inp_files/336929.got.cif
#   From: 2010.06.25/outbox.cif.g09.slc.cpg/sg2_169_cif.got.tgz:336929.got - 2010.06.27 13:26:56.
