data_PCOD8016502
_publ_section_title
;
Structure prediction by ZEFSAII (Michael W. Deem and Ramdas Pophale) SiO2 
 PCOD8016502
Probable space group: P -1
;
_chemical_formula_sum "Si O2"
_cell_formula_units_Z 16
_cell_length_a 15.607062
_cell_length_b 8.811276
_cell_length_c 7.769861
_cell_angle_alpha 73.490187
_cell_angle_beta 81.431709
_cell_angle_gamma 134.626528
_cell_volume 626.759924
_symmetry_space_group_name_H-M "P -1"
_symmetry_group_IT_number 2
_symmetry_cell_setting 'triclinic'
loop_
_space_group_symop_operation_xyz
x,y,z
-x,-y,-z
loop_
_atom_site_type_symbol
_atom_site_label
_atom_site_fract_x
_atom_site_fract_y
_atom_site_fract_z
Si Si1 0.461352 0.430685 0.298973
Si Si2 0.133682 0.703343 0.125714
Si Si3 0.344676 0.782746 0.182055
Si Si4 0.263849 0.363400 0.536109
Si Si5 0.209516 0.389973 0.928870
Si Si6 0.263724 0.147795 0.130602
Si Si7 0.489854 0.123636 0.330105
Si Si8 0.947020 0.204616 0.184146
O O1 0.408332 0.463451 0.465021
O O2 0.331988 0.269197 0.255859
O O3 0.467802 0.254814 0.397808
O O4 0.608528 0.702338 0.091325
O O5 0.251294 0.735552 0.083165
O O6 0.988111 0.394538 0.256501
O O7 0.154953 0.843547 0.243941
O O8 0.148156 0.840741 0.912827
O O9 0.277071 0.515615 0.335290
O O10 0.359787 0.910925 0.309696
O O11 0.500000 0.000000 0.000000
O O12 0.237837 0.408365 0.711266
O O13 0.136058 0.061443 0.624234
O O14 0.358570 0.654546 0.885970
O O15 0.170478 0.166015 0.098545
O O16 0.088256 0.343704 0.004843
O O17 0.500000 0.000000 0.500000
#
# Coordination Sequence:
#
# PCOD8016502 Si02
#       8
#     2   2   2   2   2   2   2   2
#     4  10  24  41  70 107 143 174 241 294 370 424
#     4  11  24  47  72 101 141 193 243 292 354 417
#     4  12  26  46  73 110 145 180 236 305 372 418
#     4  12  26  45  70 107 144 192 240 291 351 435
#     4  11  24  46  73 101 144 193 239 289 360 431
#     4  10  21  44  73 101 138 187 229 304 363 420
#     4  11  23  44  71 108 141 180 231 303 365 424
#     4  11  27  49  71 102 144 202 247 285 348 434
#
# _framework density 25.528116000000001
#
# number of rings (size 3 to 8) (size 9 to 14) (size 15 to 20)
#    0.000    1.000    3.750    1.875    5.250    5.500 
#    0.000    1.250    0.000    0.000    0.000    0.000 
#    0.000    0.000    0.000    0.000    0.000    0.000 
#
# Total GULP energy -198299.386397 kJ/mol
# GULP energy per Si atom -12393.711650 kJ/mol
# Density = 2.547001 g / cm^3
# Si number density = 25.528116 Si / 1000 Ang^3
#
#
#
# Elastic Constant Matrix: (Units=GPa)
#
#
# Indices 1 2 3 4 5 6 
#
# 1 172.5880 29.7347 45.8581 -8.2431 21.0564 -1.5892
# 2 29.7347 141.8764 29.1443 -29.2661 14.3515 -6.1279
# 3 45.8581 29.1443 79.2603 -17.0333 9.2032 -12.6936
# 4 -8.2431 -29.2661 -17.0333 31.6161 -10.4875 6.0252
# 5 21.0564 14.3515 9.2032 -10.4875 35.7019 -0.2258
# 6 -1.5892 -6.1279 -12.6936 6.0252 -0.2258 39.4829
#
#
#
# Elastic Compliance Matrix: (Units=1/GPa)
#
#
# Indices 1 2 3 4 5 6 
#
# 1 0.007358 -0.000795 -0.004132 -0.002062 -0.003566 -0.000861
# 2 -0.000795 0.009037 -0.001239 0.007284 -0.000706 -0.000143
# 3 -0.004132 -0.001239 0.017505 0.006512 0.000362 0.004278
# 4 -0.002062 0.007284 0.006512 0.045337 0.009904 -0.003721
# 5 -0.003566 -0.000706 0.000362 0.009904 0.033203 -0.001458
# 6 -0.000861 -0.000143 0.004278 -0.003721 -0.001458 0.027205
#
#
# Mechanical properties :
#
#
# Convention : Reuss Voigt Hill
#
# Bulk Modulus (GPa) = 46.36270 67.02208 56.69239
# Shear Modulus (GPa) = 31.41378 40.62603 36.01990
#
# Velocity S-wave (km/s) = 3.51173 3.99359 3.76039
# Velocity P-wave (km/s) = 5.88591 6.89755 6.41171
#
# Compressibility (1/GPa) = 0.02156907
#
# Stress axis : x y z
#
# Youngs Moduli (GPa) = 135.91425 110.65341 57.12652
#
# Poissons Ratio (x) = 0.08799 0.23602
# Poissons Ratio (y) = 0.10808 0.07075
# Poissons Ratio (z) = 0.56155 0.13705
#
# Static dielectric constant tensor:
#      x y z
#    x 4.706620 -0.063030 0.117150 
#    y -0.063030 7.925130 -0.148730 
#    z 0.117150 -0.148730 4.196190 
# 
# 
# High freq. dielectric constant tensor:
#      x y z
#    x 2.029760 -0.006740 0.014590 
#    y -0.006740 2.048020 -0.000690 
#    z 0.014590 -0.000690 1.978740 
# 
# From -- ./inp_files/297886.got.cif
#   From: 2010.06.25/outbox.cif.g09.slc.cpg/sg2_149_cif.got.tgz:297886.got - 2010.06.27 13:26:56.
