data_PCOD8016323
_publ_section_title
;
Structure prediction by ZEFSAII (Michael W. Deem and Ramdas Pophale) SiO2 
 PCOD8016323
Probable space group: P -1
;
_chemical_formula_sum "Si O2"
_cell_formula_units_Z 16
_cell_length_a 24.611578
_cell_length_b 7.003119
_cell_length_c 5.207858
_cell_angle_alpha 93.012508
_cell_angle_beta 52.667780
_cell_angle_gamma 98.159937
_cell_volume 705.855957
_symmetry_space_group_name_H-M "P -1"
_symmetry_group_IT_number 2
_symmetry_cell_setting 'triclinic'
loop_
_space_group_symop_operation_xyz
x,y,z
-x,-y,-z
loop_
_atom_site_type_symbol
_atom_site_label
_atom_site_fract_x
_atom_site_fract_y
_atom_site_fract_z
Si Si1 0.768291 0.531428 0.413151
Si Si2 0.546641 0.530337 0.118610
Si Si3 0.890867 0.836567 0.029973
Si Si4 0.984920 0.370807 0.286162
Si Si5 0.140493 0.936068 0.369893
Si Si6 0.344104 0.243923 0.466508
Si Si7 0.279725 0.836688 0.779666
Si Si8 0.340688 0.546660 0.900315
O O1 0.847704 0.623016 0.174684
O O2 0.726330 0.671187 0.382207
O O3 0.759056 0.310972 0.326519
O O4 0.737987 0.526758 0.788635
O O5 0.500000 0.500000 0.500000
O O6 0.607213 0.395696 0.999851
O O7 0.500000 0.500000 0.000000
O O8 0.596928 0.731525 0.924954
O O9 0.868478 0.975479 0.320115
O O10 0.880355 0.926312 0.787560
O O11 0.969783 0.805516 0.844826
O O12 0.000000 0.500000 0.500000
O O13 0.905597 0.273368 0.517188
O O14 0.000000 0.500000 0.000000
O O15 0.220732 0.909246 0.128206
O O16 0.371700 0.373381 0.646526
O O17 0.326600 0.017025 0.532344
O O18 0.337136 0.737733 0.760601
#
# Coordination Sequence:
#
# PCOD8016323 Si02
#       8
#     2   2   2   2   2   2   2   2
#     4  10  23  39  66  98 140 182 229 290 346 410
#     4  11  22  44  74  99 138 185 225 277 348 410
#     4  12  25  45  69  98 141 182 242 283 356 417
#     4  12  26  45  70 100 141 184 242 294 347 414
#     4  12  26  44  70 100 138 190 231 289 355 415
#     4  10  21  44  67 102 136 183 225 284 344 412
#     4  11  24  41  69 105 140 178 239 284 350 413
#     4  10  23  40  71  98 141 177 232 282 343 404
#
# _framework density 22.667514000000001
#
# number of rings (size 3 to 8) (size 9 to 14) (size 15 to 20)
#    0.000    1.000    2.500    3.750    5.250    2.000 
#    0.000    1.250    0.000    0.000    0.000    0.000 
#    0.000    0.000    0.000    0.000    0.000    0.000 
#
# Total GULP energy -198228.198420 kJ/mol
# GULP energy per Si atom -12389.262401 kJ/mol
# Density = 2.261592 g / cm^3
# Si number density = 22.667514 Si / 1000 Ang^3
#
#
#
# Elastic Constant Matrix: (Units=GPa)
#
#
# Indices 1 2 3 4 5 6 
#
# 1 85.2968 33.4822 27.9186 -10.8985 3.6610 3.8007
# 2 33.4822 129.7651 43.2956 -20.7336 3.5975 2.1840
# 3 27.9186 43.2956 129.6796 -24.8352 3.7745 5.3387
# 4 -10.8985 -20.7336 -24.8352 35.6359 8.4717 5.2297
# 5 3.6610 3.5975 3.7745 8.4717 38.4370 -4.0713
# 6 3.8007 2.1840 5.3387 5.2297 -4.0713 22.6956
#
#
#
# Elastic Compliance Matrix: (Units=1/GPa)
#
#
# Indices 1 2 3 4 5 6 
#
# 1 0.013716 -0.002562 -0.001466 0.002477 -0.001743 -0.002589
# 2 -0.002562 0.009696 -0.001786 0.004175 -0.001548 -0.001323
# 3 -0.001466 -0.001786 0.010169 0.006811 -0.002618 -0.004014
# 4 0.002477 0.004175 0.006811 0.040839 -0.011773 -0.013941
# 5 -0.001743 -0.001548 -0.002618 -0.011773 0.030152 0.009178
# 6 -0.002589 -0.001323 -0.004014 -0.013941 0.009178 0.050425
#
#
# Mechanical properties :
#
#
# Convention : Reuss Voigt Hill
#
# Bulk Modulus (GPa) = 45.55459 61.57048 53.56254
# Shear Modulus (GPa) = 28.74501 35.35670 32.05085
#
# Velocity S-wave (km/s) = 3.56492 3.95371 3.76434
# Velocity P-wave (km/s) = 6.08978 6.93281 6.52492
#
# Compressibility (1/GPa) = 0.02195168
#
# Stress axis : x y z
#
# Youngs Moduli (GPa) = 72.90770 103.13945 98.33742
#
# Poissons Ratio (x) = 0.26428 0.14414
# Poissons Ratio (y) = 0.18682 0.17566
# Poissons Ratio (z) = 0.10687 0.18424
#
# Static dielectric constant tensor:
#      x y z
#    x 4.665240 0.093670 -0.015100 
#    y 0.093670 3.944850 -0.046340 
#    z -0.015100 -0.046340 4.516880 
# 
# 
# High freq. dielectric constant tensor:
#      x y z
#    x 1.902080 -0.004310 0.002020 
#    y -0.004310 1.871050 -0.015870 
#    z 0.002020 -0.015870 1.915570 
# 
# From -- ./inp_files/11100.got.cif
#   From: 2010.06.25/outbox.cif.g09.slc.cpg/sg2_6_cif.got.tgz:11100.got - 2010.06.27 13:26:56.
