data_PCOD8016771
_publ_section_title
;
Structure prediction by ZEFSAII (Michael W. Deem and Ramdas Pophale) SiO2 
 PCOD8016771
Probable space group: P -1
;
_chemical_formula_sum "Si O2"
_cell_formula_units_Z 16
_cell_length_a 9.856585
_cell_length_b 12.356326
_cell_length_c 8.613916
_cell_angle_alpha 60.204546
_cell_angle_beta 101.916420
_cell_angle_gamma 120.004164
_cell_volume 787.175704
_symmetry_space_group_name_H-M "P -1"
_symmetry_group_IT_number 2
_symmetry_cell_setting 'triclinic'
loop_
_space_group_symop_operation_xyz
x,y,z
-x,-y,-z
loop_
_atom_site_type_symbol
_atom_site_label
_atom_site_fract_x
_atom_site_fract_y
_atom_site_fract_z
Si Si1 0.607507 0.117486 0.321057
Si Si2 0.074125 0.863128 0.723822
Si Si3 0.813099 0.366948 0.401567
Si Si4 0.985872 0.398944 0.927240
Si Si5 0.878450 0.929773 0.157758
Si Si6 0.094806 0.297838 0.496420
Si Si7 0.707988 0.385858 0.698467
Si Si8 0.457222 0.117738 0.971334
O O1 0.742744 0.085182 0.306992
O O2 0.688261 0.264498 0.323702
O O3 0.500000 0.000000 0.500000
O O4 0.499210 0.132850 0.152296
O O5 0.965085 0.812107 0.582379
O O6 0.061502 0.987516 0.723215
O O7 0.996871 0.732398 0.916205
O O8 0.722686 0.365053 0.535304
O O9 0.885430 0.521241 0.231591
O O10 0.954076 0.329349 0.496208
O O11 0.814507 0.338300 0.857294
O O12 0.000000 0.500000 0.000000
O O13 0.856019 0.773120 0.301047
O O14 0.725490 0.935493 0.056105
O O15 0.000000 0.000000 0.000000
O O16 0.244196 0.448728 0.377268
O O17 0.535767 0.270176 0.793881
O O18 0.500000 0.000000 0.000000
#
# Coordination Sequence:
#
# PCOD8016771 Si02
#       8
#     2   2   2   2   2   2   2   2
#     4  11  22  37  66  98 129 162 215 268 325 374
#     4  11  22  41  67  92 131 171 214 265 320 389
#     4  10  22  34  66 102 129 162 214 272 318 384
#     4  11  16  35  62 100 125 159 212 270 322 373
#     4  12  29  43  63  93 135 176 217 262 324 394
#     4  10  23  41  63  92 132 174 208 259 331 386
#     4  11  21  38  68  98 130 164 221 270 321 379
#     4  12  24  44  69  95 128 171 217 275 325 376
#
# _framework density 20.325828999999999
#
# number of rings (size 3 to 8) (size 9 to 14) (size 15 to 20)
#    0.000    1.000    6.250    2.625    8.750    0.500 
#    0.000    0.000    0.000    1.500    0.000    0.000 
#    0.000    0.000    0.000    0.000    0.000    0.000 
#
# Total GULP energy -198355.661683 kJ/mol
# GULP energy per Si atom -12397.228855 kJ/mol
# Density = 2.027957 g / cm^3
# Si number density = 20.325829 Si / 1000 Ang^3
#
#
#
# Elastic Constant Matrix: (Units=GPa)
#
#
# Indices 1 2 3 4 5 6 
#
# 1 80.6199 41.2139 55.3030 -6.9143 -7.1960 10.4676
# 2 41.2139 89.8582 32.7055 -6.0588 -4.0702 4.9942
# 3 55.3030 32.7055 137.0616 -16.3299 -3.6867 -1.5325
# 4 -6.9143 -6.0588 -16.3299 42.3265 -1.5401 -4.2460
# 5 -7.1960 -4.0702 -3.6867 -1.5401 37.0994 0.1162
# 6 10.4676 4.9942 -1.5325 -4.2460 0.1162 19.6549
#
#
#
# Elastic Compliance Matrix: (Units=1/GPa)
#
#
# Indices 1 2 3 4 5 6 
#
# 1 0.022957 -0.007019 -0.007791 -0.001294 0.002890 -0.011347
# 2 -0.007019 0.014603 -0.000555 0.000752 0.000216 0.000146
# 3 -0.007791 -0.000555 0.011045 0.003489 -0.000348 0.005907
# 4 -0.001294 0.000752 0.003489 0.025543 0.001219 0.006281
# 5 0.002890 0.000216 -0.000348 0.001219 0.027560 -0.001521
# 6 -0.011347 0.000146 0.005907 0.006281 -0.001521 0.058710
#
#
# Mechanical properties :
#
#
# Convention : Reuss Voigt Hill
#
# Bulk Modulus (GPa) = 55.95141 62.88715 59.41928
# Shear Modulus (GPa) = 25.36709 31.70398 28.53553
#
# Velocity S-wave (km/s) = 3.53657 3.95370 3.75094
# Velocity P-wave (km/s) = 6.65308 7.20063 6.93226
#
# Compressibility (1/GPa) = 0.01787265
#
# Stress axis : x y z
#
# Youngs Moduli (GPa) = 43.55947 68.48124 90.54270
#
# Poissons Ratio (x) = 0.48069 0.70544
# Poissons Ratio (y) = 0.30576 0.05027
# Poissons Ratio (z) = 0.33938 0.03802
#
# Static dielectric constant tensor:
#      x y z
#    x 2.862670 0.322720 -0.487660 
#    y 0.322720 3.749120 0.421430 
#    z -0.487660 0.421430 3.146390 
# 
# 
# High freq. dielectric constant tensor:
#      x y z
#    x 1.749970 0.010690 -0.007060 
#    y 0.010690 1.811380 0.001420 
#    z -0.007060 0.001420 1.815720 
# 
# From -- ./inp_files/185112.got.cif
#   From: 2010.06.25/outbox.cif.g09.slc.cpg/sg2_93_cif.got.tgz:185112.got - 2010.06.27 13:26:56.
