data_PCOD8016622
_publ_section_title
;
Structure prediction by ZEFSAII (Michael W. Deem and Ramdas Pophale) SiO2 
 PCOD8016622
Probable space group: P -1
;
_chemical_formula_sum "Si O2"
_cell_formula_units_Z 16
_cell_length_a 21.930253
_cell_length_b 8.861409
_cell_length_c 7.118042
_cell_angle_alpha 115.057246
_cell_angle_beta 139.265735
_cell_angle_gamma 53.478018
_cell_volume 724.406241
_symmetry_space_group_name_H-M "P -1"
_symmetry_group_IT_number 2
_symmetry_cell_setting 'triclinic'
loop_
_space_group_symop_operation_xyz
x,y,z
-x,-y,-z
loop_
_atom_site_type_symbol
_atom_site_label
_atom_site_fract_x
_atom_site_fract_y
_atom_site_fract_z
Si Si1 0.270236 0.778969 0.277491
Si Si2 0.310712 0.580111 0.893017
Si Si3 0.564364 0.834065 0.205001
Si Si4 0.584445 0.288821 0.076674
Si Si5 0.110807 0.560006 0.305551
Si Si6 0.228621 0.164793 0.221674
Si Si7 0.935317 0.204228 0.036129
Si Si8 0.036735 0.327351 0.632441
O O1 0.357609 0.768820 0.619510
O O2 0.218607 0.984790 0.174205
O O3 0.323857 0.613866 0.160822
O O4 0.184357 0.744084 0.171032
O O5 0.383816 0.363774 0.892352
O O6 0.337564 0.729801 0.921930
O O7 0.188137 0.642000 0.600448
O O8 0.650807 0.871735 0.540158
O O9 0.480015 0.831766 0.159583
O O10 0.500000 0.000000 0.000000
O O11 0.500000 0.500000 0.000000
O O12 0.174299 0.333939 0.333492
O O13 0.012477 0.619447 0.246030
O O14 0.068183 0.640228 0.039343
O O15 0.163912 0.225493 0.904816
O O16 0.996961 0.194179 0.367176
O O17 0.000000 0.000000 0.000000
O O18 0.000000 0.500000 0.500000
#
# Coordination Sequence:
#
# PCOD8016622 Si02
#       8
#     2   2   2   2   2   2   2   2
#     4  12  24  44  69 105 135 179 233 286 338 415
#     4  10  23  42  72  99 135 178 231 277 346 411
#     4  10  21  45  70  98 135 182 225 289 344 400
#     4  10  22  42  72  93 135 178 226 284 350 393
#     4  11  23  47  66 100 138 184 226 284 342 416
#     4  11  25  42  70  97 143 180 232 280 344 411
#     4  12  27  43  72 101 140 183 228 283 345 408
#     4  12  26  44  70 101 138 184 230 279 346 413
#
# _framework density 22.087054999999999
#
# number of rings (size 3 to 8) (size 9 to 14) (size 15 to 20)
#    0.000    1.000    5.000    1.125    3.500    3.000 
#    0.000    1.875    0.000    0.000    0.000    0.000 
#    0.000    0.000    0.000    0.000    0.000    0.000 
#
# Total GULP energy -198370.559589 kJ/mol
# GULP energy per Si atom -12398.159974 kJ/mol
# Density = 2.203678 g / cm^3
# Si number density = 22.087055 Si / 1000 Ang^3
#
#
#
# Elastic Constant Matrix: (Units=GPa)
#
#
# Indices 1 2 3 4 5 6 
#
# 1 122.5023 24.3248 46.3577 -0.6381 9.1022 23.8509
# 2 24.3248 78.2330 19.0412 -12.3256 -2.7282 11.9630
# 3 46.3577 19.0412 137.1506 -15.5448 17.8325 5.8234
# 4 -0.6381 -12.3256 -15.5448 37.7035 1.4998 -5.5682
# 5 9.1022 -2.7282 17.8325 1.4998 42.8706 6.0794
# 6 23.8509 11.9630 5.8234 -5.5682 6.0794 33.5745
#
#
#
# Elastic Compliance Matrix: (Units=1/GPa)
#
#
# Indices 1 2 3 4 5 6 
#
# 1 0.011300 -0.002010 -0.003588 -0.003013 0.000093 -0.007206
# 2 -0.002010 0.014873 -0.001095 0.003780 0.002186 -0.003451
# 3 -0.003588 -0.001095 0.009492 0.004035 -0.003772 0.002645
# 4 -0.003013 0.003780 0.004035 0.030304 -0.002652 0.005600
# 5 0.000093 0.002186 -0.003772 -0.002652 0.025861 -0.005313
# 6 -0.007206 -0.003451 0.002645 0.005600 -0.005313 0.037565
#
#
# Mechanical properties :
#
#
# Convention : Reuss Voigt Hill
#
# Bulk Modulus (GPa) = 44.88425 57.48149 51.18287
# Shear Modulus (GPa) = 33.28752 39.37386 36.33069
#
# Velocity S-wave (km/s) = 3.88636 4.22674 4.06012
# Velocity P-wave (km/s) = 6.36428 7.06413 6.72332
#
# Compressibility (1/GPa) = 0.02227953
#
# Stress axis : x y z
#
# Youngs Moduli (GPa) = 88.49258 67.23516 105.35638
#
# Poissons Ratio (x) = 0.13514 0.37803
# Poissons Ratio (y) = 0.17786 0.11534
# Poissons Ratio (z) = 0.31752 0.07361
#
# Static dielectric constant tensor:
#      x y z
#    x 4.094790 0.036960 -0.274900 
#    y 0.036960 3.721410 -0.219580 
#    z -0.274900 -0.219580 3.817460 
# 
# 
# High freq. dielectric constant tensor:
#      x y z
#    x 1.868740 0.017580 0.020710 
#    y 0.017580 1.867030 0.000450 
#    z 0.020710 0.000450 1.879860 
# 
# From -- ./inp_files/117209.got.cif
#   From: 2010.06.25/outbox.cif.g09.slc.cpg/sg2_59_cif.got.tgz:117209.got - 2010.06.27 13:26:56.
