data_PCOD8016862
_publ_section_title
;
Structure prediction by ZEFSAII (Michael W. Deem and Ramdas Pophale) SiO2 
 PCOD8016862
Probable space group: P -1
;
_chemical_formula_sum "Si O2"
_cell_formula_units_Z 12
_cell_length_a 10.700116
_cell_length_b 10.777413
_cell_length_c 4.945944
_cell_angle_alpha 88.387084
_cell_angle_beta 89.064845
_cell_angle_gamma 59.283321
_cell_volume 490.148575
_symmetry_space_group_name_H-M "P -1"
_symmetry_group_IT_number 2
_symmetry_cell_setting 'triclinic'
loop_
_space_group_symop_operation_xyz
x,y,z
-x,-y,-z
loop_
_atom_site_type_symbol
_atom_site_label
_atom_site_fract_x
_atom_site_fract_y
_atom_site_fract_z
Si Si1 0.594715 0.594116 0.276849
Si Si2 0.108324 0.193453 0.201202
Si Si3 0.169267 0.420067 0.071862
Si Si4 0.595362 0.308900 0.224059
Si Si5 0.909253 0.297587 0.701371
Si Si6 0.169535 0.912143 0.429515
O O1 0.645739 0.425518 0.258197
O O2 0.540553 0.653444 0.575084
O O3 0.730863 0.612594 0.194178
O O4 0.458651 0.691085 0.075822
O O5 0.206991 0.268503 0.220155
O O6 0.969410 0.274282 0.396998
O O7 0.206636 0.021816 0.267442
O O8 0.047311 0.216545 0.898230
O O9 0.190987 0.529455 0.259582
O O10 0.000000 0.500000 0.000000
O O11 0.730606 0.150430 0.302831
O O12 0.807957 0.225018 0.744635
O O13 0.000000 0.000000 0.500000
#
# Coordination Sequence:
#
# PCOD8016862 Si02
#       6
#     2   2   2   2   2   2
#     4  10  24  42  64  94 128 170 216 266 317 377
#     4  10  22  40  56  98 128 168 204 266 328 374
#     4  10  23  40  68  95 132 167 219 265 320 379
#     4  10  24  42  64  94 128 170 216 266 317 377
#     4  10  22  36  62  94 132 162 214 266 314 370
#     4  10  23  40  68  95 132 167 219 265 320 379
#
# _framework density 24.482374
#
# number of rings (size 3 to 8) (size 9 to 14) (size 15 to 20)
#    0.000    2.000    0.000    1.000   16.333    5.333 
#    0.000    1.667    0.000    0.000    0.000    0.000 
#    0.000    0.000    0.000    0.000    0.000    0.000 
#
# Total GULP energy -148779.639807 kJ/mol
# GULP energy per Si atom -12398.303317 kJ/mol
# Density = 2.442665 g / cm^3
# Si number density = 24.482374 Si / 1000 Ang^3
#
#
#
# Elastic Constant Matrix: (Units=GPa)
#
#
# Indices 1 2 3 4 5 6 
#
# 1 110.0507 58.5379 12.6954 -16.5737 -36.0493 20.4674
# 2 58.5379 122.9247 25.8879 -42.4607 -2.8857 36.3937
# 3 12.6954 25.8879 52.8307 -16.7988 -11.1349 9.7078
# 4 -16.5737 -42.4607 -16.7988 45.4335 3.6384 0.8134
# 5 -36.0493 -2.8857 -11.1349 3.6384 34.0438 -12.6662
# 6 20.4674 36.3937 9.7078 0.8134 -12.6662 58.2060
#
#
#
# Elastic Compliance Matrix: (Units=1/GPa)
#
#
# Indices 1 2 3 4 5 6 
#
# 1 0.025025 -0.017258 0.004939 -0.007751 0.030417 0.007894
# 2 -0.017258 0.029665 -0.005849 0.021706 -0.026534 -0.017582
# 3 0.004939 -0.005849 0.024549 0.004405 0.012470 0.000479
# 4 -0.007751 0.021706 0.004405 0.042595 -0.015243 -0.015493
# 5 0.030417 -0.026534 0.012470 -0.015243 0.072402 0.019783
# 6 0.007894 -0.017582 0.000479 -0.015493 0.019783 0.029839
#
#
# Mechanical properties :
#
#
# Convention : Reuss Voigt Hill
#
# Bulk Modulus (GPa) = 23.30877 53.33875 38.32376
# Shear Modulus (GPa) = 18.20084 40.11565 29.15825
#
# Velocity S-wave (km/s) = 2.72954 4.05229 3.45482
# Velocity P-wave (km/s) = 4.41307 6.61277 5.62156
#
# Compressibility (1/GPa) = 0.04290230
#
# Stress axis : x y z
#
# Youngs Moduli (GPa) = 39.96025 33.70952 40.73513
#
# Poissons Ratio (x) = 0.58175 -0.20118
# Poissons Ratio (y) = 0.68962 0.23827
# Poissons Ratio (z) = -0.19735 0.19718
#
# Static dielectric constant tensor:
#      x y z
#    x 4.535780 0.705360 -0.211360 
#    y 0.705360 4.977940 -0.300870 
#    z -0.211360 -0.300870 4.395990 
# 
# 
# High freq. dielectric constant tensor:
#      x y z
#    x 1.958220 0.007040 -0.010030 
#    y 0.007040 1.960840 -0.015400 
#    z -0.010030 -0.015400 1.977400 
# 
# From -- ./inp_files/63807.got.cif
#   From: 2010.06.25/outbox.cif.g09.slc.cpg/sg2_32_cif.got.tgz:63807.got - 2010.06.27 13:26:56.
