data_PCOD8016676
_publ_section_title
;
Structure prediction by ZEFSAII (Michael W. Deem and Ramdas Pophale) SiO2 
 PCOD8016676
Probable space group: P -1
;
_chemical_formula_sum "Si O2"
_cell_formula_units_Z 16
_cell_length_a 11.628287
_cell_length_b 11.179167
_cell_length_c 12.074707
_cell_angle_alpha 51.271177
_cell_angle_beta 102.272841
_cell_angle_gamma 62.571413
_cell_volume 750.617232
_symmetry_space_group_name_H-M "P -1"
_symmetry_group_IT_number 2
_symmetry_cell_setting 'triclinic'
loop_
_space_group_symop_operation_xyz
x,y,z
-x,-y,-z
loop_
_atom_site_type_symbol
_atom_site_label
_atom_site_fract_x
_atom_site_fract_y
_atom_site_fract_z
Si Si1 0.016913 0.294377 0.392685
Si Si2 0.647731 0.506728 0.141134
Si Si3 0.986346 0.352940 0.833629
Si Si4 0.440612 0.215375 0.426103
Si Si5 0.312630 0.870677 0.299134
Si Si6 0.395798 0.458668 0.636590
Si Si7 0.045550 0.631344 0.423591
Si Si8 0.404504 0.784359 0.735793
O O1 0.858343 0.356594 0.263631
O O2 0.043102 0.206159 0.576827
O O3 0.946788 0.539706 0.225935
O O4 0.219170 0.073415 0.505342
O O5 0.557988 0.607300 0.186245
O O6 0.662303 0.321152 0.204645
O O7 0.509198 0.737897 0.895322
O O8 0.768985 0.571012 0.695001
O O9 0.022859 0.237804 0.786353
O O10 0.104813 0.144262 0.071781
O O11 0.579883 0.111351 0.616470
O O12 0.457018 0.335665 0.270536
O O13 0.500000 0.000000 0.500000
O O14 0.294149 0.726436 0.441302
O O15 0.412995 0.743238 0.275647
O O16 0.266632 0.447222 0.579890
O O17 0.000000 0.500000 0.500000
#
# Coordination Sequence:
#
# PCOD8016676 Si02
#       8
#     2   2   2   2   2   2   2   2
#     4  10  22  41  65  93 131 168 216 274 318 380
#     4  10  23  42  64  97 123 173 220 265 324 388
#     4  11  24  42  65  99 126 172 223 259 335 387
#     4  12  25  45  66  92 140 170 214 273 318 395
#     4  11  25  42  69  97 130 176 216 273 324 387
#     4  10  21  46  67  95 138 164 221 277 321 378
#     4   9  20  41  64  95 131 165 211 269 321 380
#     4  11  23  42  66  92 131 174 218 261 328 388
#
# _framework density 21.315791999999998
#
# number of rings (size 3 to 8) (size 9 to 14) (size 15 to 20)
#    0.000    1.500    3.750    0.375    3.500    2.000 
#    9.000    1.875    0.000    0.000    0.000    0.000 
#    0.000    0.000    0.000    0.000    0.000    0.000 
#
# Total GULP energy -198318.793573 kJ/mol
# GULP energy per Si atom -12394.924598 kJ/mol
# Density = 2.126728 g / cm^3
# Si number density = 21.315792 Si / 1000 Ang^3
#
#
#
# Elastic Constant Matrix: (Units=GPa)
#
#
# Indices 1 2 3 4 5 6 
#
# 1 106.1187 30.6811 45.0591 8.4041 16.4572 0.1670
# 2 30.6811 78.1011 45.1503 19.4904 10.5333 2.4696
# 3 45.0591 45.1503 115.8886 21.2927 18.7687 4.6958
# 4 8.4041 19.4904 21.2927 34.7945 3.8241 -1.9687
# 5 16.4572 10.5333 18.7687 3.8241 26.9532 7.0825
# 6 0.1670 2.4696 4.6958 -1.9687 7.0825 34.7511
#
#
#
# Elastic Compliance Matrix: (Units=1/GPa)
#
#
# Indices 1 2 3 4 5 6 
#
# 1 0.012194 -0.002613 -0.003220 0.001102 -0.004758 0.001594
# 2 -0.002613 0.018407 -0.004700 -0.006721 -0.001160 -0.000805
# 3 -0.003220 -0.004700 0.013274 -0.004244 -0.004644 -0.000738
# 4 0.001102 -0.006721 -0.004244 0.035120 -0.000920 0.003223
# 5 -0.004758 -0.001160 -0.004644 -0.000920 0.046115 -0.008718
# 6 0.001594 -0.000805 -0.000738 0.003223 -0.008718 0.030885
#
#
# Mechanical properties :
#
#
# Convention : Reuss Voigt Hill
#
# Bulk Modulus (GPa) = 43.84100 60.20992 52.02546
# Shear Modulus (GPa) = 27.07652 31.24761 29.16207
#
# Velocity S-wave (km/s) = 3.56793 3.83291 3.70279
# Velocity P-wave (km/s) = 6.13071 6.92071 6.53765
#
# Compressibility (1/GPa) = 0.02280970
#
# Stress axis : x y z
#
# Youngs Moduli (GPa) = 82.00765 54.32851 75.33630
#
# Poissons Ratio (x) = 0.14194 0.24257
# Poissons Ratio (y) = 0.21425 0.35408
# Poissons Ratio (z) = 0.26405 0.25534
#
# Static dielectric constant tensor:
#      x y z
#    x 4.045500 0.009150 -0.020210 
#    y 0.009150 3.988960 0.358570 
#    z -0.020210 0.358570 3.691290 
# 
# 
# High freq. dielectric constant tensor:
#      x y z
#    x 1.852360 -0.002150 0.005880 
#    y -0.002150 1.836940 0.025720 
#    z 0.005880 0.025720 1.815580 
# 
# From -- ./inp_files/71250.got.cif
#   From: 2010.06.25/outbox.cif.g09.slc.cpg/sg2_36_cif.got.tgz:71250.got - 2010.06.27 13:26:56.
