data_PCOD8016699
_publ_section_title
;
Structure prediction by ZEFSAII (Michael W. Deem and Ramdas Pophale) SiO2 
 PCOD8016699
Probable space group: P -1
;
_chemical_formula_sum "Si O2"
_cell_formula_units_Z 16
_cell_length_a 5.342956
_cell_length_b 18.788603
_cell_length_c 22.194276
_cell_angle_alpha 162.118118
_cell_angle_beta 112.516570
_cell_angle_gamma 67.390352
_cell_volume 630.398629
_symmetry_space_group_name_H-M "P -1"
_symmetry_group_IT_number 2
_symmetry_cell_setting 'triclinic'
loop_
_space_group_symop_operation_xyz
x,y,z
-x,-y,-z
loop_
_atom_site_type_symbol
_atom_site_label
_atom_site_fract_x
_atom_site_fract_y
_atom_site_fract_z
Si Si1 0.632410 0.372371 0.081557
Si Si2 0.034801 0.397154 0.232739
Si Si3 0.606333 0.037692 0.215542
Si Si4 0.785783 0.980619 0.543358
Si Si5 0.099991 0.858918 0.189337
Si Si6 0.346239 0.478856 0.597380
Si Si7 0.745536 0.082146 0.126980
Si Si8 0.889296 0.368292 0.782578
O O1 0.918927 0.445044 0.193096
O O2 0.436660 0.604582 0.238620
O O3 0.669965 0.214853 0.898127
O O4 0.497129 0.220231 0.998538
O O5 0.839510 0.542707 0.378316
O O6 0.345709 0.458643 0.310851
O O7 0.013499 0.120534 0.022839
O O8 0.365786 0.224212 0.364645
O O9 0.679959 0.105780 0.210178
O O10 0.870418 0.039438 0.284886
O O11 0.946100 0.733514 0.342891
O O12 0.500000 0.000000 0.500000
O O13 0.764073 0.012190 0.638774
O O14 0.951857 0.191501 0.701289
O O15 0.977745 0.623261 0.012145
O O16 0.188018 0.664984 0.687875
O O17 0.500000 0.000000 0.000000
#
# Coordination Sequence:
#
# PCOD8016699 Si02
#       8
#     2   2   2   2   2   2   2   2
#     4  11  24  44  69  97 145 187 234 292 360 435
#     4  11  24  44  70 102 141 192 240 298 365 434
#     4  11  25  44  64 105 140 185 240 301 361 425
#     4  11  25  46  73 105 141 178 239 289 361 435
#     4  11  25  45  69 100 144 185 236 293 362 429
#     4  11  26  42  71 103 143 188 247 308 360 430
#     4  10  21  46  70  98 138 191 241 296 363 431
#     4  10  25  45  71 103 137 189 228 295 355 438
#
# _framework density 25.380765
#
# number of rings (size 3 to 8) (size 9 to 14) (size 15 to 20)
#    0.000    1.250    1.250    3.375    5.250    8.000 
#    0.000    3.750    0.000    0.000    0.000    0.000 
#    0.000    0.000    0.000    0.000    0.000    0.000 
#
# Total GULP energy -198406.842670 kJ/mol
# GULP energy per Si atom -12400.427667 kJ/mol
# Density = 2.532300 g / cm^3
# Si number density = 25.380765 Si / 1000 Ang^3
#
#
#
# Elastic Constant Matrix: (Units=GPa)
#
#
# Indices 1 2 3 4 5 6 
#
# 1 90.2323 16.3763 3.1470 -11.7557 -30.2142 -3.2052
# 2 16.3763 116.8090 29.4049 -23.0625 -10.9957 -0.4144
# 3 3.1470 29.4049 83.7355 -2.4338 -34.3638 -0.4964
# 4 -11.7557 -23.0625 -2.4338 47.2142 1.0712 -8.7196
# 5 -30.2142 -10.9957 -34.3638 1.0712 49.6605 3.6054
# 6 -3.2052 -0.4144 -0.4964 -8.7196 3.6054 36.5557
#
#
#
# Elastic Compliance Matrix: (Units=1/GPa)
#
#
# Indices 1 2 3 4 5 6 
#
# 1 0.016021 -0.001737 0.005438 0.003305 0.012984 0.000967
# 2 -0.001737 0.010669 -0.004298 0.004830 -0.001863 0.001246
# 3 0.005438 -0.004298 0.019877 -0.000266 0.016187 -0.000962
# 4 0.003305 0.004830 -0.000266 0.025455 0.001895 0.006226
# 5 0.012984 -0.001863 0.016187 0.001895 0.038933 -0.002051
# 6 0.000967 0.001246 -0.000962 0.006226 -0.002051 0.029129
#
#
# Mechanical properties :
#
#
# Convention : Reuss Voigt Hill
#
# Bulk Modulus (GPa) = 22.03967 43.18146 32.61057
# Shear Modulus (GPa) = 31.96901 42.80933 37.38917
#
# Velocity S-wave (km/s) = 3.55290 4.11138 3.84230
# Velocity P-wave (km/s) = 5.05305 6.29193 5.70621
#
# Compressibility (1/GPa) = 0.04537273
#
# Stress axis : x y z
#
# Youngs Moduli (GPa) = 62.41910 93.72837 50.31003
#
# Poissons Ratio (x) = 0.16279 -0.27360
# Poissons Ratio (y) = 0.10841 0.21625
# Poissons Ratio (z) = -0.33945 0.40287
#
# Static dielectric constant tensor:
#      x y z
#    x 4.376940 -0.094530 -0.208820 
#    y -0.094530 4.726000 0.418940 
#    z -0.208820 0.418940 4.703880 
# 
# 
# High freq. dielectric constant tensor:
#      x y z
#    x 2.007380 -0.000040 -0.011390 
#    y -0.000040 2.021350 0.019810 
#    z -0.011390 0.019810 2.017200 
# 
# From -- ./inp_files/576805.got.cif
#   From: 2010.06.25/outbox.cif.g09.slc.cpg/sg2_289_cif.got.tgz:576805.got - 2010.06.27 13:26:56.
