data_PCOD8016379
_publ_section_title
;
Structure prediction by ZEFSAII (Michael W. Deem and Ramdas Pophale) SiO2 
 PCOD8016379
Probable space group: P -1
;
_chemical_formula_sum "Si O2"
_cell_formula_units_Z 16
_cell_length_a 12.099717
_cell_length_b 18.280834
_cell_length_c 16.163118
_cell_angle_alpha 30.633593
_cell_angle_beta 49.357160
_cell_angle_gamma 27.144638
_cell_volume 723.676970
_symmetry_space_group_name_H-M "P -1"
_symmetry_group_IT_number 2
_symmetry_cell_setting 'triclinic'
loop_
_space_group_symop_operation_xyz
x,y,z
-x,-y,-z
loop_
_atom_site_type_symbol
_atom_site_label
_atom_site_fract_x
_atom_site_fract_y
_atom_site_fract_z
Si Si1 0.795728 0.197439 0.118844
Si Si2 0.315224 0.722162 0.591357
Si Si3 0.755208 0.700695 0.126518
Si Si4 0.097833 0.732760 0.548608
Si Si5 0.934567 0.390170 0.813860
Si Si6 0.557453 0.026803 0.144407
Si Si7 0.715111 0.183993 0.997487
Si Si8 0.434828 0.885823 0.460740
O O1 0.500000 0.500000 0.000000
O O2 0.970802 0.191384 0.011859
O O3 0.757355 0.120370 0.135947
O O4 0.963041 0.963850 0.330341
O O5 0.335999 0.623135 0.589363
O O6 0.479388 0.502529 0.796819
O O7 0.448365 0.769714 0.486045
O O8 0.000000 0.000000 0.500000
O O9 0.761624 0.522853 0.316848
O O10 0.031889 0.544023 0.181591
O O11 0.717126 0.750173 0.997553
O O12 0.500000 0.000000 0.000000
O O13 0.872302 0.854860 0.602744
O O14 0.636743 0.671038 0.645995
O O15 0.167987 0.246600 0.774779
O O16 0.518547 0.967932 0.303448
O O17 0.596638 0.152118 0.036181
O O18 0.000000 0.000000 0.000000
#
# Coordination Sequence:
#
# PCOD8016379 Si02
#       8
#     2   2   2   2   2   2   2   2
#     4  12  24  44  72 104 140 180 229 292 357 416
#     4  10  21  44  68  99 142 175 234 286 342 420
#     4  10  25  46  64  95 141 181 229 283 346 413
#     4  11  24  44  69 101 138 183 230 278 352 420
#     4  11  23  45  66  98 141 175 228 290 346 410
#     4  11  24  44  67  97 136 183 227 285 345 406
#     4  12  23  45  72 100 137 181 241 288 337 419
#     4  11  23  42  69 103 133 178 228 281 349 415
#
# _framework density 22.109311000000002
#
# number of rings (size 3 to 8) (size 9 to 14) (size 15 to 20)
#    0.000    1.000    5.000    1.125    3.500    2.000 
#    2.250    3.125    0.000    0.000    0.000    0.000 
#    0.000    0.000    0.000    0.000    0.000    0.000 
#
# Total GULP energy -198295.487413 kJ/mol
# GULP energy per Si atom -12393.467963 kJ/mol
# Density = 2.205899 g / cm^3
# Si number density = 22.109311 Si / 1000 Ang^3
#
#
#
# Elastic Constant Matrix: (Units=GPa)
#
#
# Indices 1 2 3 4 5 6 
#
# 1 157.2942 30.3105 39.1020 -11.2337 11.7070 12.6798
# 2 30.3105 63.7916 30.6484 6.4002 -2.9194 -1.3108
# 3 39.1020 30.6484 136.2488 0.0289 -3.8566 -0.9637
# 4 -11.2337 6.4002 0.0289 33.4758 3.9619 0.2796
# 5 11.7070 -2.9194 -3.8566 3.9619 31.4779 -2.5193
# 6 12.6798 -1.3108 -0.9637 0.2796 -2.5193 29.2891
#
#
#
# Elastic Compliance Matrix: (Units=1/GPa)
#
#
# Indices 1 2 3 4 5 6 
#
# 1 0.008548 -0.003957 -0.001726 0.004212 -0.004637 -0.004373
# 2 -0.003957 0.019897 -0.003209 -0.005610 0.003860 0.002883
# 3 -0.001726 -0.003209 0.008606 -0.000159 0.001500 0.001017
# 4 0.004212 -0.005610 -0.000159 0.033154 -0.006516 -0.002957
# 5 -0.004637 0.003860 0.001500 -0.006516 0.035281 0.005327
# 6 -0.004373 0.002883 0.001017 -0.002957 0.005327 0.036685
#
#
# Mechanical properties :
#
#
# Convention : Reuss Voigt Hill
#
# Bulk Modulus (GPa) = 51.90330 61.93960 56.92145
# Shear Modulus (GPa) = 30.05219 36.00014 33.02617
#
# Velocity S-wave (km/s) = 3.69081 4.03957 3.86912
# Velocity P-wave (km/s) = 6.45674 7.05929 6.76472
#
# Compressibility (1/GPa) = 0.01926660
#
# Stress axis : x y z
#
# Youngs Moduli (GPa) = 116.99245 50.25957 116.19136
#
# Poissons Ratio (x) = 0.19886 0.20056
# Poissons Ratio (y) = 0.46290 0.37289
# Poissons Ratio (z) = 0.20194 0.16130
#
# Static dielectric constant tensor:
#      x y z
#    x 5.065460 -0.054130 -0.006920 
#    y -0.054130 3.643410 -0.159560 
#    z -0.006920 -0.159560 3.953900 
# 
# 
# High freq. dielectric constant tensor:
#      x y z
#    x 1.900280 0.001680 0.006170 
#    y 0.001680 1.839290 -0.013240 
#    z 0.006170 -0.013240 1.873560 
# 
# From -- ./inp_files/263365.got.cif
#   From: 2010.06.25/outbox.cif.g09.slc.cpg/sg2_132_cif.got.tgz:263365.got - 2010.06.27 13:26:56.
