data_PCOD8016808
_publ_section_title
;
Structure prediction by ZEFSAII (Michael W. Deem and Ramdas Pophale) SiO2 
 PCOD8016808
Probable space group: P -1
;
_chemical_formula_sum "Si O2"
_cell_formula_units_Z 16
_cell_length_a 20.330345
_cell_length_b 11.795976
_cell_length_c 5.185334
_cell_angle_alpha 96.099383
_cell_angle_beta 61.293004
_cell_angle_gamma 136.923548
_cell_volume 679.977097
_symmetry_space_group_name_H-M "P -1"
_symmetry_group_IT_number 2
_symmetry_cell_setting 'triclinic'
loop_
_space_group_symop_operation_xyz
x,y,z
-x,-y,-z
loop_
_atom_site_type_symbol
_atom_site_label
_atom_site_fract_x
_atom_site_fract_y
_atom_site_fract_z
Si Si1 0.651863 0.172969 0.181700
Si Si2 0.659729 0.331489 0.718164
Si Si3 0.079994 0.357520 0.630704
Si Si4 0.072220 0.835412 0.650003
Si Si5 0.118656 0.641682 0.468568
Si Si6 0.518243 0.786406 0.328515
Si Si7 0.672702 0.785112 0.820814
Si Si8 0.475840 0.572529 0.754000
O O1 0.613034 0.203574 0.017192
O O2 0.771977 0.247817 0.904438
O O3 0.674369 0.271391 0.419453
O O4 0.549132 0.955464 0.367194
O O5 0.787757 0.542637 0.594534
O O6 0.561276 0.311873 0.813962
O O7 0.108625 0.526957 0.667492
O O8 0.014565 0.263538 0.457741
O O9 0.001923 0.211300 0.972183
O O10 0.128732 0.779034 0.606010
O O11 0.184396 0.050999 0.442292
O O12 0.000000 0.500000 0.500000
O O13 0.437826 0.642907 0.685092
O O14 0.632729 0.836993 0.114261
O O15 0.602902 0.745046 0.691871
O O16 0.631782 0.606039 0.911144
O O17 0.500000 0.500000 0.500000
#
# Coordination Sequence:
#
# PCOD8016808 Si02
#       8
#     2   2   2   2   2   2   2   2
#     4  11  23  37  56  91 127 165 208 241 287 356
#     4  11  24  40  58  86 133 167 208 237 284 361
#     4  10  22  36  54  85 119 167 197 243 288 350
#     4  11  21  36  62  84 119 154 203 249 300 353
#     4   9  18  33  52  81 119 157 198 237 288 344
#     4  11  23  38  63  88 121 165 201 248 305 358
#     4  10  22  40  63  95 116 151 199 262 315 359
#     4   9  22  40  62  92 119 147 197 255 325 363
#
# _framework density 23.530203
#
# number of rings (size 3 to 8) (size 9 to 14) (size 15 to 20)
#    0.000    1.750    1.250    3.375    7.000    3.000 
#    0.000    0.000    0.000    1.500    0.000    0.000 
#    0.000    0.000    0.000    0.000    0.000    0.000 
#
# Total GULP energy -198268.094866 kJ/mol
# GULP energy per Si atom -12391.755929 kJ/mol
# Density = 2.347665 g / cm^3
# Si number density = 23.530203 Si / 1000 Ang^3
#
#
#
# Elastic Constant Matrix: (Units=GPa)
#
#
# Indices 1 2 3 4 5 6 
#
# 1 116.0188 40.6395 52.1708 -21.5901 21.1330 11.8280
# 2 40.6395 89.3362 37.2405 -24.6085 16.3931 15.2576
# 3 52.1708 37.2405 115.0383 -26.8806 22.9524 11.3211
# 4 -21.5901 -24.6085 -26.8806 41.8720 5.3575 -3.6234
# 5 21.1330 16.3931 22.9524 5.3575 43.1315 -2.4558
# 6 11.8280 15.2576 11.3211 -3.6234 -2.4558 36.2960
#
#
#
# Elastic Compliance Matrix: (Units=1/GPa)
#
#
# Indices 1 2 3 4 5 6 
#
# 1 0.012398 -0.002323 -0.003050 0.003418 -0.004110 -0.002049
# 2 -0.002323 0.017095 -0.000551 0.008823 -0.006493 -0.005816
# 3 -0.003050 -0.000551 0.013573 0.007425 -0.006595 -0.002713
# 4 0.003418 0.008823 0.007425 0.036986 -0.013823 -0.004382
# 5 -0.004110 -0.006493 -0.006595 -0.013823 0.033292 0.006998
# 6 -0.002049 -0.005816 -0.002713 -0.004382 0.006998 0.031546
#
#
# Mechanical properties :
#
#
# Convention : Reuss Voigt Hill
#
# Bulk Modulus (GPa) = 32.03385 64.49943 48.26664
# Shear Modulus (GPa) = 29.91425 36.94939 33.43182
#
# Velocity S-wave (km/s) = 3.56942 3.96700 3.77345
# Velocity P-wave (km/s) = 5.53454 6.96086 6.28827
#
# Compressibility (1/GPa) = 0.03121698
#
# Stress axis : x y z
#
# Youngs Moduli (GPa) = 80.65679 58.49596 73.67835
#
# Poissons Ratio (x) = 0.13587 0.22475
# Poissons Ratio (y) = 0.18735 0.04062
# Poissons Ratio (z) = 0.24604 0.03225
#
# Static dielectric constant tensor:
#      x y z
#    x 5.474010 -0.499130 0.253190 
#    y -0.499130 4.491320 -0.461620 
#    z 0.253190 -0.461620 3.883080 
# 
# 
# High freq. dielectric constant tensor:
#      x y z
#    x 1.925950 0.010910 0.005240 
#    y 0.010910 1.917320 -0.003010 
#    z 0.005240 -0.003010 1.942220 
# 
# From -- ./inp_files/118198.got.cif
#   From: 2010.06.25/outbox.cif.g09.slc.cpg/sg2_60_cif.got.tgz:118198.got - 2010.06.27 13:26:56.
