data_PCOD8016232
_publ_section_title
;
Structure prediction by ZEFSAII (Michael W. Deem and Ramdas Pophale) SiO2 
 PCOD8016232
Probable space group: P -1
;
_chemical_formula_sum "Si O2"
_cell_formula_units_Z 16
_cell_length_a 23.234880
_cell_length_b 7.003548
_cell_length_c 11.809322
_cell_angle_alpha 106.252550
_cell_angle_beta 153.357723
_cell_angle_gamma 71.730295
_cell_volume 818.283671
_symmetry_space_group_name_H-M "P -1"
_symmetry_group_IT_number 2
_symmetry_cell_setting 'triclinic'
loop_
_space_group_symop_operation_xyz
x,y,z
-x,-y,-z
loop_
_atom_site_type_symbol
_atom_site_label
_atom_site_fract_x
_atom_site_fract_y
_atom_site_fract_z
Si Si1 0.971803 0.692766 0.626109
Si Si2 0.754408 0.737351 0.428828
Si Si3 0.385142 0.494601 0.710970
Si Si4 0.628071 0.477368 0.794819
Si Si5 0.854370 0.707009 0.184079
Si Si6 0.527034 0.737824 0.858930
Si Si7 0.348329 0.085481 0.508830
Si Si8 0.799200 0.070203 0.981416
O O1 0.890484 0.727870 0.604484
O O2 0.877908 0.752656 0.364632
O O3 0.028006 0.456497 0.681415
O O4 0.082254 0.834099 0.847413
O O5 0.741688 0.521390 0.434823
O O6 0.740009 0.907363 0.530405
O O7 0.631310 0.800979 0.140406
O O8 0.394257 0.682941 0.676242
O O9 0.403749 0.296775 0.629690
O O10 0.500000 0.500000 0.000000
O O11 0.500000 0.500000 0.500000
O O12 0.597698 0.547735 0.881327
O O13 0.695359 0.246381 0.880732
O O14 0.720812 0.617806 0.921358
O O15 0.850513 0.913634 0.143652
O O16 0.475387 0.917465 0.713060
O O17 0.263383 0.048796 0.245707
#
# Coordination Sequence:
#
# PCOD8016232 Si02
#       8
#     2   2   2   2   2   2   2   2
#     4  10  21  44  62  85 120 159 213 253 301 346
#     4   9  20  40  61  89 117 159 204 248 298 357
#     4   8  20  35  56  85 118 154 198 238 296 357
#     4  11  23  37  62  93 124 161 194 250 312 356
#     4  10  23  42  63  86 123 160 206 258 291 365
#     4  11  19  40  61  88 128 159 193 254 304 358
#     4  10  22  37  60  90 128 154 199 248 302 365
#     4  11  24  40  60  94 123 161 204 249 306 359
#
# _framework density 19.55312
#
# number of rings (size 3 to 8) (size 9 to 14) (size 15 to 20)
#    0.750    1.250    2.500    0.750    1.750    2.000 
#    2.250    0.625    0.000    0.000    0.000    0.000 
#    0.000    0.000    0.000    0.000    0.000    0.000 
#
# Total GULP energy -198227.711071 kJ/mol
# GULP energy per Si atom -12389.231942 kJ/mol
# Density = 1.950862 g / cm^3
# Si number density = 19.553120 Si / 1000 Ang^3
#
#
#
# Elastic Constant Matrix: (Units=GPa)
#
#
# Indices 1 2 3 4 5 6 
#
# 1 89.0550 14.4179 15.3576 -4.4070 4.9731 -5.4446
# 2 14.4179 76.3930 20.0738 -4.4581 4.5184 3.8437
# 3 15.3576 20.0738 72.5411 3.2168 -0.4153 -4.9486
# 4 -4.4070 -4.4581 3.2168 30.0622 -2.9615 -4.7816
# 5 4.9731 4.5184 -0.4153 -2.9615 29.6337 9.2535
# 6 -5.4446 3.8437 -4.9486 -4.7816 9.2535 27.2822
#
#
#
# Elastic Compliance Matrix: (Units=1/GPa)
#
#
# Indices 1 2 3 4 5 6 
#
# 1 0.012329 -0.001700 -0.001999 0.002076 -0.002767 0.003639
# 2 -0.001700 0.014752 -0.003978 0.001869 -0.001068 -0.002449
# 3 -0.001999 -0.003978 0.015580 -0.002128 0.000147 0.002565
# 4 0.002076 0.001869 -0.002128 0.035063 0.001113 0.005533
# 5 -0.002767 -0.001068 0.000147 0.001113 0.038634 -0.013284
# 6 0.003639 -0.002449 0.002565 0.005533 -0.013284 0.043666
#
#
# Mechanical properties :
#
#
# Convention : Reuss Voigt Hill
#
# Bulk Modulus (GPa) = 36.62310 37.52083 37.07196
# Shear Modulus (GPa) = 27.10323 29.93828 28.52075
#
# Velocity S-wave (km/s) = 3.72712 3.91720 3.82334
# Velocity P-wave (km/s) = 6.10677 6.30001 6.20414
#
# Compressibility (1/GPa) = 0.02730517
#
# Stress axis : x y z
#
# Youngs Moduli (GPa) = 81.11137 67.78776 64.18638
#
# Poissons Ratio (x) = 0.11523 0.12833
# Poissons Ratio (y) = 0.13787 0.25536
# Poissons Ratio (z) = 0.16217 0.26969
#
# Static dielectric constant tensor:
#      x y z
#    x 3.725900 0.121200 -0.042160 
#    y 0.121200 3.649510 0.181070 
#    z -0.042160 0.181070 3.433470 
# 
# 
# High freq. dielectric constant tensor:
#      x y z
#    x 1.759450 0.002670 -0.009160 
#    y 0.002670 1.754250 0.014360 
#    z -0.009160 0.014360 1.754210 
# 
# From -- ./inp_files/473433.got.cif
#   From: 2010.06.25/outbox.cif.g09.slc.cpg/sg2_237_cif.got.tgz:473433.got - 2010.06.27 13:26:56.
