data_PCOD8016972
_publ_section_title
;
Structure prediction by ZEFSAII (Michael W. Deem and Ramdas Pophale) SiO2 
 PCOD8016972
Probable space group: P -1
;
_chemical_formula_sum "Si O2"
_cell_formula_units_Z 16
_cell_length_a 18.407333
_cell_length_b 7.392714
_cell_length_c 10.670768
_cell_angle_alpha 68.289277
_cell_angle_beta 133.368928
_cell_angle_gamma 132.965523
_cell_volume 759.190547
_symmetry_space_group_name_H-M "P -1"
_symmetry_group_IT_number 2
_symmetry_cell_setting 'triclinic'
loop_
_space_group_symop_operation_xyz
x,y,z
-x,-y,-z
loop_
_atom_site_type_symbol
_atom_site_label
_atom_site_fract_x
_atom_site_fract_y
_atom_site_fract_z
Si Si1 0.860006 0.893473 0.747462
Si Si2 0.032955 0.361331 0.985770
Si Si3 0.202704 0.683744 0.879972
Si Si4 0.516810 0.054382 0.857476
Si Si5 0.569307 0.642153 0.415076
Si Si6 0.563611 0.454220 0.199203
Si Si7 0.049231 0.222131 0.665598
Si Si8 0.818392 0.918009 0.292305
O O1 0.861453 0.662318 0.830846
O O2 0.719774 0.784760 0.568390
O O3 0.968273 0.066153 0.729388
O O4 0.903800 0.076848 0.872806
O O5 0.096080 0.541385 0.896031
O O6 0.000000 0.500000 0.000000
O O7 0.136747 0.521222 0.716095
O O8 0.250475 0.964828 0.853578
O O9 0.332439 0.722824 0.051686
O O10 0.441683 0.145362 0.688918
O O11 0.462261 0.804297 0.781321
O O12 0.500000 0.000000 0.000000
O O13 0.500000 0.500000 0.500000
O O14 0.511605 0.451743 0.276306
O O15 0.719003 0.678403 0.324159
O O16 0.500000 0.500000 0.000000
O O17 0.148592 0.168706 0.768233
O O18 0.954269 0.143089 0.458397
#
# Coordination Sequence:
#
# PCOD8016972 Si02
#       8
#     2   2   2   2   2   2   2   2
#     4  10  22  44  61  94 137 167 222 282 337 410
#     4  10  22  40  67  93 127 177 217 272 346 407
#     4  11  22  38  62  92 127 162 223 271 329 404
#     4  12  25  43  70 102 135 188 233 279 352 408
#     4  12  27  46  70 103 141 185 233 291 345 406
#     4  12  24  45  70  97 140 185 232 288 338 416
#     4  10  22  37  62  92 123 168 211 278 338 391
#     4  11  21  40  63  94 126 166 219 277 335 397
#
# _framework density 21.07508
#
# number of rings (size 3 to 8) (size 9 to 14) (size 15 to 20)
#    0.000    1.000    3.750    2.625    0.000    2.500 
#    9.000    0.000    0.000    0.000    0.000    0.000 
#    0.000    0.000    0.000    0.000    0.000    0.000 
#
# Total GULP energy -198362.433685 kJ/mol
# GULP energy per Si atom -12397.652105 kJ/mol
# Density = 2.102711 g / cm^3
# Si number density = 21.075080 Si / 1000 Ang^3
#
#
#
# Elastic Constant Matrix: (Units=GPa)
#
#
# Indices 1 2 3 4 5 6 
#
# 1 131.7078 66.6884 53.6702 8.7465 -13.0211 -25.3632
# 2 66.6884 129.2767 44.7460 -4.1711 -2.8488 -24.8245
# 3 53.6702 44.7460 105.3831 -7.1128 4.7045 -14.7096
# 4 8.7465 -4.1711 -7.1128 29.9324 5.1066 7.2049
# 5 -13.0211 -2.8488 4.7045 5.1066 32.8587 -2.3625
# 6 -25.3632 -24.8245 -14.7096 7.2049 -2.3625 39.8221
#
#
#
# Elastic Compliance Matrix: (Units=1/GPa)
#
#
# Indices 1 2 3 4 5 6 
#
# 1 0.015016 -0.004566 -0.005771 -0.009452 0.008338 0.006791
# 2 -0.004566 0.011404 -0.001932 0.001815 -0.000601 0.003124
# 3 -0.005771 -0.001932 0.013721 0.005891 -0.005421 -0.001199
# 4 -0.009452 0.001815 0.005891 0.042517 -0.011838 -0.011108
# 5 0.008338 -0.000601 -0.005421 -0.011838 0.036823 0.007260
# 6 0.006791 0.003124 -0.001199 -0.011108 0.007260 0.033381
#
#
# Mechanical properties :
#
#
# Convention : Reuss Voigt Hill
#
# Bulk Modulus (GPa) = 64.08659 77.39743 70.74201
# Shear Modulus (GPa) = 27.38215 33.94018 30.66117
#
# Velocity S-wave (km/s) = 3.60845 4.01738 3.81839
# Velocity P-wave (km/s) = 6.91635 7.63698 7.28558
#
# Compressibility (1/GPa) = 0.01560389
#
# Stress axis : x y z
#
# Youngs Moduli (GPa) = 66.59662 87.68564 72.88238
#
# Poissons Ratio (x) = 0.40035 0.42061
# Poissons Ratio (y) = 0.30406 0.14079
# Poissons Ratio (z) = 0.38433 0.16938
#
# Static dielectric constant tensor:
#      x y z
#    x 4.009370 -0.142490 0.027160 
#    y -0.142490 6.474870 2.386620 
#    z 0.027160 2.386620 5.694630 
# 
# 
# High freq. dielectric constant tensor:
#      x y z
#    x 1.837440 -0.010500 0.006090 
#    y -0.010500 1.830750 0.008280 
#    z 0.006090 0.008280 1.820680 
# 
# From -- ./inp_files/459467.got.cif
#   From: 2010.06.25/outbox.cif.g09.slc.cpg/sg2_230_cif.got.tgz:459467.got - 2010.06.27 13:26:56.
