data_PCOD8016196
_publ_section_title
;
Structure prediction by ZEFSAII (Michael W. Deem and Ramdas Pophale) SiO2 
 PCOD8016196
Probable space group: P -1
;
_chemical_formula_sum "Si O2"
_cell_formula_units_Z 16
_cell_length_a 23.095309
_cell_length_b 11.441784
_cell_length_c 17.266664
_cell_angle_alpha 25.354700
_cell_angle_beta 160.223194
_cell_angle_gamma 151.077200
_cell_volume 651.268243
_symmetry_space_group_name_H-M "P -1"
_symmetry_group_IT_number 2
_symmetry_cell_setting 'triclinic'
loop_
_space_group_symop_operation_xyz
x,y,z
-x,-y,-z
loop_
_atom_site_type_symbol
_atom_site_label
_atom_site_fract_x
_atom_site_fract_y
_atom_site_fract_z
Si Si1 0.989923 0.839699 0.162591
Si Si2 0.227968 0.852081 0.888340
Si Si3 0.612400 0.524874 0.505092
Si Si4 0.097756 0.795658 0.598319
Si Si5 0.528226 0.249923 0.959306
Si Si6 0.189452 0.926748 0.967992
Si Si7 0.702752 0.747224 0.642335
Si Si8 0.635242 0.826477 0.812401
O O1 0.995345 0.518068 0.347248
O O2 0.816976 0.892327 0.956246
O O3 0.161949 0.968132 0.349839
O O4 0.000000 0.000000 0.000000
O O5 0.089154 0.883192 0.626566
O O6 0.212632 0.005586 0.858654
O O7 0.419627 0.979086 0.023184
O O8 0.208513 0.522175 0.071581
O O9 0.579666 0.658427 0.303185
O O10 0.630514 0.748348 0.463461
O O11 0.455782 0.271949 0.483687
O O12 0.789651 0.391946 0.800128
O O13 0.296760 0.836481 0.799825
O O14 0.003817 0.001879 0.303399
O O15 0.559413 0.501256 0.908405
O O16 0.330448 0.107161 0.093670
O O17 0.500000 0.000000 0.500000
#
# Coordination Sequence:
#
# PCOD8016196 Si02
#       8
#     2   2   2   2   2   2   2   2
#     4  11  23  44  76 101 135 191 234 289 342 418
#     4  11  23  45  74 103 143 183 234 289 352 416
#     4  10  21  44  71 102 143 184 235 283 346 424
#     4  11  24  46  70 105 143 177 239 290 348 413
#     4  11  23  44  76 100 136 194 231 289 347 416
#     4  11  26  47  67 106 145 182 224 298 352 414
#     4  10  21  43  73 105 135 185 245 280 342 422
#     4  11  25  48  69 103 144 185 237 286 351 420
#
# _framework density 24.567450000000001
#
# number of rings (size 3 to 8) (size 9 to 14) (size 15 to 20)
#    0.000    1.250    3.750    1.500    0.000    4.500 
#   15.750    3.125    0.000    0.000    0.000    0.000 
#    0.000    0.000    0.000    0.000    0.000    0.000 
#
# Total GULP energy -198297.483292 kJ/mol
# GULP energy per Si atom -12393.592706 kJ/mol
# Density = 2.451153 g / cm^3
# Si number density = 24.567450 Si / 1000 Ang^3
#
#
#
# Elastic Constant Matrix: (Units=GPa)
#
#
# Indices 1 2 3 4 5 6 
#
# 1 97.5625 46.9847 39.1566 6.5624 -14.3122 -24.9046
# 2 46.9847 133.5403 22.8506 18.6724 -3.4205 -12.2874
# 3 39.1566 22.8506 169.3259 4.4444 -12.9302 -11.0400
# 4 6.5624 18.6724 4.4444 24.8970 -9.8406 -3.0816
# 5 -14.3122 -3.4205 -12.9302 -9.8406 31.2201 6.0275
# 6 -24.9046 -12.2874 -11.0400 -3.0816 6.0275 42.3028
#
#
#
# Elastic Compliance Matrix: (Units=1/GPa)
#
#
# Indices 1 2 3 4 5 6 
#
# 1 0.015778 -0.004803 -0.002224 0.002796 0.005363 0.006753
# 2 -0.004803 0.010235 -0.000346 -0.007804 -0.003686 0.000012
# 3 -0.002224 -0.000346 0.006598 0.000382 0.001779 0.000086
# 4 0.002796 -0.007804 0.000382 0.051959 0.016794 0.000871
# 5 0.005363 -0.003686 0.001779 0.016794 0.040501 -0.001996
# 6 0.006753 0.000012 0.000086 0.000871 -0.001996 0.027988
#
#
# Mechanical properties :
#
#
# Convention : Reuss Voigt Hill
#
# Bulk Modulus (GPa) = 55.97629 68.71251 62.34440
# Shear Modulus (GPa) = 28.77491 39.11310 33.94401
#
# Velocity S-wave (km/s) = 3.42608 3.99440 3.72111
# Velocity P-wave (km/s) = 6.20362 7.02163 6.62526
#
# Compressibility (1/GPa) = 0.01786471
#
# Stress axis : x y z
#
# Youngs Moduli (GPa) = 63.37935 97.69996 151.55453
#
# Poissons Ratio (x) = 0.46925 0.33706
# Poissons Ratio (y) = 0.30441 0.05251
# Poissons Ratio (z) = 0.14096 0.03385
#
# Static dielectric constant tensor:
#      x y z
#    x 4.605820 -0.366520 -0.096060 
#    y -0.366520 5.054790 0.262080 
#    z -0.096060 0.262080 4.650310 
# 
# 
# High freq. dielectric constant tensor:
#      x y z
#    x 1.977530 -0.018740 -0.011020 
#    y -0.018740 1.970240 0.003440 
#    z -0.011020 0.003440 1.995670 
# 
# From -- ./inp_files/579227.got.cif
#   From: 2010.06.25/outbox.cif.g09.slc.cpg/sg2_290_cif.got.tgz:579227.got - 2010.06.27 13:26:56.
