data_PCOD8016572
_publ_section_title
;
Structure prediction by ZEFSAII (Michael W. Deem and Ramdas Pophale) SiO2 
 PCOD8016572
Probable space group: P -1
;
_chemical_formula_sum "Si O2"
_cell_formula_units_Z 16
_cell_length_a 13.002623
_cell_length_b 9.295517
_cell_length_c 9.923437
_cell_angle_alpha 122.205445
_cell_angle_beta 120.064120
_cell_angle_gamma 44.872557
_cell_volume 700.590901
_symmetry_space_group_name_H-M "P -1"
_symmetry_group_IT_number 2
_symmetry_cell_setting 'triclinic'
loop_
_space_group_symop_operation_xyz
x,y,z
-x,-y,-z
loop_
_atom_site_type_symbol
_atom_site_label
_atom_site_fract_x
_atom_site_fract_y
_atom_site_fract_z
Si Si1 0.508245 0.109961 0.687484
Si Si2 0.799445 0.125574 0.310705
Si Si3 0.652724 0.434031 0.125764
Si Si4 0.995514 0.458774 0.225246
Si Si5 0.855573 0.273376 0.926661
Si Si6 0.292224 0.080412 0.668953
Si Si7 0.122985 0.687165 0.323827
Si Si8 0.189354 0.063569 0.304923
O O1 0.387577 0.363382 0.714179
O O2 0.451097 0.041848 0.741546
O O3 0.500000 0.000000 0.500000
O O4 0.676856 0.036986 0.769697
O O5 0.735000 0.228844 0.173994
O O6 0.795394 0.295013 0.488368
O O7 0.696311 0.066642 0.277411
O O8 0.967514 0.915706 0.301624
O O9 0.500000 0.500000 0.000000
O O10 0.748719 0.404339 0.045876
O O11 0.835753 0.672459 0.261989
O O12 0.100775 0.508269 0.251334
O O13 0.075977 0.319009 0.343298
O O14 0.988311 0.298088 0.042206
O O15 0.780450 0.378334 0.783205
O O16 0.900082 0.034611 0.834594
O O17 0.251167 0.011908 0.471531
#
# Coordination Sequence:
#
# PCOD8016572 Si02
#       8
#     2   2   2   2   2   2   2   2
#     4  10  23  43  66  96 136 175 230 274 333 414
#     4  10  24  44  72  98 141 178 234 278 340 412
#     4  12  26  46  68 102 133 185 228 285 343 410
#     4  11  24  38  70 103 135 176 231 288 338 402
#     4  12  24  42  65  99 141 173 228 280 353 395
#     4  10  21  45  67  98 134 181 228 278 342 406
#     4  10  24  44  67 106 136 180 225 289 342 405
#     4  11  23  40  66 103 137 178 229 277 342 415
#
# _framework density 22.837862999999999
#
# number of rings (size 3 to 8) (size 9 to 14) (size 15 to 20)
#    0.000    1.250    3.750    1.125    7.000    0.000 
#    2.250    3.750    0.000    0.000    0.000    0.000 
#    0.000    0.000    0.000    0.000    0.000    0.000 
#
# Total GULP energy -198285.052557 kJ/mol
# GULP energy per Si atom -12392.815785 kJ/mol
# Density = 2.278588 g / cm^3
# Si number density = 22.837863 Si / 1000 Ang^3
#
#
#
# Elastic Constant Matrix: (Units=GPa)
#
#
# Indices 1 2 3 4 5 6 
#
# 1 114.3363 44.6298 32.8369 -0.9896 -7.8456 39.0855
# 2 44.6298 89.5945 45.8695 14.3260 4.4532 26.8010
# 3 32.8369 45.8695 91.6735 -1.2519 -8.2302 17.1481
# 4 -0.9896 14.3260 -1.2519 31.4428 1.2926 6.3994
# 5 -7.8456 4.4532 -8.2302 1.2926 36.4094 4.7099
# 6 39.0855 26.8010 17.1481 6.3994 4.7099 31.1894
#
#
#
# Elastic Compliance Matrix: (Units=1/GPa)
#
#
# Indices 1 2 3 4 5 6 
#
# 1 0.018369 -0.004151 0.000368 0.006689 0.007172 -0.022111
# 2 -0.004151 0.020790 -0.008361 -0.008609 -0.004291 -0.005652
# 3 0.000368 -0.008361 0.016240 0.005076 0.005113 -0.004019
# 4 0.006689 -0.008609 0.005076 0.038474 0.003861 -0.012252
# 5 0.007172 -0.004291 0.005113 0.003861 0.032338 -0.013787
# 6 -0.022111 -0.005652 -0.004019 -0.012252 -0.013787 0.071433
#
#
# Mechanical properties :
#
#
# Convention : Reuss Voigt Hill
#
# Bulk Modulus (GPa) = 32.14180 60.25297 46.19738
# Shear Modulus (GPa) = 21.52362 31.29283 26.40823
#
# Velocity S-wave (km/s) = 3.07327 3.70566 3.40418
# Velocity P-wave (km/s) = 5.16699 6.68950 5.97692
#
# Compressibility (1/GPa) = 0.03111213
#
# Stress axis : x y z
#
# Youngs Moduli (GPa) = 54.43935 48.09916 61.57584
#
# Poissons Ratio (x) = 0.19964 -0.02268
# Poissons Ratio (y) = 0.22596 0.51486
# Poissons Ratio (z) = -0.02005 0.40217
#
# Static dielectric constant tensor:
#      x y z
#    x 5.678980 -0.650130 0.350110 
#    y -0.650130 5.718400 -0.139820 
#    z 0.350110 -0.139820 4.312960 
# 
# 
# High freq. dielectric constant tensor:
#      x y z
#    x 1.910980 0.029190 -0.004120 
#    y 0.029190 1.883390 0.023750 
#    z -0.004120 0.023750 1.899330 
# 
# From -- ./inp_files/296193.got.cif
#   From: 2010.06.25/outbox.cif.g09.slc.cpg/sg2_149_cif.got.tgz:296193.got - 2010.06.27 13:26:56.
