data_PCOD8016705
_publ_section_title
;
Structure prediction by ZEFSAII (Michael W. Deem and Ramdas Pophale) SiO2 
 PCOD8016705
Probable space group: P -1
;
_chemical_formula_sum "Si O2"
_cell_formula_units_Z 16
_cell_length_a 20.965996
_cell_length_b 8.548063
_cell_length_c 12.546175
_cell_angle_alpha 72.571604
_cell_angle_beta 40.739186
_cell_angle_gamma 40.257483
_cell_volume 711.679635
_symmetry_space_group_name_H-M "P -1"
_symmetry_group_IT_number 2
_symmetry_cell_setting 'triclinic'
loop_
_space_group_symop_operation_xyz
x,y,z
-x,-y,-z
loop_
_atom_site_type_symbol
_atom_site_label
_atom_site_fract_x
_atom_site_fract_y
_atom_site_fract_z
Si Si1 0.188333 0.672135 0.889752
Si Si2 0.673101 0.866105 0.110074
Si Si3 0.021978 0.187593 0.549475
Si Si4 0.684865 0.072305 0.617052
Si Si5 0.982428 0.102873 0.250942
Si Si6 0.997589 0.630093 0.689482
Si Si7 0.619935 0.515054 0.509195
Si Si8 0.591832 0.801623 0.030441
O O1 0.208323 0.446402 0.914781
O O2 0.373110 0.478655 0.630661
O O3 0.170348 0.765650 0.015221
O O4 0.000000 0.000000 0.000000
O O5 0.528560 0.992035 0.179573
O O6 0.568591 0.130819 0.275209
O O7 0.816587 0.773493 0.881623
O O8 0.002476 0.250290 0.437076
O O9 0.188894 0.064210 0.410472
O O10 0.070380 0.929272 0.570289
O O11 0.818752 0.505567 0.799961
O O12 0.644425 0.289552 0.553263
O O13 0.478419 0.287307 0.859708
O O14 0.807750 0.755852 0.465219
O O15 0.022693 0.229420 0.208795
O O16 0.798641 0.364407 0.354255
O O17 0.500000 0.000000 0.000000
#
# Coordination Sequence:
#
# PCOD8016705 Si02
#       8
#     2   2   2   2   2   2   2   2
#     4  10  21  46  71  90 131 176 220 285 344 382
#     4  12  24  42  66 102 134 171 227 276 326 404
#     4  11  22  43  64  96 141 181 217 273 330 391
#     4  11  23  43  65  97 135 181 222 271 328 397
#     4  10  22  42  65  95 129 179 221 272 335 399
#     4  12  22  39  65  94 136 179 218 267 332 397
#     4  10  24  43  66  96 128 173 225 281 334 390
#     4  12  23  40  70  98 139 181 220 268 331 396
#
# _framework density 22.482028
#
# number of rings (size 3 to 8) (size 9 to 14) (size 15 to 20)
#    0.000    1.000    3.750    4.125    1.750    0.000 
#    0.000   11.250    0.000    0.000    0.000    0.000 
#    0.000    0.000    0.000    0.000    0.000    0.000 
#
# Total GULP energy -198279.545984 kJ/mol
# GULP energy per Si atom -12392.471624 kJ/mol
# Density = 2.243086 g / cm^3
# Si number density = 22.482028 Si / 1000 Ang^3
#
#
#
# Elastic Constant Matrix: (Units=GPa)
#
#
# Indices 1 2 3 4 5 6 
#
# 1 92.3722 51.7982 44.9532 -17.6508 -5.6956 19.0232
# 2 51.7982 123.0212 42.5828 -10.3363 17.4862 7.6482
# 3 44.9532 42.5828 107.4076 -18.8540 6.5375 0.1081
# 4 -17.6508 -10.3363 -18.8540 35.7351 1.6776 3.4606
# 5 -5.6956 17.4862 6.5375 1.6776 39.8991 0.2105
# 6 19.0232 7.6482 0.1081 3.4606 0.2105 24.6865
#
#
#
# Elastic Compliance Matrix: (Units=1/GPa)
#
#
# Indices 1 2 3 4 5 6 
#
# 1 0.022849 -0.006917 -0.005929 0.007429 0.007039 -0.016540
# 2 -0.006917 0.012356 -0.001746 -0.000637 -0.006098 0.001651
# 3 -0.005929 -0.001746 0.013185 0.003188 -0.002400 0.004626
# 4 0.007429 -0.000637 0.003188 0.034177 -0.000565 -0.010327
# 5 0.007039 -0.006098 -0.002400 -0.000565 0.029177 -0.003694
# 6 -0.016540 0.001651 0.004626 -0.010327 -0.003694 0.054201
#
#
# Mechanical properties :
#
#
# Convention : Reuss Voigt Hill
#
# Bulk Modulus (GPa) = 52.06405 66.82993 59.44699
# Shear Modulus (GPa) = 24.81002 32.29525 28.55263
#
# Velocity S-wave (km/s) = 3.32557 3.79422 3.56760
# Velocity P-wave (km/s) = 6.16070 6.99895 6.59316
#
# Compressibility (1/GPa) = 0.01920711
#
# Stress axis : x y z
#
# Youngs Moduli (GPa) = 43.76481 80.93217 75.84412
#
# Poissons Ratio (x) = 0.55978 0.44966
# Poissons Ratio (y) = 0.30271 0.13244
# Poissons Ratio (z) = 0.25947 0.14132
#
# Static dielectric constant tensor:
#      x y z
#    x 4.143220 -0.162290 0.172970 
#    y -0.162290 4.321710 -0.196450 
#    z 0.172970 -0.196450 4.484210 
# 
# 
# High freq. dielectric constant tensor:
#      x y z
#    x 1.876180 0.004350 0.001020 
#    y 0.004350 1.890450 -0.011040 
#    z 0.001020 -0.011040 1.886550 
# 
# From -- ./inp_files/469947.got.cif
#   From: 2010.06.25/outbox.cif.g09.slc.cpg/sg2_235_cif.got.tgz:469947.got - 2010.06.27 13:26:56.
