data_PCOD8016162
_publ_section_title
;
Structure prediction by ZEFSAII (Michael W. Deem and Ramdas Pophale) SiO2 
 PCOD8016162
Probable space group: P -1
;
_chemical_formula_sum "Si O2"
_cell_formula_units_Z 14
_cell_length_a 19.776428
_cell_length_b 9.947815
_cell_length_c 11.670293
_cell_angle_alpha 43.933453
_cell_angle_beta 143.293854
_cell_angle_gamma 152.478766
_cell_volume 633.759534
_symmetry_space_group_name_H-M "P -1"
_symmetry_group_IT_number 2
_symmetry_cell_setting 'triclinic'
loop_
_space_group_symop_operation_xyz
x,y,z
-x,-y,-z
loop_
_atom_site_type_symbol
_atom_site_label
_atom_site_fract_x
_atom_site_fract_y
_atom_site_fract_z
Si Si1 0.144480 0.839440 0.173424
Si Si2 0.562056 0.533246 0.886452
Si Si3 0.747661 0.703036 0.256787
Si Si4 0.514209 0.322097 0.702695
Si Si5 0.159505 0.284621 0.222263
Si Si6 0.085222 0.353565 0.311539
Si Si7 0.847066 0.179584 0.538996
O O1 0.088260 0.588926 0.171848
O O2 0.152418 0.786504 0.346938
O O3 0.329522 0.138779 0.198565
O O4 0.013189 0.847774 0.980366
O O5 0.378291 0.368310 0.777343
O O6 0.544167 0.381774 0.842111
O O7 0.652712 0.529528 0.115242
O O8 0.837477 0.626428 0.476169
O O9 0.889955 0.046139 0.215301
O O10 0.500000 0.500000 0.500000
O O11 0.682333 0.433924 0.811786
O O12 0.337384 0.978884 0.658979
O O13 0.194874 0.403858 0.325848
O O14 0.134666 0.021586 0.348792
O O15 0.000000 0.500000 0.500000
#
# Coordination Sequence:
#
# PCOD8016162 Si02
#       7
#     2   2   2   2   2   2   2
#     4  12  25  42  68 103 136 182 231 271 334 415
#     4  11  22  43  69 100 135 182 228 274 340 403
#     4  10  24  42  67  96 141 180 219 287 335 392
#     4  10  21  43  71  97 131 179 224 279 340 402
#     4  11  23  46  70  98 139 180 222 280 342 399
#     4  11  25  43  68 102 136 181 229 277 340 395
#     4  11  26  44  71 101 136 175 230 280 344 405
#
# _framework density 22.090396999999999
#
# number of rings (size 3 to 8) (size 9 to 14) (size 15 to 20)
#    0.000    1.143    4.286    2.571    6.000    0.571 
#    0.000    2.143    0.000    0.000    0.000    0.000 
#    0.000    0.000    0.000    0.000    0.000    0.000 
#
# Total GULP energy -173600.236110 kJ/mol
# GULP energy per Si atom -12400.016865 kJ/mol
# Density = 2.204012 g / cm^3
# Si number density = 22.090397 Si / 1000 Ang^3
#
#
#
# Elastic Constant Matrix: (Units=GPa)
#
#
# Indices 1 2 3 4 5 6 
#
# 1 159.6186 63.9686 39.9033 7.6418 -10.4597 11.1170
# 2 63.9686 123.9062 32.8141 16.9282 10.2591 15.1572
# 3 39.9033 32.8141 69.7486 23.5547 -10.6395 -0.1422
# 4 7.6418 16.9282 23.5547 27.5074 -2.9540 4.3570
# 5 -10.4597 10.2591 -10.6395 -2.9540 40.9506 5.3280
# 6 11.1170 15.1572 -0.1422 4.3570 5.3280 43.1068
#
#
#
# Elastic Compliance Matrix: (Units=1/GPa)
#
#
# Indices 1 2 3 4 5 6 
#
# 1 0.009098 -0.004179 -0.004251 0.004248 0.002789 -0.001665
# 2 -0.004179 0.012175 -0.002647 -0.004237 -0.004826 -0.002187
# 3 -0.004251 -0.002647 0.024978 -0.018670 0.004269 0.003469
# 4 0.004248 -0.004237 -0.018670 0.054842 0.001961 -0.005453
# 5 0.002789 -0.004826 0.004269 0.001961 0.027938 -0.002660
# 6 -0.001665 -0.002187 0.003469 -0.005453 -0.002660 0.025288
#
#
# Mechanical properties :
#
#
# Convention : Reuss Voigt Hill
#
# Bulk Modulus (GPa) = 41.50024 69.62727 55.56375
# Shear Modulus (GPa) = 27.09956 36.75213 31.92584
#
# Velocity S-wave (km/s) = 3.50631 4.08329 3.80575
# Velocity P-wave (km/s) = 5.93461 7.33612 6.67227
#
# Compressibility (1/GPa) = 0.02409625
#
# Stress axis : x y z
#
# Youngs Moduli (GPa) = 109.91790 82.13631 40.03528
#
# Poissons Ratio (x) = 0.34321 0.17021
# Poissons Ratio (y) = 0.45929 0.10598
# Poissons Ratio (z) = 0.46731 0.21743
#
# Static dielectric constant tensor:
#      x y z
#    x 4.180410 0.297940 -0.160030 
#    y 0.297940 4.073500 0.343850 
#    z -0.160030 0.343850 4.078850 
# 
# 
# High freq. dielectric constant tensor:
#      x y z
#    x 1.882320 0.016680 -0.016100 
#    y 0.016680 1.861180 0.024170 
#    z -0.016100 0.024170 1.870430 
# 
# From -- ./inp_files/175930.got.cif
#   From: 2010.06.25/outbox.cif.g09.slc.cpg/sg2_88_cif.got.tgz:175930.got - 2010.06.27 13:26:56.
