data_PCOD8016662
_publ_section_title
;
Structure prediction by ZEFSAII (Michael W. Deem and Ramdas Pophale) SiO2 
 PCOD8016662
Probable space group: P -1
;
_chemical_formula_sum "Si O2"
_cell_formula_units_Z 14
_cell_length_a 7.654058
_cell_length_b 25.082410
_cell_length_c 5.113341
_cell_angle_alpha 75.493813
_cell_angle_beta 110.646603
_cell_angle_gamma 146.970276
_cell_volume 498.752305
_symmetry_space_group_name_H-M "P -1"
_symmetry_group_IT_number 2
_symmetry_cell_setting 'triclinic'
loop_
_space_group_symop_operation_xyz
x,y,z
-x,-y,-z
loop_
_atom_site_type_symbol
_atom_site_label
_atom_site_fract_x
_atom_site_fract_y
_atom_site_fract_z
Si Si1 0.879992 0.436394 0.262687
Si Si2 0.771331 0.774544 0.584612
Si Si3 0.989522 0.348558 0.318541
Si Si4 0.913212 0.038518 0.516529
Si Si5 0.243812 0.756187 0.179373
Si Si6 0.344981 0.341720 0.744266
Si Si7 0.493431 0.069701 0.037842
O O1 0.522318 0.319373 0.269806
O O2 0.118651 0.442513 0.317543
O O3 0.000000 0.500000 0.500000
O O4 0.742958 0.438779 0.924879
O O5 0.749474 0.739192 0.337211
O O6 0.769233 0.841234 0.445334
O O7 0.128152 0.851698 0.803748
O O8 0.810290 0.302574 0.000256
O O9 0.296330 0.379828 0.461235
O O10 0.712590 0.264145 0.494812
O O11 0.737433 0.995285 0.754871
O O12 0.000000 0.000000 0.500000
O O13 0.646811 0.997330 0.209098
O O14 0.532390 0.870385 0.119400
O O15 0.895811 0.706765 0.076428
#
# Coordination Sequence:
#
# PCOD8016662 Si02
#       7
#     2   2   2   2   2   2   2
#     4  12  29  48  78 116 154 202 266 323 388 462
#     4  12  26  48  74 109 154 206 254 320 385 453
#     4  10  23  46  76 109 148 201 249 318 384 448
#     4  12  30  44  74 117 154 196 260 308 383 464
#     4  10  21  45  77 106 147 204 245 305 383 450
#     4  10  23  47  78 105 155 204 253 318 392 450
#     4  12  23  48  74 108 153 202 251 308 382 464
#
# _framework density 28.070046999999999
#
# number of rings (size 3 to 8) (size 9 to 14) (size 15 to 20)
#    0.857    0.000    2.857    3.000    8.000    1.143 
#    0.000    1.429    0.000    0.000    0.000    0.000 
#    0.000    0.000    0.000    0.000    0.000    0.000 
#
# Total GULP energy -173543.390884 kJ/mol
# GULP energy per Si atom -12395.956492 kJ/mol
# Density = 2.800616 g / cm^3
# Si number density = 28.070047 Si / 1000 Ang^3
#
#
#
# Elastic Constant Matrix: (Units=GPa)
#
#
# Indices 1 2 3 4 5 6 
#
# 1 120.6192 61.1731 47.6650 14.4262 -9.6258 -43.1094
# 2 61.1731 164.4062 50.5451 13.9064 -8.7055 -16.6456
# 3 47.6650 50.5451 151.7151 8.6255 -42.5842 -10.5421
# 4 14.4262 13.9064 8.6255 54.1496 -4.6415 -5.4977
# 5 -9.6258 -8.7055 -42.5842 -4.6415 46.0985 3.5551
# 6 -43.1094 -16.6456 -10.5421 -5.4977 3.5551 46.8936
#
#
#
# Elastic Compliance Matrix: (Units=1/GPa)
#
#
# Indices 1 2 3 4 5 6 
#
# 1 0.016002 -0.003609 -0.003277 -0.001663 -0.001508 0.012612
# 2 -0.003609 0.007906 -0.001769 -0.000962 -0.000918 -0.000952
# 3 -0.003277 -0.001769 0.010567 0.000214 0.008912 -0.001916
# 4 -0.001663 -0.000962 0.000214 0.019292 0.001586 0.000319
# 5 -0.001508 -0.000918 0.008912 0.001586 0.029734 -0.001777
# 6 0.012612 -0.000952 -0.001916 0.000319 -0.001777 0.032323
#
#
# Mechanical properties :
#
#
# Convention : Reuss Voigt Hill
#
# Bulk Modulus (GPa) = 58.26384 83.94522 71.10453
# Shear Modulus (GPa) = 36.00886 47.91882 41.96384
#
# Velocity S-wave (km/s) = 3.58554 4.13621 3.87068
# Velocity P-wave (km/s) = 6.15979 7.26509 6.73515
#
# Compressibility (1/GPa) = 0.01716330
#
# Stress axis : x y z
#
# Youngs Moduli (GPa) = 62.49156 126.49317 94.63795
#
# Poissons Ratio (x) = 0.45648 0.31017
# Poissons Ratio (y) = 0.22552 0.16744
# Poissons Ratio (z) = 0.20481 0.22380
#
# Static dielectric constant tensor:
#      x y z
#    x 5.882610 -0.278860 0.673840 
#    y -0.278860 5.805130 -0.070990 
#    z 0.673840 -0.070990 5.413590 
# 
# 
# High freq. dielectric constant tensor:
#      x y z
#    x 2.165800 -0.000790 0.025460 
#    y -0.000790 2.168510 0.001170 
#    z 0.025460 0.001170 2.147340 
# 
# From -- ./inp_files/56904.got.cif
#   From: 2010.06.25/outbox.cif.g09.slc.cpg/sg2_29_cif.got.tgz:56904.got - 2010.06.27 13:26:56.
