data_PCOD8016338
_publ_section_title
;
Structure prediction by ZEFSAII (Michael W. Deem and Ramdas Pophale) SiO2 
 PCOD8016338
Probable space group: P -1
;
_chemical_formula_sum "Si O2"
_cell_formula_units_Z 16
_cell_length_a 8.329853
_cell_length_b 12.989675
_cell_length_c 13.686090
_cell_angle_alpha 107.978866
_cell_angle_beta 31.310556
_cell_angle_gamma 111.541986
_cell_volume 715.775615
_symmetry_space_group_name_H-M "P -1"
_symmetry_group_IT_number 2
_symmetry_cell_setting 'triclinic'
loop_
_space_group_symop_operation_xyz
x,y,z
-x,-y,-z
loop_
_atom_site_type_symbol
_atom_site_label
_atom_site_fract_x
_atom_site_fract_y
_atom_site_fract_z
Si Si1 0.746443 0.289690 0.135361
Si Si2 0.028957 0.398199 0.389021
Si Si3 0.284787 0.948914 0.872254
Si Si4 0.275951 0.017528 0.530881
Si Si5 0.008241 0.206436 0.472657
Si Si6 0.260280 0.869122 0.202989
Si Si7 0.825125 0.462579 0.313690
Si Si8 0.307249 0.649003 0.021841
O O1 0.867865 0.175785 0.051181
O O2 0.861807 0.375407 0.186180
O O3 0.369408 0.259850 0.319885
O O4 0.881853 0.349727 0.981696
O O5 0.000000 0.500000 0.500000
O O6 0.863534 0.290924 0.505758
O O7 0.840829 0.400707 0.388493
O O8 0.386054 0.399336 0.172645
O O9 0.516307 0.941532 0.659869
O O10 0.468583 0.020050 0.887859
O O11 0.000000 0.000000 0.000000
O O12 0.043907 0.104572 0.690611
O O13 0.500000 0.000000 0.500000
O O14 0.030063 0.904610 0.602644
O O15 0.828330 0.183951 0.660798
O O16 0.401952 0.777207 0.044736
O O17 0.500000 0.500000 0.500000
O O18 0.095777 0.572657 0.189809
#
# Coordination Sequence:
#
# PCOD8016338 Si02
#       8
#     2   2   2   2   2   2   2   2
#     4  11  23  43  67  96 140 176 224 279 346 406
#     4  11  25  46  71  98 134 181 232 284 345 419
#     4  11  25  42  66 101 141 182 226 282 342 408
#     4  11  24  41  69 100 137 182 231 279 341 417
#     4  10  21  44  67  96 130 185 222 277 346 402
#     4  11  22  46  70  96 145 181 226 287 341 411
#     4  12  26  45  71 100 135 176 229 296 344 412
#     4  11  26  44  69 101 132 184 229 281 352 410
#
# _framework density 22.353373999999999
#
# number of rings (size 3 to 8) (size 9 to 14) (size 15 to 20)
#    0.000    1.000    2.500    4.500    5.250    1.500 
#    4.500    0.000    0.000    0.000    0.000    0.000 
#    0.000    0.000    0.000    0.000    0.000    0.000 
#
# Total GULP energy -198378.596234 kJ/mol
# GULP energy per Si atom -12398.662265 kJ/mol
# Density = 2.230250 g / cm^3
# Si number density = 22.353374 Si / 1000 Ang^3
#
#
#
# Elastic Constant Matrix: (Units=GPa)
#
#
# Indices 1 2 3 4 5 6 
#
# 1 133.3494 37.1211 16.2517 19.2067 1.3290 -16.2756
# 2 37.1211 115.9991 30.4410 20.6580 0.5192 -13.8730
# 3 16.2517 30.4410 78.8266 27.9497 -11.9754 -4.9190
# 4 19.2067 20.6580 27.9497 39.1722 -1.6225 2.6742
# 5 1.3290 0.5192 -11.9754 -1.6225 36.5368 6.7906
# 6 -16.2756 -13.8730 -4.9190 2.6742 6.7906 49.0687
#
#
#
# Elastic Compliance Matrix: (Units=1/GPa)
#
#
# Indices 1 2 3 4 5 6 
#
# 1 0.008887 -0.001911 0.000283 -0.003777 -0.000885 0.002764
# 2 -0.001911 0.010812 -0.002802 -0.003005 -0.001606 0.002528
# 3 0.000283 -0.002802 0.018849 -0.011957 0.005475 0.001085
# 4 -0.003777 -0.003005 -0.011957 0.037807 -0.001092 -0.005210
# 5 -0.000885 -0.001606 0.005475 -0.001092 0.029967 -0.004286
# 6 0.002764 0.002528 0.001085 -0.005210 -0.004286 0.022997
#
#
# Mechanical properties :
#
#
# Convention : Reuss Voigt Hill
#
# Bulk Modulus (GPa) = 33.68426 55.08919 44.38673
# Shear Modulus (GPa) = 33.76653 41.24630 37.50642
#
# Velocity S-wave (km/s) = 3.89083 4.30023 4.10064
# Velocity P-wave (km/s) = 5.94024 7.02525 6.50541
#
# Compressibility (1/GPa) = 0.02968745
#
# Stress axis : x y z
#
# Youngs Moduli (GPa) = 112.52737 92.48694 53.05305
#
# Poissons Ratio (x) = 0.17674 -0.01501
# Poissons Ratio (y) = 0.21504 0.14867
# Poissons Ratio (z) = -0.03185 0.25918
#
# Static dielectric constant tensor:
#      x y z
#    x 4.441070 -0.312070 0.184650 
#    y -0.312070 4.469560 -0.035270 
#    z 0.184650 -0.035270 4.005470 
# 
# 
# High freq. dielectric constant tensor:
#      x y z
#    x 1.886740 -0.015590 0.010120 
#    y -0.015590 1.895860 0.008390 
#    z 0.010120 0.008390 1.873100 
# 
# From -- ./inp_files/314771.got.cif
#   From: 2010.06.25/outbox.cif.g09.slc.cpg/sg2_158_cif.got.tgz:314771.got - 2010.06.27 13:26:56.
