data_PCOD8016315
_publ_section_title
;
Structure prediction by ZEFSAII (Michael W. Deem and Ramdas Pophale) SiO2 
 PCOD8016315
Probable space group: P -1
;
_chemical_formula_sum "Si O2"
_cell_formula_units_Z 14
_cell_length_a 29.830865
_cell_length_b 15.029104
_cell_length_c 12.464304
_cell_angle_alpha 148.770225
_cell_angle_beta 21.710872
_cell_angle_gamma 161.771347
_cell_volume 628.322608
_symmetry_space_group_name_H-M "P -1"
_symmetry_group_IT_number 2
_symmetry_cell_setting 'triclinic'
loop_
_space_group_symop_operation_xyz
x,y,z
-x,-y,-z
loop_
_atom_site_type_symbol
_atom_site_label
_atom_site_fract_x
_atom_site_fract_y
_atom_site_fract_z
Si Si1 0.578149 0.459562 0.371816
Si Si2 0.536611 0.448129 0.695130
Si Si3 0.816191 0.165671 0.450867
Si Si4 0.170210 0.524304 0.863669
Si Si5 0.929543 0.112894 0.780317
Si Si6 0.028622 0.284660 0.298271
Si Si7 0.801629 0.056247 0.781976
O O1 0.500000 0.500000 0.500000
O O2 0.576375 0.535860 0.572918
O O3 0.413145 0.114030 0.376649
O O4 0.812303 0.680007 0.051476
O O5 0.656954 0.416319 0.431849
O O6 0.609710 0.703922 0.860421
O O7 0.298946 0.139212 0.924374
O O8 0.842060 0.392249 0.657009
O O9 0.845082 0.085185 0.412382
O O10 0.985620 0.296117 0.123524
O O11 0.085020 0.396322 0.801958
O O12 0.270912 0.831043 0.961880
O O13 0.940631 0.211106 0.739495
O O14 0.000000 0.000000 0.500000
O O15 0.939585 0.142609 0.466906
#
# Coordination Sequence:
#
# PCOD8016315 Si02
#       7
#     2   2   2   2   2   2   2
#     4  12  25  38  67 101 136 178 223 273 340 407
#     4  12  26  47  70 101 140 179 225 287 339 397
#     4  10  21  44  66  97 136 174 223 276 338 401
#     4  11  24  48  73  98 139 181 226 285 337 401
#     4  12  26  48  73  97 141 180 227 285 338 403
#     4  10  23  42  68  98 136 174 219 282 334 400
#     4  11  26  46  70 105 135 181 231 275 342 406
#
# _framework density 22.281547
#
# number of rings (size 3 to 8) (size 9 to 14) (size 15 to 20)
#    0.000    0.857    4.286    2.143    4.000    1.714 
#    5.143    0.000    0.000    0.000    0.000    0.000 
#    0.000    0.000    0.000    0.000    0.000    0.000 
#
# Total GULP energy -173659.656288 kJ/mol
# GULP energy per Si atom -12404.261163 kJ/mol
# Density = 2.223083 g / cm^3
# Si number density = 22.281547 Si / 1000 Ang^3
#
#
#
# Elastic Constant Matrix: (Units=GPa)
#
#
# Indices 1 2 3 4 5 6 
#
# 1 138.6824 12.3753 27.8774 -0.0849 8.1540 -1.2147
# 2 12.3753 69.6446 19.0800 5.7190 -12.3277 5.2692
# 3 27.8774 19.0800 86.2482 -8.2133 -1.4353 -2.6393
# 4 -0.0849 5.7190 -8.2133 29.6434 3.0297 -0.0993
# 5 8.1540 -12.3277 -1.4353 3.0297 35.6862 2.6086
# 6 -1.2147 5.2692 -2.6393 -0.0993 2.6086 36.8464
#
#
#
# Elastic Compliance Matrix: (Units=1/GPa)
#
#
# Indices 1 2 3 4 5 6 
#
# 1 0.007929 -0.001203 -0.002337 -0.000152 -0.002340 0.000431
# 2 -0.001203 0.017558 -0.003979 -0.005206 0.006866 -0.003336
# 3 -0.002337 -0.003979 0.013706 0.004645 -0.000796 0.001543
# 4 -0.000152 -0.005206 0.004645 0.036520 -0.004788 0.001510
# 5 -0.002340 0.006866 -0.000796 -0.004788 0.031549 -0.003362
# 6 0.000431 -0.003336 0.001543 0.001510 -0.003362 0.027984
#
#
# Mechanical properties :
#
#
# Convention : Reuss Voigt Hill
#
# Bulk Modulus (GPa) = 41.39871 45.91562 43.65717
# Shear Modulus (GPa) = 31.57871 36.11804 33.84837
#
# Velocity S-wave (km/s) = 3.76873 4.03051 3.90182
# Velocity P-wave (km/s) = 6.12845 6.50475 6.31940
#
# Compressibility (1/GPa) = 0.02415534
#
# Stress axis : x y z
#
# Youngs Moduli (GPa) = 126.11767 56.95530 72.95901
#
# Poissons Ratio (x) = 0.06852 0.17050
# Poissons Ratio (y) = 0.15172 0.29029
# Poissons Ratio (z) = 0.29473 0.22662
#
# Static dielectric constant tensor:
#      x y z
#    x 4.291940 0.217220 0.139830 
#    y 0.217220 4.265390 0.038820 
#    z 0.139830 0.038820 3.846590 
# 
# 
# High freq. dielectric constant tensor:
#      x y z
#    x 1.893280 0.004700 0.008840 
#    y 0.004700 1.886110 0.010860 
#    z 0.008840 0.010860 1.873920 
# 
# From -- ./inp_files/26810.got.cif
#   From: 2010.06.25/outbox.cif.g09.slc.cpg/sg2_14_cif.got.tgz:26810.got - 2010.06.27 13:26:56.
