data_PCOD8016649
_publ_section_title
;
Structure prediction by ZEFSAII (Michael W. Deem and Ramdas Pophale) SiO2 
 PCOD8016649
Probable space group: P -1
;
_chemical_formula_sum "Si O2"
_cell_formula_units_Z 14
_cell_length_a 13.430105
_cell_length_b 6.592780
_cell_length_c 14.135415
_cell_angle_alpha 68.744065
_cell_angle_beta 30.740984
_cell_angle_gamma 79.705043
_cell_volume 572.566166
_symmetry_space_group_name_H-M "P -1"
_symmetry_group_IT_number 2
_symmetry_cell_setting 'triclinic'
loop_
_space_group_symop_operation_xyz
x,y,z
-x,-y,-z
loop_
_atom_site_type_symbol
_atom_site_label
_atom_site_fract_x
_atom_site_fract_y
_atom_site_fract_z
Si Si1 0.480031 0.242682 0.585288
Si Si2 0.127828 0.362683 0.476073
Si Si3 0.250397 0.025209 0.106826
Si Si4 0.626952 0.872257 0.801783
Si Si5 0.205830 0.822130 0.805103
Si Si6 0.897411 0.634578 0.937305
Si Si7 0.760416 0.305183 0.508302
O O1 0.500000 0.500000 0.500000
O O2 0.635467 0.151002 0.413368
O O3 0.543058 0.237004 0.644449
O O4 0.257146 0.065761 0.777010
O O5 0.314781 0.334349 0.263476
O O6 0.226928 0.481865 0.470707
O O7 0.000000 0.500000 0.500000
O O8 0.980258 0.123049 0.668892
O O9 0.335552 0.143961 0.115430
O O10 0.258342 0.230919 0.993885
O O11 0.392641 0.872393 0.978217
O O12 0.776826 0.102248 0.597803
O O13 0.987129 0.754043 0.943596
O O14 0.221455 0.626286 0.899254
O O15 0.060548 0.632321 0.724106
#
# Coordination Sequence:
#
# PCOD8016649 Si02
#       7
#     2   2   2   2   2   2   2
#     4  10  23  41  68 101 142 184 234 298 361 426
#     4  12  24  44  73 100 145 190 231 298 358 423
#     4  11  24  44  73 102 144 190 234 297 360 427
#     4  11  25  47  66 106 147 181 244 290 355 442
#     4   9  22  44  68 103 138 183 241 300 355 428
#     4  10  21  45  73 102 142 186 243 298 363 423
#     4  11  24  43  67 105 142 188 232 297 361 426
#
# _framework density 24.451321
#
# number of rings (size 3 to 8) (size 9 to 14) (size 15 to 20)
#    0.000    1.429    2.857    1.286    4.000    2.857 
#    2.571    2.143    0.000    0.000    0.000    0.000 
#    0.000    0.000    0.000    0.000    0.000    0.000 
#
# Total GULP energy -173573.838501 kJ/mol
# GULP energy per Si atom -12398.131322 kJ/mol
# Density = 2.439567 g / cm^3
# Si number density = 24.451321 Si / 1000 Ang^3
#
#
#
# Elastic Constant Matrix: (Units=GPa)
#
#
# Indices 1 2 3 4 5 6 
#
# 1 149.8409 79.7947 29.6034 -5.2783 0.0521 -4.5960
# 2 79.7947 146.8904 37.8195 5.9444 -9.1125 2.4293
# 3 29.6034 37.8195 72.8206 8.0654 9.2146 9.1781
# 4 -5.2783 5.9444 8.0654 58.2870 3.9521 7.3983
# 5 0.0521 -9.1125 9.2146 3.9521 24.0535 -13.4077
# 6 -4.5960 2.4293 9.1781 7.3983 -13.4077 41.9148
#
#
#
# Elastic Compliance Matrix: (Units=1/GPa)
#
#
# Indices 1 2 3 4 5 6 
#
# 1 0.009751 -0.005044 -0.001531 0.001534 -0.000977 0.001114
# 2 -0.005044 0.011375 -0.005036 -0.001827 0.008115 0.002809
# 3 -0.001531 -0.005036 0.019932 -0.000291 -0.014394 -0.008794
# 4 0.001534 -0.001827 -0.000291 0.018592 -0.006425 -0.004999
# 5 -0.000977 0.008115 -0.014394 -0.006425 0.064851 0.024453
# 6 0.001114 0.002809 -0.008794 -0.004999 0.024453 0.034447
#
#
# Mechanical properties :
#
#
# Convention : Reuss Voigt Hill
#
# Bulk Modulus (GPa) = 56.06448 73.77634 64.92041
# Shear Modulus (GPa) = 26.57941 39.67334 33.12638
#
# Velocity S-wave (km/s) = 3.30060 4.03245 3.68474
# Velocity P-wave (km/s) = 6.12405 7.20549 6.68667
#
# Compressibility (1/GPa) = 0.01783660
#
# Stress axis : x y z
#
# Youngs Moduli (GPa) = 102.55676 87.91082 50.17012
#
# Poissons Ratio (x) = 0.44340 0.07682
# Poissons Ratio (y) = 0.51727 0.25265
# Poissons Ratio (z) = 0.15703 0.44271
#
# Static dielectric constant tensor:
#      x y z
#    x 4.696530 0.158090 0.086930 
#    y 0.158090 4.361760 -0.044340 
#    z 0.086930 -0.044340 4.443090 
# 
# 
# High freq. dielectric constant tensor:
#      x y z
#    x 1.973120 0.001370 0.013020 
#    y 0.001370 1.967250 0.004910 
#    z 0.013020 0.004910 1.978380 
# 
# From -- ./inp_files/138150.got.cif
#   From: 2010.06.25/outbox.cif.g09.slc.cpg/sg2_70_cif.got.tgz:138150.got - 2010.06.27 13:26:56.
