data_PCOD8016714
_publ_section_title
;
Structure prediction by ZEFSAII (Michael W. Deem and Ramdas Pophale) SiO2 
 PCOD8016714
Probable space group: P -1
;
_chemical_formula_sum "Si O2"
_cell_formula_units_Z 16
_cell_length_a 8.972139
_cell_length_b 12.157658
_cell_length_c 15.244126
_cell_angle_alpha 153.027094
_cell_angle_beta 103.645899
_cell_angle_gamma 84.250123
_cell_volume 709.697979
_symmetry_space_group_name_H-M "P -1"
_symmetry_group_IT_number 2
_symmetry_cell_setting 'triclinic'
loop_
_space_group_symop_operation_xyz
x,y,z
-x,-y,-z
loop_
_atom_site_type_symbol
_atom_site_label
_atom_site_fract_x
_atom_site_fract_y
_atom_site_fract_z
Si Si1 0.830131 0.840857 0.887897
Si Si2 0.688165 0.667308 0.569557
Si Si3 0.118532 0.647570 0.375407
Si Si4 0.556161 0.055798 0.314815
Si Si5 0.373450 0.851577 0.306614
Si Si6 0.880924 0.563963 0.961486
Si Si7 0.629449 0.077802 0.147066
Si Si8 0.094198 0.076567 0.368648
O O1 0.709724 0.815854 0.770951
O O2 0.846378 0.564539 0.709577
O O3 0.773016 0.965050 0.053995
O O4 0.000000 0.000000 0.000000
O O5 0.524823 0.707085 0.533908
O O6 0.681544 0.377131 0.375629
O O7 0.837094 0.792032 0.618613
O O8 0.275012 0.873801 0.564187
O O9 0.084383 0.561166 0.211334
O O10 0.959822 0.719818 0.435200
O O11 0.572069 0.953439 0.145648
O O12 0.447000 0.848845 0.217161
O O13 0.301186 0.561464 0.121638
O O14 0.500000 0.000000 0.500000
O O15 0.225763 0.979843 0.372495
O O16 0.000000 0.500000 0.000000
O O17 0.931617 0.864733 0.173015
O O18 0.500000 0.000000 0.000000
#
# Coordination Sequence:
#
# PCOD8016714 Si02
#       8
#     2   2   2   2   2   2   2   2
#     4  12  26  40  68  99 140 183 234 278 340 411
#     4  11  23  45  64 101 144 181 227 291 334 410
#     4  12  24  42  68 100 137 178 229 281 344 409
#     4  11  23  42  69  98 141 180 227 282 343 405
#     4  10  21  46  73  99 134 177 227 292 342 406
#     4  10  23  45  72  94 134 173 230 284 347 405
#     4  12  24  43  69  99 137 186 227 275 347 406
#     4  10  25  43  72  99 137 179 228 279 354 404
#
# _framework density 22.544802000000001
#
# number of rings (size 3 to 8) (size 9 to 14) (size 15 to 20)
#    0.000    1.000    3.750    2.625    3.500    3.000 
#    2.250    0.625    2.750    0.000    0.000    0.000 
#    0.000    0.000    0.000    0.000    0.000    0.000 
#
# Total GULP energy -198352.270264 kJ/mol
# GULP energy per Si atom -12397.016891 kJ/mol
# Density = 2.249349 g / cm^3
# Si number density = 22.544802 Si / 1000 Ang^3
#
#
#
# Elastic Constant Matrix: (Units=GPa)
#
#
# Indices 1 2 3 4 5 6 
#
# 1 117.8665 43.0108 42.3238 0.9458 -6.7656 20.9873
# 2 43.0108 113.8605 46.3916 -18.0514 4.3222 32.1550
# 3 42.3238 46.3916 97.8601 -16.4508 6.3818 20.8151
# 4 0.9458 -18.0514 -16.4508 37.9581 4.9672 10.1795
# 5 -6.7656 4.3222 6.3818 4.9672 45.0591 -4.8442
# 6 20.9873 32.1550 20.8151 10.1795 -4.8442 40.4015
#
#
#
# Elastic Compliance Matrix: (Units=1/GPa)
#
#
# Indices 1 2 3 4 5 6 
#
# 1 0.011460 -0.003566 -0.004368 -0.004474 0.003245 0.000651
# 2 -0.003566 0.016795 -0.000893 0.012293 -0.004960 -0.014747
# 3 -0.004368 -0.000893 0.016246 0.009607 -0.004832 -0.008390
# 4 -0.004474 0.012293 0.009607 0.044567 -0.010805 -0.024934
# 5 0.003245 -0.004960 -0.004832 -0.010805 0.026173 0.010613
# 6 0.000651 -0.014747 -0.008390 -0.024934 0.010613 0.048027
#
#
# Mechanical properties :
#
#
# Convention : Reuss Voigt Hill
#
# Bulk Modulus (GPa) = 37.24782 65.89329 51.57055
# Shear Modulus (GPa) = 26.33361 37.87447 32.10404
#
# Velocity S-wave (km/s) = 3.42139 4.10318 3.77770
# Velocity P-wave (km/s) = 5.67146 7.19300 6.47707
#
# Compressibility (1/GPa) = 0.02684721
#
# Stress axis : x y z
#
# Youngs Moduli (GPa) = 87.25988 59.54040 61.55308
#
# Poissons Ratio (x) = 0.21230 0.26888
# Poissons Ratio (y) = 0.31114 0.05498
# Poissons Ratio (z) = 0.38118 0.05318
#
# Static dielectric constant tensor:
#      x y z
#    x 4.294310 0.332940 0.204570 
#    y 0.332940 4.247860 0.087990 
#    z 0.204570 0.087990 4.552070 
# 
# 
# High freq. dielectric constant tensor:
#      x y z
#    x 1.897820 0.011180 0.010760 
#    y 0.011180 1.903240 -0.008700 
#    z 0.010760 -0.008700 1.875130 
# 
# From -- ./inp_files/447585.got.cif
#   From: 2010.06.25/outbox.cif.g09.slc.cpg/sg2_224_cif.got.tgz:447585.got - 2010.06.27 13:26:56.
