data_PCOD8016147
_publ_section_title
;
Structure prediction by ZEFSAII (Michael W. Deem and Ramdas Pophale) SiO2 
 PCOD8016147
Probable space group: P -1
;
_chemical_formula_sum "Si O2"
_cell_formula_units_Z 16
_cell_length_a 6.692237
_cell_length_b 8.800091
_cell_length_c 14.290096
_cell_angle_alpha 99.993193
_cell_angle_beta 99.538674
_cell_angle_gamma 106.815654
_cell_volume 772.279956
_symmetry_space_group_name_H-M "P -1"
_symmetry_group_IT_number 2
_symmetry_cell_setting 'triclinic'
loop_
_space_group_symop_operation_xyz
x,y,z
-x,-y,-z
loop_
_atom_site_type_symbol
_atom_site_label
_atom_site_fract_x
_atom_site_fract_y
_atom_site_fract_z
Si Si1 0.975140 0.389350 0.140046
Si Si2 0.220592 0.290344 0.410767
Si Si3 0.348762 0.059347 0.271642
Si Si4 0.558429 0.336326 0.986669
Si Si5 0.201242 0.682745 0.681305
Si Si6 0.351999 0.709268 0.218819
Si Si7 0.418078 0.427083 0.627130
Si Si8 0.801543 0.858301 0.928292
O O1 0.117283 0.575102 0.190922
O O2 0.137479 0.301790 0.105255
O O3 0.861008 0.299920 0.214776
O O4 0.799069 0.381665 0.047883
O O5 0.208598 0.119521 0.342953
O O6 0.318785 0.299057 0.522798
O O7 0.362769 0.438105 0.373477
O O8 0.986800 0.308640 0.401302
O O9 0.595408 0.165839 0.314811
O O10 0.272840 0.074277 0.162844
O O11 0.319778 0.873133 0.272167
O O12 0.550510 0.265275 0.874727
O O13 0.500000 0.500000 0.000000
O O14 0.394370 0.193424 0.019443
O O15 0.245929 0.512493 0.653601
O O16 0.527497 0.667275 0.291594
O O17 0.000000 0.000000 0.000000
#
# Coordination Sequence:
#
# PCOD8016147 Si02
#       8
#     2   2   2   2   2   2   2   2
#     4  12  23  44  66  92 131 173 217 262 319 385
#     4  10  21  43  71  92 127 171 217 266 323 387
#     4  11  25  42  63  97 134 167 213 269 322 385
#     4  12  26  42  66  95 131 171 217 267 314 383
#     4  11  20  42  70  93 126 169 219 265 319 386
#     4  12  25  43  64  98 137 170 213 272 325 380
#     4  10  22  42  68  99 124 167 220 269 321 384
#     4  12  26  43  66  95 130 176 218 261 321 385
#
# _framework density 20.717876
#
# number of rings (size 3 to 8) (size 9 to 14) (size 15 to 20)
#    0.000    0.750    5.000    3.000    3.500    1.500 
#    2.250    0.625    0.000    0.000    0.000    0.000 
#    0.000    0.000    0.000    0.000    0.000    0.000 
#
# Total GULP energy -198515.489900 kJ/mol
# GULP energy per Si atom -12407.218119 kJ/mol
# Density = 2.067072 g / cm^3
# Si number density = 20.717876 Si / 1000 Ang^3
#
#
#
# Elastic Constant Matrix: (Units=GPa)
#
#
# Indices 1 2 3 4 5 6 
#
# 1 119.4893 47.1140 43.5787 0.4519 15.3354 -10.6993
# 2 47.1140 107.8910 44.0117 16.1638 7.9053 -17.9214
# 3 43.5787 44.0117 124.2464 2.4102 10.4876 -9.1029
# 4 0.4519 16.1638 2.4102 23.5825 -2.5628 -3.2424
# 5 15.3354 7.9053 10.4876 -2.5628 28.6591 -2.4048
# 6 -10.6993 -17.9214 -9.1029 -3.2424 -2.4048 30.4283
#
#
#
# Elastic Compliance Matrix: (Units=1/GPa)
#
#
# Indices 1 2 3 4 5 6 
#
# 1 0.011308 -0.003961 -0.002217 0.002435 -0.003851 0.000935
# 2 -0.003961 0.014565 -0.003119 -0.008995 -0.001124 0.005205
# 3 -0.002217 -0.003119 0.010067 0.001041 -0.001512 0.000386
# 4 0.002435 -0.008995 0.001041 0.049206 0.005326 0.001534
# 5 -0.003851 -0.001124 -0.001512 0.005326 0.038388 0.001133
# 6 0.000935 0.005205 0.000386 0.001534 0.001133 0.036627
#
#
# Mechanical properties :
#
#
# Convention : Reuss Voigt Hill
#
# Bulk Modulus (GPa) = 57.65101 69.00394 63.32748
# Shear Modulus (GPa) = 27.09462 30.99547 29.04504
#
# Velocity S-wave (km/s) = 3.62026 3.87211 3.74830
# Velocity P-wave (km/s) = 6.73514 7.30546 7.02609
#
# Compressibility (1/GPa) = 0.01734575
#
# Stress axis : x y z
#
# Youngs Moduli (GPa) = 88.43325 68.65570 99.33680
#
# Poissons Ratio (x) = 0.27194 0.22021
# Poissons Ratio (y) = 0.35028 0.30988
# Poissons Ratio (z) = 0.19604 0.21417
#
# Static dielectric constant tensor:
#      x y z
#    x 3.901980 -0.080270 0.052420 
#    y -0.080270 3.573060 0.091110 
#    z 0.052420 0.091110 3.857530 
# 
# 
# High freq. dielectric constant tensor:
#      x y z
#    x 1.823690 -0.006380 0.005520 
#    y -0.006380 1.796010 0.004520 
#    z 0.005520 0.004520 1.821150 
# 
# From -- ./inp_files/38094.got.cif
#   From: 2010.06.25/outbox.cif.g09.slc.cpg/sg2_20_cif.got.tgz:38094.got - 2010.06.27 13:26:56.
