data_PCOD8016025
_publ_section_title
;
Structure prediction by ZEFSAII (Michael W. Deem and Ramdas Pophale) SiO2 
 PCOD8016025
Probable space group: P -1
;
_chemical_formula_sum "Si O2"
_cell_formula_units_Z 14
_cell_length_a 8.638128
_cell_length_b 8.805386
_cell_length_c 11.797306
_cell_angle_alpha 61.646746
_cell_angle_beta 112.703545
_cell_angle_gamma 128.198187
_cell_volume 615.041181
_symmetry_space_group_name_H-M "P -1"
_symmetry_group_IT_number 2
_symmetry_cell_setting 'triclinic'
loop_
_space_group_symop_operation_xyz
x,y,z
-x,-y,-z
loop_
_atom_site_type_symbol
_atom_site_label
_atom_site_fract_x
_atom_site_fract_y
_atom_site_fract_z
Si Si1 0.029427 0.242716 0.811374
Si Si2 0.712399 0.784014 0.924365
Si Si3 0.696014 0.562540 0.785349
Si Si4 0.047566 0.448156 0.411611
Si Si5 0.292393 0.319677 0.636896
Si Si6 0.384335 0.791809 0.972747
Si Si7 0.122523 0.859610 0.704659
O O1 0.166157 0.277507 0.730138
O O2 0.934830 0.383600 0.731653
O O3 0.155699 0.285135 0.946626
O O4 0.843607 0.014854 0.838733
O O5 0.623017 0.647560 0.835500
O O6 0.535179 0.751281 0.963618
O O7 0.524721 0.456904 0.679887
O O8 0.893686 0.747412 0.719028
O O9 0.734382 0.392006 0.906158
O O10 0.247153 0.444815 0.487234
O O11 0.000000 0.500000 0.500000
O O12 0.877605 0.226229 0.391092
O O13 0.230380 0.102453 0.642153
O O14 0.232446 0.795570 0.844465
O O15 0.500000 0.000000 0.000000
#
# Coordination Sequence:
#
# PCOD8016025 Si02
#       7
#     2   2   2   2   2   2   2
#     4  10  21  43  69 102 134 180 230 277 338 407
#     4  11  23  40  73 100 140 180 224 278 346 409
#     4  12  25  42  70 101 139 183 224 277 349 403
#     4  10  25  43  73  96 134 184 230 280 338 400
#     4  11  23  47  66  98 141 176 232 280 333 407
#     4  12  25  41  67 107 143 176 221 284 340 410
#     4  12  25  45  70 100 139 180 225 284 345 397
#
# _framework density 22.762703999999999
#
# number of rings (size 3 to 8) (size 9 to 14) (size 15 to 20)
#    0.000    0.857    4.286    2.143    8.000    0.571 
#    0.000    2.143    0.000    0.000    0.000    0.000 
#    0.000    0.000    0.000    0.000    0.000    0.000 
#
# Total GULP energy -173570.429187 kJ/mol
# GULP energy per Si atom -12397.887799 kJ/mol
# Density = 2.271090 g / cm^3
# Si number density = 22.762704 Si / 1000 Ang^3
#
#
#
# Elastic Constant Matrix: (Units=GPa)
#
#
# Indices 1 2 3 4 5 6 
#
# 1 71.0631 55.0838 49.8376 5.4095 12.2881 -4.4574
# 2 55.0838 157.1791 67.7955 23.0734 14.5976 -13.4149
# 3 49.8376 67.7955 125.0417 9.1698 45.4317 -13.0879
# 4 5.4095 23.0734 9.1698 46.9602 -9.4989 -4.2337
# 5 12.2881 14.5976 45.4317 -9.4989 48.4145 2.4281
# 6 -4.4574 -13.4149 -13.0879 -4.2337 2.4281 40.3108
#
#
#
# Elastic Compliance Matrix: (Units=1/GPa)
#
#
# Indices 1 2 3 4 5 6 
#
# 1 0.022895 -0.005446 -0.007887 0.002171 0.003750 -0.001839
# 2 -0.005446 0.010221 -0.003140 -0.003560 0.000479 0.001377
# 3 -0.007887 -0.003140 0.019752 -0.004326 -0.016689 0.005047
# 4 0.002171 -0.003560 -0.004326 0.025560 0.009609 -0.000244
# 5 0.003750 0.000479 -0.016689 0.009609 0.037410 -0.006088
# 6 -0.001839 0.001377 0.005047 -0.000244 -0.006088 0.027042
#
#
# Mechanical properties :
#
#
# Convention : Reuss Voigt Hill
#
# Bulk Modulus (GPa) = 50.19368 77.63530 63.91449
# Shear Modulus (GPa) = 27.40219 39.17492 33.28855
#
# Velocity S-wave (km/s) = 3.47337 4.15301 3.82830
# Velocity P-wave (km/s) = 6.17936 7.56155 6.90513
#
# Compressibility (1/GPa) = 0.01992283
#
# Stress axis : x y z
#
# Youngs Moduli (GPa) = 43.67673 97.84134 50.62683
#
# Poissons Ratio (x) = 0.53283 0.39930
# Poissons Ratio (y) = 0.23786 0.15896
# Poissons Ratio (z) = 0.34448 0.30721
#
# Static dielectric constant tensor:
#      x y z
#    x 4.076510 -0.256940 0.260810 
#    y -0.256940 4.381460 0.027590 
#    z 0.260810 0.027590 4.596810 
# 
# 
# High freq. dielectric constant tensor:
#      x y z
#    x 1.885360 -0.016050 0.007710 
#    y -0.016050 1.914030 0.007950 
#    z 0.007710 0.007950 1.913220 
# 
# From -- ./inp_files/224129.got.cif
#   From: 2010.06.25/outbox.cif.g09.slc.cpg/sg2_113_cif.got.tgz:224129.got - 2010.06.27 13:26:56.
