data_PCOD8016403
_publ_section_title
;
Structure prediction by ZEFSAII (Michael W. Deem and Ramdas Pophale) SiO2 
 PCOD8016403
Probable space group: P -1
;
_chemical_formula_sum "Si O2"
_cell_formula_units_Z 16
_cell_length_a 13.599843
_cell_length_b 8.163119
_cell_length_c 18.310985
_cell_angle_alpha 102.439096
_cell_angle_beta 20.176462
_cell_angle_gamma 95.021879
_cell_volume 643.804952
_symmetry_space_group_name_H-M "P -1"
_symmetry_group_IT_number 2
_symmetry_cell_setting 'triclinic'
loop_
_space_group_symop_operation_xyz
x,y,z
-x,-y,-z
loop_
_atom_site_type_symbol
_atom_site_label
_atom_site_fract_x
_atom_site_fract_y
_atom_site_fract_z
Si Si1 0.201703 0.912898 0.535241
Si Si2 0.359596 0.483915 0.175032
Si Si3 0.940638 0.953346 0.143729
Si Si4 0.839045 0.684366 0.091798
Si Si5 0.685591 0.927271 0.001861
Si Si6 0.909653 0.789212 0.602039
Si Si7 0.135496 0.441209 0.098115
Si Si8 0.670394 0.800341 0.449916
O O1 0.478275 0.762100 0.370163
O O2 0.883177 0.962634 0.802506
O O3 0.163094 0.848370 0.474215
O O4 0.290768 0.092190 0.493997
O O5 0.250181 0.312815 0.241452
O O6 0.072710 0.662150 0.409092
O O7 0.500000 0.500000 0.000000
O O8 0.614639 0.460474 0.058215
O O9 0.003329 0.825035 0.016220
O O10 0.851806 0.842875 0.259405
O O11 0.678254 0.141410 0.326484
O O12 0.232322 0.000435 0.970780
O O13 0.862615 0.660528 0.987422
O O14 0.000000 0.500000 0.000000
O O15 0.769420 0.713463 0.921958
O O16 0.332765 0.029791 0.242533
O O17 0.802670 0.589439 0.355743
#
# Coordination Sequence:
#
# PCOD8016403 Si02
#       8
#     2   2   2   2   2   2   2   2
#     4  10  21  44  69  97 130 186 232 279 355 416
#     4  11  25  46  74 106 142 182 236 288 347 419
#     4   9  19  40  61  94 128 178 229 272 355 404
#     4  11  22  39  71  95 135 182 234 287 343 418
#     4  11  25  40  67  99 142 182 231 287 347 419
#     4  11  24  47  73 102 145 185 229 291 352 414
#     4  12  24  42  63 104 135 176 237 286 347 414
#     4   9  19  37  67  90 129 177 227 285 336 415
#
# _framework density 24.852247999999999
#
# number of rings (size 3 to 8) (size 9 to 14) (size 15 to 20)
#    0.000    1.500    2.500    3.375    0.000    2.500 
#    6.750    0.000    0.000    0.000    0.000    0.000 
#    0.000    0.000    0.000    0.000    0.000    0.000 
#
# Total GULP energy -198349.233062 kJ/mol
# GULP energy per Si atom -12396.827066 kJ/mol
# Density = 2.479568 g / cm^3
# Si number density = 24.852248 Si / 1000 Ang^3
#
#
#
# Elastic Constant Matrix: (Units=GPa)
#
#
# Indices 1 2 3 4 5 6 
#
# 1 115.9772 43.1298 33.6741 7.8461 -9.9789 22.4421
# 2 43.1298 93.2770 41.6140 37.1511 -12.7205 1.4617
# 3 33.6741 41.6140 98.8184 40.3094 -15.2013 -8.8110
# 4 7.8461 37.1511 40.3094 47.5863 -6.8723 -6.0426
# 5 -9.9789 -12.7205 -15.2013 -6.8723 47.6911 -1.6489
# 6 22.4421 1.4617 -8.8110 -6.0426 -1.6489 39.6053
#
#
#
# Elastic Compliance Matrix: (Units=1/GPa)
#
#
# Indices 1 2 3 4 5 6 
#
# 1 0.013492 -0.006217 -0.005078 0.005983 0.000145 -0.007627
# 2 -0.006217 0.019294 -0.000110 -0.013572 0.001882 0.000794
# 3 -0.005078 -0.000110 0.018319 -0.013528 0.002971 0.005017
# 4 0.005983 -0.013572 -0.013528 0.042059 -0.000603 0.000493
# 5 0.000145 0.001882 0.002971 -0.000603 0.022407 0.001350
# 6 -0.007627 0.000794 0.005017 0.000493 0.001350 0.030789
#
#
# Mechanical properties :
#
#
# Convention : Reuss Voigt Hill
#
# Bulk Modulus (GPa) = 35.34025 60.54539 47.94282
# Shear Modulus (GPa) = 27.99509 39.62019 33.80764
#
# Velocity S-wave (km/s) = 3.35992 3.99711 3.69229
# Velocity P-wave (km/s) = 5.41323 6.76148 6.12457
#
# Compressibility (1/GPa) = 0.02829635
#
# Stress axis : x y z
#
# Youngs Moduli (GPa) = 74.11724 51.82876 54.58787
#
# Poissons Ratio (x) = 0.32220 0.27719
# Poissons Ratio (y) = 0.46076 0.00601
# Poissons Ratio (z) = 0.37636 0.00570
#
# Static dielectric constant tensor:
#      x y z
#    x 4.787160 0.305690 -0.146900 
#    y 0.305690 4.483660 0.181070 
#    z -0.146900 0.181070 4.475520 
# 
# 
# High freq. dielectric constant tensor:
#      x y z
#    x 1.994130 0.022380 -0.009870 
#    y 0.022380 1.978140 0.016040 
#    z -0.009870 0.016040 1.986730 
# 
# From -- ./inp_files/597391.got.cif
#   From: 2010.06.25/outbox.cif.g09.slc.cpg/sg2_299_cif.got.tgz:597391.got - 2010.06.27 13:26:56.
