data_PCOD8016026
_publ_section_title
;
Structure prediction by ZEFSAII (Michael W. Deem and Ramdas Pophale) SiO2 
 PCOD8016026
Probable space group: P -1
;
_chemical_formula_sum "Si O2"
_cell_formula_units_Z 16
_cell_length_a 21.702915
_cell_length_b 9.495095
_cell_length_c 15.769025
_cell_angle_alpha 46.960921
_cell_angle_beta 18.404520
_cell_angle_gamma 47.945936
_cell_volume 746.369110
_symmetry_space_group_name_H-M "P -1"
_symmetry_group_IT_number 2
_symmetry_cell_setting 'triclinic'
loop_
_space_group_symop_operation_xyz
x,y,z
-x,-y,-z
loop_
_atom_site_type_symbol
_atom_site_label
_atom_site_fract_x
_atom_site_fract_y
_atom_site_fract_z
Si Si1 0.944918 0.186083 0.940004
Si Si2 0.802177 0.858368 0.951561
Si Si3 0.475052 0.657256 0.539009
Si Si4 0.858042 0.444977 0.422631
Si Si5 0.667596 0.085056 0.866206
Si Si6 0.112668 0.809194 0.178487
Si Si7 0.480443 0.529136 0.773997
Si Si8 0.715427 0.817314 0.762537
O O1 0.916296 0.118011 0.909566
O O2 0.085172 0.362164 0.682994
O O3 0.745403 0.259217 0.214693
O O4 0.000000 0.000000 0.000000
O O5 0.948434 0.663498 0.829194
O O6 0.730960 0.943646 0.918600
O O7 0.903886 0.010808 0.811246
O O8 0.616462 0.820265 0.266604
O O9 0.500000 0.500000 0.500000
O O10 0.519239 0.572531 0.608707
O O11 0.762953 0.289604 0.672033
O O12 0.692793 0.526753 0.538903
O O13 0.754117 0.996275 0.700482
O O14 0.430714 0.117681 0.152171
O O15 0.916750 0.710831 0.504312
O O16 0.319246 0.679024 0.970327
O O17 0.393152 0.324310 0.976914
#
# Coordination Sequence:
#
# PCOD8016026 Si02
#       8
#     2   2   2   2   2   2   2   2
#     4  11  28  46  68  96 142 177 223 283 339 401
#     4  12  25  42  72 101 135 178 231 273 335 403
#     4  11  24  44  67  99 131 183 227 276 337 399
#     4  11  24  46  68  99 132 180 224 280 332 394
#     4  10  23  41  71 103 137 171 228 287 320 399
#     4  11  26  42  68 101 132 183 219 279 344 398
#     4  10  25  42  66  99 144 171 225 283 333 400
#     4  10  21  43  69 102 135 177 224 275 343 388
#
# _framework density 21.437114999999999
#
# number of rings (size 3 to 8) (size 9 to 14) (size 15 to 20)
#    0.000    1.250    2.500    1.500    7.000    3.500 
#    0.000    2.500    0.000    0.000    0.000    0.000 
#    0.000    0.000    0.000    0.000    0.000    0.000 
#
# Total GULP energy -198305.891893 kJ/mol
# GULP energy per Si atom -12394.118243 kJ/mol
# Density = 2.138832 g / cm^3
# Si number density = 21.437115 Si / 1000 Ang^3
#
#
#
# Elastic Constant Matrix: (Units=GPa)
#
#
# Indices 1 2 3 4 5 6 
#
# 1 117.3424 59.9436 61.9030 15.8543 -9.7304 -18.1566
# 2 59.9436 90.2509 37.0281 1.6292 -10.0483 -14.8940
# 3 61.9030 37.0281 132.2413 8.8684 -3.4060 -14.7945
# 4 15.8543 1.6292 8.8684 26.2426 0.7744 -4.5468
# 5 -9.7304 -10.0483 -3.4060 0.7744 25.9090 1.2663
# 6 -18.1566 -14.8940 -14.7945 -4.5468 1.2663 36.8783
#
#
#
# Elastic Compliance Matrix: (Units=1/GPa)
#
#
# Indices 1 2 3 4 5 6 
#
# 1 0.016983 -0.008591 -0.004734 -0.007868 0.002565 0.001935
# 2 -0.008591 0.017954 -0.000892 0.004824 0.003322 0.003144
# 3 -0.004734 -0.000892 0.010179 -0.000258 -0.000846 0.001390
# 4 -0.007868 0.004824 -0.000258 0.043312 -0.002579 0.003399
# 5 0.002565 0.003322 -0.000846 -0.002579 0.040787 0.000546
# 6 0.001935 0.003144 0.001390 0.003399 0.000546 0.030296
#
#
# Mechanical properties :
#
#
# Convention : Reuss Voigt Hill
#
# Bulk Modulus (GPa) = 59.94620 73.06488 66.50554
# Shear Modulus (GPa) = 25.83898 29.86997 27.85447
#
# Velocity S-wave (km/s) = 3.47556 3.73685 3.60857
# Velocity P-wave (km/s) = 6.64308 7.26471 6.96084
#
# Compressibility (1/GPa) = 0.01668162
#
# Stress axis : x y z
#
# Youngs Moduli (GPa) = 58.88163 55.69887 98.24292
#
# Poissons Ratio (x) = 0.47850 0.46512
# Poissons Ratio (y) = 0.50584 0.08762
# Poissons Ratio (z) = 0.27877 0.04968
#
# Static dielectric constant tensor:
#      x y z
#    x 3.753200 -0.092670 -0.216070 
#    y -0.092670 3.896060 -0.190950 
#    z -0.216070 -0.190950 4.198280 
# 
# 
# High freq. dielectric constant tensor:
#      x y z
#    x 1.839200 -0.002990 -0.012350 
#    y -0.002990 1.842150 0.003060 
#    z -0.012350 0.003060 1.859300 
# 
# From -- ./inp_files/242577.got.cif
#   From: 2010.06.25/outbox.cif.g09.slc.cpg/sg2_122_cif.got.tgz:242577.got - 2010.06.27 13:26:56.
