data_PCOD8016316
_publ_section_title
;
Structure prediction by ZEFSAII (Michael W. Deem and Ramdas Pophale) SiO2 
 PCOD8016316
Probable space group: P -1
;
_chemical_formula_sum "Si O2"
_cell_formula_units_Z 14
_cell_length_a 7.126931
_cell_length_b 11.348773
_cell_length_c 9.235201
_cell_angle_alpha 74.260624
_cell_angle_beta 65.971807
_cell_angle_gamma 75.628048
_cell_volume 648.540203
_symmetry_space_group_name_H-M "P -1"
_symmetry_group_IT_number 2
_symmetry_cell_setting 'triclinic'
loop_
_space_group_symop_operation_xyz
x,y,z
-x,-y,-z
loop_
_atom_site_type_symbol
_atom_site_label
_atom_site_fract_x
_atom_site_fract_y
_atom_site_fract_z
Si Si1 0.988834 0.447294 0.233517
Si Si2 0.678802 0.671010 0.299727
Si Si3 0.217581 0.910465 0.968757
Si Si4 0.156490 0.263741 0.474202
Si Si5 0.268039 0.827644 0.297923
Si Si6 0.046403 0.682730 0.996140
Si Si7 0.580581 0.967981 0.644153
O O1 0.756403 0.521950 0.316715
O O2 0.125782 0.546559 0.089151
O O3 0.096348 0.392655 0.364853
O O4 0.973294 0.335586 0.164056
O O5 0.699140 0.717926 0.441294
O O6 0.442487 0.707347 0.310269
O O7 0.824452 0.737404 0.122051
O O8 0.386002 0.974325 0.809830
O O9 0.296690 0.888975 0.114047
O O10 0.205547 0.777710 0.942046
O O11 0.000000 0.000000 0.000000
O O12 0.278128 0.166115 0.356158
O O13 0.952690 0.216905 0.614271
O O14 0.281085 0.930435 0.381935
O O15 0.500000 0.000000 0.500000
#
# Coordination Sequence:
#
# PCOD8016316 Si02
#       7
#     2   2   2   2   2   2   2
#     4   9  22  40  73  97 142 179 218 289 330 400
#     4  10  21  44  66  97 141 170 232 267 338 404
#     4  12  26  44  74  99 133 185 230 275 341 407
#     4  12  24  43  70 101 140 179 221 282 344 398
#     4  12  25  45  69  98 138 184 221 281 340 403
#     4   9  21  44  65 101 137 172 229 277 332 399
#     4  12  27  44  65 104 138 173 230 287 334 402
#
# _framework density 21.586943999999999
#
# number of rings (size 3 to 8) (size 9 to 14) (size 15 to 20)
#    0.857    0.286    2.857    3.000    6.000    0.571 
#    0.000    4.286    0.000    0.000    0.000    0.000 
#    0.000    0.000    0.000    0.000    0.000    0.000 
#
# Total GULP energy -173595.647694 kJ/mol
# GULP energy per Si atom -12399.689121 kJ/mol
# Density = 2.153781 g / cm^3
# Si number density = 21.586944 Si / 1000 Ang^3
#
#
#
# Elastic Constant Matrix: (Units=GPa)
#
#
# Indices 1 2 3 4 5 6 
#
# 1 79.5021 21.4172 37.6690 -3.4625 16.4940 -18.3436
# 2 21.4172 88.1842 20.4672 8.0263 16.4933 -14.3696
# 3 37.6690 20.4672 102.1832 -2.5262 16.6193 -10.7041
# 4 -3.4625 8.0263 -2.5262 36.0123 0.6660 0.8792
# 5 16.4940 16.4933 16.6193 0.6660 38.3243 3.3912
# 6 -18.3436 -14.3696 -10.7041 0.8792 3.3912 47.4156
#
#
#
# Elastic Compliance Matrix: (Units=1/GPa)
#
#
# Indices 1 2 3 4 5 6 
#
# 1 0.017729 -0.001394 -0.004717 0.001646 -0.005521 0.005736
# 2 -0.001394 0.013821 -0.001096 -0.003289 -0.005155 0.003831
# 3 -0.004717 -0.001096 0.012324 0.000689 -0.002927 0.000822
# 4 0.001646 -0.003289 0.000689 0.028727 -0.000026 -0.000735
# 5 -0.005521 -0.005155 -0.002927 -0.000026 0.032549 -0.006686
# 6 0.005736 0.003831 0.000822 -0.000735 -0.006686 0.025148
#
#
# Mechanical properties :
#
#
# Convention : Reuss Voigt Hill
#
# Bulk Modulus (GPa) = 33.94396 47.66404 40.80400
# Shear Modulus (GPa) = 32.35598 37.03820 34.69709
#
# Velocity S-wave (km/s) = 3.87572 4.14668 4.01349
# Velocity P-wave (km/s) = 5.98220 6.71227 6.35772
#
# Compressibility (1/GPa) = 0.02946032
#
# Stress axis : x y z
#
# Youngs Moduli (GPa) = 56.40349 72.35592 81.14258
#
# Poissons Ratio (x) = 0.10084 0.38276
# Poissons Ratio (y) = 0.07861 0.08894
# Poissons Ratio (z) = 0.26606 0.07931
#
# Static dielectric constant tensor:
#      x y z
#    x 3.606810 -0.090600 0.084850 
#    y -0.090600 4.024740 0.164070 
#    z 0.084850 0.164070 3.929630 
# 
# 
# High freq. dielectric constant tensor:
#      x y z
#    x 1.826750 -0.004450 0.012750 
#    y -0.004450 1.856370 0.007540 
#    z 0.012750 0.007540 1.854590 
# 
# From -- ./inp_files/131416.got.cif
#   From: 2010.06.25/outbox.cif.g09.slc.cpg/sg2_66_cif.got.tgz:131416.got - 2010.06.27 13:26:56.
