data_PCOD8016218
_publ_section_title
;
Structure prediction by ZEFSAII (Michael W. Deem and Ramdas Pophale) SiO2 
 PCOD8016218
Probable space group: P -1
;
_chemical_formula_sum "Si O2"
_cell_formula_units_Z 14
_cell_length_a 24.709856
_cell_length_b 6.000816
_cell_length_c 18.477104
_cell_angle_alpha 121.664810
_cell_angle_beta 161.491563
_cell_angle_gamma 50.351320
_cell_volume 632.658604
_symmetry_space_group_name_H-M "P -1"
_symmetry_group_IT_number 2
_symmetry_cell_setting 'triclinic'
loop_
_space_group_symop_operation_xyz
x,y,z
-x,-y,-z
loop_
_atom_site_type_symbol
_atom_site_label
_atom_site_fract_x
_atom_site_fract_y
_atom_site_fract_z
Si Si1 0.166556 0.900200 0.136353
Si Si2 0.726304 0.385396 0.252050
Si Si3 0.152053 0.351639 0.970774
Si Si4 0.116312 0.712610 0.274205
Si Si5 0.948302 0.704778 0.638191
Si Si6 0.458069 0.089075 0.546178
Si Si7 0.958827 0.236111 0.385650
O O1 0.348251 0.913691 0.404920
O O2 0.235013 0.563315 0.139231
O O3 0.000000 0.000000 0.000000
O O4 0.074630 0.145934 0.996523
O O5 0.778172 0.646276 0.381678
O O6 0.772570 0.294262 0.209651
O O7 0.500000 0.500000 0.000000
O O8 0.851779 0.091756 0.411233
O O9 0.948090 0.419596 0.762667
O O10 0.101691 0.411815 0.831763
O O11 0.340616 0.013528 0.169705
O O12 0.314389 0.452260 0.440625
O O13 0.156197 0.982558 0.394305
O O14 0.073944 0.748875 0.740281
O O15 0.500000 0.000000 0.500000
O O16 0.000000 0.500000 0.500000
#
# Coordination Sequence:
#
# PCOD8016218 Si02
#       7
#     2   2   2   2   2   2   2
#     4  11  21  40  68  87 125 171 223 282 328 382
#     4  10  21  43  76 102 127 172 218 259 322 396
#     4  11  23  41  63  93 132 176 217 277 337 377
#     4  11  23  42  61  93 134 174 215 282 341 370
#     4  10  23  43  65  93 143 173 209 273 329 392
#     4  12  23  41  69  93 124 181 235 275 322 393
#     4   9  20  42  70  99 129 166 212 259 320 388
#
# _framework density 22.128837999999998
#
# number of rings (size 3 to 8) (size 9 to 14) (size 15 to 20)
#    0.000    1.429    2.857    2.571    0.000    2.286 
#    0.000   18.571    0.000    0.000    0.000    0.000 
#    0.000    0.000    0.000    0.000    0.000    0.000 
#
# Total GULP energy -173521.547683 kJ/mol
# GULP energy per Si atom -12394.396263 kJ/mol
# Density = 2.207847 g / cm^3
# Si number density = 22.128838 Si / 1000 Ang^3
#
#
#
# Elastic Constant Matrix: (Units=GPa)
#
#
# Indices 1 2 3 4 5 6 
#
# 1 157.7902 24.9857 65.7086 -14.5570 -0.0695 6.6834
# 2 24.9857 102.7566 39.7683 -8.3989 4.1029 -10.6845
# 3 65.7086 39.7683 112.9191 -9.8963 16.2781 -8.6295
# 4 -14.5570 -8.3989 -9.8963 36.1160 0.4219 -0.1701
# 5 -0.0695 4.1029 16.2781 0.4219 33.0880 -1.9534
# 6 6.6834 -10.6845 -8.6295 -0.1701 -1.9534 34.5037
#
#
#
# Elastic Compliance Matrix: (Units=1/GPa)
#
#
# Indices 1 2 3 4 5 6 
#
# 1 0.009024 -0.000295 -0.005582 0.001994 0.002594 -0.003079
# 2 -0.000295 0.011610 -0.003637 0.001592 0.000493 0.002779
# 3 -0.005582 -0.003637 0.014675 0.001018 -0.006601 0.003257
# 4 0.001994 0.001592 0.001018 0.029156 -0.001039 0.000446
# 5 0.002594 0.000493 -0.006601 -0.001039 0.033421 -0.000114
# 6 -0.003079 0.002779 0.003257 0.000446 -0.000114 0.031249
#
#
# Mechanical properties :
#
#
# Convention : Reuss Voigt Hill
#
# Bulk Modulus (GPa) = 61.41584 70.48789 65.95187
# Shear Modulus (GPa) = 32.55442 36.94174 34.74808
#
# Velocity S-wave (km/s) = 3.83969 4.09025 3.96695
# Velocity P-wave (km/s) = 6.88997 7.36407 7.13096
#
# Compressibility (1/GPa) = 0.01628245
#
# Stress axis : x y z
#
# Youngs Moduli (GPa) = 110.81260 86.13143 68.14532
#
# Poissons Ratio (x) = 0.02538 0.38039
# Poissons Ratio (y) = 0.03265 0.24782
# Poissons Ratio (z) = 0.61856 0.31322
#
# Static dielectric constant tensor:
#      x y z
#    x 4.615360 0.055800 0.057540 
#    y 0.055800 3.956390 -0.307160 
#    z 0.057540 -0.307160 3.025010 
# 
# 
# High freq. dielectric constant tensor:
#      x y z
#    x 1.883100 0.008490 -0.000080 
#    y 0.008490 1.883360 0.000980 
#    z -0.000080 0.000980 1.838890 
# 
# From -- ./inp_files/6880.got.cif
#   From: 2010.06.25/outbox.cif.g09.slc.cpg/sg2_4_cif.got.tgz:6880.got - 2010.06.27 13:26:56.
