data_PCOD8016313
_publ_section_title
;
Structure prediction by ZEFSAII (Michael W. Deem and Ramdas Pophale) SiO2 
 PCOD8016313
Probable space group: P -1
;
_chemical_formula_sum "Si O2"
_cell_formula_units_Z 16
_cell_length_a 8.696530
_cell_length_b 9.806543
_cell_length_c 12.648210
_cell_angle_alpha 90.570235
_cell_angle_beta 78.062347
_cell_angle_gamma 132.273260
_cell_volume 768.365263
_symmetry_space_group_name_H-M "P -1"
_symmetry_group_IT_number 2
_symmetry_cell_setting 'triclinic'
loop_
_space_group_symop_operation_xyz
x,y,z
-x,-y,-z
loop_
_atom_site_type_symbol
_atom_site_label
_atom_site_fract_x
_atom_site_fract_y
_atom_site_fract_z
Si Si1 0.486560 0.634591 0.445629
Si Si2 0.526559 0.130472 0.913685
Si Si3 0.976999 0.978498 0.378417
Si Si4 0.685779 0.508685 0.940882
Si Si5 0.122818 0.559914 0.594545
Si Si6 0.846417 0.628942 0.692495
Si Si7 0.893152 0.200246 0.760937
Si Si8 0.057472 0.877595 0.006763
O O1 0.500000 0.500000 0.500000
O O2 0.726304 0.820297 0.377367
O O3 0.378398 0.687894 0.536113
O O4 0.321096 0.514694 0.373668
O O5 0.625489 0.315537 0.968346
O O6 0.674843 0.162321 0.796633
O O7 0.282713 0.012057 0.911206
O O8 0.500000 0.000000 0.000000
O O9 0.121421 0.939543 0.314123
O O10 0.000000 0.000000 0.500000
O O11 0.080064 0.172894 0.316638
O O12 0.704655 0.525118 0.813891
O O13 0.904170 0.679561 0.968984
O O14 0.500000 0.500000 0.000000
O O15 0.000000 0.500000 0.500000
O O16 0.064472 0.666118 0.662777
O O17 0.064251 0.400027 0.680327
O O18 0.947563 0.176266 0.870705
O O19 0.000000 0.000000 0.000000
#
# Coordination Sequence:
#
# PCOD8016313 Si02
#       8
#     2   2   2   2   2   2   2   2
#     4  11  22  43  71  94 134 179 223 288 343 397
#     4  10  24  46  67  99 138 178 230 285 340 402
#     4  12  24  43  69 103 132 174 237 279 337 420
#     4  12  25  42  70 103 137 178 227 282 337 412
#     4  10  21  44  66  96 136 175 222 280 343 400
#     4  11  25  43  67  99 136 175 228 280 345 406
#     4  11  23  44  72  95 141 185 216 288 349 393
#     4  11  24  45  70 104 139 177 236 281 337 415
#
# _framework density 20.823428
#
# number of rings (size 3 to 8) (size 9 to 14) (size 15 to 20)
#    0.000    1.000    5.000    1.500    3.500    3.500 
#    2.250    1.250    0.000    0.000    0.000    0.000 
#    0.000    0.000    0.000    0.000    0.000    0.000 
#
# Total GULP energy -198208.981087 kJ/mol
# GULP energy per Si atom -12388.061318 kJ/mol
# Density = 2.077603 g / cm^3
# Si number density = 20.823428 Si / 1000 Ang^3
#
#
#
# Elastic Constant Matrix: (Units=GPa)
#
#
# Indices 1 2 3 4 5 6 
#
# 1 137.0207 53.7273 45.4687 15.4184 -32.0765 -7.0011
# 2 53.7273 144.6947 22.8019 9.6275 -10.5691 -6.2660
# 3 45.4687 22.8019 94.3911 8.4000 -12.0039 -6.9817
# 4 15.4184 9.6275 8.4000 28.6930 -11.9271 -2.5448
# 5 -32.0765 -10.5691 -12.0039 -11.9271 48.9859 -0.9050
# 6 -7.0011 -6.2660 -6.9817 -2.5448 -0.9050 45.8038
#
#
#
# Elastic Compliance Matrix: (Units=1/GPa)
#
#
# Indices 1 2 3 4 5 6 
#
# 1 0.011228 -0.003039 -0.003792 -0.001596 0.005392 0.000740
# 2 -0.003039 0.008166 -0.000444 -0.001188 -0.000617 0.000507
# 3 -0.003792 -0.000444 0.012770 -0.001340 0.000247 0.001237
# 4 -0.001596 -0.001188 -0.001340 0.040047 0.008154 0.001775
# 5 0.005392 -0.000617 0.000247 0.008154 0.025890 0.001742
# 6 0.000740 0.000507 0.001237 0.001775 0.001742 0.022336
#
#
# Mechanical properties :
#
#
# Convention : Reuss Voigt Hill
#
# Bulk Modulus (GPa) = 56.77377 68.90026 62.83701
# Shear Modulus (GPa) = 35.49676 41.63711 38.56693
#
# Velocity S-wave (km/s) = 4.13323 4.47646 4.30826
# Velocity P-wave (km/s) = 7.07825 7.73809 7.41551
#
# Compressibility (1/GPa) = 0.01761377
#
# Stress axis : x y z
#
# Youngs Moduli (GPa) = 89.06287 122.46597 78.30810
#
# Poissons Ratio (x) = 0.37223 0.29693
# Poissons Ratio (y) = 0.27070 0.03474
# Poissons Ratio (z) = 0.33771 0.05434
#
# Static dielectric constant tensor:
#      x y z
#    x 3.250240 0.442500 0.489300 
#    y 0.442500 0.600250 -1.499540 
#    z 0.489300 -1.499540 3.162450 
# 
# 
# High freq. dielectric constant tensor:
#      x y z
#    x 1.833000 -0.019100 -0.016920 
#    y -0.019100 1.810710 -0.014600 
#    z -0.016920 -0.014600 1.822650 
# 
# From -- ./inp_files/299679.got.cif
#   From: 2010.06.25/outbox.cif.g09.slc.cpg/sg2_150_cif.got.tgz:299679.got - 2010.06.27 13:26:56.
