data_PCOD8016445
_publ_section_title
;
Structure prediction by ZEFSAII (Michael W. Deem and Ramdas Pophale) SiO2 
 PCOD8016445
Probable space group: P -1
;
_chemical_formula_sum "Si O2"
_cell_formula_units_Z 16
_cell_length_a 10.841615
_cell_length_b 13.100869
_cell_length_c 11.467691
_cell_angle_alpha 135.679974
_cell_angle_beta 69.133219
_cell_angle_gamma 76.667956
_cell_volume 711.016933
_symmetry_space_group_name_H-M "P -1"
_symmetry_group_IT_number 2
_symmetry_cell_setting 'triclinic'
loop_
_space_group_symop_operation_xyz
x,y,z
-x,-y,-z
loop_
_atom_site_type_symbol
_atom_site_label
_atom_site_fract_x
_atom_site_fract_y
_atom_site_fract_z
Si Si1 0.977865 0.338933 0.798843
Si Si2 0.337308 0.324110 0.351001
Si Si3 0.601627 0.064807 0.554268
Si Si4 0.346579 0.511113 0.107842
Si Si5 0.237167 0.105391 0.111049
Si Si6 0.164698 0.710535 0.575020
Si Si7 0.802911 0.981389 0.194959
Si Si8 0.117782 0.510663 0.802051
O O1 0.864034 0.304315 0.739088
O O2 0.991777 0.463964 0.806761
O O3 0.830969 0.502156 0.089657
O O4 0.194406 0.117866 0.591231
O O5 0.217407 0.294087 0.300587
O O6 0.254813 0.548084 0.520819
O O7 0.306743 0.336789 0.512147
O O8 0.567722 0.119822 0.076881
O O9 0.640012 0.120471 0.466040
O O10 0.500000 0.000000 0.500000
O O11 0.444731 0.272898 0.860253
O O12 0.309422 0.566607 0.300903
O O13 0.500000 0.500000 0.000000
O O14 0.053766 0.169535 0.280088
O O15 0.259223 0.065356 0.932402
O O16 0.152759 0.890961 0.759156
O O17 0.997321 0.747986 0.990573
#
# Coordination Sequence:
#
# PCOD8016445 Si02
#       8
#     2   2   2   2   2   2   2   2
#     4  10  24  43  72 106 137 183 232 297 341 409
#     4  11  26  43  71 107 130 185 230 286 340 417
#     4  11  25  45  74 106 132 186 236 290 345 413
#     4  12  26  46  69 101 143 184 229 284 354 414
#     4  11  26  44  70 100 138 179 233 283 341 409
#     4  12  26  48  66 100 146 182 225 284 350 407
#     4  11  24  45  69 100 142 179 227 285 343 418
#     4  10  21  44  71 101 138 176 235 286 348 406
#
# _framework density 22.502980000000001
#
# number of rings (size 3 to 8) (size 9 to 14) (size 15 to 20)
#    0.000    1.000    2.500    3.750    7.000    3.000 
#    4.500    0.000    0.000    0.000    0.000    0.000 
#    0.000    0.000    0.000    0.000    0.000    0.000 
#
# Total GULP energy -198370.200669 kJ/mol
# GULP energy per Si atom -12398.137542 kJ/mol
# Density = 2.245176 g / cm^3
# Si number density = 22.502980 Si / 1000 Ang^3
#
#
#
# Elastic Constant Matrix: (Units=GPa)
#
#
# Indices 1 2 3 4 5 6 
#
# 1 55.7696 33.5750 4.7664 7.7301 -10.3140 9.2372
# 2 33.5750 115.9726 38.0039 -6.3244 1.6477 19.6141
# 3 4.7664 38.0039 90.2195 -10.9908 -4.0931 2.9377
# 4 7.7301 -6.3244 -10.9908 42.9206 0.2554 8.4660
# 5 -10.3140 1.6477 -4.0931 0.2554 37.5721 -1.4731
# 6 9.2372 19.6141 2.9377 8.4660 -1.4731 29.3088
#
#
#
# Elastic Compliance Matrix: (Units=1/GPa)
#
#
# Indices 1 2 3 4 5 6 
#
# 1 0.024800 -0.008019 0.001810 -0.005072 0.007360 -0.000796
# 2 -0.008019 0.014144 -0.004988 0.003796 -0.003694 -0.007720
# 3 0.001810 -0.004988 0.013426 0.002186 0.002199 0.000901
# 4 -0.005072 0.003796 0.002186 0.027136 -0.001861 -0.009093
# 5 0.007360 -0.003694 0.002199 -0.001861 0.029126 0.001933
# 6 -0.000796 -0.007720 0.000901 -0.009093 0.001933 0.042170
#
#
# Mechanical properties :
#
#
# Convention : Reuss Voigt Hill
#
# Bulk Modulus (GPa) = 33.36077 46.07247 39.71662
# Shear Modulus (GPa) = 27.29401 34.33472 30.81436
#
# Velocity S-wave (km/s) = 3.48646 3.91037 3.70448
# Velocity P-wave (km/s) = 5.57355 6.39581 5.99878
#
# Compressibility (1/GPa) = 0.02997533
#
# Stress axis : x y z
#
# Youngs Moduli (GPa) = 40.32236 70.70026 74.47998
#
# Poissons Ratio (x) = 0.56698 -0.13480
# Poissons Ratio (y) = 0.32336 0.37152
# Poissons Ratio (z) = -0.07298 0.35266
#
# Static dielectric constant tensor:
#      x y z
#    x 4.032350 0.082230 0.262910 
#    y 0.082230 4.145170 0.009430 
#    z 0.262910 0.009430 5.236110 
# 
# 
# High freq. dielectric constant tensor:
#      x y z
#    x 1.880710 0.002220 0.001560 
#    y 0.002220 1.882670 -0.010710 
#    z 0.001560 -0.010710 1.901560 
# 
# From -- ./inp_files/428881.got.cif
#   From: 2010.06.25/outbox.cif.g09.slc.cpg/sg2_215_cif.got.tgz:428881.got - 2010.06.27 13:26:56.
