data_PCOD8016035
_publ_section_title
;
Structure prediction by ZEFSAII (Michael W. Deem and Ramdas Pophale) SiO2 
 PCOD8016035
Probable space group: P -1
;
_chemical_formula_sum "Si O2"
_cell_formula_units_Z 14
_cell_length_a 8.682452
_cell_length_b 19.394285
_cell_length_c 10.550055
_cell_angle_alpha 140.974332
_cell_angle_beta 38.607883
_cell_angle_gamma 152.876181
_cell_volume 484.280521
_symmetry_space_group_name_H-M "P -1"
_symmetry_group_IT_number 2
_symmetry_cell_setting 'triclinic'
loop_
_space_group_symop_operation_xyz
x,y,z
-x,-y,-z
loop_
_atom_site_type_symbol
_atom_site_label
_atom_site_fract_x
_atom_site_fract_y
_atom_site_fract_z
Si Si1 0.806763 0.723514 0.248311
Si Si2 0.605074 0.880809 0.656416
Si Si3 0.838349 0.527899 0.307827
Si Si4 0.970561 0.586935 0.773140
Si Si5 0.121265 0.825718 0.470601
Si Si6 0.361706 0.221317 0.076083
Si Si7 0.283051 0.002243 0.976620
O O1 0.834673 0.866205 0.400236
O O2 0.419802 0.544305 0.223468
O O3 0.938811 0.762204 0.360777
O O4 0.048072 0.725463 0.002920
O O5 0.743584 0.939313 0.793567
O O6 0.244591 0.690015 0.627839
O O7 0.536778 0.976497 0.772770
O O8 0.500000 0.500000 0.500000
O O9 0.731224 0.406030 0.091885
O O10 0.943199 0.493561 0.316472
O O11 0.168975 0.711405 0.316989
O O12 0.841410 0.799150 0.698651
O O13 0.500000 0.000000 0.500000
O O14 0.421407 0.112459 0.919415
O O15 0.126082 0.164505 0.021542
#
# Coordination Sequence:
#
# PCOD8016035 Si02
#       7
#     2   2   2   2   2   2   2
#     4  11  26  46  69 107 143 191 240 303 359 445
#     4  11  22  44  70 103 145 192 239 299 367 424
#     4  10  22  44  75 101 136 195 242 295 360 429
#     4  11  25  47  71 105 147 186 251 296 363 438
#     4  11  25  44  69 105 146 184 237 305 371 425
#     4  10  21  43  69 105 139 189 249 293 356 434
#     4  10  22  38  70 105 138 187 242 294 348 432
#
# _framework density 28.908866
#
# number of rings (size 3 to 8) (size 9 to 14) (size 15 to 20)
#    0.000    1.429    2.857    1.286    8.000    0.571 
#    5.143    3.571    0.000    0.000    0.000    0.000 
#    0.000    0.000    0.000    0.000    0.000    0.000 
#
# Total GULP energy -173523.975483 kJ/mol
# GULP energy per Si atom -12394.569677 kJ/mol
# Density = 2.884307 g / cm^3
# Si number density = 28.908866 Si / 1000 Ang^3
#
#
#
# Elastic Constant Matrix: (Units=GPa)
#
#
# Indices 1 2 3 4 5 6 
#
# 1 129.6031 53.9631 62.7197 16.5956 -15.3820 16.1527
# 2 53.9631 133.9406 40.5559 39.8176 -3.7912 7.1670
# 3 62.7197 40.5559 157.7693 31.3464 -18.1168 -0.6855
# 4 16.5956 39.8176 31.3464 39.3247 -2.5499 -13.2557
# 5 -15.3820 -3.7912 -18.1168 -2.5499 43.5142 23.8352
# 6 16.1527 7.1670 -0.6855 -13.2557 23.8352 51.8739
#
#
#
# Elastic Compliance Matrix: (Units=1/GPa)
#
#
# Indices 1 2 3 4 5 6 
#
# 1 0.012267 -0.003002 -0.003090 -0.001546 0.006416 -0.006789
# 2 -0.003002 0.013121 0.001044 -0.014669 0.002918 -0.005954
# 3 -0.003090 0.001044 0.009318 -0.007906 0.004017 -0.002925
# 4 -0.001546 -0.014669 -0.007906 0.054001 -0.014469 0.022851
# 5 0.006416 0.002918 0.004017 -0.014469 0.039608 -0.024244
# 6 -0.006789 -0.005954 -0.002925 0.022851 -0.024244 0.039155
#
#
# Mechanical properties :
#
#
# Convention : Reuss Voigt Hill
#
# Bulk Modulus (GPa) = 40.63448 81.75448 61.19448
# Shear Modulus (GPa) = 26.91518 44.54753 35.73136
#
# Velocity S-wave (km/s) = 3.05460 3.92977 3.51949
# Velocity P-wave (km/s) = 5.15047 6.99516 6.14246
#
# Compressibility (1/GPa) = 0.02460964
#
# Stress axis : x y z
#
# Youngs Moduli (GPa) = 81.51924 76.21317 107.32106
#
# Poissons Ratio (x) = 0.22878 0.33167
# Poissons Ratio (y) = 0.24471 -0.11206
# Poissons Ratio (z) = 0.25193 -0.07958
#
# Static dielectric constant tensor:
#      x y z
#    x 5.120000 0.005120 -0.374420 
#    y 0.005120 6.652510 0.755770 
#    z -0.374420 0.755770 6.359100 
# 
# 
# High freq. dielectric constant tensor:
#      x y z
#    x 2.157030 0.020460 -0.013470 
#    y 0.020460 2.213900 0.018000 
#    z -0.013470 0.018000 2.208810 
# 
# From -- ./inp_files/404897.got.cif
#   From: 2010.06.25/outbox.cif.g09.slc.cpg/sg2_203_cif.got.tgz:404897.got - 2010.06.27 13:26:56.
