data_PCOD8016652
_publ_section_title
;
Structure prediction by ZEFSAII (Michael W. Deem and Ramdas Pophale) SiO2 
 PCOD8016652
Probable space group: P -1
;
_chemical_formula_sum "Si O2"
_cell_formula_units_Z 16
_cell_length_a 21.289376
_cell_length_b 11.645022
_cell_length_c 8.561271
_cell_angle_alpha 36.191023
_cell_angle_beta 126.264298
_cell_angle_gamma 144.549705
_cell_volume 713.298236
_symmetry_space_group_name_H-M "P -1"
_symmetry_group_IT_number 2
_symmetry_cell_setting 'triclinic'
loop_
_space_group_symop_operation_xyz
x,y,z
-x,-y,-z
loop_
_atom_site_type_symbol
_atom_site_label
_atom_site_fract_x
_atom_site_fract_y
_atom_site_fract_z
Si Si1 0.448873 0.620399 0.253085
Si Si2 0.604826 0.236106 0.690324
Si Si3 0.448406 0.209836 0.298348
Si Si4 0.261606 0.794487 0.251568
Si Si5 0.714241 0.872896 0.647888
Si Si6 0.900068 0.258745 0.731192
Si Si7 0.985985 0.197886 0.226386
Si Si8 0.828017 0.175596 0.177799
O O1 0.500000 0.500000 0.500000
O O2 0.384131 0.592252 0.339501
O O3 0.354403 0.432819 0.184503
O O4 0.543025 0.932097 0.992366
O O5 0.540155 0.218832 0.470974
O O6 0.725592 0.385810 0.632412
O O7 0.370698 0.112617 0.438719
O O8 0.376864 0.997593 0.286946
O O9 0.500000 0.500000 0.000000
O O10 0.154571 0.644033 0.372198
O O11 0.262980 0.973314 0.930425
O O12 0.802456 0.975926 0.801006
O O13 0.779475 0.095467 0.364272
O O14 0.000000 0.500000 0.500000
O O15 0.944097 0.183273 0.006883
O O16 0.901527 0.115562 0.327000
O O17 0.101700 0.504134 0.094075
O O18 0.000000 0.000000 0.500000
#
# Coordination Sequence:
#
# PCOD8016652 Si02
#       8
#     2   2   2   2   2   2   2   2
#     4  11  23  42  69 102 140 178 235 292 345 412
#     4  11  24  43  69  98 140 185 232 288 348 419
#     4  11  24  43  66  98 145 186 227 288 349 415
#     4  10  23  40  67 102 134 181 233 281 353 416
#     4  11  22  41  74  99 136 192 230 284 355 413
#     4  10  21  45  74 100 142 185 228 297 355 416
#     4  10  22  45  69  96 133 181 228 290 353 412
#     4  10  22  41  68  96 137 172 228 292 346 410
#
# _framework density 22.431009
#
# number of rings (size 3 to 8) (size 9 to 14) (size 15 to 20)
#    0.000    1.500    2.500    1.875    3.500    1.000 
#    6.750    1.875    0.000    0.000    0.000    0.000 
#    0.000    0.000    0.000    0.000    0.000    0.000 
#
# Total GULP energy -198229.408341 kJ/mol
# GULP energy per Si atom -12389.338021 kJ/mol
# Density = 2.237996 g / cm^3
# Si number density = 22.431009 Si / 1000 Ang^3
#
#
#
# Elastic Constant Matrix: (Units=GPa)
#
#
# Indices 1 2 3 4 5 6 
#
# 1 190.4331 43.0435 65.8731 2.8514 -0.0634 0.0091
# 2 43.0435 94.3568 19.2582 19.7188 9.9864 -10.6099
# 3 65.8731 19.2582 116.0015 14.5876 14.0488 4.2602
# 4 2.8514 19.7188 14.5876 27.0330 -9.0662 1.6588
# 5 -0.0634 9.9864 14.0488 -9.0662 33.1242 1.4474
# 6 0.0091 -10.6099 4.2602 1.6588 1.4474 32.6637
#
#
#
# Elastic Compliance Matrix: (Units=1/GPa)
#
#
# Indices 1 2 3 4 5 6 
#
# 1 0.008190 -0.005120 -0.005491 0.007996 0.006148 -0.001628
# 2 -0.005120 0.018433 0.003591 -0.019554 -0.012751 0.007079
# 3 -0.005491 0.003591 0.014093 -0.013270 -0.010723 0.000479
# 4 0.007996 -0.019554 -0.013270 0.068444 0.030686 -0.009459
# 5 0.006148 -0.012751 -0.010723 0.030686 0.047272 -0.006398
# 6 -0.001628 0.007079 0.000479 -0.009459 -0.006398 0.033616
#
#
# Mechanical properties :
#
#
# Convention : Reuss Voigt Hill
#
# Bulk Modulus (GPa) = 37.48929 73.01564 55.25247
# Shear Modulus (GPa) = 23.47625 36.73863 30.10744
#
# Velocity S-wave (km/s) = 3.23863 4.05143 3.66761
# Velocity P-wave (km/s) = 5.54386 7.38290 6.52846
#
# Compressibility (1/GPa) = 0.02667428
#
# Stress axis : x y z
#
# Youngs Moduli (GPa) = 122.09371 54.25103 70.95883
#
# Poissons Ratio (x) = 0.27778 0.38966
# Poissons Ratio (y) = 0.62515 -0.25480
# Poissons Ratio (z) = 0.67046 -0.19480
#
# Static dielectric constant tensor:
#      x y z
#    x 2.930200 -0.779810 -0.900080 
#    y -0.779810 4.151970 -0.087540 
#    z -0.900080 -0.087540 3.295220 
# 
# 
# High freq. dielectric constant tensor:
#      x y z
#    x 1.907840 -0.003690 -0.007760 
#    y -0.003690 1.894450 0.023480 
#    z -0.007760 0.023480 1.855420 
# 
# From -- ./inp_files/81642.got.cif
#   From: 2010.06.25/outbox.cif.g09.slc.cpg/sg2_41_cif.got.tgz:81642.got - 2010.06.27 13:26:56.
