data_PCOD8016588
_publ_section_title
;
Structure prediction by ZEFSAII (Michael W. Deem and Ramdas Pophale) SiO2 
 PCOD8016588
Probable space group: P -1
;
_chemical_formula_sum "Si O2"
_cell_formula_units_Z 16
_cell_length_a 17.994291
_cell_length_b 5.516059
_cell_length_c 9.922815
_cell_angle_alpha 95.821220
_cell_angle_beta 122.594727
_cell_angle_gamma 60.234997
_cell_volume 701.515249
_symmetry_space_group_name_H-M "P -1"
_symmetry_group_IT_number 2
_symmetry_cell_setting 'triclinic'
loop_
_space_group_symop_operation_xyz
x,y,z
-x,-y,-z
loop_
_atom_site_type_symbol
_atom_site_label
_atom_site_fract_x
_atom_site_fract_y
_atom_site_fract_z
Si Si1 0.869853 0.201147 0.737718
Si Si2 0.580327 0.320255 0.956357
Si Si3 0.069621 0.087168 0.487013
Si Si4 0.327902 0.296892 0.316952
Si Si5 0.069336 0.192456 0.989478
Si Si6 0.513540 0.297828 0.616902
Si Si7 0.688846 0.635171 0.998405
Si Si8 0.117222 0.357795 0.773951
O O1 0.783790 0.533528 0.707194
O O2 0.990040 0.103578 0.853764
O O3 0.853305 0.142671 0.562729
O O4 0.854857 0.018061 0.829955
O O5 0.659959 0.433748 0.041622
O O6 0.628313 0.976475 0.997242
O O7 0.500000 0.500000 0.000000
O O8 0.507199 0.438353 0.760847
O O9 0.141721 0.133287 0.663897
O O10 0.999229 0.376230 0.347076
O O11 0.000000 0.000000 0.500000
O O12 0.417004 0.254329 0.505594
O O13 0.367715 0.970821 0.299366
O O14 0.322325 0.433651 0.172441
O O15 0.133808 0.199759 0.925564
O O16 0.000000 0.500000 0.000000
O O17 0.500000 0.500000 0.500000
O O18 0.807819 0.517782 0.146624
#
# Coordination Sequence:
#
# PCOD8016588 Si02
#       8
#     2   2   2   2   2   2   2   2
#     4  11  24  39  67 102 132 180 238 290 342 423
#     4  11  25  46  72 104 138 181 229 292 360 425
#     4  11  24  45  63  90 145 187 222 292 358 413
#     4  10  23  40  68 104 131 178 235 289 352 415
#     4  11  22  40  65  97 137 173 230 294 339 404
#     4  10  21  45  68  94 141 176 221 294 357 411
#     4  11  25  44  74 102 135 182 238 288 353 429
#     4  11  25  42  66  95 135 188 233 283 355 422
#
# _framework density 22.807772
#
# number of rings (size 3 to 8) (size 9 to 14) (size 15 to 20)
#    0.000    1.250    3.750    1.125    5.250    2.000 
#    0.000    0.000    0.000    0.000    0.000    0.000 
#    0.000    0.000    0.000    0.000    0.000    0.000 
#
# Total GULP energy -198217.918672 kJ/mol
# GULP energy per Si atom -12388.619917 kJ/mol
# Density = 2.275586 g / cm^3
# Si number density = 22.807772 Si / 1000 Ang^3
#
#
#
# Elastic Constant Matrix: (Units=GPa)
#
#
# Indices 1 2 3 4 5 6 
#
# 1 105.9964 35.4508 46.0035 13.7911 -9.5295 -4.3198
# 2 35.4508 85.6374 31.9309 16.8468 -15.6227 -11.7046
# 3 46.0035 31.9309 115.2309 21.9110 -15.0267 -8.7682
# 4 13.7911 16.8468 21.9110 37.2280 -1.8393 -3.2343
# 5 -9.5295 -15.6227 -15.0267 -1.8393 39.7781 6.3652
# 6 -4.3198 -11.7046 -8.7682 -3.2343 6.3652 44.2801
#
#
#
# Elastic Compliance Matrix: (Units=1/GPa)
#
#
# Indices 1 2 3 4 5 6 
#
# 1 0.012389 -0.003603 -0.003828 -0.000748 0.000165 -0.000580
# 2 -0.003603 0.015665 -0.001293 -0.004561 0.004174 0.002600
# 3 -0.003828 -0.001293 0.011896 -0.004787 0.002703 0.000902
# 4 -0.000748 -0.004561 -0.004787 0.031942 -0.002373 0.000448
# 5 0.000165 0.004174 0.002703 -0.002373 0.028140 -0.002564
# 6 -0.000580 0.002600 0.000902 0.000448 -0.002564 0.023794
#
#
# Mechanical properties :
#
#
# Convention : Reuss Voigt Hill
#
# Bulk Modulus (GPa) = 44.44093 59.29277 51.86685
# Shear Modulus (GPa) = 33.60775 37.15586 35.38181
#
# Velocity S-wave (km/s) = 3.84281 4.04057 3.94293
# Velocity P-wave (km/s) = 6.26234 6.91531 6.59691
#
# Compressibility (1/GPa) = 0.02250178
#
# Stress axis : x y z
#
# Youngs Moduli (GPa) = 80.71410 63.83692 84.06138
#
# Poissons Ratio (x) = 0.23003 0.32179
# Poissons Ratio (y) = 0.29085 0.10868
# Poissons Ratio (z) = 0.30898 0.08253
#
# Static dielectric constant tensor:
#      x y z
#    x 2.021960 0.087930 -1.004300 
#    y 0.087930 4.219230 0.086470 
#    z -1.004300 0.086470 3.716120 
# 
# 
# High freq. dielectric constant tensor:
#      x y z
#    x 1.875340 0.004110 -0.004700 
#    y 0.004110 1.905580 0.011140 
#    z -0.004700 0.011140 1.909960 
# 
# From -- ./inp_files/141602.got.cif
#   From: 2010.06.25/outbox.cif.g09.slc.cpg/sg2_71_cif.got.tgz:141602.got - 2010.06.27 13:26:56.
