data_PCOD8016962
_publ_section_title
;
Structure prediction by ZEFSAII (Michael W. Deem and Ramdas Pophale) SiO2 
 PCOD8016962
Probable space group: P -1
;
_chemical_formula_sum "Si O2"
_cell_formula_units_Z 16
_cell_length_a 12.734508
_cell_length_b 11.980478
_cell_length_c 6.384161
_cell_angle_alpha 106.548311
_cell_angle_beta 103.952393
_cell_angle_gamma 52.588175
_cell_volume 738.625637
_symmetry_space_group_name_H-M "P -1"
_symmetry_group_IT_number 2
_symmetry_cell_setting 'triclinic'
loop_
_space_group_symop_operation_xyz
x,y,z
-x,-y,-z
loop_
_atom_site_type_symbol
_atom_site_label
_atom_site_fract_x
_atom_site_fract_y
_atom_site_fract_z
Si Si1 0.460625 0.941778 0.763593
Si Si2 0.793870 0.197679 0.971299
Si Si3 0.526668 0.262942 0.043475
Si Si4 0.112510 0.464391 0.767951
Si Si5 0.979060 0.931684 0.649803
Si Si6 0.048894 0.643687 0.450311
Si Si7 0.256451 0.539363 0.171064
Si Si8 0.632053 0.798895 0.387239
O O1 0.409957 0.853685 0.798723
O O2 0.586704 0.831697 0.622697
O O3 0.357729 0.076301 0.639153
O O4 0.500000 0.000000 0.000000
O O5 0.787461 0.318632 0.897742
O O6 0.851713 0.055076 0.785162
O O7 0.644529 0.265243 0.007249
O O8 0.887912 0.156454 0.193615
O O9 0.414644 0.419180 0.171954
O O10 0.465379 0.221342 0.809005
O O11 0.046056 0.605986 0.671069
O O12 0.222168 0.341668 0.600756
O O13 0.013269 0.420937 0.758687
O O14 0.181883 0.472986 0.008248
O O15 0.955019 0.816346 0.489789
O O16 0.000000 0.000000 0.500000
O O17 0.197081 0.584007 0.402540
#
# Coordination Sequence:
#
# PCOD8016962 Si02
#       8
#     2   2   2   2   2   2   2   2
#     4   9  18  35  56  84 124 160 206 250 306 364
#     4  11  24  42  63  90 125 166 212 255 308 371
#     4  10  22  37  61  92 122 165 204 252 314 370
#     4  10  22  38  61  92 121 159 207 257 313 367
#     4  11  24  44  64  87 125 166 209 261 304 371
#     4  11  22  39  63  90 122 162 210 255 314 366
#     4  11  21  42  63  90 129 159 205 260 308 371
#     4   9  19  36  57  86 126 161 202 259 306 372
#
# _framework density 21.661853000000001
#
# number of rings (size 3 to 8) (size 9 to 14) (size 15 to 20)
#    0.000    1.750    2.500    1.500    0.000    5.000 
#    0.000    1.875    0.000    0.000    0.000    0.000 
#    0.000    0.000    0.000    0.000    0.000    0.000 
#
# Total GULP energy -198306.280761 kJ/mol
# GULP energy per Si atom -12394.142548 kJ/mol
# Density = 2.161255 g / cm^3
# Si number density = 21.661853 Si / 1000 Ang^3
#
#
#
# Elastic Constant Matrix: (Units=GPa)
#
#
# Indices 1 2 3 4 5 6 
#
# 1 102.5103 41.6188 23.5960 3.8210 -18.5105 1.2526
# 2 41.6188 111.4142 21.1281 12.4917 -7.3842 19.6142
# 3 23.5960 21.1281 64.8349 8.6799 -21.9420 8.4538
# 4 3.8210 12.4917 8.6799 36.3826 -3.3929 -9.4765
# 5 -18.5105 -7.3842 -21.9420 -3.3929 21.8399 -4.8598
# 6 1.2526 19.6142 8.4538 -9.4765 -4.8598 28.5095
#
#
#
# Elastic Compliance Matrix: (Units=1/GPa)
#
#
# Indices 1 2 3 4 5 6 
#
# 1 0.014203 -0.006027 -0.000746 0.003604 0.011340 0.006875
# 2 -0.006027 0.014247 -0.001866 -0.007664 -0.006156 -0.012580
# 3 -0.000746 -0.001866 0.024858 -0.004075 0.022274 -0.003612
# 4 0.003604 -0.007664 -0.004075 0.036383 0.006361 0.019501
# 5 0.011340 -0.006156 0.022274 0.006361 0.079533 0.012804
# 6 0.006875 -0.012580 -0.003612 0.019501 0.012804 0.053165
#
#
# Mechanical properties :
#
#
# Convention : Reuss Voigt Hill
#
# Bulk Modulus (GPa) = 27.75474 50.16058 38.95766
# Shear Modulus (GPa) = 19.86663 30.17416 25.02039
#
# Velocity S-wave (km/s) = 3.03169 3.73629 3.40228
# Velocity P-wave (km/s) = 5.00953 6.46681 5.78425
#
# Compressibility (1/GPa) = 0.03602988
#
# Stress axis : x y z
#
# Youngs Moduli (GPa) = 70.40705 70.19113 40.22809
#
# Poissons Ratio (x) = 0.42303 0.03001
# Poissons Ratio (y) = 0.42433 0.07508
# Poissons Ratio (z) = 0.05253 0.13100
#
# Static dielectric constant tensor:
#      x y z
#    x 3.676390 0.164660 -0.171690 
#    y 0.164660 4.283800 0.121570 
#    z -0.171690 0.121570 3.892080 
# 
# 
# High freq. dielectric constant tensor:
#      x y z
#    x 1.829110 0.011040 -0.019330 
#    y 0.011040 1.868820 0.006980 
#    z -0.019330 0.006980 1.850250 
# 
# From -- ./inp_files/69990.got.cif
#   From: 2010.06.25/outbox.cif.g09.slc.cpg/sg2_35_cif.got.tgz:69990.got - 2010.06.27 13:26:56.
