data_PCOD8016625
_publ_section_title
;
Structure prediction by ZEFSAII (Michael W. Deem and Ramdas Pophale) SiO2 
 PCOD8016625
Probable space group: P -1
;
_chemical_formula_sum "Si O2"
_cell_formula_units_Z 16
_cell_length_a 9.361824
_cell_length_b 20.879760
_cell_length_c 18.730205
_cell_angle_alpha 18.752431
_cell_angle_beta 138.686922
_cell_angle_gamma 140.643453
_cell_volume 743.167881
_symmetry_space_group_name_H-M "P -1"
_symmetry_group_IT_number 2
_symmetry_cell_setting 'triclinic'
loop_
_space_group_symop_operation_xyz
x,y,z
-x,-y,-z
loop_
_atom_site_type_symbol
_atom_site_label
_atom_site_fract_x
_atom_site_fract_y
_atom_site_fract_z
Si Si1 0.751477 0.824634 0.297406
Si Si2 0.961373 0.385180 0.179717
Si Si3 0.503110 0.057430 0.052982
Si Si4 0.764248 0.592866 0.005340
Si Si5 0.765838 0.364586 0.524432
Si Si6 0.397041 0.516302 0.289935
Si Si7 0.636300 0.955927 0.531962
Si Si8 0.804635 0.289468 0.452205
O O1 0.610807 0.600224 0.513815
O O2 0.015114 0.832659 0.375985
O O3 0.711404 0.001273 0.150273
O O4 0.649716 0.856240 0.149703
O O5 0.846675 0.515844 0.046705
O O6 0.188751 0.377785 0.311647
O O7 0.796842 0.157738 0.342084
O O8 0.000000 0.500000 0.000000
O O9 0.338361 0.858632 0.241208
O O10 0.606880 0.245867 0.949037
O O11 0.869044 0.513662 0.198433
O O12 0.500000 0.500000 0.000000
O O13 0.810026 0.839557 0.753504
O O14 0.609149 0.513588 0.323511
O O15 0.809358 0.330803 0.493842
O O16 0.000000 0.500000 0.500000
O O17 0.452335 0.837602 0.529487
O O18 0.500000 0.000000 0.500000
#
# Coordination Sequence:
#
# PCOD8016625 Si02
#       8
#     2   2   2   2   2   2   2   2
#     4  10  21  45  71 103 129 173 241 284 349 418
#     4  12  27  44  67 108 142 182 225 294 340 413
#     4  10  24  45  71  98 135 183 220 296 355 413
#     4  10  22  45  68  99 133 183 234 278 338 409
#     4  11  27  47  65 103 141 177 234 291 347 420
#     4  11  24  45  68  97 142 178 232 275 354 419
#     4  11  23  45  71 101 141 178 237 282 336 418
#     4  11  23  44  73 101 138 187 231 288 347 414
#
# _framework density 21.529454999999999
#
# number of rings (size 3 to 8) (size 9 to 14) (size 15 to 20)
#    0.000    1.250    3.750    1.125    5.250    7.500 
#    4.500    0.000    0.000    0.000    0.000    0.000 
#    0.000    0.000    0.000    0.000    0.000    0.000 
#
# Total GULP energy -198287.800844 kJ/mol
# GULP energy per Si atom -12392.987553 kJ/mol
# Density = 2.148045 g / cm^3
# Si number density = 21.529455 Si / 1000 Ang^3
#
#
#
# Elastic Constant Matrix: (Units=GPa)
#
#
# Indices 1 2 3 4 5 6 
#
# 1 156.4785 57.5454 71.8792 6.7978 1.7449 -3.9935
# 2 57.5454 117.3695 55.3921 -4.5680 -1.7752 -2.8647
# 3 71.8792 55.3921 152.3653 -1.7467 -4.3240 -2.1478
# 4 6.7978 -4.5680 -1.7467 39.5912 3.4168 -0.2943
# 5 1.7449 -1.7752 -4.3240 3.4168 49.6921 7.9993
# 6 -3.9935 -2.8647 -2.1478 -0.2943 7.9993 33.6571
#
#
#
# Elastic Compliance Matrix: (Units=1/GPa)
#
#
# Indices 1 2 3 4 5 6 
#
# 1 0.009092 -0.003003 -0.003229 -0.001984 -0.000694 0.000765
# 2 -0.003003 0.011333 -0.002675 0.001700 0.000091 0.000431
# 3 -0.003229 -0.002675 0.009086 0.000576 0.000804 -0.000217
# 4 -0.001984 0.001700 0.000576 0.025971 -0.001698 0.000577
# 5 -0.000694 0.000091 0.000804 -0.001698 0.021154 -0.005066
# 6 0.000765 0.000431 -0.000217 0.000577 -0.005066 0.031034
#
#
# Mechanical properties :
#
#
# Convention : Reuss Voigt Hill
#
# Bulk Modulus (GPa) = 85.50064 88.42742 86.96403
# Shear Modulus (GPa) = 38.64520 40.68119 39.66320
#
# Velocity S-wave (km/s) = 4.24133 4.35162 4.29683
# Velocity P-wave (km/s) = 7.98653 8.14928 8.06832
#
# Compressibility (1/GPa) = 0.01169582
#
# Stress axis : x y z
#
# Youngs Moduli (GPa) = 109.99090 88.23769 110.06547
#
# Poissons Ratio (x) = 0.26495 0.35541
# Poissons Ratio (y) = 0.33027 0.29447
# Poissons Ratio (z) = 0.35517 0.23607
#
# Static dielectric constant tensor:
#      x y z
#    x 4.066840 -0.182670 0.293370 
#    y -0.182670 3.037660 -0.335560 
#    z 0.293370 -0.335560 4.775560 
# 
# 
# High freq. dielectric constant tensor:
#      x y z
#    x 1.857060 0.004070 0.008040 
#    y 0.004070 1.837230 0.003340 
#    z 0.008040 0.003340 1.858360 
# 
# From -- ./inp_files/562908.got.cif
#   From: 2010.06.25/outbox.cif.g09.slc.cpg/sg2_282_cif.got.tgz:562908.got - 2010.06.27 13:26:56.
