data_PCOD8016486
_publ_section_title
;
Structure prediction by ZEFSAII (Michael W. Deem and Ramdas Pophale) SiO2 
 PCOD8016486
Probable space group: P -1
;
_chemical_formula_sum "Si O2"
_cell_formula_units_Z 14
_cell_length_a 21.134849
_cell_length_b 11.573876
_cell_length_c 11.644775
_cell_angle_alpha 129.529191
_cell_angle_beta 23.251874
_cell_angle_gamma 141.489183
_cell_volume 659.603867
_symmetry_space_group_name_H-M "P -1"
_symmetry_group_IT_number 2
_symmetry_cell_setting 'triclinic'
loop_
_space_group_symop_operation_xyz
x,y,z
-x,-y,-z
loop_
_atom_site_type_symbol
_atom_site_label
_atom_site_fract_x
_atom_site_fract_y
_atom_site_fract_z
Si Si1 0.237110 0.210553 0.540220
Si Si2 0.978425 0.884763 0.574664
Si Si3 0.501437 0.580571 0.170694
Si Si4 0.569346 0.932325 0.742518
Si Si5 0.198014 0.711695 0.042133
Si Si6 0.926417 0.247666 0.184540
Si Si7 0.234481 0.703080 0.723840
O O1 0.369465 0.411794 0.377461
O O2 0.393176 0.209189 0.357756
O O3 0.117112 0.029536 0.538551
O O4 0.078716 0.199722 0.881684
O O5 0.048651 0.759413 0.351074
O O6 0.000000 0.000000 0.500000
O O7 0.737134 0.738237 0.924677
O O8 0.397267 0.679197 0.390598
O O9 0.500000 0.500000 0.000000
O O10 0.784365 0.128196 0.455798
O O11 0.388678 0.808521 0.871915
O O12 0.500000 0.000000 0.000000
O O13 0.056572 0.477585 0.135629
O O14 0.301246 0.803113 0.801529
O O15 0.776251 0.172776 0.274939
O O16 0.000000 0.500000 0.000000
#
# Coordination Sequence:
#
# PCOD8016486 Si02
#       7
#     2   2   2   2   2   2   2
#     4  12  26  49  67 105 144 184 242 289 350 427
#     4  12  26  41  71 107 143 180 233 291 359 414
#     4  12  24  42  74 106 146 182 225 298 362 414
#     4  12  29  47  71 104 144 192 242 289 347 425
#     4  11  25  48  71 105 141 187 236 292 360 420
#     4  11  26  47  75 100 147 182 236 300 352 423
#     4  10  21  44  72 108 134 176 234 291 356 415
#
# _framework density 21.224861000000001
#
# number of rings (size 3 to 8) (size 9 to 14) (size 15 to 20)
#    0.000    0.571    5.714    3.000    8.000    2.857 
#    0.000    0.000    0.000    0.000    0.000    0.000 
#    0.000    0.000    0.000    0.000    0.000    0.000 
#
# Total GULP energy -173666.852012 kJ/mol
# GULP energy per Si atom -12404.775144 kJ/mol
# Density = 2.117655 g / cm^3
# Si number density = 21.224861 Si / 1000 Ang^3
#
#
#
# Elastic Constant Matrix: (Units=GPa)
#
#
# Indices 1 2 3 4 5 6 
#
# 1 112.4511 25.0527 48.4555 5.3503 -10.8081 6.6926
# 2 25.0527 65.9366 31.5953 16.1377 -4.7283 8.4378
# 3 48.4555 31.5953 152.4648 27.2516 -3.2494 2.2984
# 4 5.3503 16.1377 27.2516 43.2311 -6.9760 -6.0026
# 5 -10.8081 -4.7283 -3.2494 -6.9760 48.3500 -0.5003
# 6 6.6926 8.4378 2.2984 -6.0026 -0.5003 36.3907
#
#
#
# Elastic Compliance Matrix: (Units=1/GPa)
#
#
# Indices 1 2 3 4 5 6 
#
# 1 0.011097 -0.002894 -0.003222 0.001991 0.002260 -0.000807
# 2 -0.002894 0.019353 -0.001882 -0.006332 0.000155 -0.004878
# 3 -0.003222 -0.001882 0.008786 -0.004638 -0.000986 -0.000304
# 4 0.001991 -0.006332 -0.004638 0.029676 0.003861 0.006343
# 5 0.002260 0.000155 -0.000986 0.003861 0.021699 0.000546
# 6 -0.000807 -0.004878 -0.000304 0.006343 0.000546 0.029832
#
#
# Mechanical properties :
#
#
# Convention : Reuss Voigt Hill
#
# Bulk Modulus (GPa) = 43.03341 60.11770 51.57556
# Shear Modulus (GPa) = 34.67750 40.64429 37.66089
#
# Velocity S-wave (km/s) = 4.04643 4.38075 4.21690
# Velocity P-wave (km/s) = 6.49234 7.34667 6.93268
#
# Compressibility (1/GPa) = 0.02323776
#
# Stress axis : x y z
#
# Youngs Moduli (GPa) = 90.11808 51.67262 113.82157
#
# Poissons Ratio (x) = 0.14954 0.36679
# Poissons Ratio (y) = 0.26080 0.21422
# Poissons Ratio (z) = 0.29040 0.09725
#
# Static dielectric constant tensor:
#      x y z
#    x 4.562470 0.165240 -0.183560 
#    y 0.165240 3.911110 -0.005100 
#    z -0.183560 -0.005100 4.277300 
# 
# 
# High freq. dielectric constant tensor:
#      x y z
#    x 1.840710 0.000050 -0.003470 
#    y 0.000050 1.832770 0.007170 
#    z -0.003470 0.007170 1.854070 
# 
# From -- ./inp_files/258471.got.cif
#   From: 2010.06.25/outbox.cif.g09.slc.cpg/sg2_130_cif.got.tgz:258471.got - 2010.06.27 13:26:56.
