data_PCOD8016400
_publ_section_title
;
Structure prediction by ZEFSAII (Michael W. Deem and Ramdas Pophale) SiO2 
 PCOD8016400
Probable space group: P -1
;
_chemical_formula_sum "Si O2"
_cell_formula_units_Z 14
_cell_length_a 10.573169
_cell_length_b 10.085237
_cell_length_c 8.902143
_cell_angle_alpha 131.649507
_cell_angle_beta 59.643967
_cell_angle_gamma 122.558968
_cell_volume 581.156328
_symmetry_space_group_name_H-M "P -1"
_symmetry_group_IT_number 2
_symmetry_cell_setting 'triclinic'
loop_
_space_group_symop_operation_xyz
x,y,z
-x,-y,-z
loop_
_atom_site_type_symbol
_atom_site_label
_atom_site_fract_x
_atom_site_fract_y
_atom_site_fract_z
Si Si1 0.869400 0.464538 0.240722
Si Si2 0.000316 0.211558 0.173937
Si Si3 0.526662 0.762397 0.440964
Si Si4 0.698743 0.604443 0.707085
Si Si5 0.623700 0.903842 0.801417
Si Si6 0.276929 0.881119 0.524899
Si Si7 0.818243 0.262378 0.830685
O O1 0.936559 0.300602 0.138032
O O2 0.752763 0.511790 0.460146
O O3 0.004572 0.655003 0.264246
O O4 0.780317 0.393433 0.082055
O O5 0.896360 0.208900 0.380615
O O6 0.171321 0.352203 0.209792
O O7 0.000000 0.000000 0.000000
O O8 0.461054 0.549691 0.258026
O O9 0.555004 0.759433 0.599372
O O10 0.393211 0.857659 0.564180
O O11 0.680458 0.893914 0.362962
O O12 0.664289 0.794453 0.834191
O O13 0.783411 0.056766 0.769413
O O14 0.500000 0.000000 0.000000
O O15 0.290000 0.770358 0.278680
#
# Coordination Sequence:
#
# PCOD8016400 Si02
#       7
#     2   2   2   2   2   2   2
#     4  11  22  42  69  99 135 166 226 274 329 391
#     4  12  25  43  69 101 135 176 217 272 337 394
#     4  10  22  41  70  93 132 179 219 270 330 387
#     4  12  23  42  73  97 132 177 223 275 330 390
#     4  11  25  43  65  96 139 177 222 268 336 396
#     4  10  21  44  69  96 137 174 216 275 332 391
#     4  10  22  42  66  99 131 175 215 281 325 389
#
# _framework density 24.089904000000001
#
# number of rings (size 3 to 8) (size 9 to 14) (size 15 to 20)
#    0.000    1.143    2.857    3.429    2.000    0.571 
#   12.857    0.714    0.000    0.000    0.000    0.000 
#    0.000    0.000    0.000    0.000    0.000    0.000 
#
# Total GULP energy -173492.153997 kJ/mol
# GULP energy per Si atom -12392.296714 kJ/mol
# Density = 2.403507 g / cm^3
# Si number density = 24.089904 Si / 1000 Ang^3
#
#
#
# Elastic Constant Matrix: (Units=GPa)
#
#
# Indices 1 2 3 4 5 6 
#
# 1 75.1281 34.0353 18.4492 6.9556 13.6528 -0.7553
# 2 34.0353 145.9599 17.1681 25.4418 3.2743 10.9754
# 3 18.4492 17.1681 63.8319 5.9051 14.8777 0.8159
# 4 6.9556 25.4418 5.9051 30.6732 -3.4306 9.5492
# 5 13.6528 3.2743 14.8777 -3.4306 37.9395 18.0198
# 6 -0.7553 10.9754 0.8159 9.5492 18.0198 35.9095
#
#
#
# Elastic Compliance Matrix: (Units=1/GPa)
#
#
# Indices 1 2 3 4 5 6 
#
# 1 0.017375 -0.003496 -0.001725 -0.003887 -0.008949 0.006998
# 2 -0.003496 0.008895 -0.001159 -0.005596 0.001373 -0.001967
# 3 -0.001725 -0.001159 0.019373 -0.005635 -0.010555 0.006673
# 4 -0.003887 -0.005596 -0.005635 0.047339 0.017747 -0.019737
# 5 -0.008949 0.001373 -0.010555 0.017747 0.049392 -0.029873
# 6 0.006998 -0.001967 0.006673 -0.019737 -0.029873 0.048684
#
#
# Mechanical properties :
#
#
# Convention : Reuss Voigt Hill
#
# Bulk Modulus (GPa) = 30.41267 47.13611 38.77439
# Shear Modulus (GPa) = 23.27963 35.25559 29.26761
#
# Velocity S-wave (km/s) = 3.11201 3.82972 3.48937
# Velocity P-wave (km/s) = 5.05617 6.25819 5.68902
#
# Compressibility (1/GPa) = 0.03288103
#
# Stress axis : x y z
#
# Youngs Moduli (GPa) = 57.55434 112.41736 51.61926
#
# Poissons Ratio (x) = 0.39306 0.08906
# Poissons Ratio (y) = 0.20124 0.05983
# Poissons Ratio (z) = 0.09930 0.13031
#
# Static dielectric constant tensor:
#      x y z
#    x 4.189250 0.201140 0.396800 
#    y 0.201140 4.945210 0.027770 
#    z 0.396800 0.027770 4.083260 
# 
# 
# High freq. dielectric constant tensor:
#      x y z
#    x 1.938970 0.013870 0.038010 
#    y 0.013870 1.982990 0.006940 
#    z 0.038010 0.006940 1.929650 
# 
# From -- ./inp_files/223794.got.cif
#   From: 2010.06.25/outbox.cif.g09.slc.cpg/sg2_112_cif.got.tgz:223794.got - 2010.06.27 13:26:56.
