data_PCOD8016702
_publ_section_title
;
Structure prediction by ZEFSAII (Michael W. Deem and Ramdas Pophale) SiO2 
 PCOD8016702
Probable space group: P -1
;
_chemical_formula_sum "Si O2"
_cell_formula_units_Z 16
_cell_length_a 12.119092
_cell_length_b 27.557573
_cell_length_c 9.350744
_cell_angle_alpha 28.987816
_cell_angle_beta 143.275772
_cell_angle_gamma 150.473179
_cell_volume 735.113701
_symmetry_space_group_name_H-M "P -1"
_symmetry_group_IT_number 2
_symmetry_cell_setting 'triclinic'
loop_
_space_group_symop_operation_xyz
x,y,z
-x,-y,-z
loop_
_atom_site_type_symbol
_atom_site_label
_atom_site_fract_x
_atom_site_fract_y
_atom_site_fract_z
Si Si1 0.686316 0.983171 0.183598
Si Si2 0.918882 0.745374 0.077604
Si Si3 0.804906 0.857665 0.153782
Si Si4 0.871471 0.395555 0.252156
Si Si5 0.216576 0.537717 0.715796
Si Si6 0.551747 0.209981 0.815250
Si Si7 0.943460 0.718306 0.845079
Si Si8 0.363381 0.208632 0.166666
O O1 0.601739 0.902810 0.160001
O O2 0.738768 0.919500 0.526233
O O3 0.500000 0.000000 0.000000
O O4 0.907652 0.117798 0.030923
O O5 0.977954 0.651119 0.423935
O O6 0.907586 0.751679 0.879187
O O7 0.683015 0.704304 0.013250
O O8 0.575161 0.824503 0.076321
O O9 0.901013 0.788695 0.503078
O O10 0.751649 0.817701 0.038026
O O11 0.000000 0.000000 0.000000
O O12 0.830074 0.456185 0.183601
O O13 0.632653 0.279997 0.242446
O O14 0.000000 0.500000 0.000000
O O15 0.428509 0.670928 0.536167
O O16 0.000000 0.500000 0.500000
O O17 0.244972 0.427888 0.003329
O O18 0.798741 0.239084 0.015486
#
# Coordination Sequence:
#
# PCOD8016702 Si02
#       8
#     2   2   2   2   2   2   2   2
#     4  12  20  45  76 101 132 182 237 287 344 414
#     4  12  24  45  75 103 136 184 236 291 348 416
#     4  12  29  45  65 108 148 183 227 287 351 411
#     4  12  27  47  70 103 146 182 232 295 355 414
#     4  10  21  46  71 102 129 179 243 279 338 416
#     4  11  23  46  74  98 135 184 236 285 340 416
#     4  11  24  44  73 100 136 185 237 283 341 415
#     4  12  27  45  68 107 144 178 233 290 356 413
#
# _framework density 21.765339000000001
#
# number of rings (size 3 to 8) (size 9 to 14) (size 15 to 20)
#    0.000    0.500    6.250    2.625    5.250    1.500 
#    0.000    0.000    0.000    0.000    0.000    0.000 
#    0.000    0.000    0.000    0.000    0.000    0.000 
#
# Total GULP energy -198443.480682 kJ/mol
# GULP energy per Si atom -12402.717543 kJ/mol
# Density = 2.171580 g / cm^3
# Si number density = 21.765339 Si / 1000 Ang^3
#
#
#
# Elastic Constant Matrix: (Units=GPa)
#
#
# Indices 1 2 3 4 5 6 
#
# 1 128.5600 22.6882 32.2577 6.5583 -3.6091 -3.8417
# 2 22.6882 56.1574 20.5101 -5.2013 1.4137 -17.3050
# 3 32.2577 20.5101 112.5351 9.8958 0.9804 -12.6543
# 4 6.5583 -5.2013 9.8958 41.2373 -4.5434 -1.6171
# 5 -3.6091 1.4137 0.9804 -4.5434 36.4714 -2.8769
# 6 -3.8417 -17.3050 -12.6543 -1.6171 -2.8769 36.3141
#
#
#
# Elastic Compliance Matrix: (Units=1/GPa)
#
#
# Indices 1 2 3 4 5 6 
#
# 1 0.008935 -0.003462 -0.001975 -0.001351 0.000793 -0.001390
# 2 -0.003462 0.023732 -0.002584 0.004587 0.000188 0.010261
# 3 -0.001975 -0.002584 0.010373 -0.002479 -0.000523 0.002023
# 4 -0.001351 0.004587 -0.002479 0.026094 0.003210 0.002595
# 5 0.000793 0.000188 -0.000523 0.003210 0.028090 0.002359
# 6 -0.001390 0.010261 0.002023 0.002595 0.002359 0.033288
#
#
# Mechanical properties :
#
#
# Convention : Reuss Voigt Hill
#
# Bulk Modulus (GPa) = 37.03913 49.79606 43.41759
# Shear Modulus (GPa) = 32.14376 37.59100 34.86738
#
# Velocity S-wave (km/s) = 3.84713 4.16035 4.00680
# Velocity P-wave (km/s) = 6.06533 6.78280 6.43407
#
# Compressibility (1/GPa) = 0.02699848
#
# Stress axis : x y z
#
# Youngs Moduli (GPa) = 111.92556 42.13775 96.40345
#
# Poissons Ratio (x) = 0.14588 0.19035
# Poissons Ratio (y) = 0.38747 0.24911
# Poissons Ratio (z) = 0.22100 0.10888
#
# Static dielectric constant tensor:
#      x y z
#    x 4.082080 0.031340 0.179410 
#    y 0.031340 4.016410 -0.196830 
#    z 0.179410 -0.196830 4.399340 
# 
# 
# High freq. dielectric constant tensor:
#      x y z
#    x 1.863170 -0.003180 0.006780 
#    y -0.003180 1.866290 -0.001460 
#    z 0.006780 -0.001460 1.859840 
# 
# From -- ./inp_files/285779.got.cif
#   From: 2010.06.25/outbox.cif.g09.slc.cpg/sg2_143_cif.got.tgz:285779.got - 2010.06.27 13:26:56.
