data_PCOD8016540
_publ_section_title
;
Structure prediction by ZEFSAII (Michael W. Deem and Ramdas Pophale) SiO2 
 PCOD8016540
Probable space group: P -1
;
_chemical_formula_sum "Si O2"
_cell_formula_units_Z 16
_cell_length_a 8.822480
_cell_length_b 12.703190
_cell_length_c 12.053319
_cell_angle_alpha 85.187466
_cell_angle_beta 120.030360
_cell_angle_gamma 52.486975
_cell_volume 764.827191
_symmetry_space_group_name_H-M "P -1"
_symmetry_group_IT_number 2
_symmetry_cell_setting 'triclinic'
loop_
_space_group_symop_operation_xyz
x,y,z
-x,-y,-z
loop_
_atom_site_type_symbol
_atom_site_label
_atom_site_fract_x
_atom_site_fract_y
_atom_site_fract_z
Si Si1 0.197699 0.121172 0.494196
Si Si2 0.486025 0.825539 0.472714
Si Si3 0.351736 0.482927 0.369593
Si Si4 0.488027 0.656853 0.023741
Si Si5 0.073475 0.036855 0.127196
Si Si6 0.742370 0.753619 0.119154
Si Si7 0.559965 0.971991 0.842357
Si Si8 0.420817 0.577503 0.779436
O O1 0.273917 0.202632 0.466788
O O2 0.881952 0.256754 0.375364
O O3 0.295228 0.977535 0.471131
O O4 0.322002 0.047160 0.667422
O O5 0.587322 0.668339 0.571758
O O6 0.312057 0.872848 0.297240
O O7 0.500000 0.500000 0.500000
O O8 0.406077 0.478915 0.260820
O O9 0.043645 0.647074 0.266603
O O10 0.709686 0.644251 0.121241
O O11 0.547825 0.557460 0.160869
O O12 0.537422 0.587280 0.926454
O O13 0.182203 0.834055 0.899684
O O14 0.183475 0.101306 0.124181
O O15 0.000000 0.000000 0.000000
O O16 0.543012 0.892171 0.123914
O O17 0.656786 0.826647 0.957949
#
# Coordination Sequence:
#
# PCOD8016540 Si02
#       8
#     2   2   2   2   2   2   2   2
#     4  10  21  45  65  95 129 170 217 265 326 386
#     4  10  24  41  68  96 130 169 217 268 322 390
#     4  12  28  44  65  97 133 174 216 271 329 386
#     4  11  24  42  68  95 131 174 217 266 328 382
#     4  11  21  41  68  96 127 172 216 267 322 389
#     4  11  24  44  62  97 130 168 217 269 319 390
#     4  10  23  39  69  94 128 169 213 268 324 381
#     4  11  25  43  65  97 132 172 217 269 322 391
#
# _framework density 20.919758999999999
#
# number of rings (size 3 to 8) (size 9 to 14) (size 15 to 20)
#    0.000    1.250    2.500    2.250    5.250    2.000 
#    0.000    3.125    0.000    0.000    0.000    0.000 
#    0.000    0.000    0.000    0.000    0.000    0.000 
#
# Total GULP energy -198398.567109 kJ/mol
# GULP energy per Si atom -12399.910444 kJ/mol
# Density = 2.087215 g / cm^3
# Si number density = 20.919759 Si / 1000 Ang^3
#
#
#
# Elastic Constant Matrix: (Units=GPa)
#
#
# Indices 1 2 3 4 5 6 
#
# 1 96.9619 37.3440 38.5885 -1.2880 -7.3600 5.5858
# 2 37.3440 64.1322 19.9781 -1.4104 -9.6164 16.0915
# 3 38.5885 19.9781 100.9010 4.4798 -9.6455 12.1135
# 4 -1.2880 -1.4104 4.4798 29.6756 -7.3017 -0.8397
# 5 -7.3600 -9.6164 -9.6455 -7.3017 38.6746 -4.4459
# 6 5.5858 16.0915 12.1135 -0.8397 -4.4459 36.7593
#
#
#
# Elastic Compliance Matrix: (Units=1/GPa)
#
#
# Indices 1 2 3 4 5 6 
#
# 1 0.015073 -0.007991 -0.004536 0.001105 0.000276 0.002761
# 2 -0.007991 0.022946 -0.000223 0.001388 0.003436 -0.008310
# 3 -0.004536 -0.000223 0.012283 -0.001794 0.001446 -0.003127
# 4 0.001105 0.001388 -0.001794 0.035859 0.007049 0.001488
# 5 0.000276 0.003436 0.001446 0.007049 0.028639 0.001602
# 6 0.002761 -0.008310 -0.003127 0.001488 0.001602 0.031680
#
#
# Mechanical properties :
#
#
# Convention : Reuss Voigt Hill
#
# Bulk Modulus (GPa) = 40.31963 50.42403 45.37183
# Shear Modulus (GPa) = 27.73956 32.09420 29.91688
#
# Velocity S-wave (km/s) = 3.64538 3.92108 3.78574
# Velocity P-wave (km/s) = 6.08553 6.68249 6.39098
#
# Compressibility (1/GPa) = 0.02480181
#
# Stress axis : x y z
#
# Youngs Moduli (GPa) = 66.34416 43.58065 81.41286
#
# Poissons Ratio (x) = 0.34824 0.36933
# Poissons Ratio (y) = 0.53014 0.01814
# Poissons Ratio (z) = 0.30097 0.00971
#
# Static dielectric constant tensor:
#      x y z
#    x 3.872300 -0.028040 -0.075980 
#    y -0.028040 3.765960 -0.000840 
#    z -0.075980 -0.000840 3.971750 
# 
# 
# High freq. dielectric constant tensor:
#      x y z
#    x 1.824280 -0.002620 0.000330 
#    y -0.002620 1.815640 0.004400 
#    z 0.000330 0.004400 1.834200 
# 
# From -- ./inp_files/392618.got.cif
#   From: 2010.06.25/outbox.cif.g09.slc.cpg/sg2_197_cif.got.tgz:392618.got - 2010.06.27 13:26:56.
