data_PCOD8016637
_publ_section_title
;
Structure prediction by ZEFSAII (Michael W. Deem and Ramdas Pophale) SiO2 
 PCOD8016637
Probable space group: P -1
;
_chemical_formula_sum "Si O2"
_cell_formula_units_Z 16
_cell_length_a 12.730598
_cell_length_b 13.664247
_cell_length_c 8.314875
_cell_angle_alpha 109.676026
_cell_angle_beta 147.361327
_cell_angle_gamma 69.368866
_cell_volume 727.779115
_symmetry_space_group_name_H-M "P -1"
_symmetry_group_IT_number 2
_symmetry_cell_setting 'triclinic'
loop_
_space_group_symop_operation_xyz
x,y,z
-x,-y,-z
loop_
_atom_site_type_symbol
_atom_site_label
_atom_site_fract_x
_atom_site_fract_y
_atom_site_fract_z
Si Si1 0.290315 0.344997 0.925942
Si Si2 0.863889 0.854040 0.532961
Si Si3 0.714842 0.463182 0.192600
Si Si4 0.287110 0.741888 0.484968
Si Si5 0.012509 0.594547 0.186970
Si Si6 0.703411 0.035343 0.229676
Si Si7 0.718823 0.248119 0.891685
Si Si8 0.497290 0.912516 0.315007
O O1 0.199439 0.249630 0.679791
O O2 0.218563 0.447114 0.784611
O O3 0.206101 0.362780 0.008218
O O4 0.525443 0.321224 0.218499
O O5 0.709588 0.897634 0.495850
O O6 0.870650 0.940512 0.446318
O O7 0.078483 0.830142 0.872919
O O8 0.858580 0.446312 0.517805
O O9 0.500000 0.500000 0.000000
O O10 0.727142 0.357776 0.048067
O O11 0.097196 0.688493 0.256382
O O12 0.253564 0.861061 0.565645
O O13 0.326766 0.733943 0.343434
O O14 0.000000 0.500000 0.000000
O O15 0.684268 0.054248 0.024329
O O16 0.500000 0.000000 0.000000
O O17 0.540950 0.195951 0.711959
O O18 0.500000 0.000000 0.500000
#
# Coordination Sequence:
#
# PCOD8016637 Si02
#       8
#     2   2   2   2   2   2   2   2
#     4  12  25  46  75  97 142 188 230 288 354 409
#     4  11  25  46  72 102 141 183 232 288 346 418
#     4  12  25  47  74 101 142 184 231 293 350 413
#     4  12  26  47  71 104 141 183 234 289 349 419
#     4  12  28  46  70 107 139 184 240 286 350 419
#     4  10  21  45  72 100 141 180 228 288 344 414
#     4  12  27  45  71 106 139 182 237 287 349 416
#     4  11  24  44  73 104 142 184 229 284 355 414
#
# _framework density 21.984690000000001
#
# number of rings (size 3 to 8) (size 9 to 14) (size 15 to 20)
#    0.000    0.500    5.000    4.125    3.500    4.500 
#    0.000    0.000    0.000    0.000    0.000    0.000 
#    0.000    0.000    0.000    0.000    0.000    0.000 
#
# Total GULP energy -198471.944103 kJ/mol
# GULP energy per Si atom -12404.496506 kJ/mol
# Density = 2.193465 g / cm^3
# Si number density = 21.984690 Si / 1000 Ang^3
#
#
#
# Elastic Constant Matrix: (Units=GPa)
#
#
# Indices 1 2 3 4 5 6 
#
# 1 92.8643 37.1984 11.9095 13.6156 -14.7247 5.1604
# 2 37.1984 155.1361 40.2197 23.4227 -14.8504 9.1783
# 3 11.9095 40.2197 73.2859 13.1468 -22.7333 -3.1797
# 4 13.6156 23.4227 13.1468 49.3394 -7.2937 -5.6784
# 5 -14.7247 -14.8504 -22.7333 -7.2937 42.8241 -1.4813
# 6 5.1604 9.1783 -3.1797 -5.6784 -1.4813 46.9834
#
#
#
# Elastic Compliance Matrix: (Units=1/GPa)
#
#
# Indices 1 2 3 4 5 6 
#
# 1 0.012586 -0.002504 0.000733 -0.002082 0.003460 -0.000986
# 2 -0.002504 0.008563 -0.004092 -0.002600 -0.000576 -0.002007
# 3 0.000733 -0.004092 0.018849 -0.001773 0.008608 0.002052
# 4 -0.002082 -0.002600 -0.001773 0.023171 0.001507 0.003464
# 5 0.003460 -0.000576 0.008608 0.001507 0.029217 0.001418
# 6 -0.000986 -0.002007 0.002052 0.003464 0.001418 0.022387
#
#
# Mechanical properties :
#
#
# Convention : Reuss Voigt Hill
#
# Bulk Modulus (GPa) = 35.37069 55.54906 45.45988
# Shear Modulus (GPa) = 36.78542 43.29328 40.03935
#
# Velocity S-wave (km/s) = 4.09495 4.44243 4.27223
# Velocity P-wave (km/s) = 6.20337 7.18579 6.71258
#
# Compressibility (1/GPa) = 0.02827200
#
# Stress axis : x y z
#
# Youngs Moduli (GPa) = 79.45309 116.77569 53.05261
#
# Poissons Ratio (x) = 0.29241 -0.03887
# Poissons Ratio (y) = 0.19895 0.21709
# Poissons Ratio (z) = -0.05822 0.47785
#
# Static dielectric constant tensor:
#      x y z
#    x 4.736190 -0.224760 0.352080 
#    y -0.224760 4.371510 -0.469870 
#    z 0.352080 -0.469870 4.245650 
# 
# 
# High freq. dielectric constant tensor:
#      x y z
#    x 1.877680 0.006630 -0.002010 
#    y 0.006630 1.881590 0.003640 
#    z -0.002010 0.003640 1.866740 
# 
# From -- ./inp_files/223718.got.cif
#   From: 2010.06.25/outbox.cif.g09.slc.cpg/sg2_112_cif.got.tgz:223718.got - 2010.06.27 13:26:56.
