data_PCOD8016712
_publ_section_title
;
Structure prediction by ZEFSAII (Michael W. Deem and Ramdas Pophale) SiO2 
 PCOD8016712
Probable space group: P -1
;
_chemical_formula_sum "Si O2"
_cell_formula_units_Z 16
_cell_length_a 18.100632
_cell_length_b 9.400366
_cell_length_c 5.265153
_cell_angle_alpha 128.209724
_cell_angle_beta 111.969088
_cell_angle_gamma 70.087766
_cell_volume 645.453789
_symmetry_space_group_name_H-M "P -1"
_symmetry_group_IT_number 2
_symmetry_cell_setting 'triclinic'
loop_
_space_group_symop_operation_xyz
x,y,z
-x,-y,-z
loop_
_atom_site_type_symbol
_atom_site_label
_atom_site_fract_x
_atom_site_fract_y
_atom_site_fract_z
Si Si1 0.825306 0.641009 0.146190
Si Si2 0.709853 0.448345 0.520433
Si Si3 0.868656 0.825726 0.929971
Si Si4 0.828730 0.204497 0.083703
Si Si5 0.448987 0.064941 0.757860
Si Si6 0.414871 0.450292 0.908945
Si Si7 0.678180 0.187211 0.570365
Si Si8 0.961807 0.358217 0.129748
O O1 0.836705 0.729310 0.532556
O O2 0.899344 0.478623 0.992657
O O3 0.742778 0.549673 0.921292
O O4 0.818739 0.785385 0.068754
O O5 0.785303 0.392445 0.364682
O O6 0.636901 0.587687 0.450952
O O7 0.679879 0.254687 0.352077
O O8 0.964106 0.770109 0.049782
O O9 0.852127 0.043642 0.137025
O O10 0.912139 0.234805 0.099468
O O11 0.769418 0.134488 0.723593
O O12 0.424647 0.283765 0.939674
O O13 0.500000 0.000000 0.500000
O O14 0.366708 0.982450 0.603553
O O15 0.500000 0.000000 0.000000
O O16 0.500000 0.500000 0.000000
O O17 0.366556 0.632396 0.157802
O O18 0.000000 0.500000 0.500000
#
# Coordination Sequence:
#
# PCOD8016712 Si02
#       8
#     2   2   2   2   2   2   2   2
#     4  11  24  45  70 106 141 192 244 297 367 441
#     4  11  25  45  74 100 150 196 237 299 369 439
#     4  11  26  43  72 105 143 187 250 305 363 426
#     4  11  25  46  66 108 146 185 243 304 365 427
#     4  12  28  49  77 111 147 185 242 303 359 435
#     4  11  25  48  76 107 144 193 242 297 365 438
#     4  11  26  46  73 105 148 192 239 302 365 434
#     4  10  21  46  72  99 140 193 245 299 361 440
#
# _framework density 24.788761999999998
#
# number of rings (size 3 to 8) (size 9 to 14) (size 15 to 20)
#    0.000    1.000    2.500    3.000    8.750    2.000 
#    0.000    3.750    0.000    0.000    0.000    0.000 
#    0.000    0.000    0.000    0.000    0.000    0.000 
#
# Total GULP energy -198295.768510 kJ/mol
# GULP energy per Si atom -12393.485532 kJ/mol
# Density = 2.473234 g / cm^3
# Si number density = 24.788762 Si / 1000 Ang^3
#
#
#
# Elastic Constant Matrix: (Units=GPa)
#
#
# Indices 1 2 3 4 5 6 
#
# 1 86.0672 21.0435 24.5927 1.0191 26.2509 20.7364
# 2 21.0435 169.0701 23.3931 -6.5040 23.2611 21.8959
# 3 24.5927 23.3931 83.9207 -17.9026 23.8338 7.1269
# 4 1.0191 -6.5040 -17.9026 37.7868 5.3337 5.3298
# 5 26.2509 23.2611 23.8338 5.3337 42.4391 -0.4661
# 6 20.7364 21.8959 7.1269 5.3298 -0.4661 53.2203
#
#
#
# Elastic Compliance Matrix: (Units=1/GPa)
#
#
# Indices 1 2 3 4 5 6 
#
# 1 0.016508 0.000406 -0.001261 0.001374 -0.009972 -0.006656
# 2 0.000406 0.006985 -0.000074 0.002234 -0.004355 -0.003284
# 3 -0.001261 -0.000074 0.017734 0.010321 -0.010469 -0.002979
# 4 0.001374 0.002234 0.010321 0.034332 -0.012256 -0.006382
# 5 -0.009972 -0.004355 -0.010469 -0.012256 0.039633 0.008654
# 6 -0.006656 -0.003284 -0.002979 -0.006382 0.008654 0.023848
#
#
# Mechanical properties :
#
#
# Convention : Reuss Voigt Hill
#
# Bulk Modulus (GPa) = 25.39923 53.01295 39.20609
# Shear Modulus (GPa) = 32.46335 44.69116 38.57726
#
# Velocity S-wave (km/s) = 3.62276 4.25064 3.94920
# Velocity P-wave (km/s) = 5.26951 6.74707 6.05354
#
# Compressibility (1/GPa) = 0.03937127
#
# Stress axis : x y z
#
# Youngs Moduli (GPa) = 60.57526 143.16821 56.38887
#
# Poissons Ratio (x) = -0.05819 0.07109
# Poissons Ratio (y) = -0.02462 0.00415
# Poissons Ratio (z) = 0.07637 0.01055
#
# Static dielectric constant tensor:
#      x y z
#    x 4.486240 -0.325570 0.450590 
#    y -0.325570 5.469440 -0.566450 
#    z 0.450590 -0.566450 4.587700 
# 
# 
# High freq. dielectric constant tensor:
#      x y z
#    x 1.998730 0.004430 0.015430 
#    y 0.004430 2.006070 -0.009430 
#    z 0.015430 -0.009430 1.966750 
# 
# From -- ./inp_files/107714.got.cif
#   From: 2010.06.25/outbox.cif.g09.slc.cpg/sg2_54_cif.got.tgz:107714.got - 2010.06.27 13:26:56.
