data_PCOD8016669
_publ_section_title
;
Structure prediction by ZEFSAII (Michael W. Deem and Ramdas Pophale) SiO2 
 PCOD8016669
Probable space group: P -1
;
_chemical_formula_sum "Si O2"
_cell_formula_units_Z 14
_cell_length_a 14.023443
_cell_length_b 8.200118
_cell_length_c 11.098495
_cell_angle_alpha 87.307177
_cell_angle_beta 104.992825
_cell_angle_gamma 144.932516
_cell_volume 676.370024
_symmetry_space_group_name_H-M "P -1"
_symmetry_group_IT_number 2
_symmetry_cell_setting 'triclinic'
loop_
_space_group_symop_operation_xyz
x,y,z
-x,-y,-z
loop_
_atom_site_type_symbol
_atom_site_label
_atom_site_fract_x
_atom_site_fract_y
_atom_site_fract_z
Si Si1 0.459961 0.264917 0.264860
Si Si2 0.152723 0.876370 0.350500
Si Si3 0.839544 0.902720 0.423190
Si Si4 0.089419 0.356568 0.083510
Si Si5 0.644100 0.076432 0.991813
Si Si6 0.898537 0.250404 0.232933
Si Si7 0.795364 0.822947 0.843920
O O1 0.665600 0.547485 0.363383
O O2 0.437131 0.116626 0.147807
O O3 0.402979 0.371348 0.204134
O O4 0.330014 0.033538 0.343217
O O5 0.986725 0.521840 0.327116
O O6 0.198455 0.016597 0.489256
O O7 0.096395 0.949045 0.241975
O O8 0.874462 0.053470 0.308638
O O9 0.000000 0.000000 0.500000
O O10 0.223748 0.397960 0.169648
O O11 0.048286 0.422691 0.174872
O O12 0.176550 0.577244 0.995891
O O13 0.902854 0.015727 0.993898
O O14 0.500000 0.000000 0.000000
O O15 0.707737 0.036558 0.116816
#
# Coordination Sequence:
#
# PCOD8016669 Si02
#       7
#     2   2   2   2   2   2   2
#     4  10  23  46  67  92 137 171 218 270 329 385
#     4  10  21  46  66  89 130 182 215 261 318 391
#     4  12  28  43  65  98 132 178 229 267 316 383
#     4  11  19  41  64 103 128 172 210 267 338 402
#     4  12  25  39  69 102 134 163 217 277 336 390
#     4  12  23  44  69  94 137 169 215 274 333 383
#     4   9  20  35  74  90 129 174 215 259 331 391
#
# _framework density 20.698730000000001
#
# number of rings (size 3 to 8) (size 9 to 14) (size 15 to 20)
#    0.857    0.286    4.286    2.143    4.000    2.857 
#    0.000    0.714    0.000    0.000    0.000    0.000 
#    0.000    0.000    0.000    0.000    0.000    0.000 
#
# Total GULP energy -173532.936025 kJ/mol
# GULP energy per Si atom -12395.209716 kJ/mol
# Density = 2.065162 g / cm^3
# Si number density = 20.698730 Si / 1000 Ang^3
#
#
#
# Elastic Constant Matrix: (Units=GPa)
#
#
# Indices 1 2 3 4 5 6 
#
# 1 124.7881 22.8521 52.0373 6.8596 3.6235 15.0001
# 2 22.8521 67.6977 38.6714 8.0613 -0.5687 6.6924
# 3 52.0373 38.6714 87.2654 9.6831 -2.0129 12.1521
# 4 6.8596 8.0613 9.6831 42.4203 -5.9490 0.4514
# 5 3.6235 -0.5687 -2.0129 -5.9490 38.4805 -2.1662
# 6 15.0001 6.6924 12.1521 0.4514 -2.1662 30.3915
#
#
#
# Elastic Compliance Matrix: (Units=1/GPa)
#
#
# Indices 1 2 3 4 5 6 
#
# 1 0.011014 0.000181 -0.006186 -0.000598 -0.001626 -0.003109
# 2 0.000181 0.019953 -0.008602 -0.001920 -0.000528 -0.001052
# 3 -0.006186 -0.008602 0.019554 -0.001649 0.001067 -0.002771
# 4 -0.000598 -0.001920 -0.001649 0.024941 0.003870 0.001283
# 5 -0.001626 -0.000528 0.001067 0.003870 0.026919 0.002353
# 6 -0.003109 -0.001052 -0.002771 0.001283 0.002353 0.035927
#
#
# Mechanical properties :
#
#
# Convention : Reuss Voigt Hill
#
# Bulk Modulus (GPa) = 46.93702 56.31921 51.62812
# Shear Modulus (GPa) = 28.63302 33.33782 30.98542
#
# Velocity S-wave (km/s) = 3.72334 4.01761 3.87327
# Velocity P-wave (km/s) = 6.41949 6.98496 6.70819
#
# Compressibility (1/GPa) = 0.02130514
#
# Stress axis : x y z
#
# Youngs Moduli (GPa) = 90.79442 50.11828 51.14161
#
# Poissons Ratio (x) = -0.00906 0.31636
# Poissons Ratio (y) = -0.01641 0.43994
# Poissons Ratio (z) = 0.56165 0.43114
#
# Static dielectric constant tensor:
#      x y z
#    x 3.760870 -0.043860 -0.002320 
#    y -0.043860 3.445480 -0.060860 
#    z -0.002320 -0.060860 3.624760 
# 
# 
# High freq. dielectric constant tensor:
#      x y z
#    x 1.813410 -0.004570 -0.006350 
#    y -0.004570 1.793890 0.000990 
#    z -0.006350 0.000990 1.803990 
# 
# From -- ./inp_files/447361.got.cif
#   From: 2010.06.25/outbox.cif.g09.slc.cpg/sg2_224_cif.got.tgz:447361.got - 2010.06.27 13:26:56.
