data_PCOD8016774
_publ_section_title
;
Structure prediction by ZEFSAII (Michael W. Deem and Ramdas Pophale) SiO2 
 PCOD8016774
Probable space group: P -1
;
_chemical_formula_sum "Si O2"
_cell_formula_units_Z 16
_cell_length_a 14.928695
_cell_length_b 5.038973
_cell_length_c 13.008099
_cell_angle_alpha 103.514535
_cell_angle_beta 123.732351
_cell_angle_gamma 90.590333
_cell_volume 779.296064
_symmetry_space_group_name_H-M "P -1"
_symmetry_group_IT_number 2
_symmetry_cell_setting 'triclinic'
loop_
_space_group_symop_operation_xyz
x,y,z
-x,-y,-z
loop_
_atom_site_type_symbol
_atom_site_label
_atom_site_fract_x
_atom_site_fract_y
_atom_site_fract_z
Si Si1 0.413582 0.627291 0.741996
Si Si2 0.006428 0.358451 0.143714
Si Si3 0.683973 0.270589 0.100831
Si Si4 0.653575 0.671842 0.942628
Si Si5 0.905221 0.383998 0.575773
Si Si6 0.121015 0.237960 0.006246
Si Si7 0.282036 0.055894 0.612504
Si Si8 0.867469 0.633917 0.355884
O O1 0.395882 0.645881 0.854708
O O2 0.541402 0.638047 0.803303
O O3 0.343074 0.341343 0.625336
O O4 0.376624 0.890851 0.690287
O O5 0.066376 0.395463 0.295007
O O6 0.098482 0.335871 0.115300
O O7 0.947639 0.619601 0.107637
O O8 0.913153 0.089667 0.058784
O O9 0.810306 0.385297 0.223050
O O10 0.651558 0.401565 0.986334
O O11 0.669311 0.941642 0.049367
O O12 0.749986 0.686020 0.922588
O O13 0.865794 0.532777 0.464272
O O14 0.011906 0.252303 0.599670
O O15 0.808474 0.140450 0.532866
O O16 0.208361 0.126629 0.670414
#
# Coordination Sequence:
#
# PCOD8016774 Si02
#       8
#     2   2   2   2   2   2   2   2
#     4  11  23  37  54  80 119 154 190 229 275 328
#     4  10  23  40  63  86 115 146 179 233 292 337
#     4  11  21  36  54  85 118 148 186 231 279 334
#     4  12  22  36  61  82 111 155 191 229 282 331
#     4  11  21  37  59  83 113 155 187 221 284 340
#     4  10  22  42  60  89 115 138 187 240 280 333
#     4  11  21  39  52  80 120 153 185 232 270 327
#     4  10  22  35  55  86 118 147 187 229 272 342
#
# _framework density 20.531348000000001
#
# number of rings (size 3 to 8) (size 9 to 14) (size 15 to 20)
#    0.000    1.250    2.500    5.625    1.750    0.000 
#    0.000    0.000    0.000    1.500    0.000    0.000 
#    0.000    0.000    0.000    0.000    0.000    0.000 
#
# Total GULP energy -198389.914015 kJ/mol
# GULP energy per Si atom -12399.369626 kJ/mol
# Density = 2.048462 g / cm^3
# Si number density = 20.531348 Si / 1000 Ang^3
#
#
#
# Elastic Constant Matrix: (Units=GPa)
#
#
# Indices 1 2 3 4 5 6 
#
# 1 99.6578 16.1932 27.4304 9.8612 24.2614 -6.3403
# 2 16.1932 75.9517 14.9527 0.3181 -1.2988 -6.6141
# 3 27.4304 14.9527 76.4185 7.0645 15.0985 -10.3269
# 4 9.8612 0.3181 7.0645 21.5819 0.4956 5.8008
# 5 24.2614 -1.2988 15.0985 0.4956 27.9389 -1.2050
# 6 -6.3403 -6.6141 -10.3269 5.8008 -1.2050 19.3100
#
#
#
# Elastic Compliance Matrix: (Units=1/GPa)
#
#
# Indices 1 2 3 4 5 6 
#
# 1 0.014715 -0.002685 -0.001057 -0.007355 -0.011994 0.004807
# 2 -0.002685 0.014538 -0.002478 0.000981 0.004448 0.002756
# 3 -0.001057 -0.002478 0.017641 -0.007772 -0.008158 0.010064
# 4 -0.007355 0.000981 -0.007772 0.058264 0.008598 -0.023202
# 5 -0.011994 0.004448 -0.008158 0.008598 0.050402 -0.006215
# 6 0.004807 0.002756 0.010064 -0.023202 -0.006215 0.066274
#
#
# Mechanical properties :
#
#
# Convention : Reuss Voigt Hill
#
# Bulk Modulus (GPa) = 29.02447 41.02008 35.02228
# Shear Modulus (GPa) = 20.34511 26.66293 23.50402
#
# Velocity S-wave (km/s) = 3.15132 3.60758 3.38714
# Velocity P-wave (km/s) = 5.23531 6.11355 5.69139
#
# Compressibility (1/GPa) = 0.03445369
#
# Stress axis : x y z
#
# Youngs Moduli (GPa) = 67.95764 68.78306 56.68723
#
# Poissons Ratio (x) = 0.18467 0.05994
# Poissons Ratio (y) = 0.18245 0.14047
# Poissons Ratio (z) = 0.07186 0.17045
#
# Static dielectric constant tensor:
#      x y z
#    x 3.696830 -0.008020 0.266730 
#    y -0.008020 3.803690 0.135060 
#    z 0.266730 0.135060 3.551660 
# 
# 
# High freq. dielectric constant tensor:
#      x y z
#    x 1.787930 -0.006150 0.031490 
#    y -0.006150 1.815940 0.010100 
#    z 0.031490 0.010100 1.775290 
# 
# From -- ./inp_files/442183.got.cif
#   From: 2010.06.25/outbox.cif.g09.slc.cpg/sg2_222_cif.got.tgz:442183.got - 2010.06.27 13:26:56.
