data_PCOD8016200
_publ_section_title
;
Structure prediction by ZEFSAII (Michael W. Deem and Ramdas Pophale) SiO2 
 PCOD8016200
Probable space group: P -1
;
_chemical_formula_sum "Si O2"
_cell_formula_units_Z 16
_cell_length_a 7.925067
_cell_length_b 20.719705
_cell_length_c 13.381283
_cell_angle_alpha 144.322025
_cell_angle_beta 83.110198
_cell_angle_gamma 124.441770
_cell_volume 748.755338
_symmetry_space_group_name_H-M "P -1"
_symmetry_group_IT_number 2
_symmetry_cell_setting 'triclinic'
loop_
_space_group_symop_operation_xyz
x,y,z
-x,-y,-z
loop_
_atom_site_type_symbol
_atom_site_label
_atom_site_fract_x
_atom_site_fract_y
_atom_site_fract_z
Si Si1 0.064861 0.111903 0.226300
Si Si2 0.275286 0.160923 0.474896
Si Si3 0.192495 0.345610 0.774981
Si Si4 0.901745 0.166941 0.916874
Si Si5 0.939467 0.582459 0.952253
Si Si6 0.512321 0.485587 0.364218
Si Si7 0.094735 0.431142 0.693091
Si Si8 0.584558 0.038513 0.158798
O O1 0.132174 0.068932 0.260788
O O2 0.352562 0.334351 0.468102
O O3 0.783403 0.038707 0.169569
O O4 0.000000 0.000000 0.000000
O O5 0.093959 0.164653 0.547076
O O6 0.605486 0.372985 0.709681
O O7 0.237096 0.020728 0.353387
O O8 0.198078 0.397988 0.728602
O O9 0.500000 0.500000 0.000000
O O10 0.987908 0.316441 0.820950
O O11 0.964232 0.283097 0.970110
O O12 0.196291 0.292361 0.107136
O O13 0.700381 0.120577 0.954361
O O14 0.131060 0.572731 0.914380
O O15 0.500000 0.500000 0.500000
O O16 0.706424 0.482646 0.311047
O O17 0.764389 0.240580 0.438583
O O18 0.500000 0.000000 0.000000
#
# Coordination Sequence:
#
# PCOD8016200 Si02
#       8
#     2   2   2   2   2   2   2   2
#     4  11  22  40  67  94 136 186 222 269 345 404
#     4  11  21  43  67  95 141 177 219 284 337 402
#     4  10  21  43  73  96 128 184 229 277 347 399
#     4  12  24  41  67  99 137 175 228 280 333 400
#     4  11  24  42  69 100 132 176 231 282 337 397
#     4  11  22  40  63 102 135 175 235 271 331 413
#     4  11  22  46  69  94 144 177 221 284 343 402
#     4  11  23  41  66 100 138 177 219 275 346 405
#
# _framework density 21.368798000000002
#
# number of rings (size 3 to 8) (size 9 to 14) (size 15 to 20)
#    0.000    1.000    5.000    4.125    0.000    2.500 
#    0.000    2.500    0.000    0.000    0.000    0.000 
#    0.000    0.000    0.000    0.000    0.000    0.000 
#
# Total GULP energy -198296.302708 kJ/mol
# GULP energy per Si atom -12393.518919 kJ/mol
# Density = 2.132016 g / cm^3
# Si number density = 21.368798 Si / 1000 Ang^3
#
#
#
# Elastic Constant Matrix: (Units=GPa)
#
#
# Indices 1 2 3 4 5 6 
#
# 1 81.2317 42.3764 35.3252 8.0895 -25.2945 5.3186
# 2 42.3764 112.4377 49.4867 -0.6714 -9.8956 15.0274
# 3 35.3252 49.4867 101.1811 -2.1432 -16.4334 4.3113
# 4 8.0895 -0.6714 -2.1432 43.6294 2.3801 -4.2250
# 5 -25.2945 -9.8956 -16.4334 2.3801 50.5254 -7.8516
# 6 5.3186 15.0274 4.3113 -4.2250 -7.8516 40.0513
#
#
#
# Elastic Compliance Matrix: (Units=1/GPa)
#
#
# Indices 1 2 3 4 5 6 
#
# 1 0.019227 -0.005418 -0.002897 -0.004136 0.007959 0.000915
# 2 -0.005418 0.013435 -0.004868 0.000695 -0.002347 -0.004184
# 3 -0.002897 -0.004868 0.013596 0.001137 0.002166 0.001292
# 4 -0.004136 0.000695 0.001137 0.024100 -0.002351 0.002248
# 5 0.007959 -0.002347 0.002166 -0.002351 0.024785 0.004201
# 6 0.000915 -0.004184 0.001292 0.002248 0.004201 0.027338
#
#
# Mechanical properties :
#
#
# Convention : Reuss Voigt Hill
#
# Bulk Modulus (GPa) = 50.26773 61.02523 55.64648
# Shear Modulus (GPa) = 32.15920 38.01868 35.08894
#
# Velocity S-wave (km/s) = 3.88359 4.22259 4.05664
# Velocity P-wave (km/s) = 6.60944 7.23836 6.93104
#
# Compressibility (1/GPa) = 0.01989348
#
# Stress axis : x y z
#
# Youngs Moduli (GPa) = 52.01016 74.43275 73.55083
#
# Poissons Ratio (x) = 0.40328 0.21305
# Poissons Ratio (y) = 0.28180 0.35801
# Poissons Ratio (z) = 0.15065 0.36230
#
# Static dielectric constant tensor:
#      x y z
#    x 4.291330 0.334310 -0.668690 
#    y 0.334310 3.893300 -0.263620 
#    z -0.668690 -0.263620 4.502110 
# 
# 
# High freq. dielectric constant tensor:
#      x y z
#    x 1.844890 0.011220 -0.013950 
#    y 0.011220 1.827800 -0.015710 
#    z -0.013950 -0.015710 1.846070 
# 
# From -- ./inp_files/405582.got.cif
#   From: 2010.06.25/outbox.cif.g09.slc.cpg/sg2_203_cif.got.tgz:405582.got - 2010.06.27 13:26:56.
