data_PCOD8016856
_publ_section_title
;
Structure prediction by ZEFSAII (Michael W. Deem and Ramdas Pophale) SiO2 
 PCOD8016856
Probable space group: P -1
;
_chemical_formula_sum "Si O2"
_cell_formula_units_Z 16
_cell_length_a 11.653983
_cell_length_b 14.511578
_cell_length_c 20.251020
_cell_angle_alpha 31.998914
_cell_angle_beta 31.267112
_cell_angle_gamma 52.997361
_cell_volume 842.442193
_symmetry_space_group_name_H-M "P -1"
_symmetry_group_IT_number 2
_symmetry_cell_setting 'triclinic'
loop_
_space_group_symop_operation_xyz
x,y,z
-x,-y,-z
loop_
_atom_site_type_symbol
_atom_site_label
_atom_site_fract_x
_atom_site_fract_y
_atom_site_fract_z
Si Si1 0.271957 0.592812 0.494326
Si Si2 0.549686 0.740991 0.611720
Si Si3 0.945530 0.646219 0.525861
Si Si4 0.325404 0.044989 0.873677
Si Si5 0.840948 0.188867 0.163262
Si Si6 0.407539 0.388676 0.801609
Si Si7 0.935791 0.191604 0.970640
Si Si8 0.703957 0.237995 0.830021
O O1 0.444198 0.741851 0.374882
O O2 0.440650 0.581613 0.358397
O O3 0.076785 0.669959 0.517769
O O4 0.135517 0.385627 0.720948
O O5 0.709290 0.689179 0.618850
O O6 0.297995 0.709308 0.790256
O O7 0.484793 0.600999 0.665393
O O8 0.704810 0.958521 0.378352
O O9 0.877148 0.425619 0.673188
O O10 0.135123 0.790157 0.290865
O O11 0.068528 0.056099 0.005786
O O12 0.295092 0.923024 0.895563
O O13 0.388688 0.948363 0.964372
O O14 0.832945 0.238959 0.059599
O O15 0.118199 0.276760 0.999565
O O16 0.471034 0.258690 0.901529
#
# Coordination Sequence:
#
# PCOD8016856 Si02
#       8
#     2   2   2   2   2   2   2   2
#     4  11  22  35  58  92 114 147 186 228 296 342
#     4  10  23  39  60  84 112 152 191 238 275 325
#     4   9  18  34  57  83 118 142 183 240 282 330
#     4  11  22  34  57  84 118 153 178 229 286 341
#     4  11  23  40  59  84 112 155 196 223 280 340
#     4  10  22  36  62  87 117 140 186 246 282 332
#     4  11  24  37  54  85 123 148 187 228 283 344
#     4   9  18  34  56  89 113 143 182 235 295 325
#
# _framework density 18.992401000000001
#
# number of rings (size 3 to 8) (size 9 to 14) (size 15 to 20)
#    0.000    1.750    2.500    2.250    5.250    1.000 
#    0.000    0.625    0.000    0.750    0.000    0.000 
#    0.000    0.000    0.000    0.000    0.000    0.000 
#
# Total GULP energy -198416.380842 kJ/mol
# GULP energy per Si atom -12401.023803 kJ/mol
# Density = 1.894917 g / cm^3
# Si number density = 18.992401 Si / 1000 Ang^3
#
#
#
# Elastic Constant Matrix: (Units=GPa)
#
#
# Indices 1 2 3 4 5 6 
#
# 1 105.3309 44.3860 59.9691 -1.0020 -9.1303 0.0992
# 2 44.3860 70.2229 53.3096 -0.2384 -1.9629 -4.8086
# 3 59.9691 53.3096 86.7461 3.7591 -13.6311 4.5687
# 4 -1.0020 -0.2384 3.7591 24.9041 1.3323 -5.8143
# 5 -9.1303 -1.9629 -13.6311 1.3323 29.9339 -8.5062
# 6 0.0992 -4.8086 4.5687 -5.8143 -8.5062 21.5844
#
#
#
# Elastic Compliance Matrix: (Units=1/GPa)
#
#
# Indices 1 2 3 4 5 6 
#
# 1 0.016240 -0.002761 -0.009618 0.002593 0.000966 0.002425
# 2 -0.002761 0.030523 -0.018347 0.005629 -0.004477 0.010448
# 3 -0.009618 -0.018347 0.031542 -0.008031 0.007796 -0.009810
# 4 0.002593 0.005629 -0.008031 0.045034 -0.000246 0.014976
# 5 0.000966 -0.004477 0.007796 -0.000246 0.040762 0.013345
# 6 0.002425 0.010448 -0.009810 0.014976 0.013345 0.060016
#
#
# Mechanical properties :
#
#
# Convention : Reuss Voigt Hill
#
# Bulk Modulus (GPa) = 59.33876 64.18104 61.75990
# Shear Modulus (GPa) = 17.17117 22.26015 19.71566
#
# Velocity S-wave (km/s) = 3.01010 3.42724 3.22542
# Velocity P-wave (km/s) = 6.58727 7.03759 6.81615
#
# Compressibility (1/GPa) = 0.01685239
#
# Stress axis : x y z
#
# Youngs Moduli (GPa) = 61.57814 32.76235 31.70388
#
# Poissons Ratio (x) = 0.09046 0.30493
# Poissons Ratio (y) = 0.17002 0.58166
# Poissons Ratio (z) = 0.59227 0.60108
#
# Static dielectric constant tensor:
#      x y z
#    x 3.672100 -0.002560 -0.163170 
#    y -0.002560 3.383050 -0.101910 
#    z -0.163170 -0.101910 3.391240 
# 
# 
# High freq. dielectric constant tensor:
#      x y z
#    x 1.750290 -0.005990 -0.013220 
#    y -0.005990 1.712520 -0.020810 
#    z -0.013220 -0.020810 1.734210 
# 
# From -- ./inp_files/391163.got.cif
#   From: 2010.06.25/outbox.cif.g09.slc.cpg/sg2_196_cif.got.tgz:391163.got - 2010.06.27 13:26:56.
