data_PCOD8016240
_publ_section_title
;
Structure prediction by ZEFSAII (Michael W. Deem and Ramdas Pophale) SiO2 
 PCOD8016240
Probable space group: P -1
;
_chemical_formula_sum "Si O2"
_cell_formula_units_Z 14
_cell_length_a 10.685790
_cell_length_b 23.631732
_cell_length_c 7.551620
_cell_angle_alpha 147.322650
_cell_angle_beta 45.984166
_cell_angle_gamma 149.669182
_cell_volume 516.415415
_symmetry_space_group_name_H-M "P -1"
_symmetry_group_IT_number 2
_symmetry_cell_setting 'triclinic'
loop_
_space_group_symop_operation_xyz
x,y,z
-x,-y,-z
loop_
_atom_site_type_symbol
_atom_site_label
_atom_site_fract_x
_atom_site_fract_y
_atom_site_fract_z
Si Si1 0.454322 0.758551 0.508175
Si Si2 0.743749 0.543592 0.186316
Si Si3 0.911367 0.040996 0.950865
Si Si4 0.948992 0.357070 0.167770
Si Si5 0.376845 0.144359 0.903834
Si Si6 0.678127 0.474276 0.461713
Si Si7 0.643877 0.122012 0.335347
O O1 0.750486 0.910129 0.613978
O O2 0.304547 0.739717 0.434286
O O3 0.340934 0.776902 0.838435
O O4 0.410091 0.615575 0.180261
O O5 0.809581 0.540646 0.314557
O O6 0.585458 0.580223 0.425842
O O7 0.996453 0.668909 0.148792
O O8 0.788464 0.952817 0.022370
O O9 0.199230 0.130041 0.897744
O O10 0.886004 0.156904 0.247685
O O11 0.137022 0.391719 0.224882
O O12 0.000000 0.500000 0.500000
O O13 0.468746 0.072583 0.546079
O O14 0.611273 0.324377 0.184043
O O15 0.500000 0.000000 0.000000
#
# Coordination Sequence:
#
# PCOD8016240 Si02
#       7
#     2   2   2   2   2   2   2
#     4  10  21  44  63  94 132 167 217 269 325 389
#     4  10  22  42  66  97 131 173 217 265 332 392
#     4  10  24  43  68  96 127 174 220 271 332 386
#     4  10  22  40  64  94 131 173 210 269 324 388
#     4  11  22  45  66  95 134 168 217 279 325 386
#     4  11  23  42  66 100 131 171 220 265 334 398
#     4  10  22  42  65  95 128 172 221 265 328 391
#
# _framework density 27.109957999999999
#
# number of rings (size 3 to 8) (size 9 to 14) (size 15 to 20)
#    0.000    1.714    1.429    2.571    0.000    6.857 
#   25.714    0.000    0.000    0.000    0.000    0.000 
#    0.000    0.000    0.000    0.000    0.000    0.000 
#
# Total GULP energy -173477.000161 kJ/mol
# GULP energy per Si atom -12391.214297 kJ/mol
# Density = 2.704825 g / cm^3
# Si number density = 27.109958 Si / 1000 Ang^3
#
#
#
# Elastic Constant Matrix: (Units=GPa)
#
#
# Indices 1 2 3 4 5 6 
#
# 1 81.9382 7.2392 10.4425 -6.7162 -14.9522 11.2983
# 2 7.2392 40.6444 0.1870 -6.7767 16.7221 4.5078
# 3 10.4425 0.1870 91.6071 -10.0555 -3.8177 1.5671
# 4 -6.7162 -6.7767 -10.0555 36.0139 -7.6406 2.7151
# 5 -14.9522 16.7221 -3.8177 -7.6406 32.8282 -9.2436
# 6 11.2983 4.5078 1.5671 2.7151 -9.2436 56.0365
#
#
#
# Elastic Compliance Matrix: (Units=1/GPa)
#
#
# Indices 1 2 3 4 5 6 
#
# 1 0.015273 -0.006395 -0.000853 0.003753 0.010720 -0.000955
# 2 -0.006395 0.035721 -0.000055 0.001175 -0.022341 -0.005325
# 3 -0.000853 -0.000055 0.011461 0.003405 0.001760 -0.000019
# 4 0.003753 0.001175 0.003405 0.031532 0.008546 -0.001065
# 5 0.010720 -0.022341 0.001760 0.008546 0.051056 0.007595
# 6 -0.000955 -0.005325 -0.000019 -0.001065 0.007595 0.019771
#
#
# Mechanical properties :
#
#
# Convention : Reuss Voigt Hill
#
# Bulk Modulus (GPa) = 20.89888 27.76967 24.33428
# Shear Modulus (GPa) = 25.59238 38.06380 31.82809
#
# Velocity S-wave (km/s) = 3.07583 3.75113 3.43014
# Velocity P-wave (km/s) = 4.50998 5.38766 4.96824
#
# Compressibility (1/GPa) = 0.04784944
#
# Stress axis : x y z
#
# Youngs Moduli (GPa) = 65.47322 27.99480 87.25255
#
# Poissons Ratio (x) = 0.17903 0.07442
# Poissons Ratio (y) = 0.41871 0.00479
# Poissons Ratio (z) = 0.05585 0.00154
#
# Static dielectric constant tensor:
#      x y z
#    x 7.369610 -1.582830 1.015140 
#    y -1.582830 6.573170 -1.145970 
#    z 1.015140 -1.145970 5.339770 
# 
# 
# High freq. dielectric constant tensor:
#      x y z
#    x 2.113270 -0.002240 0.002870 
#    y -0.002240 2.081300 -0.010700 
#    z 0.002870 -0.010700 2.078410 
# 
# From -- ./inp_files/285862.got.cif
#   From: 2010.06.25/outbox.cif.g09.slc.cpg/sg2_143_cif.got.tgz:285862.got - 2010.06.27 13:26:56.
