data_PCOD8016464
_publ_section_title
;
Structure prediction by ZEFSAII (Michael W. Deem and Ramdas Pophale) SiO2 
 PCOD8016464
Probable space group: P -1
;
_chemical_formula_sum "Si O2"
_cell_formula_units_Z 14
_cell_length_a 20.917187
_cell_length_b 11.477389
_cell_length_c 15.959309
_cell_angle_alpha 27.894287
_cell_angle_beta 158.907446
_cell_angle_gamma 141.634638
_cell_volume 626.108958
_symmetry_space_group_name_H-M "P -1"
_symmetry_group_IT_number 2
_symmetry_cell_setting 'triclinic'
loop_
_space_group_symop_operation_xyz
x,y,z
-x,-y,-z
loop_
_atom_site_type_symbol
_atom_site_label
_atom_site_fract_x
_atom_site_fract_y
_atom_site_fract_z
Si Si1 0.626715 0.106008 0.525112
Si Si2 0.591926 0.639952 0.195157
Si Si3 0.717225 0.719595 0.738177
Si Si4 0.702098 0.217188 0.113176
Si Si5 0.904368 0.226645 0.898332
Si Si6 0.957943 0.227869 0.143501
Si Si7 0.612543 0.168890 0.851476
O O1 0.550115 0.415640 0.226423
O O2 0.830570 0.048932 0.853655
O O3 0.500000 0.000000 0.500000
O O4 0.632239 0.973933 0.526157
O O5 0.772825 0.515424 0.550754
O O6 0.420594 0.751656 0.974498
O O7 0.629210 0.869941 0.037649
O O8 0.566089 0.665296 0.521339
O O9 0.774817 0.475904 0.025091
O O10 0.888515 0.765643 0.868863
O O11 0.868199 0.970512 0.480357
O O12 0.585222 0.182902 0.909674
O O13 0.895018 0.116709 0.050494
O O14 0.000000 0.500000 0.000000
O O15 0.794032 0.259933 0.989681
#
# Coordination Sequence:
#
# PCOD8016464 Si02
#       7
#     2   2   2   2   2   2   2
#     4  10  21  44  71  95 141 174 225 273 332 394
#     4  10  23  42  69  97 139 171 226 271 337 388
#     4  12  23  43  70 101 135 182 222 274 335 395
#     4  12  24  42  69 100 136 175 224 278 341 400
#     4  10  23  42  66  99 132 178 223 273 329 392
#     4  12  25  45  68  98 138 176 223 281 338 402
#     4  12  25  42  66 102 135 176 225 277 337 400
#
# _framework density 22.360325
#
# number of rings (size 3 to 8) (size 9 to 14) (size 15 to 20)
#    0.857    0.000    1.429    6.857    0.000    2.857 
#    0.000    0.714    0.000    0.000    0.000    0.000 
#    0.000    0.000    0.000    0.000    0.000    0.000 
#
# Total GULP energy -173570.735355 kJ/mol
# GULP energy per Si atom -12397.909668 kJ/mol
# Density = 2.230943 g / cm^3
# Si number density = 22.360325 Si / 1000 Ang^3
#
#
#
# Elastic Constant Matrix: (Units=GPa)
#
#
# Indices 1 2 3 4 5 6 
#
# 1 68.7639 15.2382 32.2309 4.7884 12.5053 1.9629
# 2 15.2382 98.7536 26.8224 -9.4119 4.3818 8.8719
# 3 32.2309 26.8224 126.2845 -0.3393 6.5471 3.6037
# 4 4.7884 -9.4119 -0.3393 46.6181 3.3854 -4.9212
# 5 12.5053 4.3818 6.5471 3.3854 38.3678 2.8211
# 6 1.9629 8.8719 3.6037 -4.9212 2.8211 38.7526
#
#
#
# Elastic Compliance Matrix: (Units=1/GPa)
#
#
# Indices 1 2 3 4 5 6 
#
# 1 0.017745 -0.001628 -0.003940 -0.001839 -0.004760 -0.000047
# 2 -0.001628 0.011310 -0.001898 0.002260 -0.000489 -0.002008
# 3 -0.003940 -0.001898 0.009338 0.000072 -0.000083 -0.000219
# 4 -0.001839 0.002260 0.000072 0.022501 -0.001845 0.002561
# 5 -0.004760 -0.000489 -0.000083 -0.001845 0.027988 -0.001911
# 6 -0.000047 -0.002008 -0.000219 0.002561 -0.001911 0.026751
#
#
# Mechanical properties :
#
#
# Convention : Reuss Voigt Hill
#
# Bulk Modulus (GPa) = 42.62300 49.15389 45.88845
# Shear Modulus (GPa) = 36.13063 39.38174 37.75618
#
# Velocity S-wave (km/s) = 4.02411 4.20126 4.11364
# Velocity P-wave (km/s) = 6.37923 6.75014 6.56730
#
# Compressibility (1/GPa) = 0.02346151
#
# Stress axis : x y z
#
# Youngs Moduli (GPa) = 56.35376 88.41365 107.08795
#
# Poissons Ratio (x) = 0.14393 0.42193
# Poissons Ratio (y) = 0.09174 0.20326
# Poissons Ratio (z) = 0.22204 0.16782
#
# Static dielectric constant tensor:
#      x y z
#    x 4.720020 -0.613180 0.112630 
#    y -0.613180 4.723340 -0.240180 
#    z 0.112630 -0.240180 3.992100 
# 
# 
# High freq. dielectric constant tensor:
#      x y z
#    x 1.880640 0.002820 0.002300 
#    y 0.002820 1.892840 -0.005240 
#    z 0.002300 -0.005240 1.872950 
# 
# From -- ./inp_files/541073.got.cif
#   From: 2010.06.25/outbox.cif.g09.slc.cpg/sg2_271_cif.got.tgz:541073.got - 2010.06.27 13:26:56.
