data_PCOD8016280
_publ_section_title
;
Structure prediction by ZEFSAII (Michael W. Deem and Ramdas Pophale) SiO2 
 PCOD8016280
Probable space group: P -1
;
_chemical_formula_sum "Si O2"
_cell_formula_units_Z 14
_cell_length_a 11.260747
_cell_length_b 11.764491
_cell_length_c 17.107100
_cell_angle_alpha 149.370489
_cell_angle_beta 147.329160
_cell_angle_gamma 39.426417
_cell_volume 613.683316
_symmetry_space_group_name_H-M "P -1"
_symmetry_group_IT_number 2
_symmetry_cell_setting 'triclinic'
loop_
_space_group_symop_operation_xyz
x,y,z
-x,-y,-z
loop_
_atom_site_type_symbol
_atom_site_label
_atom_site_fract_x
_atom_site_fract_y
_atom_site_fract_z
Si Si1 0.143057 0.696970 0.690338
Si Si2 0.226642 0.880343 0.228549
Si Si3 0.904705 0.253849 0.477672
Si Si4 0.167932 0.545385 0.878821
Si Si5 0.362660 0.942878 0.505418
Si Si6 0.405194 0.787224 0.030697
Si Si7 0.438924 0.766351 0.606614
O O1 0.233104 0.695618 0.649935
O O2 0.000000 0.500000 0.500000
O O3 0.356991 0.676334 0.854383
O O4 0.980140 0.920891 0.759419
O O5 0.336273 0.808112 0.330986
O O6 0.419307 0.938948 0.311693
O O7 0.127086 0.671280 0.013803
O O8 0.766510 0.124817 0.385083
O O9 0.941306 0.476743 0.678719
O O10 0.146967 0.131165 0.512478
O O11 0.353088 0.320883 0.864124
O O12 0.224845 0.723683 0.952764
O O13 0.380846 0.770129 0.485094
O O14 0.385181 0.062349 0.178831
O O15 0.500000 0.500000 0.500000
#
# Coordination Sequence:
#
# PCOD8016280 Si02
#       7
#     2   2   2   2   2   2   2
#     4  11  25  41  67 103 140 174 222 289 343 389
#     4  10  23  38  73 101 129 170 234 291 327 384
#     4  11  24  44  69  97 135 184 220 275 345 400
#     4  11  21  41  73 100 125 176 240 283 326 391
#     4  10  21  44  65  97 132 177 229 276 333 399
#     4  11  24  42  68 101 138 174 229 284 336 398
#     4  12  27  42  68 100 147 183 217 271 351 417
#
# _framework density 22.813068999999999
#
# number of rings (size 3 to 8) (size 9 to 14) (size 15 to 20)
#    0.000    1.143    4.286    1.286    8.000    1.143 
#    0.000    0.714    0.000    0.000    0.000    0.000 
#    0.000    0.000    0.000    0.000    0.000    0.000 
#
# Total GULP energy -173490.105997 kJ/mol
# GULP energy per Si atom -12392.150428 kJ/mol
# Density = 2.276115 g / cm^3
# Si number density = 22.813069 Si / 1000 Ang^3
#
#
#
# Elastic Constant Matrix: (Units=GPa)
#
#
# Indices 1 2 3 4 5 6 
#
# 1 131.3735 25.5126 34.6004 -6.9029 -7.9015 31.9462
# 2 25.5126 50.5204 32.1652 7.7070 -5.2242 28.3384
# 3 34.6004 32.1652 134.4767 2.1275 -25.3223 27.1065
# 4 -6.9029 7.7070 2.1275 38.4117 6.1186 -6.0769
# 5 -7.9015 -5.2242 -25.3223 6.1186 41.0418 -5.7561
# 6 31.9462 28.3384 27.1065 -6.0769 -5.7561 40.6431
#
#
#
# Elastic Compliance Matrix: (Units=1/GPa)
#
#
# Indices 1 2 3 4 5 6 
#
# 1 0.009591 -0.000954 -0.001021 0.001002 0.000100 -0.006028
# 2 -0.000954 0.038798 -0.003539 -0.011934 0.000757 -0.025619
# 3 -0.001021 -0.003539 0.010185 -0.001370 0.005426 -0.002959
# 4 0.001002 -0.011934 -0.001370 0.031465 -0.005120 0.012427
# 5 0.000100 0.000757 0.005426 -0.005120 0.028458 -0.000961
# 6 -0.006028 -0.025619 -0.002959 0.012427 -0.000961 0.050900
#
#
# Mechanical properties :
#
#
# Convention : Reuss Voigt Hill
#
# Bulk Modulus (GPa) = 21.03274 55.65856 38.34565
# Shear Modulus (GPa) = 25.47435 38.95882 32.21658
#
# Velocity S-wave (km/s) = 3.34527 4.13697 3.76200
# Velocity P-wave (km/s) = 4.91535 6.87531 5.97623
#
# Compressibility (1/GPa) = 0.04754493
#
# Stress axis : x y z
#
# Youngs Moduli (GPa) = 104.26794 25.77429 98.17898
#
# Poissons Ratio (x) = 0.02459 0.10028
# Poissons Ratio (y) = 0.09949 0.34747
# Poissons Ratio (z) = 0.10650 0.09122
#
# Static dielectric constant tensor:
#      x y z
#    x 3.980460 0.550340 0.086010 
#    y 0.550340 3.831100 -0.436700 
#    z 0.086010 -0.436700 3.905850 
# 
# 
# High freq. dielectric constant tensor:
#      x y z
#    x 1.904480 0.007970 -0.026540 
#    y 0.007970 1.884750 -0.006900 
#    z -0.026540 -0.006900 1.904060 
# 
# From -- ./inp_files/157588.got.cif
#   From: 2010.06.25/outbox.cif.g09.slc.cpg/sg2_79_cif.got.tgz:157588.got - 2010.06.27 13:26:56.
