data_PCOD8016570
_publ_section_title
;
Structure prediction by ZEFSAII (Michael W. Deem and Ramdas Pophale) SiO2 
 PCOD8016570
Probable space group: P -1
;
_chemical_formula_sum "Si O2"
_cell_formula_units_Z 16
_cell_length_a 9.171797
_cell_length_b 23.218747
_cell_length_c 9.446930
_cell_angle_alpha 53.189068
_cell_angle_beta 48.759259
_cell_angle_gamma 30.152378
_cell_volume 757.596427
_symmetry_space_group_name_H-M "P -1"
_symmetry_group_IT_number 2
_symmetry_cell_setting 'triclinic'
loop_
_space_group_symop_operation_xyz
x,y,z
-x,-y,-z
loop_
_atom_site_type_symbol
_atom_site_label
_atom_site_fract_x
_atom_site_fract_y
_atom_site_fract_z
Si Si1 0.248968 0.705195 0.934854
Si Si2 0.280392 0.396122 0.572140
Si Si3 0.863171 0.322867 0.230856
Si Si4 0.485857 0.068878 0.300567
Si Si5 0.323049 0.818482 0.517986
Si Si6 0.173439 0.955104 0.647768
Si Si7 0.910716 0.473896 0.970798
Si Si8 0.222523 0.062270 0.984402
O O1 0.136636 0.673879 0.947481
O O2 0.281376 0.759703 0.722624
O O3 0.565495 0.591727 0.970797
O O4 0.007770 0.801386 0.068591
O O5 0.548378 0.380086 0.414919
O O6 0.396410 0.282610 0.617773
O O7 0.000000 0.500000 0.500000
O O8 0.164680 0.418446 0.771763
O O9 0.144471 0.192526 0.297517
O O10 0.915150 0.390191 0.145769
O O11 0.652942 0.085142 0.255273
O O12 0.500000 0.000000 0.500000
O O13 0.678191 0.986682 0.164189
O O14 0.399051 0.863776 0.507919
O O15 0.012883 0.921089 0.470610
O O16 0.928206 0.963217 0.811145
O O17 0.000000 0.500000 0.000000
O O18 0.500000 0.000000 0.000000
#
# Coordination Sequence:
#
# PCOD8016570 Si02
#       8
#     2   2   2   2   2   2   2   2
#     4  10  21  45  67  97 140 177 233 280 337 417
#     4  11  23  44  74  98 134 186 233 282 342 414
#     4  11  25  46  72 102 139 185 236 284 346 420
#     4  12  26  44  68 105 145 175 225 291 351 412
#     4   9  20  39  70  96 130 175 230 272 340 414
#     4  10  23  41  68  98 137 178 223 282 349 405
#     4  12  28  45  72 104 141 182 235 297 344 404
#     4  11  24  42  69 103 136 183 229 276 346 424
#
# _framework density 21.119425
#
# number of rings (size 3 to 8) (size 9 to 14) (size 15 to 20)
#    0.000    1.250    3.750    2.250    8.750    2.500 
#    0.000    0.000    0.000    0.000    0.000    0.000 
#    0.000    0.000    0.000    0.000    0.000    0.000 
#
# Total GULP energy -198287.473681 kJ/mol
# GULP energy per Si atom -12392.967105 kJ/mol
# Density = 2.107136 g / cm^3
# Si number density = 21.119425 Si / 1000 Ang^3
#
#
#
# Elastic Constant Matrix: (Units=GPa)
#
#
# Indices 1 2 3 4 5 6 
#
# 1 151.9184 68.2637 37.5192 5.4842 19.3721 9.2866
# 2 68.2637 160.5412 52.9920 6.1736 11.4156 12.1020
# 3 37.5192 52.9920 83.1083 5.0796 6.5550 9.6872
# 4 5.4842 6.1736 5.0796 34.3058 6.5287 8.1969
# 5 19.3721 11.4156 6.5550 6.5287 40.5073 1.2994
# 6 9.2866 12.1020 9.6872 8.1969 1.2994 39.1597
#
#
#
# Elastic Compliance Matrix: (Units=1/GPa)
#
#
# Indices 1 2 3 4 5 6 
#
# 1 0.008742 -0.002854 -0.001814 0.000131 -0.003083 -0.000668
# 2 -0.002854 0.008962 -0.004267 -0.000214 -0.000404 -0.000979
# 3 -0.001814 -0.004267 0.015877 -0.000753 -0.000314 -0.002011
# 4 0.000131 -0.000214 -0.000753 0.031683 -0.004786 -0.006252
# 5 -0.003083 -0.000404 -0.000314 -0.004786 0.027064 0.001037
# 6 -0.000668 -0.000979 -0.002011 -0.006252 0.001037 0.027769
#
#
# Mechanical properties :
#
#
# Convention : Reuss Voigt Hill
#
# Bulk Modulus (GPa) = 63.64688 79.23530 71.44109
# Shear Modulus (GPa) = 34.91542 38.58075 36.74809
#
# Velocity S-wave (km/s) = 4.07041 4.27873 4.17587
# Velocity P-wave (km/s) = 7.23140 7.87460 7.55984
#
# Compressibility (1/GPa) = 0.01571169
#
# Stress axis : x y z
#
# Youngs Moduli (GPa) = 114.38970 111.58727 62.98413
#
# Poissons Ratio (x) = 0.31847 0.11424
# Poissons Ratio (y) = 0.32647 0.26873
# Poissons Ratio (z) = 0.20749 0.47610
#
# Static dielectric constant tensor:
#      x y z
#    x 3.597750 0.216580 0.018200 
#    y 0.216580 4.364910 0.105820 
#    z 0.018200 0.105820 3.550180 
# 
# 
# High freq. dielectric constant tensor:
#      x y z
#    x 1.836370 0.012030 0.005700 
#    y 0.012030 1.843540 -0.002090 
#    z 0.005700 -0.002090 1.817670 
# 
# From -- ./inp_files/226075.got.cif
#   From: 2010.06.25/outbox.cif.g09.slc.cpg/sg2_114_cif.got.tgz:226075.got - 2010.06.27 13:26:56.
