data_PCOD8016744
_publ_section_title
;
Structure prediction by ZEFSAII (Michael W. Deem and Ramdas Pophale) SiO2 
 PCOD8016744
Probable space group: P -1
;
_chemical_formula_sum "Si O2"
_cell_formula_units_Z 14
_cell_length_a 5.017185
_cell_length_b 9.976738
_cell_length_c 11.865824
_cell_angle_alpha 92.775322
_cell_angle_beta 65.280997
_cell_angle_gamma 70.660218
_cell_volume 496.826330
_symmetry_space_group_name_H-M "P -1"
_symmetry_group_IT_number 2
_symmetry_cell_setting 'triclinic'
loop_
_space_group_symop_operation_xyz
x,y,z
-x,-y,-z
loop_
_atom_site_type_symbol
_atom_site_label
_atom_site_fract_x
_atom_site_fract_y
_atom_site_fract_z
Si Si1 0.652176 0.576757 0.612747
Si Si2 0.290194 0.374089 0.141958
Si Si3 0.684111 0.286900 0.654819
Si Si4 0.831919 0.314018 0.872798
Si Si5 0.786181 0.905521 0.865250
Si Si6 0.336090 0.013341 0.751864
Si Si7 0.566080 0.830084 0.494991
O O1 0.656363 0.643556 0.736225
O O2 0.504968 0.451527 0.641752
O O3 0.446467 0.715901 0.578054
O O4 0.000000 0.500000 0.500000
O O5 0.087400 0.541658 0.149738
O O6 0.114890 0.266753 0.133363
O O7 0.633877 0.320964 0.019667
O O8 0.634776 0.291375 0.798867
O O9 0.556675 0.173105 0.612566
O O10 0.058263 0.231366 0.564182
O O11 0.174382 0.184170 0.814420
O O12 0.663988 0.942538 0.759088
O O13 0.092470 0.941981 0.833650
O O14 0.500000 0.000000 0.000000
O O15 0.400749 0.984646 0.601457
#
# Coordination Sequence:
#
# PCOD8016744 Si02
#       7
#     2   2   2   2   2   2   2
#     4   9  19  38  69 100 135 176 235 287 346 407
#     4  10  21  47  73 104 146 188 235 293 357 423
#     4  10  23  42  66  99 141 184 233 284 349 424
#     4  10  24  45  71 104 148 191 233 287 362 427
#     4  12  25  46  73 107 141 188 238 295 350 418
#     4  12  26  44  74 108 142 183 242 295 354 417
#     4  11  22  41  69 101 136 184 234 293 346 407
#
# _framework density 28.178858999999999
#
# number of rings (size 3 to 8) (size 9 to 14) (size 15 to 20)
#    0.000    1.429    2.857    1.714    2.000    2.286 
#    2.571    2.143    0.000    0.000    0.000    0.000 
#    0.000    0.000    0.000    0.000    0.000    0.000 
#
# Total GULP energy -173647.444573 kJ/mol
# GULP energy per Si atom -12403.388898 kJ/mol
# Density = 2.811472 g / cm^3
# Si number density = 28.178859 Si / 1000 Ang^3
#
#
#
# Elastic Constant Matrix: (Units=GPa)
#
#
# Indices 1 2 3 4 5 6 
#
# 1 80.0572 26.6691 7.6839 8.5218 11.5755 10.7204
# 2 26.6691 164.5506 27.6058 29.7713 14.2379 9.8121
# 3 7.6839 27.6058 171.1112 9.2213 6.1386 9.3971
# 4 8.5218 29.7713 9.2213 44.9105 6.7831 8.4369
# 5 11.5755 14.2379 6.1386 6.7831 29.0951 1.5239
# 6 10.7204 9.8121 9.3971 8.4369 1.5239 34.6260
#
#
#
# Elastic Compliance Matrix: (Units=1/GPa)
#
#
# Indices 1 2 3 4 5 6 
#
# 1 0.014222 -0.001648 0.000007 -0.000220 -0.004609 -0.003682
# 2 -0.001648 0.007397 -0.000818 -0.004094 -0.001822 -0.000286
# 3 0.000007 -0.000818 0.006093 -0.000354 -0.000737 -0.001305
# 4 -0.000220 -0.004094 -0.000354 0.026603 -0.003775 -0.004992
# 5 -0.004609 -0.001822 -0.000737 -0.003775 0.038058 0.001388
# 6 -0.003682 -0.000286 -0.001305 -0.004992 0.001388 0.031610
#
#
# Mechanical properties :
#
#
# Convention : Reuss Voigt Hill
#
# Bulk Modulus (GPa) = 43.87129 59.95962 51.91545
# Shear Modulus (GPa) = 36.63016 45.31035 40.97026
#
# Velocity S-wave (km/s) = 3.60935 4.01428 3.81719
# Velocity P-wave (km/s) = 5.74217 6.54296 6.15560
#
# Compressibility (1/GPa) = 0.02279395
#
# Stress axis : x y z
#
# Youngs Moduli (GPa) = 70.31214 135.19313 164.12383
#
# Poissons Ratio (x) = 0.22280 -0.00108
# Poissons Ratio (y) = 0.11588 0.13419
# Poissons Ratio (z) = -0.00046 0.11054
#
# Static dielectric constant tensor:
#      x y z
#    x 4.542750 0.451230 0.078250 
#    y 0.451230 6.380770 -0.114740 
#    z 0.078250 -0.114740 5.613860 
# 
# 
# High freq. dielectric constant tensor:
#      x y z
#    x 2.104080 0.025540 -0.005130 
#    y 0.025540 2.178450 -0.002820 
#    z -0.005130 -0.002820 2.171710 
# 
# From -- ./inp_files/363136.got.cif
#   From: 2010.06.25/outbox.cif.g09.slc.cpg/sg2_182_cif.got.tgz:363136.got - 2010.06.27 13:26:56.
