data_PCOD8016619
_publ_section_title
;
Structure prediction by ZEFSAII (Michael W. Deem and Ramdas Pophale) SiO2 
 PCOD8016619
Probable space group: P -1
;
_chemical_formula_sum "Si O2"
_cell_formula_units_Z 14
_cell_length_a 10.714835
_cell_length_b 11.783369
_cell_length_c 13.869134
_cell_angle_alpha 32.797725
_cell_angle_beta 135.348040
_cell_angle_gamma 127.915200
_cell_volume 665.985857
_symmetry_space_group_name_H-M "P -1"
_symmetry_group_IT_number 2
_symmetry_cell_setting 'triclinic'
loop_
_space_group_symop_operation_xyz
x,y,z
-x,-y,-z
loop_
_atom_site_type_symbol
_atom_site_label
_atom_site_fract_x
_atom_site_fract_y
_atom_site_fract_z
Si Si1 0.025722 0.561150 0.260629
Si Si2 0.157007 0.143340 0.937699
Si Si3 0.453371 0.954364 0.750630
Si Si4 0.921582 0.121844 0.092308
Si Si5 0.920614 0.095889 0.486606
Si Si6 0.582235 0.205105 0.946852
Si Si7 0.568373 0.417977 0.496483
O O1 0.225708 0.631429 0.350322
O O2 0.898014 0.616776 0.241787
O O3 0.015450 0.321892 0.394457
O O4 0.968221 0.711559 0.033062
O O5 0.162425 0.078722 0.873402
O O6 0.349281 0.120185 0.110853
O O7 0.000000 0.000000 0.000000
O O8 0.292719 0.879766 0.645133
O O9 0.454755 0.205004 0.567185
O O10 0.384467 0.850481 0.885619
O O11 0.766725 0.255448 0.957786
O O12 0.042416 0.044947 0.299802
O O13 0.000000 0.000000 0.500000
O O14 0.463286 0.408827 0.727124
O O15 0.500000 0.000000 0.000000
O O16 0.500000 0.500000 0.500000
#
# Coordination Sequence:
#
# PCOD8016619 Si02
#       7
#     2   2   2   2   2   2   2
#     4  11  24  43  67  95 134 172 218 266 324 391
#     4  10  21  45  70  92 128 176 222 268 313 386
#     4  12  24  42  63  98 134 164 219 277 314 388
#     4  11  22  42  68  95 134 170 214 273 322 386
#     4  12  27  41  65 101 138 168 211 272 338 382
#     4  12  20  35  65 101 125 161 223 273 318 369
#     4  12  20  36  67  95 122 169 219 269 321 371
#
# _framework density 21.021469
#
# number of rings (size 3 to 8) (size 9 to 14) (size 15 to 20)
#    0.000    0.571    8.571    1.714    0.000    2.857 
#    0.000    2.857    0.000    0.000    0.000    0.000 
#    0.000    0.000    0.000    0.000    0.000    0.000 
#
# Total GULP energy -173509.130937 kJ/mol
# GULP energy per Si atom -12393.509353 kJ/mol
# Density = 2.097362 g / cm^3
# Si number density = 21.021469 Si / 1000 Ang^3
#
#
#
# Elastic Constant Matrix: (Units=GPa)
#
#
# Indices 1 2 3 4 5 6 
#
# 1 82.8186 18.5712 37.4936 6.6411 19.8689 0.1980
# 2 18.5712 54.8164 28.7815 7.9699 -1.8183 3.4886
# 3 37.4936 28.7815 125.1707 14.2987 -9.5515 -10.8029
# 4 6.6411 7.9699 14.2987 45.4719 5.5286 8.8274
# 5 19.8689 -1.8183 -9.5515 5.5286 42.1606 0.7826
# 6 0.1980 3.4886 -10.8029 8.8274 0.7826 27.6856
#
#
#
# Elastic Compliance Matrix: (Units=1/GPa)
#
#
# Indices 1 2 3 4 5 6 
#
# 1 0.017631 -0.003445 -0.005574 0.001374 -0.009863 -0.002026
# 2 -0.003445 0.022079 -0.004054 -0.001572 0.001936 -0.003893
# 3 -0.005574 -0.004054 0.012054 -0.004197 0.005614 0.006434
# 4 0.001374 -0.001572 -0.004197 0.025833 -0.004876 -0.009548
# 5 -0.009863 0.001936 0.005614 -0.004876 0.030311 0.002715
# 6 -0.002026 -0.003893 0.006434 -0.009548 0.002715 0.042103
#
#
# Mechanical properties :
#
#
# Convention : Reuss Voigt Hill
#
# Bulk Modulus (GPa) = 39.03258 48.05535 43.54396
# Shear Modulus (GPa) = 27.07183 34.92759 30.99971
#
# Velocity S-wave (km/s) = 3.59251 4.08060 3.84431
# Velocity P-wave (km/s) = 5.98468 6.71651 6.36113
#
# Compressibility (1/GPa) = 0.02561963
#
# Stress axis : x y z
#
# Youngs Moduli (GPa) = 56.71791 45.29278 82.96184
#
# Poissons Ratio (x) = 0.15602 0.46239
# Poissons Ratio (y) = 0.19538 0.33629
# Poissons Ratio (z) = 0.31612 0.18360
#
# Static dielectric constant tensor:
#      x y z
#    x 4.045350 -0.186810 0.297690 
#    y -0.186810 3.794330 -0.170110 
#    z 0.297690 -0.170110 4.439240 
# 
# 
# High freq. dielectric constant tensor:
#      x y z
#    x 1.821020 0.006180 0.009470 
#    y 0.006180 1.801080 -0.001600 
#    z 0.009470 -0.001600 1.835500 
# 
# From -- ./inp_files/184637.got.cif
#   From: 2010.06.25/outbox.cif.g09.slc.cpg/sg2_93_cif.got.tgz:184637.got - 2010.06.27 13:26:56.
