data_PCOD8016550
_publ_section_title
;
Structure prediction by ZEFSAII (Michael W. Deem and Ramdas Pophale) SiO2 
 PCOD8016550
Probable space group: P -1
;
_chemical_formula_sum "Si O2"
_cell_formula_units_Z 16
_cell_length_a 17.110523
_cell_length_b 5.271990
_cell_length_c 8.842360
_cell_angle_alpha 124.583467
_cell_angle_beta 94.367752
_cell_angle_gamma 88.614633
_cell_volume 654.612307
_symmetry_space_group_name_H-M "P -1"
_symmetry_group_IT_number 2
_symmetry_cell_setting 'triclinic'
loop_
_space_group_symop_operation_xyz
x,y,z
-x,-y,-z
loop_
_atom_site_type_symbol
_atom_site_label
_atom_site_fract_x
_atom_site_fract_y
_atom_site_fract_z
Si Si1 0.357446 0.561205 0.413441
Si Si2 0.218630 0.510037 0.573929
Si Si3 0.418580 0.078727 0.813160
Si Si4 0.298748 0.571852 0.083076
Si Si5 0.060856 0.429349 0.356441
Si Si6 0.000238 0.794806 0.198985
Si Si7 0.418967 0.975360 0.114098
Si Si8 0.180903 0.192721 0.775107
O O1 0.301157 0.410117 0.482924
O O2 0.394141 0.876336 0.595156
O O3 0.425286 0.337120 0.287896
O O4 0.302468 0.615496 0.277574
O O5 0.150346 0.446118 0.422443
O O6 0.204453 0.307993 0.651737
O O7 0.223581 0.880714 0.726797
O O8 0.359289 0.348215 0.929041
O O9 0.510292 0.191999 0.841531
O O10 0.424853 0.888774 0.907991
O O11 0.210550 0.461703 0.987288
O O12 0.329541 0.892006 0.124468
O O13 0.000000 0.500000 0.500000
O O14 0.048944 0.693155 0.318772
O O15 0.040685 0.068198 0.197068
O O16 0.911514 0.876479 0.256135
O O17 0.000000 0.500000 0.000000
#
# Coordination Sequence:
#
# PCOD8016550 Si02
#       8
#     2   2   2   2   2   2   2   2
#     4  11  25  41  65 103 133 182 235 284 346 415
#     4  12  26  44  74  97 139 187 231 290 350 414
#     4  10  21  45  66  95 138 180 226 288 353 409
#     4  11  25  40  66  99 138 178 236 283 349 418
#     4  12  23  46  70 100 133 180 242 276 342 423
#     4  12  26  44  69 104 140 181 230 294 345 406
#     4  10  23  41  69  98 134 180 231 290 341 421
#     4  12  25  46  69  98 142 188 224 284 361 413
#
# _framework density 24.441948
#
# number of rings (size 3 to 8) (size 9 to 14) (size 15 to 20)
#    0.000    0.750    3.750    3.000    5.250    2.500 
#    0.000    0.000    0.000    0.000    0.000    0.000 
#    0.000    0.000    0.000    0.000    0.000    0.000 
#
# Total GULP energy -198210.752305 kJ/mol
# GULP energy per Si atom -12388.172019 kJ/mol
# Density = 2.438632 g / cm^3
# Si number density = 24.441948 Si / 1000 Ang^3
#
#
#
# Elastic Constant Matrix: (Units=GPa)
#
#
# Indices 1 2 3 4 5 6 
#
# 1 52.2864 0.5317 8.3712 -3.1208 12.3468 3.7622
# 2 0.5317 68.8836 7.1265 2.7206 1.4846 1.1210
# 3 8.3712 7.1265 124.6652 0.7578 5.3513 -6.1593
# 4 -3.1208 2.7206 0.7578 36.2125 -5.7143 3.6405
# 5 12.3468 1.4846 5.3513 -5.7143 43.1147 3.4330
# 6 3.7622 1.1210 -6.1593 3.6405 3.4330 32.8335
#
#
#
# Elastic Compliance Matrix: (Units=1/GPa)
#
#
# Indices 1 2 3 4 5 6 
#
# 1 0.020853 0.000079 -0.001285 0.001173 -0.005485 -0.002190
# 2 0.000079 0.014667 -0.000838 -0.001112 -0.000532 -0.000488
# 3 -0.001285 -0.000838 0.008289 -0.000545 -0.000854 0.001880
# 4 0.001173 -0.001112 -0.000545 0.028807 0.003891 -0.003799
# 5 -0.005485 -0.000532 -0.000854 0.003891 0.025614 -0.002623
# 6 -0.002190 -0.000488 0.001880 -0.003799 -0.002623 0.031773
#
#
# Mechanical properties :
#
#
# Convention : Reuss Voigt Hill
#
# Bulk Modulus (GPa) = 25.17531 30.87712 28.02621
# Shear Modulus (GPa) = 33.93774 37.75252 35.84513
#
# Velocity S-wave (km/s) = 3.73031 3.93438 3.83370
# Velocity P-wave (km/s) = 5.37364 5.77056 5.57563
#
# Compressibility (1/GPa) = 0.03972146
#
# Stress axis : x y z
#
# Youngs Moduli (GPa) = 47.95445 68.18161 120.64852
#
# Poissons Ratio (x) = -0.00542 0.15499
# Poissons Ratio (y) = -0.00381 0.10114
# Poissons Ratio (z) = 0.06161 0.05715
#
# Static dielectric constant tensor:
#      x y z
#    x 4.232010 -0.291390 0.278060 
#    y -0.291390 3.726390 0.536150 
#    z 0.278060 0.536150 4.562240 
# 
# 
# High freq. dielectric constant tensor:
#      x y z
#    x 1.975290 0.004240 0.007870 
#    y 0.004240 1.963470 0.008810 
#    z 0.007870 0.008810 1.979980 
# 
# From -- ./inp_files/55672.got.cif
#   From: 2010.06.25/outbox.cif.g09.slc.cpg/sg2_28_cif.got.tgz:55672.got - 2010.06.27 13:26:56.
