data_PCOD8016250
_publ_section_title
;
Structure prediction by ZEFSAII (Michael W. Deem and Ramdas Pophale) SiO2 
 PCOD8016250
Probable space group: P -1
;
_chemical_formula_sum "Si O2"
_cell_formula_units_Z 14
_cell_length_a 9.007216
_cell_length_b 9.311182
_cell_length_c 9.900159
_cell_angle_alpha 122.148244
_cell_angle_beta 88.938845
_cell_angle_gamma 106.536656
_cell_volume 664.819855
_symmetry_space_group_name_H-M "P -1"
_symmetry_group_IT_number 2
_symmetry_cell_setting 'triclinic'
loop_
_space_group_symop_operation_xyz
x,y,z
-x,-y,-z
loop_
_atom_site_type_symbol
_atom_site_label
_atom_site_fract_x
_atom_site_fract_y
_atom_site_fract_z
Si Si1 0.149106 0.139894 0.129691
Si Si2 0.875708 0.495759 0.185239
Si Si3 0.562906 0.203358 0.726563
Si Si4 0.753273 0.997176 0.473260
Si Si5 0.190608 0.432886 0.070462
Si Si6 0.076118 0.200802 0.450663
Si Si7 0.357455 0.900657 0.045828
O O1 0.223232 0.272539 0.070904
O O2 0.109957 0.242794 0.312329
O O3 0.257151 0.031510 0.126860
O O4 0.000000 0.000000 0.000000
O O5 0.866807 0.612834 0.374501
O O6 0.746863 0.298601 0.101509
O O7 0.049040 0.480933 0.168558
O O8 0.851300 0.604535 0.106490
O O9 0.663435 0.136214 0.582254
O O10 0.643193 0.414011 0.845377
O O11 0.381391 0.170892 0.674876
O O12 0.565384 0.102363 0.813861
O O13 0.890237 0.097313 0.416454
O O14 0.829639 0.930117 0.565851
O O15 0.500000 0.000000 0.000000
#
# Coordination Sequence:
#
# PCOD8016250 Si02
#       7
#     2   2   2   2   2   2   2
#     4  12  26  43  66  99 134 173 219 278 327 390
#     4  10  22  43  69  95 131 178 220 272 320 399
#     4  10  21  44  64  96 129 178 213 268 329 391
#     4  10  22  38  69  96 130 169 221 271 320 391
#     4  10  22  41  69  93 137 171 223 263 336 382
#     4  11  24  41  69 103 130 169 228 271 326 388
#     4  11  25  45  67  96 132 175 218 273 335 391
#
# _framework density 21.058335
#
# number of rings (size 3 to 8) (size 9 to 14) (size 15 to 20)
#    0.000    1.429    4.286    0.000    6.000    1.714 
#    5.143    4.286    0.000    0.000    0.000    0.000 
#    0.000    0.000    0.000    0.000    0.000    0.000 
#
# Total GULP energy -173569.457263 kJ/mol
# GULP energy per Si atom -12397.818376 kJ/mol
# Density = 2.101041 g / cm^3
# Si number density = 21.058335 Si / 1000 Ang^3
#
#
#
# Elastic Constant Matrix: (Units=GPa)
#
#
# Indices 1 2 3 4 5 6 
#
# 1 102.9712 35.9344 36.3310 -1.5314 14.5394 21.0314
# 2 35.9344 128.3214 45.5643 -17.1097 7.3624 9.9787
# 3 36.3310 45.5643 126.2016 -3.0944 2.0752 9.0175
# 4 -1.5314 -17.1097 -3.0944 27.7213 0.8405 0.4201
# 5 14.5394 7.3624 2.0752 0.8405 29.9386 5.4895
# 6 21.0314 9.9787 9.0175 0.4201 5.4895 30.2522
#
#
#
# Elastic Compliance Matrix: (Units=1/GPa)
#
#
# Indices 1 2 3 4 5 6 
#
# 1 0.013414 -0.002134 -0.002529 -0.000615 -0.004506 -0.007041
# 2 -0.002134 0.010366 -0.002894 0.006011 -0.001313 -0.000918
# 3 -0.002529 -0.002894 0.009682 -0.000880 0.001368 -0.000409
# 4 -0.000615 0.006011 -0.000880 0.039733 -0.001961 -0.001488
# 5 -0.004506 -0.001313 0.001368 -0.001961 0.036503 -0.003439
# 6 -0.007041 -0.000918 -0.000409 -0.001488 -0.003439 0.039020
#
#
# Mechanical properties :
#
#
# Convention : Reuss Voigt Hill
#
# Bulk Modulus (GPa) = 54.50160 65.90594 60.20377
# Shear Modulus (GPa) = 29.42071 33.56004 31.49037
#
# Velocity S-wave (km/s) = 3.74184 3.99641 3.87122
# Velocity P-wave (km/s) = 6.67877 7.25671 6.97373
#
# Compressibility (1/GPa) = 0.01834809
#
# Stress axis : x y z
#
# Youngs Moduli (GPa) = 74.55042 96.46663 103.28707
#
# Poissons Ratio (x) = 0.20589 0.26120
# Poissons Ratio (y) = 0.15912 0.29888
# Poissons Ratio (z) = 0.18853 0.27914
#
# Static dielectric constant tensor:
#      x y z
#    x 3.789640 0.099620 -0.073540 
#    y 0.099620 3.891520 -0.132340 
#    z -0.073540 -0.132340 -0.678410 
# 
# 
# High freq. dielectric constant tensor:
#      x y z
#    x 1.830860 0.004200 0.008160 
#    y 0.004200 1.822060 0.000650 
#    z 0.008160 0.000650 1.825250 
# 
# From -- ./inp_files/157970.got.cif
#   From: 2010.06.25/outbox.cif.g09.slc.cpg/sg2_79_cif.got.tgz:157970.got - 2010.06.27 13:26:56.
