data_PCOD8016513
_publ_section_title
;
Structure prediction by ZEFSAII (Michael W. Deem and Ramdas Pophale) SiO2 
 PCOD8016513
Probable space group: P -1
;
_chemical_formula_sum "Si O2"
_cell_formula_units_Z 14
_cell_length_a 12.927014
_cell_length_b 8.851741
_cell_length_c 9.408505
_cell_angle_alpha 71.903980
_cell_angle_beta 39.639068
_cell_angle_gamma 68.685339
_cell_volume 638.972702
_symmetry_space_group_name_H-M "P -1"
_symmetry_group_IT_number 2
_symmetry_cell_setting 'triclinic'
loop_
_space_group_symop_operation_xyz
x,y,z
-x,-y,-z
loop_
_atom_site_type_symbol
_atom_site_label
_atom_site_fract_x
_atom_site_fract_y
_atom_site_fract_z
Si Si1 0.473498 0.976987 0.703507
Si Si2 0.033121 0.676028 0.437176
Si Si3 0.829910 0.941991 0.388878
Si Si4 0.193964 0.220105 0.831836
Si Si5 0.597448 0.365362 0.042011
Si Si6 0.402233 0.483576 0.469602
Si Si7 0.916241 0.258195 0.311810
O O1 0.634771 0.018935 0.596726
O O2 0.465694 0.802397 0.827907
O O3 0.500000 0.000000 0.500000
O O4 0.301647 0.105244 0.873443
O O5 0.021852 0.731496 0.596455
O O6 0.000000 0.500000 0.500000
O O7 0.886104 0.789142 0.475553
O O8 0.209669 0.682249 0.181291
O O9 0.863482 0.884527 0.205792
O O10 0.932009 0.074523 0.292842
O O11 0.303303 0.337755 0.613269
O O12 0.037747 0.324920 0.052613
O O13 0.556460 0.454570 0.208329
O O14 0.500000 0.500000 0.000000
O O15 0.500000 0.500000 0.500000
O O16 0.271963 0.647425 0.526008
#
# Coordination Sequence:
#
# PCOD8016513 Si02
#       7
#     2   2   2   2   2   2   2
#     4  10  21  44  74 102 136 180 236 286 348 415
#     4  12  27  46  69  99 146 188 231 286 356 422
#     4  11  23  44  72  99 138 182 233 289 348 416
#     4  11  24  46  72 101 140 182 232 295 346 413
#     4  12  24  47  72 100 143 188 231 288 354 415
#     4  12  26  43  71 105 139 181 241 288 349 416
#     4  12  26  44  66 107 141 179 236 288 351 417
#
# _framework density 21.910167999999999
#
# number of rings (size 3 to 8) (size 9 to 14) (size 15 to 20)
#    0.000    0.571    4.286    4.714    6.000    0.000 
#    0.000    1.429    0.000    0.000    0.000    0.000 
#    0.000    0.000    0.000    0.000    0.000    0.000 
#
# Total GULP energy -173482.213953 kJ/mol
# GULP energy per Si atom -12391.586711 kJ/mol
# Density = 2.186030 g / cm^3
# Si number density = 21.910168 Si / 1000 Ang^3
#
#
#
# Elastic Constant Matrix: (Units=GPa)
#
#
# Indices 1 2 3 4 5 6 
#
# 1 141.1368 38.8089 39.1477 7.9811 8.0039 0.0097
# 2 38.8089 98.5330 24.8090 -9.3047 12.6059 -0.4400
# 3 39.1477 24.8090 111.1975 7.0616 15.3621 27.8277
# 4 7.9811 -9.3047 7.0616 40.5888 1.5771 6.0876
# 5 8.0039 12.6059 15.3621 1.5771 29.6097 1.3144
# 6 0.0097 -0.4400 27.8277 6.0876 1.3144 43.0349
#
#
#
# Elastic Compliance Matrix: (Units=1/GPa)
#
#
# Indices 1 2 3 4 5 6 
#
# 1 0.008814 -0.003003 -0.002882 -0.002257 0.000417 0.002138
# 2 -0.003003 0.012614 -0.001649 0.003805 -0.003940 0.000778
# 3 -0.002882 -0.001649 0.013177 -0.000668 -0.004952 -0.008291
# 4 -0.002257 0.003805 -0.000668 0.026630 -0.001938 -0.003237
# 5 0.000417 -0.003940 -0.004952 -0.001938 0.037909 0.002278
# 6 0.002138 0.000778 -0.008291 -0.003237 0.002278 0.028994
#
#
# Mechanical properties :
#
#
# Convention : Reuss Voigt Hill
#
# Bulk Modulus (GPa) = 51.18601 61.82205 56.50403
# Shear Modulus (GPa) = 33.39585 39.18678 36.29132
#
# Velocity S-wave (km/s) = 3.90836 4.23368 4.07427
# Velocity P-wave (km/s) = 6.61661 7.22330 6.92660
#
# Compressibility (1/GPa) = 0.01953659
#
# Stress axis : x y z
#
# Youngs Moduli (GPa) = 113.45103 79.27882 75.88917
#
# Poissons Ratio (x) = 0.23806 0.21874
# Poissons Ratio (y) = 0.34067 0.12515
# Poissons Ratio (z) = 0.32701 0.13074
#
# Static dielectric constant tensor:
#      x y z
#    x 4.129410 -0.249010 -0.311730 
#    y -0.249010 4.218270 0.183690 
#    z -0.311730 0.183690 4.490330 
# 
# 
# High freq. dielectric constant tensor:
#      x y z
#    x 1.865690 -0.013250 -0.009750 
#    y -0.013250 1.869740 0.002150 
#    z -0.009750 0.002150 1.868580 
# 
# From -- ./inp_files/189116.got.cif
#   From: 2010.06.25/outbox.cif.g09.slc.cpg/sg2_95_cif.got.tgz:189116.got - 2010.06.27 13:26:56.
