data_PCOD8016177
_publ_section_title
;
Structure prediction by ZEFSAII (Michael W. Deem and Ramdas Pophale) SiO2 
 PCOD8016177
Probable space group: P -1
;
_chemical_formula_sum "Si O2"
_cell_formula_units_Z 12
_cell_length_a 6.659189
_cell_length_b 15.741701
_cell_length_c 4.894760
_cell_angle_alpha 84.435467
_cell_angle_beta 102.463983
_cell_angle_gamma 77.842749
_cell_volume 484.291743
_symmetry_space_group_name_H-M "P -1"
_symmetry_group_IT_number 2
_symmetry_cell_setting 'triclinic'
loop_
_space_group_symop_operation_xyz
x,y,z
-x,-y,-z
loop_
_atom_site_type_symbol
_atom_site_label
_atom_site_fract_x
_atom_site_fract_y
_atom_site_fract_z
Si Si1 0.944130 0.331284 0.128827
Si Si2 0.443436 0.579380 0.747840
Si Si3 0.548850 0.090244 0.889617
Si Si4 0.100410 0.221858 0.685707
Si Si5 0.845734 0.494104 0.700640
Si Si6 0.829085 0.089980 0.460380
O O1 0.700206 0.337414 0.155500
O O2 0.096980 0.299735 0.442583
O O3 0.962812 0.432199 0.016933
O O4 0.010324 0.261519 0.933965
O O5 0.678414 0.586584 0.711462
O O6 0.306478 0.565311 0.446681
O O7 0.500000 0.500000 0.000000
O O8 0.337432 0.166430 0.803314
O O9 0.651949 0.076900 0.625882
O O10 0.714760 0.118665 0.131195
O O11 0.500000 0.000000 0.000000
O O12 0.945103 0.164042 0.555743
O O13 0.000000 0.500000 0.500000
O O14 0.000000 0.000000 0.500000
#
# Coordination Sequence:
#
# PCOD8016177 Si02
#       6
#     2   2   2   2   2   2
#     4  11  23  45  69 100 144 190 225 302 368 398
#     4   9  20  41  68  96 134 179 234 279 354 418
#     4  12  26  46  74 108 140 186 246 296 349 433
#     4  12  26  46  72 101 156 182 237 308 352 419
#     4  10  21  43  72 103 133 186 242 286 346 434
#     4  12  26  46  76 106 135 195 246 285 362 429
#
# _framework density 24.778454
#
# number of rings (size 3 to 8) (size 9 to 14) (size 15 to 20)
#    0.000    1.000    3.333    3.000    2.333    2.667 
#    3.000    8.333    0.000    0.000    0.000    0.000 
#    0.000    0.000    0.000    0.000    0.000    0.000 
#
# Total GULP energy -148751.365022 kJ/mol
# GULP energy per Si atom -12395.947085 kJ/mol
# Density = 2.472206 g / cm^3
# Si number density = 24.778454 Si / 1000 Ang^3
#
#
#
# Elastic Constant Matrix: (Units=GPa)
#
#
# Indices 1 2 3 4 5 6 
#
# 1 154.7587 80.1839 51.9968 -5.7805 -4.4331 -55.0931
# 2 80.1839 135.1824 44.3351 -5.7675 -3.4922 -60.5031
# 3 51.9968 44.3351 143.9954 -11.7058 0.2977 -41.6931
# 4 -5.7805 -5.7675 -11.7058 45.3469 -10.5842 -3.9247
# 5 -4.4331 -3.4922 0.2977 -10.5842 47.6535 5.0411
# 6 -55.0931 -60.5031 -41.6931 -3.9247 5.0411 63.2183
#
#
#
# Elastic Compliance Matrix: (Units=1/GPa)
#
#
# Indices 1 2 3 4 5 6 
#
# 1 0.010549 -0.003549 -0.001158 0.001137 0.000445 0.005068
# 2 -0.003549 0.014486 0.000221 0.002427 0.000099 0.011059
# 3 -0.001158 0.000221 0.009060 0.002653 -0.000125 0.005353
# 4 0.001137 0.002427 0.002653 0.024929 0.005148 0.006201
# 5 0.000445 0.000099 -0.000125 0.005148 0.022290 -0.001058
# 6 0.005068 0.011059 0.005353 0.006201 -0.001058 0.034819
#
#
# Mechanical properties :
#
#
# Convention : Reuss Voigt Hill
#
# Bulk Modulus (GPa) = 39.80338 87.44093 63.62216
# Shear Modulus (GPa) = 37.45901 48.40512 42.93206
#
# Velocity S-wave (km/s) = 3.89235 4.42466 4.16701
# Velocity P-wave (km/s) = 6.02487 7.84023 6.99172
#
# Compressibility (1/GPa) = 0.02512349
#
# Stress axis : x y z
#
# Youngs Moduli (GPa) = 94.79658 69.03161 110.36928
#
# Poissons Ratio (x) = 0.24501 0.12775
# Poissons Ratio (y) = 0.33645 -0.02436
# Poissons Ratio (z) = 0.10973 -0.01524
#
# Static dielectric constant tensor:
#      x y z
#    x 5.585240 -0.401620 0.290110 
#    y -0.401620 4.706350 0.020400 
#    z 0.290110 0.020400 5.185990 
# 
# 
# High freq. dielectric constant tensor:
#      x y z
#    x 2.003310 -0.030320 0.002980 
#    y -0.030320 1.982960 0.007850 
#    z 0.002980 0.007850 2.018050 
# 
# From -- ./inp_files/6557.got.cif
#   From: 2010.06.25/outbox.cif.g09.slc.cpg/sg2_4_cif.got.tgz:6557.got - 2010.06.27 13:26:56.
