data_PCOD8016635
_publ_section_title
;
Structure prediction by ZEFSAII (Michael W. Deem and Ramdas Pophale) SiO2 
 PCOD8016635
Probable space group: P -1
;
_chemical_formula_sum "Si O2"
_cell_formula_units_Z 16
_cell_length_a 14.983650
_cell_length_b 8.521431
_cell_length_c 19.706321
_cell_angle_alpha 52.657791
_cell_angle_beta 158.720119
_cell_angle_gamma 119.121121
_cell_volume 698.566553
_symmetry_space_group_name_H-M "P -1"
_symmetry_group_IT_number 2
_symmetry_cell_setting 'triclinic'
loop_
_space_group_symop_operation_xyz
x,y,z
-x,-y,-z
loop_
_atom_site_type_symbol
_atom_site_label
_atom_site_fract_x
_atom_site_fract_y
_atom_site_fract_z
Si Si1 0.467622 0.083714 0.881465
Si Si2 0.830412 0.346808 0.026657
Si Si3 0.609473 0.859302 0.551451
Si Si4 0.530446 0.462056 0.653939
Si Si5 0.399908 0.215428 0.073616
Si Si6 0.015619 0.603677 0.735192
Si Si7 0.955491 0.059161 0.528742
Si Si8 0.260654 0.954656 0.156925
O O1 0.552434 0.902496 0.933189
O O2 0.162722 0.189778 0.645924
O O3 0.623188 0.244388 0.936711
O O4 0.500000 0.000000 0.000000
O O5 0.926840 0.464552 0.126545
O O6 0.083291 0.184207 0.218952
O O7 0.672424 0.494440 0.816798
O O8 0.516948 0.654329 0.546370
O O9 0.494309 0.959749 0.371955
O O10 0.500000 0.000000 0.500000
O O11 0.709285 0.265788 0.796386
O O12 0.250338 0.426487 0.473716
O O13 0.241873 0.112113 0.040375
O O14 0.240450 0.453594 0.888793
O O15 0.672811 0.201934 0.306093
O O16 0.011984 0.842938 0.666860
O O17 0.000000 0.000000 0.500000
O O18 0.000000 0.000000 0.000000
#
# Coordination Sequence:
#
# PCOD8016635 Si02
#       8
#     2   2   2   2   2   2   2   2
#     4  11  23  45  74 100 144 189 239 317 362 421
#     4  12  25  47  71 104 148 189 247 304 367 436
#     4  12  28  44  72 108 148 197 249 299 369 450
#     4  12  25  48  71 107 152 194 241 308 366 441
#     4  11  25  45  76 105 144 197 244 298 376 447
#     4  12  25  46  74 108 145 192 243 303 372 439
#     4  10  21  45  71  99 140 187 243 303 364 423
#     4  12  24  44  73 105 151 195 244 297 373 443
#
# _framework density 22.904043999999999
#
# number of rings (size 3 to 8) (size 9 to 14) (size 15 to 20)
#    0.000    0.500    5.000    3.000    5.250    2.000 
#    2.250    0.625    0.000    0.000    0.000    0.000 
#    0.000    0.000    0.000    0.000    0.000    0.000 
#
# Total GULP energy -198208.749883 kJ/mol
# GULP energy per Si atom -12388.046868 kJ/mol
# Density = 2.285191 g / cm^3
# Si number density = 22.904044 Si / 1000 Ang^3
#
#
#
# Elastic Constant Matrix: (Units=GPa)
#
#
# Indices 1 2 3 4 5 6 
#
# 1 107.6001 12.3716 37.1756 8.5765 3.3841 -6.1351
# 2 12.3716 56.0121 31.5674 2.0119 13.0055 5.2072
# 3 37.1756 31.5674 153.3944 12.6396 19.5944 1.8683
# 4 8.5765 2.0119 12.6396 41.1012 -4.4526 4.7544
# 5 3.3841 13.0055 19.5944 -4.4526 49.8390 14.5460
# 6 -6.1351 5.2072 1.8683 4.7544 14.5460 39.6265
#
#
#
# Elastic Compliance Matrix: (Units=1/GPa)
#
#
# Indices 1 2 3 4 5 6 
#
# 1 0.010441 -0.001165 -0.002124 -0.001766 -0.000375 0.002219
# 2 -0.001165 0.021100 -0.003594 0.000100 -0.003572 -0.001484
# 3 -0.002124 -0.003594 0.008297 -0.002341 -0.002687 0.001019
# 4 -0.001766 0.000100 -0.002341 0.026540 0.004890 -0.005155
# 5 -0.000375 -0.003572 -0.002687 0.004890 0.025233 -0.009311
# 6 0.002219 -0.001484 0.001019 -0.005155 -0.009311 0.029763
#
#
# Mechanical properties :
#
#
# Convention : Reuss Voigt Hill
#
# Bulk Modulus (GPa) = 38.35506 53.24843 45.80174
# Shear Modulus (GPa) = 34.76348 41.83947 38.30148
#
# Velocity S-wave (km/s) = 3.90011 4.27866 4.09376
# Velocity P-wave (km/s) = 6.08797 6.90711 6.51044
#
# Compressibility (1/GPa) = 0.02607218
#
# Stress axis : x y z
#
# Youngs Moduli (GPa) = 95.78016 47.39409 120.52185
#
# Poissons Ratio (x) = 0.05520 0.25602
# Poissons Ratio (y) = 0.11155 0.43313
# Poissons Ratio (z) = 0.20346 0.17033
#
# Static dielectric constant tensor:
#      x y z
#    x 4.391160 -0.021180 -0.066080 
#    y -0.021180 4.031740 0.160800 
#    z -0.066080 0.160800 4.354200 
# 
# 
# High freq. dielectric constant tensor:
#      x y z
#    x 1.921650 -0.000270 0.000910 
#    y -0.000270 1.876450 0.019100 
#    z 0.000910 0.019100 1.922970 
# 
# From -- ./inp_files/356512.got.cif
#   From: 2010.06.25/outbox.cif.g09.slc.cpg/sg2_179_cif.got.tgz:356512.got - 2010.06.27 13:26:56.
