data_PCOD8016137
_publ_section_title
;
Structure prediction by ZEFSAII (Michael W. Deem and Ramdas Pophale) SiO2 
 PCOD8016137
Probable space group: P -1
;
_chemical_formula_sum "Si O2"
_cell_formula_units_Z 16
_cell_length_a 9.196790
_cell_length_b 21.435966
_cell_length_c 12.109832
_cell_angle_alpha 27.296474
_cell_angle_beta 38.937644
_cell_angle_gamma 45.704053
_cell_volume 687.860652
_symmetry_space_group_name_H-M "P -1"
_symmetry_group_IT_number 2
_symmetry_cell_setting 'triclinic'
loop_
_space_group_symop_operation_xyz
x,y,z
-x,-y,-z
loop_
_atom_site_type_symbol
_atom_site_label
_atom_site_fract_x
_atom_site_fract_y
_atom_site_fract_z
Si Si1 0.005485 0.947605 0.380164
Si Si2 0.126387 0.713539 0.530345
Si Si3 0.765883 0.214459 0.311677
Si Si4 0.620473 0.677571 0.902879
Si Si5 0.492836 0.603365 0.652535
Si Si6 0.732163 0.226215 0.884261
Si Si7 0.952431 0.758888 0.110319
Si Si8 0.491099 0.955474 0.424078
O O1 0.101602 0.870790 0.336194
O O2 0.041606 0.850016 0.618518
O O3 0.731805 0.986666 0.465863
O O4 0.147058 0.086657 0.091576
O O5 0.345257 0.641571 0.571348
O O6 0.157817 0.702359 0.398282
O O7 0.890818 0.638437 0.821057
O O8 0.618022 0.333712 0.270466
O O9 0.597098 0.091334 0.570966
O O10 0.884837 0.278095 0.032752
O O11 0.499686 0.560320 0.086565
O O12 0.504552 0.693347 0.067706
O O13 0.597206 0.820836 0.629230
O O14 0.751596 0.652188 0.404677
O O15 0.904652 0.240788 0.861530
O O16 0.683045 0.070001 0.125313
#
# Coordination Sequence:
#
# PCOD8016137 Si02
#       8
#     2   2   2   2   2   2   2   2
#     4  10  21  43  71 103 139 175 230 286 344 399
#     4  11  27  44  73 102 136 181 231 286 335 409
#     4  10  24  43  71 102 139 183 224 285 342 405
#     4  12  25  49  68  97 145 179 234 276 334 417
#     4  11  29  46  69 100 139 192 226 271 339 415
#     4  12  26  42  74 108 132 177 226 295 347 390
#     4  11  24  44  67 107 138 174 231 278 347 407
#     4  11  22  44  71 102 136 178 224 288 350 388
#
# _framework density 23.260525999999999
#
# number of rings (size 3 to 8) (size 9 to 14) (size 15 to 20)
#    0.000    1.000    3.750    3.000    7.000    4.500 
#    0.000    0.000    0.000    0.000    0.000    0.000 
#    0.000    0.000    0.000    0.000    0.000    0.000 
#
# Total GULP energy -198379.615974 kJ/mol
# GULP energy per Si atom -12398.725998 kJ/mol
# Density = 2.320758 g / cm^3
# Si number density = 23.260526 Si / 1000 Ang^3
#
#
#
# Elastic Constant Matrix: (Units=GPa)
#
#
# Indices 1 2 3 4 5 6 
#
# 1 116.5024 44.1306 59.7184 22.6711 -9.2298 10.1125
# 2 44.1306 117.5387 63.2217 10.3667 1.9132 24.8705
# 3 59.7184 63.2217 89.6448 -0.1587 -35.5384 18.3155
# 4 22.6711 10.3667 -0.1587 34.6194 9.1206 3.9099
# 5 -9.2298 1.9132 -35.5384 9.1206 41.1410 5.3334
# 6 10.1125 24.8705 18.3155 3.9099 5.3334 38.4848
#
#
#
# Elastic Compliance Matrix: (Units=1/GPa)
#
#
# Indices 1 2 3 4 5 6 
#
# 1 0.019112 0.005566 -0.023728 -0.011059 -0.014774 0.005844
# 2 0.005566 0.023373 -0.030894 -0.004213 -0.025870 0.002149
# 3 -0.023728 -0.030894 0.078678 0.010561 0.064491 -0.021254
# 4 -0.011059 -0.004213 0.010561 0.038107 -0.001209 -0.003101
# 5 -0.014774 -0.025870 0.064491 -0.001209 0.080918 -0.021183
# 6 0.005844 0.002149 -0.021254 -0.003101 -0.021183 0.036426
#
#
# Mechanical properties :
#
#
# Convention : Reuss Voigt Hill
#
# Bulk Modulus (GPa) = 43.38130 73.09192 58.23661
# Shear Modulus (GPa) = 13.07496 33.29006 23.18251
#
# Velocity S-wave (km/s) = 2.37346 3.78720 3.16040
# Velocity P-wave (km/s) = 5.11876 7.11444 6.19746
#
# Compressibility (1/GPa) = 0.02305141
#
# Stress axis : x y z
#
# Youngs Moduli (GPa) = 52.32226 42.78379 12.71003
#
# Poissons Ratio (x) = -0.23815 0.30159
# Poissons Ratio (y) = -0.29124 0.39267
# Poissons Ratio (z) = 1.24151 1.32178
#
# Static dielectric constant tensor:
#      x y z
#    x 4.250900 0.161400 -0.219290 
#    y 0.161400 4.448910 -0.146050 
#    z -0.219290 -0.146050 4.049780 
# 
# 
# High freq. dielectric constant tensor:
#      x y z
#    x 1.926720 0.007910 -0.010860 
#    y 0.007910 1.927560 -0.006250 
#    z -0.010860 -0.006250 1.899560 
# 
# From -- ./inp_files/405227.got.cif
#   From: 2010.06.25/outbox.cif.g09.slc.cpg/sg2_203_cif.got.tgz:405227.got - 2010.06.27 13:26:56.
