data_PCOD8016233
_publ_section_title
;
Structure prediction by ZEFSAII (Michael W. Deem and Ramdas Pophale) SiO2 
 PCOD8016233
Probable space group: P -1
;
_chemical_formula_sum "Si O2"
_cell_formula_units_Z 16
_cell_length_a 13.738659
_cell_length_b 13.260697
_cell_length_c 16.535376
_cell_angle_alpha 25.420264
_cell_angle_beta 141.556225
_cell_angle_gamma 128.736597
_cell_volume 765.445712
_symmetry_space_group_name_H-M "P -1"
_symmetry_group_IT_number 2
_symmetry_cell_setting 'triclinic'
loop_
_space_group_symop_operation_xyz
x,y,z
-x,-y,-z
loop_
_atom_site_type_symbol
_atom_site_label
_atom_site_fract_x
_atom_site_fract_y
_atom_site_fract_z
Si Si1 0.607408 0.302231 0.653096
Si Si2 0.719267 0.775497 0.155868
Si Si3 0.390909 0.636697 0.041300
Si Si4 0.911744 0.992303 0.364305
Si Si5 0.517978 0.875957 0.453973
Si Si6 0.131014 0.459896 0.414778
Si Si7 0.219972 0.337435 0.904868
Si Si8 0.751894 0.182065 0.357713
O O1 0.500000 0.500000 0.500000
O O2 0.486910 0.239054 0.554606
O O3 0.745017 0.389141 0.633714
O O4 0.695518 0.065632 0.935673
O O5 0.545201 0.731222 0.088357
O O6 0.839007 0.654058 0.393829
O O7 0.801528 0.677882 0.194190
O O8 0.447515 0.340325 0.300484
O O9 0.318273 0.719778 0.846402
O O10 0.248703 0.765929 0.921579
O O11 0.851906 0.749237 0.491250
O O12 0.052846 0.970654 0.404374
O O13 0.000000 0.000000 0.500000
O O14 0.664631 0.993901 0.472293
O O15 0.347635 0.090096 0.203446
O O16 0.944769 0.640832 0.167221
O O17 0.282236 0.575926 0.784252
#
# Coordination Sequence:
#
# PCOD8016233 Si02
#       8
#     2   2   2   2   2   2   2   2
#     4  11  24  39  62  96 127 163 208 259 316 373
#     4  11  23  40  64  95 124 170 209 260 308 371
#     4  11  21  39  62  94 123 163 213 249 318 372
#     4   9  22  40  65  88 124 165 202 262 312 369
#     4  11  23  38  64  93 123 170 206 258 309 370
#     4  11  23  43  65  92 127 167 209 258 316 366
#     4  10  23  44  62  91 131 168 210 260 308 366
#     4  10  21  44  62  87 129 167 208 261 310 361
#
# _framework density 20.902854999999999
#
# number of rings (size 3 to 8) (size 9 to 14) (size 15 to 20)
#    0.000    1.500    3.750    1.500    3.500    4.000 
#    2.250    6.250    0.000    0.000    0.000    0.000 
#    0.000    0.000    0.000    0.000    0.000    0.000 
#
# Total GULP energy -198378.082963 kJ/mol
# GULP energy per Si atom -12398.630185 kJ/mol
# Density = 2.085528 g / cm^3
# Si number density = 20.902855 Si / 1000 Ang^3
#
#
#
# Elastic Constant Matrix: (Units=GPa)
#
#
# Indices 1 2 3 4 5 6 
#
# 1 69.1819 26.5200 45.7018 -13.5877 13.8361 5.8346
# 2 26.5200 90.5448 27.0190 -23.3814 11.0803 0.1527
# 3 45.7018 27.0190 103.1718 -22.9669 3.1711 6.8251
# 4 -13.5877 -23.3814 -22.9669 29.9164 0.2293 3.0956
# 5 13.8361 11.0803 3.1711 0.2293 35.9086 -9.0680
# 6 5.8346 0.1527 6.8251 3.0956 -9.0680 27.3458
#
#
#
# Elastic Compliance Matrix: (Units=1/GPa)
#
#
# Indices 1 2 3 4 5 6 
#
# 1 0.024170 -0.002537 -0.008633 0.003109 -0.009420 -0.006464
# 2 -0.002537 0.015162 -0.000161 0.010830 -0.004300 -0.002155
# 3 -0.008633 -0.000161 0.015484 0.008088 0.001327 -0.002497
# 4 0.003109 0.010830 0.008088 0.050743 -0.008427 -0.011281
# 5 -0.009420 -0.004300 0.001327 -0.008427 0.036466 0.014749
# 6 -0.006464 -0.002155 -0.002497 -0.011281 0.014749 0.044751
#
#
# Mechanical properties :
#
#
# Convention : Reuss Voigt Hill
#
# Bulk Modulus (GPa) = 31.10109 51.26444 41.18277
# Shear Modulus (GPa) = 22.71119 29.54469 26.12794
#
# Velocity S-wave (km/s) = 3.29980 3.76364 3.53933
# Velocity P-wave (km/s) = 5.42489 6.59280 6.03715
#
# Compressibility (1/GPa) = 0.03215321
#
# Stress axis : x y z
#
# Youngs Moduli (GPa) = 41.37428 65.95515 64.58327
#
# Poissons Ratio (x) = 0.16730 0.55754
# Poissons Ratio (y) = 0.10495 0.01043
# Poissons Ratio (z) = 0.35718 0.01065
#
# Static dielectric constant tensor:
#      x y z
#    x 3.830240 0.065450 0.335630 
#    y 0.065450 4.107140 -0.056120 
#    z 0.335630 -0.056120 3.945950 
# 
# 
# High freq. dielectric constant tensor:
#      x y z
#    x 1.813010 0.003100 0.021080 
#    y 0.003100 1.833290 -0.006380 
#    z 0.021080 -0.006380 1.813690 
# 
# From -- ./inp_files/574013.got.cif
#   From: 2010.06.25/outbox.cif.g09.slc.cpg/sg2_288_cif.got.tgz:574013.got - 2010.06.27 13:26:56.
