data_PCOD8016360
_publ_section_title
;
Structure prediction by ZEFSAII (Michael W. Deem and Ramdas Pophale) SiO2 
 PCOD8016360
Probable space group: P -1
;
_chemical_formula_sum "Si O2"
_cell_formula_units_Z 16
_cell_length_a 27.962240
_cell_length_b 13.751933
_cell_length_c 8.990360
_cell_angle_alpha 51.055679
_cell_angle_beta 38.368491
_cell_angle_gamma 22.384688
_cell_volume 746.173156
_symmetry_space_group_name_H-M "P -1"
_symmetry_group_IT_number 2
_symmetry_cell_setting 'triclinic'
loop_
_space_group_symop_operation_xyz
x,y,z
-x,-y,-z
loop_
_atom_site_type_symbol
_atom_site_label
_atom_site_fract_x
_atom_site_fract_y
_atom_site_fract_z
Si Si1 0.410377 0.231662 0.892113
Si Si2 0.146747 0.241694 0.280545
Si Si3 0.247342 0.643642 0.119596
Si Si4 0.401219 0.797065 0.607204
Si Si5 0.933910 0.718960 0.872637
Si Si6 0.394318 0.734538 0.367507
Si Si7 0.679324 0.754332 0.211912
Si Si8 0.079319 0.727587 0.687506
O O1 0.549487 0.128848 0.589701
O O2 0.327675 0.282627 0.904473
O O3 0.266599 0.511692 0.070742
O O4 0.500000 0.000000 0.000000
O O5 0.048296 0.317635 0.312413
O O6 0.000000 0.500000 0.500000
O O7 0.266342 0.964074 0.331488
O O8 0.266134 0.180147 0.987928
O O9 0.198043 0.658079 0.385569
O O10 0.424926 0.455829 0.896140
O O11 0.100432 0.952653 0.126681
O O12 0.311444 0.885268 0.585780
O O13 0.570548 0.465131 0.543015
O O14 0.266604 0.968759 0.901237
O O15 0.050126 0.664077 0.696073
O O16 0.000000 0.500000 0.000000
O O17 0.826219 0.461770 0.216216
O O18 0.500000 0.000000 0.500000
#
# Coordination Sequence:
#
# PCOD8016360 Si02
#       8
#     2   2   2   2   2   2   2   2
#     4  11  24  41  70  98 130 175 223 270 328 396
#     4  12  27  42  67 104 134 172 223 283 329 393
#     4  10  23  44  67  98 133 179 217 272 332 394
#     4  10  22  41  68  95 128 175 215 266 334 393
#     4  12  24  42  67  96 135 173 219 273 336 392
#     4  10  21  44  68  93 137 170 219 268 333 395
#     4  12  25  45  68  98 136 177 227 276 325 400
#     4  11  24  44  68  95 138 175 221 272 334 393
#
# _framework density 21.442741999999999
#
# number of rings (size 3 to 8) (size 9 to 14) (size 15 to 20)
#    0.000    1.000    2.500    4.500    3.500    1.000 
#    4.500    0.000    0.000    0.000    0.000    0.000 
#    0.000    0.000    0.000    0.000    0.000    0.000 
#
# Total GULP energy -198469.682673 kJ/mol
# GULP energy per Si atom -12404.355167 kJ/mol
# Density = 2.139394 g / cm^3
# Si number density = 21.442742 Si / 1000 Ang^3
#
#
#
# Elastic Constant Matrix: (Units=GPa)
#
#
# Indices 1 2 3 4 5 6 
#
# 1 128.4721 66.7648 20.9238 -5.0350 17.6032 -10.9654
# 2 66.7648 159.4211 26.8908 -19.6816 11.3054 -16.1067
# 3 20.9238 26.8908 77.5319 0.6485 5.6484 -2.8034
# 4 -5.0350 -19.6816 0.6485 38.7822 6.2606 5.8878
# 5 17.6032 11.3054 5.6484 6.2606 36.6679 -7.7891
# 6 -10.9654 -16.1067 -2.8034 5.8878 -7.7891 37.7384
#
#
#
# Elastic Compliance Matrix: (Units=1/GPa)
#
#
# Indices 1 2 3 4 5 6 
#
# 1 0.010545 -0.003918 -0.001208 -0.000121 -0.003522 0.000594
# 2 -0.003918 0.008971 -0.001960 0.003956 -0.000888 0.001745
# 3 -0.001208 -0.001960 0.013967 -0.001241 -0.000780 -0.000117
# 4 -0.000121 0.003956 -0.001241 0.029608 -0.006981 -0.004499
# 5 -0.003522 -0.000888 -0.000780 -0.006981 0.031867 0.006206
# 6 0.000594 0.001745 -0.000117 -0.004499 0.006206 0.029390
#
#
# Mechanical properties :
#
#
# Convention : Reuss Voigt Hill
#
# Bulk Modulus (GPa) = 51.77967 66.06487 58.92227
# Shear Modulus (GPa) = 34.49346 39.36075 36.92711
#
# Velocity S-wave (km/s) = 4.01513 4.28906 4.15435
# Velocity P-wave (km/s) = 6.75983 7.44344 7.10986
#
# Compressibility (1/GPa) = 0.01931260
#
# Stress axis : x y z
#
# Youngs Moduli (GPa) = 94.83241 111.46409 71.59938
#
# Poissons Ratio (x) = 0.43666 0.08649
# Poissons Ratio (y) = 0.37151 0.14031
# Poissons Ratio (z) = 0.11456 0.21843
#
# Static dielectric constant tensor:
#      x y z
#    x 4.000450 0.196380 0.067380 
#    y 0.196380 4.037530 -0.045550 
#    z 0.067380 -0.045550 3.935110 
# 
# 
# High freq. dielectric constant tensor:
#      x y z
#    x 1.833370 0.012540 0.003570 
#    y 0.012540 1.851710 -0.005970 
#    z 0.003570 -0.005970 1.854290 
# 
# From -- ./inp_files/358849.got.cif
#   From: 2010.06.25/outbox.cif.g09.slc.cpg/sg2_180_cif.got.tgz:358849.got - 2010.06.27 13:26:56.
