data_PCOD8016248
_publ_section_title
;
Structure prediction by ZEFSAII (Michael W. Deem and Ramdas Pophale) SiO2 
 PCOD8016248
Probable space group: P -1
;
_chemical_formula_sum "Si O2"
_cell_formula_units_Z 14
_cell_length_a 11.404314
_cell_length_b 15.171877
_cell_length_c 8.488181
_cell_angle_alpha 129.491398
_cell_angle_beta 90.415501
_cell_angle_gamma 51.196574
_cell_volume 670.761920
_symmetry_space_group_name_H-M "P -1"
_symmetry_group_IT_number 2
_symmetry_cell_setting 'triclinic'
loop_
_space_group_symop_operation_xyz
x,y,z
-x,-y,-z
loop_
_atom_site_type_symbol
_atom_site_label
_atom_site_fract_x
_atom_site_fract_y
_atom_site_fract_z
Si Si1 0.567436 0.113515 0.381453
Si Si2 0.858100 0.658188 0.389941
Si Si3 0.118425 0.159519 0.183915
Si Si4 0.885638 0.746983 0.163571
Si Si5 0.137301 0.721407 0.963421
Si Si6 0.022707 0.928780 0.748873
Si Si7 0.449427 0.615931 0.280615
O O1 0.343561 0.254245 0.511212
O O2 0.577944 0.230364 0.593408
O O3 0.673942 0.941805 0.305285
O O4 0.678173 0.030174 0.119391
O O5 0.880037 0.710811 0.612151
O O6 0.860843 0.745713 0.346280
O O7 0.038313 0.428212 0.118964
O O8 0.934641 0.283565 0.203728
O O9 0.095831 0.097780 0.270010
O O10 0.038983 0.731435 0.121281
O O11 0.374134 0.530523 0.756429
O O12 0.070106 0.907093 0.187603
O O13 0.250571 0.723450 0.478592
O O14 0.000000 0.000000 0.000000
O O15 0.500000 0.500000 0.000000
#
# Coordination Sequence:
#
# PCOD8016248 Si02
#       7
#     2   2   2   2   2   2   2
#     4  11  22  45  61  95 132 165 216 267 315 385
#     4  11  23  40  67  95 131 163 217 262 317 385
#     4  10  23  42  67  94 128 174 208 262 327 380
#     4  10  22  40  66  91 131 169 208 262 322 376
#     4  10  22  43  64  91 133 169 212 267 319 385
#     4  10  21  44  64  91 133 164 214 265 321 379
#     4  12  25  39  67  96 126 172 217 267 324 379
#
# _framework density 20.871787000000001
#
# number of rings (size 3 to 8) (size 9 to 14) (size 15 to 20)
#    0.000    1.429    5.714    0.857    2.000    6.286 
#    2.571    0.000    0.000    0.000    0.000    0.000 
#    0.000    0.000    0.000    0.000    0.000    0.000 
#
# Total GULP energy -173588.527591 kJ/mol
# GULP energy per Si atom -12399.180542 kJ/mol
# Density = 2.082428 g / cm^3
# Si number density = 20.871787 Si / 1000 Ang^3
#
#
#
# Elastic Constant Matrix: (Units=GPa)
#
#
# Indices 1 2 3 4 5 6 
#
# 1 76.2118 40.3064 48.5219 -3.8101 8.9489 16.1389
# 2 40.3064 71.2966 33.9773 4.4613 -5.4397 7.7025
# 3 48.5219 33.9773 133.0672 -2.6196 5.9400 -5.0178
# 4 -3.8101 4.4613 -2.6196 26.2850 0.0992 -7.9466
# 5 8.9489 -5.4397 5.9400 0.0992 36.1281 -6.0784
# 6 16.1389 7.7025 -5.0178 -7.9466 -6.0784 32.3021
#
#
#
# Elastic Compliance Matrix: (Units=1/GPa)
#
#
# Indices 1 2 3 4 5 6 
#
# 1 0.028205 -0.011760 -0.007345 0.001154 -0.009910 -0.014010
# 2 -0.011760 0.022399 -0.001835 -0.005685 0.006619 0.000096
# 3 -0.007345 -0.001835 0.010916 0.002305 0.000840 0.006528
# 4 0.001154 -0.005685 0.002305 0.042964 0.000342 0.011771
# 5 -0.009910 0.006619 0.000840 0.000342 0.032628 0.009727
# 6 -0.014010 0.000096 0.006528 0.011771 0.009727 0.043675
#
#
# Mechanical properties :
#
#
# Convention : Reuss Voigt Hill
#
# Bulk Modulus (GPa) = 50.91603 58.46518 54.69061
# Shear Modulus (GPa) = 21.81377 29.46106 25.63741
#
# Velocity S-wave (km/s) = 3.23636 3.76110 3.50855
# Velocity P-wave (km/s) = 6.19782 6.85081 6.53248
#
# Compressibility (1/GPa) = 0.01964018
#
# Stress axis : x y z
#
# Youngs Moduli (GPa) = 35.45428 44.64509 91.60857
#
# Poissons Ratio (x) = 0.52501 0.67290
# Poissons Ratio (y) = 0.41693 0.16810
# Poissons Ratio (z) = 0.26042 0.08192
#
# Static dielectric constant tensor:
#      x y z
#    x 4.082420 0.488010 0.024810 
#    y 0.488010 3.955910 0.236880 
#    z 0.024810 0.236880 3.755540 
# 
# 
# High freq. dielectric constant tensor:
#      x y z
#    x 1.822160 0.017850 -0.002880 
#    y 0.017850 1.806630 0.009820 
#    z -0.002880 0.009820 1.820310 
# 
# From -- ./inp_files/271077.got.cif
#   From: 2010.06.25/outbox.cif.g09.slc.cpg/sg2_136_cif.got.tgz:271077.got - 2010.06.27 13:26:56.
