data_PCOD8016260
_publ_section_title
;
Structure prediction by ZEFSAII (Michael W. Deem and Ramdas Pophale) SiO2 
 PCOD8016260
Probable space group: P -1
;
_chemical_formula_sum "Si O2"
_cell_formula_units_Z 16
_cell_length_a 14.951221
_cell_length_b 8.208719
_cell_length_c 11.093391
_cell_angle_alpha 141.791276
_cell_angle_beta 101.719482
_cell_angle_gamma 65.110041
_cell_volume 743.891950
_symmetry_space_group_name_H-M "P -1"
_symmetry_group_IT_number 2
_symmetry_cell_setting 'triclinic'
loop_
_space_group_symop_operation_xyz
x,y,z
-x,-y,-z
loop_
_atom_site_type_symbol
_atom_site_label
_atom_site_fract_x
_atom_site_fract_y
_atom_site_fract_z
Si Si1 0.284895 0.319451 0.252552
Si Si2 0.666080 0.736274 0.214117
Si Si3 0.797233 0.700375 0.026307
Si Si4 0.991007 0.280255 0.275358
Si Si5 0.210855 0.701404 0.675742
Si Si6 0.614363 0.355459 0.135945
Si Si7 0.111273 0.632920 0.928844
Si Si8 0.440479 0.585152 0.407694
O O1 0.200917 0.380425 0.160199
O O2 0.225742 0.452928 0.436851
O O3 0.355171 0.471459 0.321682
O O4 0.348251 0.975097 0.090102
O O5 0.599412 0.564947 0.136631
O O6 0.776793 0.567993 0.211182
O O7 0.608278 0.070646 0.431561
O O8 0.691593 0.717202 0.066250
O O9 0.893876 0.468162 0.993002
O O10 0.797747 0.011361 0.228439
O O11 0.893274 0.219239 0.237279
O O12 0.971464 0.404321 0.204080
O O13 0.000000 0.500000 0.500000
O O14 0.090594 0.974026 0.128376
O O15 0.307083 0.591900 0.725477
O O16 0.511249 0.438395 0.227900
O O17 0.500000 0.500000 0.500000
#
# Coordination Sequence:
#
# PCOD8016260 Si02
#       8
#     2   2   2   2   2   2   2   2
#     4  11  22  40  66  92 129 176 212 259 319 384
#     4  10  21  44  65  90 134 167 208 267 325 361
#     4   9  21  41  64  87 127 172 210 257 324 373
#     4  11  24  39  69  97 124 164 215 265 324 391
#     4  11  21  41  64  93 128 169 211 269 322 375
#     4  11  23  40  65  94 129 172 216 263 319 377
#     4   9  22  44  63  89 130 162 203 270 324 366
#     4  12  22  42  66  96 133 170 217 265 317 375
#
# _framework density 21.508500000000002
#
# number of rings (size 3 to 8) (size 9 to 14) (size 15 to 20)
#    0.750    0.750    3.750    1.500    1.750    3.500 
#    2.250    2.500    0.000    0.000    0.000    0.000 
#    0.000    0.000    0.000    0.000    0.000    0.000 
#
# Total GULP energy -198270.385153 kJ/mol
# GULP energy per Si atom -12391.899072 kJ/mol
# Density = 2.145955 g / cm^3
# Si number density = 21.508500 Si / 1000 Ang^3
#
#
#
# Elastic Constant Matrix: (Units=GPa)
#
#
# Indices 1 2 3 4 5 6 
#
# 1 49.5672 14.1953 3.4920 11.1436 -5.2041 1.8655
# 2 14.1953 79.3593 48.0759 29.7763 2.0858 -4.1080
# 3 3.4920 48.0759 132.1503 12.3167 2.4496 -17.1453
# 4 11.1436 29.7763 12.3167 33.3882 -0.7634 -1.5371
# 5 -5.2041 2.0858 2.4496 -0.7634 28.3271 5.2108
# 6 1.8655 -4.1080 -17.1453 -1.5371 5.2108 32.0727
#
#
#
# Elastic Compliance Matrix: (Units=1/GPa)
#
#
# Indices 1 2 3 4 5 6 
#
# 1 0.022672 -0.002490 0.000420 -0.005507 0.004610 -0.002426
# 2 -0.002490 0.024205 -0.007156 -0.018212 -0.001901 -0.001144
# 3 0.000420 -0.007156 0.010598 0.002537 -0.001170 0.005036
# 4 -0.005507 -0.018212 0.002537 0.047186 0.001120 0.001423
# 5 0.004610 -0.001901 -0.001170 0.001120 0.037748 -0.007217
# 6 -0.002426 -0.001144 0.005036 0.001423 -0.007217 0.035107
#
#
# Mechanical properties :
#
#
# Convention : Reuss Voigt Hill
#
# Bulk Modulus (GPa) = 25.62595 43.62257 34.62426
# Shear Modulus (GPa) = 23.92628 31.77850 27.85239
#
# Velocity S-wave (km/s) = 3.33890 3.84798 3.60244
# Velocity P-wave (km/s) = 5.17731 6.32994 5.78242
#
# Compressibility (1/GPa) = 0.03902294
#
# Stress axis : x y z
#
# Youngs Moduli (GPa) = 44.10802 41.31294 94.35779
#
# Poissons Ratio (x) = 0.10287 -0.03962
# Poissons Ratio (y) = 0.10983 0.67521
# Poissons Ratio (z) = -0.01852 0.29563
#
# Static dielectric constant tensor:
#      x y z
#    x 3.775460 0.098230 -0.103810 
#    y 0.098230 4.072280 0.043510 
#    z -0.103810 0.043510 3.806730 
# 
# 
# High freq. dielectric constant tensor:
#      x y z
#    x 1.830890 0.010060 -0.011810 
#    y 0.010060 1.853410 0.005270 
#    z -0.011810 0.005270 1.838950 
# 
# From -- ./inp_files/462625.got.cif
#   From: 2010.06.25/outbox.cif.g09.slc.cpg/sg2_232_cif.got.tgz:462625.got - 2010.06.27 13:26:56.
