data_PCOD8016011
_publ_section_title
;
Structure prediction by ZEFSAII (Michael W. Deem and Ramdas Pophale) SiO2 
 PCOD8016011
Probable space group: P -1
;
_chemical_formula_sum "Si O2"
_cell_formula_units_Z 12
_cell_length_a 9.836541
_cell_length_b 8.053944
_cell_length_c 11.066201
_cell_angle_alpha 140.559146
_cell_angle_beta 116.961060
_cell_angle_gamma 70.176706
_cell_volume 496.323171
_symmetry_space_group_name_H-M "P -1"
_symmetry_group_IT_number 2
_symmetry_cell_setting 'triclinic'
loop_
_space_group_symop_operation_xyz
x,y,z
-x,-y,-z
loop_
_atom_site_type_symbol
_atom_site_label
_atom_site_fract_x
_atom_site_fract_y
_atom_site_fract_z
Si Si1 0.743657 0.119535 0.115135
Si Si2 0.456782 0.349712 0.222364
Si Si3 0.163694 0.261752 0.747308
Si Si4 0.256993 0.837199 0.134317
Si Si5 0.560884 0.112896 0.383268
Si Si6 0.973067 0.912663 0.636442
O O1 0.604790 0.324228 0.181123
O O2 0.795840 0.092932 0.983171
O O3 0.886032 0.215580 0.307639
O O4 0.683966 0.835502 0.984373
O O5 0.500797 0.239294 0.308346
O O6 0.407482 0.650922 0.375749
O O7 0.027811 0.171031 0.730344
O O8 0.284221 0.031630 0.659446
O O9 0.095060 0.301044 0.606042
O O10 0.238629 0.528335 0.976817
O O11 0.155787 0.006223 0.276894
O O12 0.433277 0.913961 0.273011
#
# Coordination Sequence:
#
# PCOD8016011 Si02
#       6
#     2   2   2   2   2   2
#     4  10  21  43  70  97 129 170 222 273 317 384
#     4   9  20  40  72  97 124 173 222 267 323 380
#     4  11  25  45  66  96 136 177 209 267 335 389
#     4  11  25  42  67 103 129 170 219 274 324 376
#     4  10  21  43  68  98 129 169 223 269 318 388
#     4  11  25  45  64  97 133 179 214 261 333 391
#
# _framework density 24.177796000000001
#
# number of rings (size 3 to 8) (size 9 to 14) (size 15 to 20)
#    0.000    1.667    1.667    1.500    2.333    5.333 
#    3.000    0.000    0.000    0.000    0.000    0.000 
#    0.000    0.000    0.000    0.000    0.000    0.000 
#
# Total GULP energy -148843.347505 kJ/mol
# GULP energy per Si atom -12403.612292 kJ/mol
# Density = 2.412277 g / cm^3
# Si number density = 24.177796 Si / 1000 Ang^3
#
#
#
# Elastic Constant Matrix: (Units=GPa)
#
#
# Indices 1 2 3 4 5 6 
#
# 1 105.2290 -0.7342 1.4337 -7.3166 -7.2129 15.8575
# 2 -0.7342 22.9081 -18.3210 0.9978 -1.6454 2.6379
# 3 1.4337 -18.3210 68.2812 11.8866 4.4326 -0.5986
# 4 -7.3166 0.9978 11.8866 29.7107 3.5511 -2.0923
# 5 -7.2129 -1.6454 4.4326 3.5511 34.8188 -8.8781
# 6 15.8575 2.6379 -0.5986 -2.0923 -8.8781 32.4025
#
#
#
# Elastic Compliance Matrix: (Units=1/GPa)
#
#
# Indices 1 2 3 4 5 6 
#
# 1 0.010456 0.000326 -0.000642 0.002388 0.000800 -0.004782
# 2 0.000326 0.058428 0.017202 -0.009156 0.000268 -0.005116
# 3 -0.000642 0.017202 0.020932 -0.009051 -0.001494 -0.001693
# 4 0.002388 -0.009156 -0.009051 0.038549 -0.002401 0.001241
# 5 0.000800 0.000268 -0.001494 -0.002401 0.031373 0.008000
# 6 -0.004782 -0.005116 -0.001693 0.001241 0.008000 0.035859
#
#
# Mechanical properties :
#
#
# Convention : Reuss Voigt Hill
#
# Bulk Modulus (GPa) = 8.09138 17.90839 12.99988
# Shear Modulus (GPa) = 24.62803 33.65571 29.14187
#
# Velocity S-wave (km/s) = 3.19505 3.73501 3.47553
# Velocity P-wave (km/s) = 4.11886 5.10132 4.63619
#
# Compressibility (1/GPa) = 0.12358839
#
# Stress axis : x y z
#
# Youngs Moduli (GPa) = 95.64259 17.11512 47.77341
#
# Poissons Ratio (x) = -0.00558 0.03066
# Poissons Ratio (y) = -0.03118 -0.82180
# Poissons Ratio (z) = 0.06137 -0.29442
#
# Static dielectric constant tensor:
#      x y z
#    x 4.352260 0.216650 0.070060 
#    y 0.216650 3.992060 -0.168100 
#    z 0.070060 -0.168100 4.788300 
# 
# 
# High freq. dielectric constant tensor:
#      x y z
#    x 1.965670 0.015850 0.001620 
#    y 0.015850 1.939000 -0.013730 
#    z 0.001620 -0.013730 1.971120 
# 
# From -- ./inp_files/238344.got.cif
#   From: 2010.06.25/outbox.cif.g09.slc.cpg/sg2_120_cif.got.tgz:238344.got - 2010.06.27 13:26:56.
