data_PCOD8016069
_publ_section_title
;
Structure prediction by ZEFSAII (Michael W. Deem and Ramdas Pophale) SiO2 
 PCOD8016069
Probable space group: P -1
;
_chemical_formula_sum "Si O2"
_cell_formula_units_Z 16
_cell_length_a 8.984560
_cell_length_b 19.463583
_cell_length_c 8.994339
_cell_angle_alpha 39.168069
_cell_angle_beta 48.197236
_cell_angle_gamma 58.599411
_cell_volume 740.502525
_symmetry_space_group_name_H-M "P -1"
_symmetry_group_IT_number 2
_symmetry_cell_setting 'triclinic'
loop_
_space_group_symop_operation_xyz
x,y,z
-x,-y,-z
loop_
_atom_site_type_symbol
_atom_site_label
_atom_site_fract_x
_atom_site_fract_y
_atom_site_fract_z
Si Si1 0.903717 0.095259 0.810593
Si Si2 0.467765 0.022908 0.154629
Si Si3 0.051227 0.484553 0.664251
Si Si4 0.770459 0.285960 0.760325
Si Si5 0.457224 0.394931 0.609870
Si Si6 0.712700 0.203525 0.265306
Si Si7 0.064540 0.110106 0.347791
Si Si8 0.628869 0.409799 0.147599
O O1 0.920243 0.209533 0.693967
O O2 0.015410 0.107559 0.559241
O O3 0.671871 0.067222 0.006236
O O4 0.000000 0.000000 0.000000
O O5 0.404755 0.909552 0.462076
O O6 0.301587 0.117564 0.142804
O O7 0.500000 0.000000 0.000000
O O8 0.123257 0.598361 0.491894
O O9 0.220270 0.390703 0.739361
O O10 0.000000 0.500000 0.500000
O O11 0.857698 0.444507 0.944442
O O12 0.552817 0.295760 0.807853
O O13 0.736280 0.232651 0.030613
O O14 0.500000 0.500000 0.500000
O O15 0.570364 0.397338 0.375907
O O16 0.589791 0.297328 0.275169
O O17 0.931882 0.202126 0.199906
O O18 0.000000 0.000000 0.500000
O O19 0.500000 0.500000 0.000000
#
# Coordination Sequence:
#
# PCOD8016069 Si02
#       8
#     2   2   2   2   2   2   2   2
#     4  12  25  44  67 100 143 172 220 296 339 392
#     4  11  24  45  74  97 130 184 231 278 340 401
#     4  11  22  47  72  99 132 186 227 276 340 407
#     4  11  25  43  68 103 140 177 224 286 351 391
#     4  10  23  43  67 100 142 168 223 294 333 398
#     4  11  23  43  71 101 132 181 234 275 336 413
#     4  10  21  43  69  99 130 173 236 278 324 416
#     4  12  23  42  72 100 134 177 231 276 329 414
#
# _framework density 21.606949
#
# number of rings (size 3 to 8) (size 9 to 14) (size 15 to 20)
#    0.000    1.000    5.000    3.000    0.000    6.000 
#    0.000    3.750    0.000    0.000    0.000    0.000 
#    0.000    0.000    0.000    0.000    0.000    0.000 
#
# Total GULP energy -198356.313045 kJ/mol
# GULP energy per Si atom -12397.269565 kJ/mol
# Density = 2.155777 g / cm^3
# Si number density = 21.606949 Si / 1000 Ang^3
#
#
#
# Elastic Constant Matrix: (Units=GPa)
#
#
# Indices 1 2 3 4 5 6 
#
# 1 136.1672 53.1605 46.1151 19.9656 20.3448 -23.0831
# 2 53.1605 149.6206 35.3923 23.4012 18.3493 -3.6468
# 3 46.1151 35.3923 96.9595 31.1690 14.6783 -6.2032
# 4 19.9656 23.4012 31.1690 44.5068 1.1719 3.0513
# 5 20.3448 18.3493 14.6783 1.1719 55.7684 2.2292
# 6 -23.0831 -3.6468 -6.2032 3.0513 2.2292 48.2690
#
#
#
# Elastic Compliance Matrix: (Units=1/GPa)
#
#
# Indices 1 2 3 4 5 6 
#
# 1 0.010735 -0.002417 -0.002989 -0.001715 -0.002490 0.004790
# 2 -0.002417 0.008336 -0.000829 -0.002650 -0.001572 -0.000392
# 3 -0.002989 -0.000829 0.015398 -0.009021 -0.002547 0.001175
# 4 -0.001715 -0.002650 -0.009021 0.031154 0.003389 -0.004305
# 5 -0.002490 -0.001572 -0.002547 0.003389 0.020067 -0.002778
# 6 0.004790 -0.000392 0.001175 -0.004305 -0.002778 0.023530
#
#
# Mechanical properties :
#
#
# Convention : Reuss Voigt Hill
#
# Bulk Modulus (GPa) = 45.45343 72.45367 58.95355
# Shear Modulus (GPa) = 38.75278 46.24748 42.50013
#
# Velocity S-wave (km/s) = 4.23961 4.63146 4.43986
# Velocity P-wave (km/s) = 6.71177 7.88708 7.32304
#
# Compressibility (1/GPa) = 0.02200054
#
# Stress axis : x y z
#
# Youngs Moduli (GPa) = 93.15109 119.96186 64.94269
#
# Poissons Ratio (x) = 0.28994 0.19411
# Poissons Ratio (y) = 0.22514 0.05381
# Poissons Ratio (z) = 0.27843 0.09939
#
# Static dielectric constant tensor:
#      x y z
#    x 4.102070 -0.505670 0.266890 
#    y -0.505670 4.594200 -0.013260 
#    z 0.266890 -0.013260 3.738910 
# 
# 
# High freq. dielectric constant tensor:
#      x y z
#    x 1.861990 -0.004730 0.010790 
#    y -0.004730 1.873050 0.002050 
#    z 0.010790 0.002050 1.838930 
# 
# From -- ./inp_files/222977.got.cif
#   From: 2010.06.25/outbox.cif.g09.slc.cpg/sg2_112_cif.got.tgz:222977.got - 2010.06.27 13:26:56.
