data_PCOD8016700
_publ_section_title
;
Structure prediction by ZEFSAII (Michael W. Deem and Ramdas Pophale) SiO2 
 PCOD8016700
Probable space group: P -1
;
_chemical_formula_sum "Si O2"
_cell_formula_units_Z 12
_cell_length_a 11.590839
_cell_length_b 10.780253
_cell_length_c 8.605565
_cell_angle_alpha 121.404417
_cell_angle_beta 143.005245
_cell_angle_gamma 77.064690
_cell_volume 512.074754
_symmetry_space_group_name_H-M "P -1"
_symmetry_group_IT_number 2
_symmetry_cell_setting 'triclinic'
loop_
_space_group_symop_operation_xyz
x,y,z
-x,-y,-z
loop_
_atom_site_type_symbol
_atom_site_label
_atom_site_fract_x
_atom_site_fract_y
_atom_site_fract_z
Si Si1 0.278678 0.856554 0.441688
Si Si2 0.316389 0.174813 0.223303
Si Si3 0.917567 0.910002 0.658856
Si Si4 0.324227 0.393984 0.627244
Si Si5 0.959894 0.772979 0.301681
Si Si6 0.010173 0.530246 0.847798
O O1 0.520266 0.885675 0.721216
O O2 0.185429 0.824880 0.495540
O O3 0.254036 0.012959 0.451894
O O4 0.164016 0.710060 0.106457
O O5 0.423302 0.314569 0.552795
O O6 0.209443 0.244537 0.024162
O O7 0.141004 0.033475 0.038543
O O8 0.850839 0.742130 0.554873
O O9 0.955297 0.897282 0.506231
O O10 0.210793 0.495918 0.486315
O O11 0.500000 0.500000 0.000000
O O12 0.911231 0.602867 0.222025
O O13 0.000000 0.500000 0.000000
#
# Coordination Sequence:
#
# PCOD8016700 Si02
#       6
#     2   2   2   2   2   2
#     4  10  22  41  75 101 136 190 240 273 359 419
#     4  11  23  45  76 100 143 192 235 287 354 423
#     4  11  25  45  68 105 149 180 232 301 350 414
#     4  12  27  46  71 109 144 184 237 295 359 415
#     4  10  23  44  73 104 145 185 237 294 342 422
#     4  10  21  46  70  99 142 186 235 286 343 420
#
# _framework density 23.434076999999998
#
# number of rings (size 3 to 8) (size 9 to 14) (size 15 to 20)
#    0.000    1.333    5.000    2.500    2.333    8.667 
#    0.000    0.000    0.000    0.000    0.000    0.000 
#    0.000    0.000    0.000    0.000    0.000    0.000 
#
# Total GULP energy -148750.898664 kJ/mol
# GULP energy per Si atom -12395.908222 kJ/mol
# Density = 2.338074 g / cm^3
# Si number density = 23.434077 Si / 1000 Ang^3
#
#
#
# Elastic Constant Matrix: (Units=GPa)
#
#
# Indices 1 2 3 4 5 6 
#
# 1 87.5147 44.9120 35.9062 -16.8700 15.8281 -28.9589
# 2 44.9120 138.7929 62.8385 -11.9777 12.0399 -14.9632
# 3 35.9062 62.8385 129.0492 -8.7701 -5.0922 -10.9307
# 4 -16.8700 -11.9777 -8.7701 35.3066 -6.3111 -1.9670
# 5 15.8281 12.0399 -5.0922 -6.3111 39.4901 -6.4795
# 6 -28.9589 -14.9632 -10.9307 -1.9670 -6.4795 34.6940
#
#
#
# Elastic Compliance Matrix: (Units=1/GPa)
#
#
# Indices 1 2 3 4 5 6 
#
# 1 0.021767 -0.002924 -0.002868 0.008818 -0.004215 0.015717
# 2 -0.002924 0.010376 -0.004265 0.000652 -0.002391 0.000281
# 3 -0.002868 -0.004265 0.010812 0.000566 0.003925 -0.000062
# 4 0.008818 0.000652 0.000566 0.034104 0.003498 0.010407
# 5 -0.004215 -0.002391 0.003925 0.003498 0.029190 0.002337
# 6 0.015717 0.000281 -0.000062 0.010407 0.002337 0.043070
#
#
# Mechanical properties :
#
#
# Convention : Reuss Voigt Hill
#
# Bulk Modulus (GPa) = 43.78246 71.40778 57.59512
# Shear Modulus (GPa) = 28.24105 36.01148 32.12626
#
# Velocity S-wave (km/s) = 3.47526 3.92435 3.70661
# Velocity P-wave (km/s) = 5.90144 7.14646 6.55359
#
# Compressibility (1/GPa) = 0.02284020
#
# Stress axis : x y z
#
# Youngs Moduli (GPa) = 45.94118 96.37439 92.48940
#
# Poissons Ratio (x) = 0.28178 0.26530
# Poissons Ratio (y) = 0.13432 0.39449
# Poissons Ratio (z) = 0.13178 0.41106
#
# Static dielectric constant tensor:
#      x y z
#    x 4.223540 -0.360390 -0.291000 
#    y -0.360390 4.640670 0.332030 
#    z -0.291000 0.332030 4.118330 
# 
# 
# High freq. dielectric constant tensor:
#      x y z
#    x 1.917300 -0.013300 -0.019100 
#    y -0.013300 1.942810 0.008090 
#    z -0.019100 0.008090 1.910920 
# 
# From -- ./inp_files/255200.got.cif
#   From: 2010.06.25/outbox.cif.g09.slc.cpg/sg2_128_cif.got.tgz:255200.got - 2010.06.27 13:26:56.
