data_PCOD8016581
_publ_section_title
;
Structure prediction by ZEFSAII (Michael W. Deem and Ramdas Pophale) SiO2 
 PCOD8016581
Probable space group: P -1
;
_chemical_formula_sum "Si O2"
_cell_formula_units_Z 14
_cell_length_a 15.221252
_cell_length_b 11.366196
_cell_length_c 4.955434
_cell_angle_alpha 97.872345
_cell_angle_beta 94.354696
_cell_angle_gamma 145.028191
_cell_volume 459.257828
_symmetry_space_group_name_H-M "P -1"
_symmetry_group_IT_number 2
_symmetry_cell_setting 'triclinic'
loop_
_space_group_symop_operation_xyz
x,y,z
-x,-y,-z
loop_
_atom_site_type_symbol
_atom_site_label
_atom_site_fract_x
_atom_site_fract_y
_atom_site_fract_z
Si Si1 0.055386 0.747804 0.032759
Si Si2 0.152772 0.178474 0.854666
Si Si3 0.894598 0.699971 0.538180
Si Si4 0.298524 0.232580 0.384282
Si Si5 0.475060 0.711029 0.653660
Si Si6 0.455236 0.063118 0.737072
Si Si7 0.231989 0.707543 0.965356
O O1 0.996877 0.706003 0.694245
O O2 0.899421 0.550333 0.142454
O O3 0.151586 0.734449 0.065996
O O4 0.172012 0.980570 0.244963
O O5 0.104916 0.259868 0.771998
O O6 0.271036 0.255843 0.678933
O O7 0.265533 0.299959 0.181337
O O8 0.981783 0.914009 0.770346
O O9 0.711511 0.478426 0.522800
O O10 0.476777 0.374080 0.408404
O O11 0.582843 0.912437 0.539584
O O12 0.515740 0.800358 0.991213
O O13 0.611346 0.152686 0.772090
O O14 0.300347 0.806453 0.708727
#
# Coordination Sequence:
#
# PCOD8016581 Si02
#       7
#     2   2   2   2   2   2   2
#     4  10  21  45  68 105 133 185 219 284 323 412
#     4  10  25  45  72  99 135 175 226 278 338 399
#     4  10  24  44  71 100 137 176 225 277 340 401
#     4  11  24  45  70 102 135 176 224 280 334 400
#     4  12  25  44  71  98 138 179 223 278 340 393
#     4  11  25  45  65 104 135 184 219 284 322 408
#     4  10  22  43  70  98 142 176 231 267 343 388
#
# _framework density 30.483961999999998
#
# number of rings (size 3 to 8) (size 9 to 14) (size 15 to 20)
#    0.000    1.429    2.857    0.857    4.000    9.714 
#    0.000    1.429    0.000    0.000    0.000    0.000 
#    0.000    0.000    0.000    0.000    0.000    0.000 
#
# Total GULP energy -173533.801849 kJ/mol
# GULP energy per Si atom -12395.271561 kJ/mol
# Density = 3.041458 g / cm^3
# Si number density = 30.483962 Si / 1000 Ang^3
#
#
#
# Elastic Constant Matrix: (Units=GPa)
#
#
# Indices 1 2 3 4 5 6 
#
# 1 135.3105 -2.9156 29.7181 -6.2227 10.5416 2.8541
# 2 -2.9156 118.1755 24.0195 -5.6106 11.5359 14.1269
# 3 29.7181 24.0195 100.9731 -12.2595 18.3525 7.4788
# 4 -6.2227 -5.6106 -12.2595 42.0594 -5.1441 6.8738
# 5 10.5416 11.5359 18.3525 -5.1441 47.1314 3.0214
# 6 2.8541 14.1269 7.4788 6.8738 3.0214 59.5948
#
#
#
# Elastic Compliance Matrix: (Units=1/GPa)
#
#
# Indices 1 2 3 4 5 6 
#
# 1 0.008021 0.000825 -0.002280 0.000556 -0.001028 -0.000306
# 2 0.000825 0.009306 -0.001920 0.000956 -0.001479 -0.002040
# 3 -0.002280 -0.001920 0.012047 0.002686 -0.003348 -0.001087
# 4 0.000556 0.000956 0.002686 0.025558 0.001617 -0.003620
# 5 -0.001028 -0.001479 -0.003348 0.001617 0.023325 -0.000549
# 6 -0.000306 -0.002040 -0.001087 -0.003620 -0.000549 0.017860
#
#
# Mechanical properties :
#
#
# Convention : Reuss Voigt Hill
#
# Bulk Modulus (GPa) = 44.20377 50.67812 47.44095
# Shear Modulus (GPa) = 45.28610 49.99958 47.64284
#
# Velocity S-wave (km/s) = 3.85849 4.05432 3.95762
# Velocity P-wave (km/s) = 5.86368 6.21106 6.03987
#
# Compressibility (1/GPa) = 0.02262250
#
# Stress axis : x y z
#
# Youngs Moduli (GPa) = 124.67259 107.45394 83.01054
#
# Poissons Ratio (x) = -0.08860 0.18925
# Poissons Ratio (y) = -0.10280 0.15942
# Poissons Ratio (z) = 0.28424 0.20636
#
# Static dielectric constant tensor:
#      x y z
#    x 6.340230 -0.164420 0.280420 
#    y -0.164420 6.730010 -0.081270 
#    z 0.280420 -0.081270 5.462620 
# 
# 
# High freq. dielectric constant tensor:
#      x y z
#    x 2.285430 -0.006990 0.001390 
#    y -0.006990 2.280150 0.002350 
#    z 0.001390 0.002350 2.242010 
# 
# From -- ./inp_files/110812.got.cif
#   From: 2010.06.25/outbox.cif.g09.slc.cpg/sg2_56_cif.got.tgz:110812.got - 2010.06.27 13:26:56.
