data_PCOD8016446
_publ_section_title
;
Structure prediction by ZEFSAII (Michael W. Deem and Ramdas Pophale) SiO2 
 PCOD8016446
Probable space group: P -1
;
_chemical_formula_sum "Si O2"
_cell_formula_units_Z 16
_cell_length_a 10.016090
_cell_length_b 9.620765
_cell_length_c 11.840986
_cell_angle_alpha 37.999074
_cell_angle_beta 92.693526
_cell_angle_gamma 104.445003
_cell_volume 658.506340
_symmetry_space_group_name_H-M "P -1"
_symmetry_group_IT_number 2
_symmetry_cell_setting 'triclinic'
loop_
_space_group_symop_operation_xyz
x,y,z
-x,-y,-z
loop_
_atom_site_type_symbol
_atom_site_label
_atom_site_fract_x
_atom_site_fract_y
_atom_site_fract_z
Si Si1 0.748120 0.514380 0.612814
Si Si2 0.268305 0.454855 0.669675
Si Si3 0.555561 0.781154 0.828797
Si Si4 0.484365 0.227226 0.910970
Si Si5 0.043736 0.719265 0.273745
Si Si6 0.157383 0.188368 0.124522
Si Si7 0.911655 0.035097 0.370129
Si Si8 0.308652 0.727966 0.702908
O O1 0.695696 0.479162 0.502591
O O2 0.618884 0.459671 0.731048
O O3 0.833729 0.331852 0.763396
O O4 0.844899 0.789257 0.456516
O O5 0.344436 0.275103 0.833640
O O6 0.319337 0.712330 0.576011
O O7 0.100571 0.310308 0.781285
O O8 0.726493 0.881140 0.748339
O O9 0.465479 0.863386 0.676843
O O10 0.500000 0.500000 0.000000
O O11 0.519671 0.842207 0.913983
O O12 0.500000 0.000000 0.000000
O O13 0.000000 0.500000 0.500000
O O14 0.101293 0.981298 0.161942
O O15 0.026901 0.213062 0.175996
O O16 0.242768 0.443984 0.909620
O O17 0.793763 0.140697 0.337963
O O18 0.000000 0.000000 0.500000
#
# Coordination Sequence:
#
# PCOD8016446 Si02
#       8
#     2   2   2   2   2   2   2   2
#     4  11  26  47  72 104 148 182 234 302 354 424
#     4  11  23  48  69 106 143 183 241 284 371 415
#     4  10  23  47  70 100 143 183 240 284 357 415
#     4  12  26  47  73 106 138 189 242 295 348 423
#     4  10  21  44  71 101 139 182 232 290 357 419
#     4  11  22  47  74  99 143 189 237 293 347 427
#     4  12  27  46  69 112 143 186 240 295 364 416
#     4  11  26  46  73 107 144 193 238 291 352 435
#
# _framework density 24.297412000000001
#
# number of rings (size 3 to 8) (size 9 to 14) (size 15 to 20)
#    0.000    1.000    5.000    2.250    7.000    0.500 
#    9.000    1.250    0.000    0.000    0.000    0.000 
#    0.000    0.000    0.000    0.000    0.000    0.000 
#
# Total GULP energy -198316.350882 kJ/mol
# GULP energy per Si atom -12394.771930 kJ/mol
# Density = 2.424211 g / cm^3
# Si number density = 24.297412 Si / 1000 Ang^3
#
#
#
# Elastic Constant Matrix: (Units=GPa)
#
#
# Indices 1 2 3 4 5 6 
#
# 1 162.2506 57.7847 3.4215 15.5689 31.5686 5.9134
# 2 57.7847 135.0062 5.8530 10.8168 19.2110 -2.7564
# 3 3.4215 5.8530 36.8197 10.6793 5.7115 3.1911
# 4 15.5689 10.8168 10.6793 31.6151 -4.0289 5.6151
# 5 31.5686 19.2110 5.7115 -4.0289 32.9167 -3.8926
# 6 5.9134 -2.7564 3.1911 5.6151 -3.8926 50.0458
#
#
#
# Elastic Compliance Matrix: (Units=1/GPa)
#
#
# Indices 1 2 3 4 5 6 
#
# 1 0.009249 -0.002419 0.002592 -0.005459 -0.008749 -0.001459
# 2 -0.002419 0.009112 -0.000091 -0.002448 -0.003185 0.000820
# 3 0.002592 -0.000091 0.032425 -0.013159 -0.009867 -0.001670
# 4 -0.005459 -0.002448 -0.013159 0.041760 0.013791 -0.002264
# 5 -0.008749 -0.003185 -0.009867 0.013791 0.044432 0.003396
# 6 -0.001459 0.000820 -0.001670 -0.002264 0.003396 0.020824
#
#
# Mechanical properties :
#
#
# Convention : Reuss Voigt Hill
#
# Bulk Modulus (GPa) = 19.62652 52.02166 35.82409
# Shear Modulus (GPa) = 28.63335 40.71667 34.67501
#
# Velocity S-wave (km/s) = 3.43658 4.09805 3.78181
# Velocity P-wave (km/s) = 4.88282 6.62185 5.81768
#
# Compressibility (1/GPa) = 0.05095147
#
# Stress axis : x y z
#
# Youngs Moduli (GPa) = 108.11534 109.74112 30.84047
#
# Poissons Ratio (x) = 0.26543 -0.07994
# Poissons Ratio (y) = 0.26150 0.00280
# Poissons Ratio (z) = -0.28023 0.00997
#
# Static dielectric constant tensor:
#      x y z
#    x 6.343560 0.101030 0.029610 
#    y 0.101030 4.731850 0.101780 
#    z 0.029610 0.101780 4.295350 
# 
# 
# High freq. dielectric constant tensor:
#      x y z
#    x 1.987110 0.002660 -0.002490 
#    y 0.002660 1.977670 -0.005140 
#    z -0.002490 -0.005140 1.955570 
# 
# From -- ./inp_files/381055.got.cif
#   From: 2010.06.25/outbox.cif.g09.slc.cpg/sg2_191_cif.got.tgz:381055.got - 2010.06.27 13:26:56.
