data_PCOD8016190
_publ_section_title
;
Structure prediction by ZEFSAII (Michael W. Deem and Ramdas Pophale) SiO2 
 PCOD8016190
Probable space group: P -1
;
_chemical_formula_sum "Si O2"
_cell_formula_units_Z 16
_cell_length_a 9.805454
_cell_length_b 8.699515
_cell_length_c 13.469044
_cell_angle_alpha 54.423688
_cell_angle_beta 80.024551
_cell_angle_gamma 113.871743
_cell_volume 713.986658
_symmetry_space_group_name_H-M "P -1"
_symmetry_group_IT_number 2
_symmetry_cell_setting 'triclinic'
loop_
_space_group_symop_operation_xyz
x,y,z
-x,-y,-z
loop_
_atom_site_type_symbol
_atom_site_label
_atom_site_fract_x
_atom_site_fract_y
_atom_site_fract_z
Si Si1 0.973383 0.379624 0.287160
Si Si2 0.813207 0.725013 0.614613
Si Si3 0.005505 0.870347 0.801936
Si Si4 0.669133 0.838746 0.846458
Si Si5 0.915451 0.729340 0.080606
Si Si6 0.181190 0.697269 0.460285
Si Si7 0.301159 0.398268 0.548598
Si Si8 0.551350 0.516697 0.148064
O O1 0.165220 0.463107 0.266279
O O2 0.917079 0.210073 0.260214
O O3 0.988975 0.617164 0.177346
O O4 0.845648 0.227216 0.456404
O O5 0.773924 0.670488 0.526112
O O6 0.635727 0.659752 0.707089
O O7 0.000000 0.000000 0.500000
O O8 0.837914 0.848808 0.789503
O O9 0.948220 0.709123 0.968412
O O10 0.164646 0.143589 0.719248
O O11 0.482245 0.630675 0.892992
O O12 0.709723 0.085162 0.714209
O O13 0.629630 0.783852 0.991573
O O14 0.700389 0.556470 0.186884
O O15 0.000000 0.000000 0.000000
O O16 0.290102 0.602869 0.510128
O O17 0.000000 0.500000 0.500000
O O18 0.500000 0.500000 0.500000
#
# Coordination Sequence:
#
# PCOD8016190 Si02
#       8
#     2   2   2   2   2   2   2   2
#     4  12  24  43  76  99 135 194 245 286 360 439
#     4  12  23  46  74 103 139 189 241 296 354 430
#     4  11  22  46  70  98 144 191 236 293 362 425
#     4  10  21  43  72  99 140 184 239 294 349 438
#     4  11  27  45  70 103 149 189 231 305 368 425
#     4  12  24  43  70 103 140 188 241 294 371 422
#     4  12  27  43  68 105 144 180 237 309 359 418
#     4  10  23  42  72 100 136 184 238 289 357 424
#
# _framework density 22.409381
#
# number of rings (size 3 to 8) (size 9 to 14) (size 15 to 20)
#    0.000    0.750    5.000    1.875    5.250    1.000 
#    2.250    3.125    0.000    0.000    0.000    0.000 
#    0.000    0.000    0.000    0.000    0.000    0.000 
#
# Total GULP energy -198209.286602 kJ/mol
# GULP energy per Si atom -12388.080413 kJ/mol
# Density = 2.235838 g / cm^3
# Si number density = 22.409381 Si / 1000 Ang^3
#
#
#
# Elastic Constant Matrix: (Units=GPa)
#
#
# Indices 1 2 3 4 5 6 
#
# 1 141.0078 34.3061 41.5033 -16.4794 -1.0049 6.7535
# 2 34.3061 70.9479 25.6110 -0.2814 -5.8767 -0.9679
# 3 41.5033 25.6110 117.8262 -7.6639 -2.1282 -5.7018
# 4 -16.4794 -0.2814 -7.6639 38.5474 -2.8998 -3.3970
# 5 -1.0049 -5.8767 -2.1282 -2.8998 43.8194 -3.9652
# 6 6.7535 -0.9679 -5.7018 -3.3970 -3.9652 36.9556
#
#
#
# Elastic Compliance Matrix: (Units=1/GPa)
#
#
# Indices 1 2 3 4 5 6 
#
# 1 0.009114 -0.003614 -0.002312 0.003221 -0.000343 -0.001858
# 2 -0.003614 0.016892 -0.002434 -0.001684 0.002024 0.000790
# 3 -0.002312 -0.002434 0.010014 0.001194 0.000372 0.002053
# 4 0.003221 -0.001684 0.001194 0.027897 0.001963 0.002326
# 5 -0.000343 0.002024 0.000372 0.001963 0.023493 0.002874
# 6 -0.001858 0.000790 0.002053 0.002326 0.002874 0.028259
#
#
# Mechanical properties :
#
#
# Convention : Reuss Voigt Hill
#
# Bulk Modulus (GPa) = 51.80500 59.18029 55.49264
# Shear Modulus (GPa) = 36.01762 39.08860 37.55311
#
# Velocity S-wave (km/s) = 4.01341 4.18101 4.09807
# Velocity P-wave (km/s) = 6.68164 7.05506 6.87089
#
# Compressibility (1/GPa) = 0.01930315
#
# Stress axis : x y z
#
# Youngs Moduli (GPa) = 109.71766 59.19792 99.86009
#
# Poissons Ratio (x) = 0.21392 0.23083
# Poissons Ratio (y) = 0.39648 0.24302
# Poissons Ratio (z) = 0.25362 0.14407
#
# Static dielectric constant tensor:
#      x y z
#    x 4.159190 -0.043270 0.224040 
#    y -0.043270 4.213800 -0.068800 
#    z 0.224040 -0.068800 4.614850 
# 
# 
# High freq. dielectric constant tensor:
#      x y z
#    x 1.874110 0.009870 0.008160 
#    y 0.009870 1.871290 0.014240 
#    z 0.008160 0.014240 1.896000 
# 
# From -- ./inp_files/494388.got.cif
#   From: 2010.06.25/outbox.cif.g09.slc.cpg/sg2_248_cif.got.tgz:494388.got - 2010.06.27 13:26:56.
