data_PCOD8016449
_publ_section_title
;
Structure prediction by ZEFSAII (Michael W. Deem and Ramdas Pophale) SiO2 
 PCOD8016449
Probable space group: P -1
;
_chemical_formula_sum "Si O2"
_cell_formula_units_Z 14
_cell_length_a 13.894021
_cell_length_b 8.609968
_cell_length_c 8.548799
_cell_angle_alpha 98.490516
_cell_angle_beta 61.698602
_cell_angle_gamma 142.220136
_cell_volume 500.363365
_symmetry_space_group_name_H-M "P -1"
_symmetry_group_IT_number 2
_symmetry_cell_setting 'triclinic'
loop_
_space_group_symop_operation_xyz
x,y,z
-x,-y,-z
loop_
_atom_site_type_symbol
_atom_site_label
_atom_site_fract_x
_atom_site_fract_y
_atom_site_fract_z
Si Si1 0.701967 0.219296 0.206800
Si Si2 0.196939 0.832033 0.149068
Si Si3 0.194936 0.149610 0.685017
Si Si4 0.380154 0.695087 0.999373
Si Si5 0.321246 0.582979 0.487250
Si Si6 0.040945 0.348838 0.418332
Si Si7 0.794593 0.841827 0.974959
O O1 0.610354 0.256845 0.185127
O O2 0.784687 0.403884 0.324901
O O3 0.535735 0.895141 0.326239
O O4 0.868111 0.329625 0.988646
O O5 0.054045 0.637002 0.382975
O O6 0.416613 0.021806 0.032459
O O7 0.224712 0.049823 0.128056
O O8 0.354290 0.453942 0.527465
O O9 0.260526 0.162753 0.806973
O O10 0.140383 0.947165 0.574742
O O11 0.016629 0.054595 0.835983
O O12 0.340403 0.463548 0.017385
O O13 0.198491 0.586282 0.197911
O O14 0.176850 0.390783 0.421851
#
# Coordination Sequence:
#
# PCOD8016449 Si02
#       7
#     2   2   2   2   2   2   2
#     4  11  26  46  71  97 147 189 219 282 357 411
#     4  12  25  43  69 111 133 184 233 280 349 409
#     4  10  21  44  71 103 136 183 232 288 347 400
#     4  11  24  48  69 100 146 182 229 287 341 415
#     4  11  22  46  72  97 136 191 227 274 349 418
#     4  11  25  42  74 103 138 179 233 289 343 398
#     4  10  22  42  72 100 140 182 231 290 342 398
#
# _framework density 27.979662999999999
#
# number of rings (size 3 to 8) (size 9 to 14) (size 15 to 20)
#    0.000    1.143    4.286    1.286    2.000    2.286 
#    5.143    1.429    0.000    0.000    0.000    0.000 
#    0.000    0.000    0.000    0.000    0.000    0.000 
#
# Total GULP energy -173545.142756 kJ/mol
# GULP energy per Si atom -12396.081625 kJ/mol
# Density = 2.791598 g / cm^3
# Si number density = 27.979663 Si / 1000 Ang^3
#
#
#
# Elastic Constant Matrix: (Units=GPa)
#
#
# Indices 1 2 3 4 5 6 
#
# 1 50.7361 5.3970 27.9176 -6.1772 9.0312 -9.8636
# 2 5.3970 141.0719 71.8972 2.0128 15.3486 -10.2874
# 3 27.9176 71.8972 170.4332 13.7613 20.4668 -11.7829
# 4 -6.1772 2.0128 13.7613 49.9786 -13.3091 13.4953
# 5 9.0312 15.3486 20.4668 -13.3091 41.6726 2.8669
# 6 -9.8636 -10.2874 -11.7829 13.4953 2.8669 26.8844
#
#
#
# Elastic Compliance Matrix: (Units=1/GPa)
#
#
# Indices 1 2 3 4 5 6 
#
# 1 0.024006 0.002069 -0.003732 0.000487 -0.004540 0.008203
# 2 0.002069 0.009441 -0.003730 -0.000678 -0.002540 0.003348
# 3 -0.003732 -0.003730 0.009295 -0.005202 -0.004343 0.004351
# 4 0.000487 -0.000678 -0.005202 0.030314 0.013690 -0.019037
# 5 -0.004540 -0.002540 -0.004343 0.013690 0.033452 -0.014980
# 6 0.008203 0.003348 0.004351 -0.019037 -0.014980 0.054548
#
#
# Mechanical properties :
#
#
# Convention : Reuss Voigt Hill
#
# Bulk Modulus (GPa) = 31.29477 63.62942 47.46209
# Shear Modulus (GPa) = 27.39833 40.84243 34.12038
#
# Velocity S-wave (km/s) = 3.13265 3.82477 3.49588
# Velocity P-wave (km/s) = 4.92887 6.50353 5.77016
#
# Compressibility (1/GPa) = 0.03195422
#
# Stress axis : x y z
#
# Youngs Moduli (GPa) = 41.65711 105.92410 107.58892
#
# Poissons Ratio (x) = -0.21914 0.40151
# Poissons Ratio (y) = -0.08618 0.40133
# Poissons Ratio (z) = 0.15546 0.39512
#
# Static dielectric constant tensor:
#      x y z
#    x 4.867880 -0.204840 0.381380 
#    y -0.204840 4.850950 -0.064600 
#    z 0.381380 -0.064600 5.605840 
# 
# 
# High freq. dielectric constant tensor:
#      x y z
#    x 2.128750 -0.023010 0.021560 
#    y -0.023010 2.135230 -0.001010 
#    z 0.021560 -0.001010 2.156210 
# 
# From -- ./inp_files/298745.got.cif
#   From: 2010.06.25/outbox.cif.g09.slc.cpg/sg2_150_cif.got.tgz:298745.got - 2010.06.27 13:26:56.
