data_PCOD8016238
_publ_section_title
;
Structure prediction by ZEFSAII (Michael W. Deem and Ramdas Pophale) SiO2 
 PCOD8016238
Probable space group: P -1
;
_chemical_formula_sum "Si O2"
_cell_formula_units_Z 16
_cell_length_a 6.446830
_cell_length_b 9.209471
_cell_length_c 18.049690
_cell_angle_alpha 59.816468
_cell_angle_beta 99.048023
_cell_angle_gamma 126.829475
_cell_volume 725.209197
_symmetry_space_group_name_H-M "P -1"
_symmetry_group_IT_number 2
_symmetry_cell_setting 'triclinic'
loop_
_space_group_symop_operation_xyz
x,y,z
-x,-y,-z
loop_
_atom_site_type_symbol
_atom_site_label
_atom_site_fract_x
_atom_site_fract_y
_atom_site_fract_z
Si Si1 0.608798 0.684764 0.744147
Si Si2 0.064808 0.029805 0.580757
Si Si3 0.209161 0.735500 0.986138
Si Si4 0.840082 0.710615 0.245719
Si Si5 0.822141 0.055091 0.936139
Si Si6 0.081911 0.894430 0.812078
Si Si7 0.572524 0.050519 0.311536
Si Si8 0.007528 0.332680 0.589701
O O1 0.429052 0.436985 0.778557
O O2 0.406495 0.743418 0.718657
O O3 0.768191 0.720639 0.819748
O O4 0.826164 0.817461 0.660123
O O5 0.115440 0.240171 0.563740
O O6 0.316461 0.030098 0.602887
O O7 0.000000 0.000000 0.500000
O O8 0.138818 0.873621 0.904598
O O9 0.519152 0.837698 0.967057
O O10 0.163599 0.763377 0.062268
O O11 0.000000 0.500000 0.000000
O O12 0.082466 0.845320 0.166500
O O13 0.835926 0.567405 0.348601
O O14 0.834350 0.873218 0.254554
O O15 0.000000 0.000000 0.000000
O O16 0.273553 0.879442 0.775058
O O17 0.265959 0.857854 0.339522
O O18 0.000000 0.500000 0.500000
#
# Coordination Sequence:
#
# PCOD8016238 Si02
#       8
#     2   2   2   2   2   2   2   2
#     4  10  25  41  67  99 127 184 230 274 350 404
#     4  10  23  42  62  94 133 171 229 289 333 409
#     4  11  27  44  73 103 142 181 229 282 345 419
#     4  12  24  46  68  97 143 176 224 291 337 407
#     4  11  26  47  68 108 138 179 231 283 345 412
#     4  11  23  46  66  98 137 179 227 278 339 412
#     4  10  21  44  63  89 136 172 226 281 335 406
#     4  11  25  42  65  99 133 182 227 275 350 398
#
# _framework density 22.0626
#
# number of rings (size 3 to 8) (size 9 to 14) (size 15 to 20)
#    0.000    1.250    5.000    0.750    7.000    3.000 
#    4.500    0.000    0.000    0.000    0.000    0.000 
#    0.000    0.000    0.000    0.000    0.000    0.000 
#
# Total GULP energy -198225.800528 kJ/mol
# GULP energy per Si atom -12389.112533 kJ/mol
# Density = 2.201238 g / cm^3
# Si number density = 22.062600 Si / 1000 Ang^3
#
#
#
# Elastic Constant Matrix: (Units=GPa)
#
#
# Indices 1 2 3 4 5 6 
#
# 1 100.9904 38.7047 16.4081 11.6611 16.3729 7.6742
# 2 38.7047 127.0392 11.9645 9.2724 -2.2427 19.5390
# 3 16.4081 11.9645 101.1917 21.0266 13.8286 -1.9289
# 4 11.6611 9.2724 21.0266 29.4931 6.5150 -5.9859
# 5 16.3729 -2.2427 13.8286 6.5150 26.1868 7.0594
# 6 7.6742 19.5390 -1.9289 -5.9859 7.0594 25.1638
#
#
#
# Elastic Compliance Matrix: (Units=1/GPa)
#
#
# Indices 1 2 3 4 5 6 
#
# 1 0.012957 -0.004146 -0.000106 -0.001666 -0.008307 0.001194
# 2 -0.004146 0.011545 -0.000927 -0.005550 0.008549 -0.011490
# 3 -0.000106 -0.000927 0.012174 -0.006915 -0.005119 0.001476
# 4 -0.001666 -0.005550 -0.006915 0.048025 -0.012945 0.019343
# 5 -0.008307 0.008549 -0.005119 -0.012945 0.056340 -0.023382
# 6 0.001194 -0.011490 0.001476 0.019343 -0.023382 0.059571
#
#
# Mechanical properties :
#
#
# Convention : Reuss Voigt Hill
#
# Bulk Modulus (GPa) = 37.99868 51.48620 44.74244
# Shear Modulus (GPa) = 22.75388 33.64500 28.19944
#
# Velocity S-wave (km/s) = 3.21492 3.90933 3.57901
# Velocity P-wave (km/s) = 5.57149 6.61546 6.11579
#
# Compressibility (1/GPa) = 0.02631670
#
# Stress axis : x y z
#
# Youngs Moduli (GPa) = 77.18015 86.61603 82.14451
#
# Poissons Ratio (x) = 0.35912 0.00875
# Poissons Ratio (y) = 0.32000 0.07613
# Poissons Ratio (z) = 0.00822 0.08027
#
# Static dielectric constant tensor:
#      x y z
#    x 0.149260 -5.533010 -4.101410 
#    y -5.533010 -3.549580 -5.687480 
#    z -4.101410 -5.687480 -0.543880 
# 
# 
# High freq. dielectric constant tensor:
#      x y z
#    x 1.873520 0.002580 0.006590 
#    y 0.002580 1.865200 0.016150 
#    z 0.006590 0.016150 1.872800 
# 
# From -- ./inp_files/53995.got.cif
#   From: 2010.06.25/outbox.cif.g09.slc.cpg/sg2_27_cif.got.tgz:53995.got - 2010.06.27 13:26:56.
