data_PCOD8016432
_publ_section_title
;
Structure prediction by ZEFSAII (Michael W. Deem and Ramdas Pophale) SiO2 
 PCOD8016432
Probable space group: P -1
;
_chemical_formula_sum "Si O2"
_cell_formula_units_Z 16
_cell_length_a 21.277926
_cell_length_b 12.745292
_cell_length_c 18.522636
_cell_angle_alpha 152.489106
_cell_angle_beta 19.982627
_cell_angle_gamma 153.743548
_cell_volume 726.394439
_symmetry_space_group_name_H-M "P -1"
_symmetry_group_IT_number 2
_symmetry_cell_setting 'triclinic'
loop_
_space_group_symop_operation_xyz
x,y,z
-x,-y,-z
loop_
_atom_site_type_symbol
_atom_site_label
_atom_site_fract_x
_atom_site_fract_y
_atom_site_fract_z
Si Si1 0.873188 0.211483 0.972403
Si Si2 0.153622 0.011909 0.977416
Si Si3 0.075069 0.162869 0.590805
Si Si4 0.134295 0.725541 0.539642
Si Si5 0.474417 0.878772 0.162496
Si Si6 0.320752 0.893973 0.183693
Si Si7 0.596274 0.435197 0.746099
Si Si8 0.097483 0.517448 0.672615
O O1 0.642082 0.148682 0.165435
O O2 0.000000 0.500000 0.000000
O O3 0.924265 0.068270 0.763055
O O4 0.897622 0.097953 0.953240
O O5 0.000746 0.138754 0.199360
O O6 0.384108 0.199960 0.832561
O O7 0.113153 0.796429 0.830556
O O8 0.116079 0.440302 0.689341
O O9 0.270100 0.134685 0.394728
O O10 0.000000 0.000000 0.500000
O O11 0.301733 0.897417 0.409544
O O12 0.236547 0.626798 0.430428
O O13 0.000000 0.500000 0.500000
O O14 0.403509 0.823586 0.123579
O O15 0.554956 0.664105 0.965136
O O16 0.120579 0.656837 0.231169
O O17 0.500000 0.000000 0.000000
O O18 0.707571 0.499342 0.587297
#
# Coordination Sequence:
#
# PCOD8016432 Si02
#       8
#     2   2   2   2   2   2   2   2
#     4  12  24  45  73 101 142 182 231 296 359 416
#     4  12  26  47  71 106 146 186 231 300 362 423
#     4  10  21  44  70  97 137 188 233 279 348 424
#     4  12  24  44  70 103 139 183 244 289 350 427
#     4  12  23  45  71 104 138 185 243 294 352 423
#     4  11  23  42  70 105 137 188 242 285 345 433
#     4  12  25  47  72 101 141 192 243 290 352 428
#     4  11  24  45  69 104 145 186 233 298 361 415
#
# _framework density 22.026600999999999
#
# number of rings (size 3 to 8) (size 9 to 14) (size 15 to 20)
#    0.000    0.500    3.750    6.750    0.000    0.500 
#    6.750    1.250    0.000    0.000    0.000    0.000 
#    0.000    0.000    0.000    0.000    0.000    0.000 
#
# Total GULP energy -198223.743498 kJ/mol
# GULP energy per Si atom -12388.983969 kJ/mol
# Density = 2.197647 g / cm^3
# Si number density = 22.026601 Si / 1000 Ang^3
#
#
#
# Elastic Constant Matrix: (Units=GPa)
#
#
# Indices 1 2 3 4 5 6 
#
# 1 83.7769 27.2619 18.5116 -7.7047 -19.7914 -4.7802
# 2 27.2619 124.5173 39.2080 -17.5889 -17.5860 16.9294
# 3 18.5116 39.2080 116.5041 -11.5339 -18.1612 8.8013
# 4 -7.7047 -17.5889 -11.5339 46.9147 -6.8551 5.2304
# 5 -19.7914 -17.5860 -18.1612 -6.8551 41.6128 -3.6012
# 6 -4.7802 16.9294 8.8013 5.2304 -3.6012 35.8992
#
#
#
# Elastic Compliance Matrix: (Units=1/GPa)
#
#
# Indices 1 2 3 4 5 6 
#
# 1 0.014722 -0.002340 -0.000642 0.001913 0.006358 0.003580
# 2 -0.002340 0.010897 -0.002038 0.004204 0.002839 -0.005279
# 3 -0.000642 -0.002038 0.010285 0.002363 0.003570 -0.001632
# 4 0.001913 0.004204 0.002363 0.025463 0.007456 -0.005269
# 5 0.006358 0.002839 0.003570 0.007456 0.031098 0.000666
# 6 0.003580 -0.005279 -0.001632 -0.005269 0.000666 0.032056
#
#
# Mechanical properties :
#
#
# Convention : Reuss Voigt Hill
#
# Bulk Modulus (GPa) = 38.66277 54.97347 46.81812
# Shear Modulus (GPa) = 34.92032 40.87313 37.89672
#
# Velocity S-wave (km/s) = 3.98599 4.31237 4.15239
# Velocity P-wave (km/s) = 6.22696 7.05743 6.65516
#
# Compressibility (1/GPa) = 0.02586468
#
# Stress axis : x y z
#
# Youngs Moduli (GPa) = 67.92644 91.76474 97.22897
#
# Poissons Ratio (x) = 0.21471 0.06240
# Poissons Ratio (y) = 0.15893 0.19817
# Poissons Ratio (z) = 0.04360 0.18704
#
# Static dielectric constant tensor:
#      x y z
#    x 5.390880 -0.282900 0.609650 
#    y -0.282900 4.336910 0.095860 
#    z 0.609650 0.095860 5.257100 
# 
# 
# High freq. dielectric constant tensor:
#      x y z
#    x 1.866660 -0.012840 0.002420 
#    y -0.012840 1.874070 -0.015620 
#    z 0.002420 -0.015620 1.879890 
# 
# From -- ./inp_files/578029.got.cif
#   From: 2010.06.25/outbox.cif.g09.slc.cpg/sg2_290_cif.got.tgz:578029.got - 2010.06.27 13:26:56.
