data_PCOD8016549
_publ_section_title
;
Structure prediction by ZEFSAII (Michael W. Deem and Ramdas Pophale) SiO2 
 PCOD8016549
Probable space group: P -1
;
_chemical_formula_sum "Si O2"
_cell_formula_units_Z 14
_cell_length_a 8.927446
_cell_length_b 13.201158
_cell_length_c 9.586973
_cell_angle_alpha 145.139968
_cell_angle_beta 97.621956
_cell_angle_gamma 79.252560
_cell_volume 634.046408
_symmetry_space_group_name_H-M "P -1"
_symmetry_group_IT_number 2
_symmetry_cell_setting 'triclinic'
loop_
_space_group_symop_operation_xyz
x,y,z
-x,-y,-z
loop_
_atom_site_type_symbol
_atom_site_label
_atom_site_fract_x
_atom_site_fract_y
_atom_site_fract_z
Si Si1 0.909249 0.008599 0.639860
Si Si2 0.401581 0.185972 0.172321
Si Si3 0.638744 0.282468 0.501065
Si Si4 0.849053 0.629183 0.168657
Si Si5 0.624813 0.664096 0.957417
Si Si6 0.664329 0.316161 0.864496
Si Si7 0.882154 0.966839 0.064777
O O1 0.883432 0.806124 0.458615
O O2 0.016271 0.094386 0.858765
O O3 0.756115 0.147544 0.765542
O O4 0.000000 0.000000 0.500000
O O5 0.471012 0.309995 0.434782
O O6 0.432357 0.217724 0.048148
O O7 0.500000 0.000000 0.000000
O O8 0.219278 0.186370 0.170544
O O9 0.699372 0.469596 0.692347
O O10 0.629625 0.248312 0.627575
O O11 0.759922 0.138155 0.278079
O O12 0.761432 0.730164 0.137728
O O13 0.745190 0.497022 0.082414
O O14 0.000000 0.500000 0.000000
O O15 0.490897 0.635577 0.016174
O O16 0.000000 0.000000 0.000000
#
# Coordination Sequence:
#
# PCOD8016549 Si02
#       7
#     2   2   2   2   2   2   2
#     4  12  22  42  69  97 139 177 220 281 339 384
#     4  10  24  43  66  93 133 177 221 269 331 400
#     4  10  21  45  66  94 134 172 215 281 333 389
#     4  11  22  40  68 101 135 175 218 280 335 391
#     4  11  24  44  68 100 133 172 225 277 335 402
#     4  11  25  42  70 104 135 172 227 278 334 405
#     4  11  25  43  64  94 133 174 226 272 327 403
#
# _framework density 22.080401999999999
#
# number of rings (size 3 to 8) (size 9 to 14) (size 15 to 20)
#    0.000    1.143    2.857    3.857    6.000    2.857 
#    2.571    0.714    0.000    0.000    0.000    0.000 
#    0.000    0.000    0.000    0.000    0.000    0.000 
#
# Total GULP energy -173436.648397 kJ/mol
# GULP energy per Si atom -12388.332028 kJ/mol
# Density = 2.203015 g / cm^3
# Si number density = 22.080402 Si / 1000 Ang^3
#
#
#
# Elastic Constant Matrix: (Units=GPa)
#
#
# Indices 1 2 3 4 5 6 
#
# 1 128.2823 52.5162 30.9918 -15.5118 13.7314 -0.1694
# 2 52.5162 119.8358 21.3323 -10.6385 0.9785 -5.0383
# 3 30.9918 21.3323 54.2643 2.4056 8.0949 -2.5078
# 4 -15.5118 -10.6385 2.4056 39.6803 -8.2494 -1.8619
# 5 13.7314 0.9785 8.0949 -8.2494 34.9728 -3.3185
# 6 -0.1694 -5.0383 -2.5078 -1.8619 -3.3185 49.1468
#
#
#
# Elastic Compliance Matrix: (Units=1/GPa)
#
#
# Indices 1 2 3 4 5 6 
#
# 1 0.011100 -0.003772 -0.004646 0.003056 -0.002517 -0.000640
# 2 -0.003772 0.010643 -0.002415 0.002068 0.002343 0.001191
# 3 -0.004646 -0.002415 0.022934 -0.004770 -0.004502 0.000422
# 4 0.003056 0.002068 -0.004770 0.028718 0.006765 0.001524
# 5 -0.002517 0.002343 -0.004502 0.006765 0.032386 0.002445
# 6 -0.000640 0.001191 0.000422 0.001524 0.002445 0.020711
#
#
# Mechanical properties :
#
#
# Convention : Reuss Voigt Hill
#
# Bulk Modulus (GPa) = 43.46205 56.89589 50.17897
# Shear Modulus (GPa) = 32.08629 37.92944 35.00787
#
# Velocity S-wave (km/s) = 3.81617 4.14912 3.98612
# Velocity P-wave (km/s) = 6.25650 6.98406 6.63027
#
# Compressibility (1/GPa) = 0.02300858
#
# Stress axis : x y z
#
# Youngs Moduli (GPa) = 90.08747 93.96284 43.60348
#
# Poissons Ratio (x) = 0.35447 0.20259
# Poissons Ratio (y) = 0.33985 0.10532
# Poissons Ratio (z) = 0.41857 0.22696
#
# Static dielectric constant tensor:
#      x y z
#    x 5.560770 -1.502880 2.262540 
#    y -1.502880 5.446620 -1.845900 
#    z 2.262540 -1.845900 7.129040 
# 
# 
# High freq. dielectric constant tensor:
#      x y z
#    x 1.880380 -0.017960 0.019250 
#    y -0.017960 1.866530 0.002440 
#    z 0.019250 0.002440 1.863820 
# 
# From -- ./inp_files/153734.got.cif
#   From: 2010.06.25/outbox.cif.g09.slc.cpg/sg2_77_cif.got.tgz:153734.got - 2010.06.27 13:26:56.
