data_PCOD8016975
_publ_section_title
;
Structure prediction by ZEFSAII (Michael W. Deem and Ramdas Pophale) SiO2 
 PCOD8016975
Probable space group: P -1
;
_chemical_formula_sum "Si O2"
_cell_formula_units_Z 16
_cell_length_a 14.955819
_cell_length_b 14.890181
_cell_length_c 9.779662
_cell_angle_alpha 97.710517
_cell_angle_beta 78.473599
_cell_angle_gamma 28.376416
_cell_volume 756.853342
_symmetry_space_group_name_H-M "P -1"
_symmetry_group_IT_number 2
_symmetry_cell_setting 'triclinic'
loop_
_space_group_symop_operation_xyz
x,y,z
-x,-y,-z
loop_
_atom_site_type_symbol
_atom_site_label
_atom_site_fract_x
_atom_site_fract_y
_atom_site_fract_z
Si Si1 0.236669 0.343892 0.547016
Si Si2 0.327779 0.087021 0.137757
Si Si3 0.276934 0.941638 0.051390
Si Si4 0.558771 0.046974 0.639448
Si Si5 0.329872 0.756121 0.514571
Si Si6 0.606007 0.620091 0.627266
Si Si7 0.140551 0.810545 0.805214
Si Si8 0.842242 0.953405 0.595756
O O1 0.313332 0.294517 0.671244
O O2 0.367737 0.296997 0.398389
O O3 0.934634 0.624084 0.673294
O O4 0.332454 0.154474 0.452577
O O5 0.252504 0.072547 0.061867
O O6 0.504369 0.887196 0.167326
O O7 0.500000 0.000000 0.000000
O O8 0.340063 0.861941 0.176475
O O9 0.489247 0.711076 0.832542
O O10 0.004325 0.150432 0.145259
O O11 0.767446 0.932818 0.527084
O O12 0.433542 0.732411 0.588321
O O13 0.134220 0.869269 0.673327
O O14 0.561358 0.486011 0.316683
O O15 0.171203 0.949608 0.481732
O O16 0.877349 0.319381 0.483787
O O17 0.000000 0.000000 0.000000
#
# Coordination Sequence:
#
# PCOD8016975 Si02
#       8
#     2   2   2   2   2   2   2   2
#     4  11  21  39  64  92 131 174 222 264 322 392
#     4  11  23  40  63  94 134 171 212 273 327 380
#     4  11  24  42  65  99 132 169 223 269 327 395
#     4  10  22  37  62  93 126 175 218 265 323 388
#     4  11  24  44  72  95 131 175 215 273 333 391
#     4  12  22  43  69  94 133 179 213 271 332 384
#     4  11  23  45  71  99 131 174 218 272 334 391
#     4  11  24  43  65 100 132 171 224 270 330 388
#
# _framework density 21.140160000000002
#
# number of rings (size 3 to 8) (size 9 to 14) (size 15 to 20)
#    0.000    1.000    6.250    1.125    1.750    2.000 
#    0.000    1.250    0.000    0.000    0.000    0.000 
#    0.000    0.000    0.000    0.000    0.000    0.000 
#
# Total GULP energy -198256.621972 kJ/mol
# GULP energy per Si atom -12391.038873 kJ/mol
# Density = 2.109204 g / cm^3
# Si number density = 21.140160 Si / 1000 Ang^3
#
#
#
# Elastic Constant Matrix: (Units=GPa)
#
#
# Indices 1 2 3 4 5 6 
#
# 1 97.7436 14.8623 40.2502 -1.0349 -19.0608 6.7856
# 2 14.8623 96.6019 34.6649 -20.9382 -6.9592 7.9821
# 3 40.2502 34.6649 124.1975 -6.9193 -8.4574 6.8372
# 4 -1.0349 -20.9382 -6.9193 20.5510 3.9824 0.3775
# 5 -19.0608 -6.9592 -8.4574 3.9824 38.8729 -2.7654
# 6 6.7856 7.9821 6.8372 0.3775 -2.7654 33.8110
#
#
#
# Elastic Compliance Matrix: (Units=1/GPa)
#
#
# Indices 1 2 3 4 5 6 
#
# 1 0.013015 -0.000674 -0.003711 -0.002346 0.005607 -0.001217
# 2 -0.000674 0.014824 -0.002970 0.014119 0.000023 -0.002920
# 3 -0.003711 -0.002970 0.010116 0.000247 -0.000220 -0.000620
# 4 -0.002346 0.014119 0.000247 0.064136 -0.005429 -0.004072
# 5 0.005607 0.000023 -0.000220 -0.005429 0.029083 0.001353
# 6 -0.001217 -0.002920 -0.000620 -0.004072 0.001353 0.030791
#
#
# Mechanical properties :
#
#
# Convention : Reuss Voigt Hill
#
# Bulk Modulus (GPa) = 43.02253 55.34420 49.18336
# Shear Modulus (GPa) = 27.11111 33.89803 30.50457
#
# Velocity S-wave (km/s) = 3.58501 4.00870 3.80276
# Velocity P-wave (km/s) = 6.12631 6.90382 6.52665
#
# Compressibility (1/GPa) = 0.02324364
#
# Stress axis : x y z
#
# Youngs Moduli (GPa) = 76.83518 67.45604 98.84864
#
# Poissons Ratio (x) = 0.04549 0.36688
# Poissons Ratio (y) = 0.05181 0.29361
# Poissons Ratio (z) = 0.28517 0.20036
#
# Static dielectric constant tensor:
#      x y z
#    x 2.742510 0.012160 -1.976070 
#    y 0.012160 3.858600 -0.387230 
#    z -1.976070 -0.387230 1.371150 
# 
# 
# High freq. dielectric constant tensor:
#      x y z
#    x 1.858170 0.003660 -0.000900 
#    y 0.003660 1.808020 -0.018420 
#    z -0.000900 -0.018420 1.816510 
# 
# From -- ./inp_files/315447.got.cif
#   From: 2010.06.25/outbox.cif.g09.slc.cpg/sg2_158_cif.got.tgz:315447.got - 2010.06.27 13:26:56.
