data_PCOD8016670
_publ_section_title
;
Structure prediction by ZEFSAII (Michael W. Deem and Ramdas Pophale) SiO2 
 PCOD8016670
Probable space group: P -1
;
_chemical_formula_sum "Si O2"
_cell_formula_units_Z 14
_cell_length_a 15.801643
_cell_length_b 8.333855
_cell_length_c 10.491963
_cell_angle_alpha 88.537239
_cell_angle_beta 147.243990
_cell_angle_gamma 111.852755
_cell_volume 568.888633
_symmetry_space_group_name_H-M "P -1"
_symmetry_group_IT_number 2
_symmetry_cell_setting 'triclinic'
loop_
_space_group_symop_operation_xyz
x,y,z
-x,-y,-z
loop_
_atom_site_type_symbol
_atom_site_label
_atom_site_fract_x
_atom_site_fract_y
_atom_site_fract_z
Si Si1 0.282105 0.160496 0.147767
Si Si2 0.486682 0.230696 0.856564
Si Si3 0.050348 0.858337 0.369605
Si Si4 0.876870 0.520807 0.942922
Si Si5 0.621201 0.621232 0.495598
Si Si6 0.915940 0.604145 0.450046
Si Si7 0.705677 0.169637 0.921025
O O1 0.393707 0.401764 0.241874
O O2 0.310895 0.179078 0.336766
O O3 0.384563 0.064708 0.227645
O O4 0.046382 0.038293 0.807908
O O5 0.385163 0.316369 0.656201
O O6 0.577245 0.158041 0.875058
O O7 0.297799 0.033197 0.702615
O O8 0.672583 0.419529 0.177770
O O9 0.947554 0.761094 0.379196
O O10 0.014921 0.692861 0.225140
O O11 0.778456 0.583526 0.721528
O O12 0.706816 0.296190 0.802794
O O13 0.000000 0.500000 0.000000
O O14 0.000000 0.500000 0.500000
O O15 0.056129 0.722078 0.749268
#
# Coordination Sequence:
#
# PCOD8016670 Si02
#       7
#     2   2   2   2   2   2   2
#     4  10  22  40  66  95 131 174 217 269 337 385
#     4  11  23  42  70  97 129 181 218 267 333 383
#     4  11  23  43  66  98 130 179 217 267 338 386
#     4  11  25  41  64 101 137 168 220 280 325 395
#     4  10  22  42  65  91 141 172 211 274 334 394
#     4  10  21  46  66  93 138 171 223 270 324 389
#     4  11  24  42  68  97 132 176 221 275 322 391
#
# _framework density 24.609387000000002
#
# number of rings (size 3 to 8) (size 9 to 14) (size 15 to 20)
#    0.000    1.429    4.286    1.714    6.000    5.143 
#    0.000    0.714    0.000    0.000    0.000    0.000 
#    0.000    0.000    0.000    0.000    0.000    0.000 
#
# Total GULP energy -173457.511736 kJ/mol
# GULP energy per Si atom -12389.822267 kJ/mol
# Density = 2.455337 g / cm^3
# Si number density = 24.609387 Si / 1000 Ang^3
#
#
#
# Elastic Constant Matrix: (Units=GPa)
#
#
# Indices 1 2 3 4 5 6 
#
# 1 35.0943 8.8429 1.7556 3.3057 14.6710 -12.7580
# 2 8.8429 90.2064 19.6025 -1.7499 -1.7811 -18.3045
# 3 1.7556 19.6025 125.2191 0.4502 18.4151 2.1568
# 4 3.3057 -1.7499 0.4502 29.2091 12.1003 5.0908
# 5 14.6710 -1.7811 18.4151 12.1003 33.7020 2.1824
# 6 -12.7580 -18.3045 2.1568 5.0908 2.1824 29.1533
#
#
#
# Elastic Compliance Matrix: (Units=1/GPa)
#
#
# Indices 1 2 3 4 5 6 
#
# 1 0.045714 -0.001301 0.002578 0.000618 -0.022934 0.020607
# 2 -0.001301 0.013461 -0.002628 -0.001563 0.002747 0.008144
# 3 0.002578 -0.002628 0.009443 0.002622 -0.007289 -0.001132
# 4 0.000618 -0.001563 0.002622 0.042063 -0.016432 -0.007020
# 5 -0.022934 0.002747 -0.007289 -0.016432 0.050244 -0.008664
# 6 0.020607 0.008144 -0.001132 -0.007020 -0.008664 0.050391
#
#
# Mechanical properties :
#
#
# Convention : Reuss Voigt Hill
#
# Bulk Modulus (GPa) = 15.17060 34.54689 24.85874
# Shear Modulus (GPa) = 21.18751 33.10081 27.14416
#
# Velocity S-wave (km/s) = 2.93738 3.67147 3.32475
# Velocity P-wave (km/s) = 4.20502 5.66052 4.98617
#
# Compressibility (1/GPa) = 0.06591698
#
# Stress axis : x y z
#
# Youngs Moduli (GPa) = 21.87522 74.29028 105.89556
#
# Poissons Ratio (x) = 0.09665 -0.27303
# Poissons Ratio (y) = 0.02846 0.27826
# Poissons Ratio (z) = -0.05640 0.19521
#
# Static dielectric constant tensor:
#      x y z
#    x 3.804060 -0.086650 -0.027050 
#    y -0.086650 4.385780 0.093320 
#    z -0.027050 0.093320 5.333750 
# 
# 
# High freq. dielectric constant tensor:
#      x y z
#    x 1.937190 -0.011300 0.001110 
#    y -0.011300 1.978800 -0.012020 
#    z 0.001110 -0.012020 1.996400 
# 
# From -- ./inp_files/461329.got.cif
#   From: 2010.06.25/outbox.cif.g09.slc.cpg/sg2_231_cif.got.tgz:461329.got - 2010.06.27 13:26:56.
