data_PCOD8016542
_publ_section_title
;
Structure prediction by ZEFSAII (Michael W. Deem and Ramdas Pophale) SiO2 
 PCOD8016542
Probable space group: P -1
;
_chemical_formula_sum "Si O2"
_cell_formula_units_Z 16
_cell_length_a 9.123636
_cell_length_b 13.897604
_cell_length_c 12.111848
_cell_angle_alpha 56.243389
_cell_angle_beta 121.181581
_cell_angle_gamma 75.313237
_cell_volume 708.784320
_symmetry_space_group_name_H-M "P -1"
_symmetry_group_IT_number 2
_symmetry_cell_setting 'triclinic'
loop_
_space_group_symop_operation_xyz
x,y,z
-x,-y,-z
loop_
_atom_site_type_symbol
_atom_site_label
_atom_site_fract_x
_atom_site_fract_y
_atom_site_fract_z
Si Si1 0.000300 0.234191 0.211160
Si Si2 0.038967 0.269527 0.668847
Si Si3 0.770590 0.124014 0.503757
Si Si4 0.116908 0.155936 0.540515
Si Si5 0.922835 0.009162 0.086115
Si Si6 0.526933 0.368490 0.834159
Si Si7 0.656068 0.743454 0.028551
Si Si8 0.793885 0.668222 0.890748
O O1 0.016367 0.277710 0.314694
O O2 0.203196 0.199772 0.233234
O O3 0.711482 0.376742 0.950186
O O4 0.094032 0.055847 0.384505
O O5 0.721125 0.443989 0.442247
O O6 0.126488 0.240168 0.593621
O O7 0.144582 0.091854 0.867040
O O8 0.175784 0.297366 0.776646
O O9 0.463805 0.275198 0.265798
O O10 0.895416 0.174479 0.469542
O O11 0.822995 0.092735 0.675105
O O12 0.406104 0.951880 0.767783
O O13 0.676313 0.212177 0.902173
O O14 0.000000 0.000000 0.000000
O O15 0.441003 0.334051 0.926431
O O16 0.845490 0.640774 0.060030
O O17 0.000000 0.500000 0.000000
#
# Coordination Sequence:
#
# PCOD8016542 Si02
#       8
#     2   2   2   2   2   2   2   2
#     4  11  23  43  69  99 132 182 230 284 352 404
#     4  11  26  42  72 106 139 188 227 282 353 410
#     4  10  21  45  65  99 131 175 233 277 346 408
#     4  11  22  43  77 100 131 185 236 284 342 420
#     4  10  24  43  71 102 139 186 233 285 342 420
#     4  11  25  46  70 103 139 186 239 282 348 411
#     4  12  24  48  69  99 148 179 236 290 338 425
#     4  12  29  41  65 104 139 179 227 292 355 403
#
# _framework density 22.573862999999999
#
# number of rings (size 3 to 8) (size 9 to 14) (size 15 to 20)
#    0.000    1.000    5.000    2.250    8.750    2.000 
#    0.000    0.000    0.000    0.000    0.000    0.000 
#    0.000    0.000    0.000    0.000    0.000    0.000 
#
# Total GULP energy -198359.482627 kJ/mol
# GULP energy per Si atom -12397.467664 kJ/mol
# Density = 2.252248 g / cm^3
# Si number density = 22.573863 Si / 1000 Ang^3
#
#
#
# Elastic Constant Matrix: (Units=GPa)
#
#
# Indices 1 2 3 4 5 6 
#
# 1 98.1322 53.4594 27.2209 20.9925 -1.7109 -31.3617
# 2 53.4594 117.1114 30.0148 22.7681 -2.1916 -24.4229
# 3 27.2209 30.0148 92.2600 15.5194 19.4641 -5.9614
# 4 20.9925 22.7681 15.5194 38.3632 -2.2609 -6.7801
# 5 -1.7109 -2.1916 19.4641 -2.2609 31.6604 8.7129
# 6 -31.3617 -24.4229 -5.9614 -6.7801 8.7129 37.1773
#
#
#
# Elastic Compliance Matrix: (Units=1/GPa)
#
#
# Indices 1 2 3 4 5 6 
#
# 1 0.017620 -0.004372 -0.001998 -0.004343 -0.001524 0.011236
# 2 -0.004372 0.012474 -0.002120 -0.003517 0.000758 0.003347
# 3 -0.001998 -0.002120 0.014987 -0.004139 -0.010016 0.000917
# 4 -0.004343 -0.003517 -0.004139 0.032154 0.004891 -0.001920
# 5 -0.001524 0.000758 -0.010016 0.004891 0.041128 -0.011141
# 6 0.011236 0.003347 0.000917 -0.001920 -0.011141 0.040984
#
#
# Mechanical properties :
#
#
# Convention : Reuss Voigt Hill
#
# Bulk Modulus (GPa) = 35.58763 58.76598 47.17680
# Shear Modulus (GPa) = 26.92604 34.56075 30.74339
#
# Velocity S-wave (km/s) = 3.45744 3.91705 3.69440
# Velocity P-wave (km/s) = 5.63362 6.82254 6.25638
#
# Compressibility (1/GPa) = 0.02809965
#
# Stress axis : x y z
#
# Youngs Moduli (GPa) = 56.75476 80.16651 66.72445
#
# Poissons Ratio (x) = 0.35049 0.13333
# Poissons Ratio (y) = 0.24813 0.14148
# Poissons Ratio (z) = 0.11341 0.16998
#
# Static dielectric constant tensor:
#      x y z
#    x 5.192680 -0.004680 0.266490 
#    y -0.004680 4.336510 0.182250 
#    z 0.266490 0.182250 4.190910 
# 
# 
# High freq. dielectric constant tensor:
#      x y z
#    x 1.880710 -0.000420 0.001330 
#    y -0.000420 1.900900 0.010110 
#    z 0.001330 0.010110 1.887880 
# 
# From -- ./inp_files/357448.got.cif
#   From: 2010.06.25/outbox.cif.g09.slc.cpg/sg2_179_cif.got.tgz:357448.got - 2010.06.27 13:26:56.
