data_PCOD8016954
_publ_section_title
;
Structure prediction by ZEFSAII (Michael W. Deem and Ramdas Pophale) SiO2 
 PCOD8016954
Probable space group: P -1
;
_chemical_formula_sum "Si O2"
_cell_formula_units_Z 14
_cell_length_a 5.134531
_cell_length_b 15.928403
_cell_length_c 16.510587
_cell_angle_alpha 152.667518
_cell_angle_beta 70.454139
_cell_angle_gamma 100.402189
_cell_volume 562.640092
_symmetry_space_group_name_H-M "P -1"
_symmetry_group_IT_number 2
_symmetry_cell_setting 'triclinic'
loop_
_space_group_symop_operation_xyz
x,y,z
-x,-y,-z
loop_
_atom_site_type_symbol
_atom_site_label
_atom_site_fract_x
_atom_site_fract_y
_atom_site_fract_z
Si Si1 0.325378 0.286344 0.228061
Si Si2 0.482278 0.414501 0.742963
Si Si3 0.628015 0.794664 0.274148
Si Si4 0.096398 0.690401 0.572789
Si Si5 0.154407 0.225919 0.493249
Si Si6 0.703378 0.081082 0.144104
Si Si7 0.252075 0.798077 0.165594
O O1 0.303072 0.481893 0.347948
O O2 0.536965 0.257982 0.257821
O O3 0.014098 0.315251 0.328185
O O4 0.428088 0.102701 0.000658
O O5 0.325784 0.357041 0.788355
O O6 0.820835 0.314799 0.627139
O O7 0.352659 0.345018 0.615756
O O8 0.413956 0.643684 0.949365
O O9 0.409484 0.747374 0.191744
O O10 0.928102 0.785248 0.192847
O O11 0.500000 0.000000 0.500000
O O12 0.839672 0.760854 0.594758
O O13 0.279189 0.847023 0.702238
O O14 0.264402 0.007708 0.319746
O O15 0.000000 0.000000 0.000000
#
# Coordination Sequence:
#
# PCOD8016954 Si02
#       7
#     2   2   2   2   2   2   2
#     4   9  19  39  61  87 117 154 218 255 303 372
#     4  12  26  44  66  99 131 171 220 258 327 387
#     4  12  21  43  75  93 128 170 218 271 313 375
#     4  10  22  37  61  85 120 167 201 258 318 362
#     4  12  26  44  62  97 138 171 212 266 324 394
#     4   9  18  36  61  91 114 148 210 263 303 370
#     4  12  24  44  68  97 131 172 213 271 321 375
#
# _framework density 24.882693
#
# number of rings (size 3 to 8) (size 9 to 14) (size 15 to 20)
#    0.000    1.143    2.857    3.429    2.000    1.143 
#    7.714    0.000    0.000    0.000    0.000    0.000 
#    0.000    0.000    0.000    0.000    0.000    0.000 
#
# Total GULP energy -173532.548321 kJ/mol
# GULP energy per Si atom -12395.182023 kJ/mol
# Density = 2.482606 g / cm^3
# Si number density = 24.882693 Si / 1000 Ang^3
#
#
#
# Elastic Constant Matrix: (Units=GPa)
#
#
# Indices 1 2 3 4 5 6 
#
# 1 76.7167 10.2817 41.3973 5.3885 16.5162 -32.2356
# 2 10.2817 62.4094 38.0898 3.9805 19.0835 -26.0480
# 3 41.3973 38.0898 183.2891 5.4544 26.7230 -26.6515
# 4 5.3885 3.9805 5.4544 33.7774 -8.7332 -0.2380
# 5 16.5162 19.0835 26.7230 -8.7332 36.9934 -9.6883
# 6 -32.2356 -26.0480 -26.6515 -0.2380 -9.6883 41.4501
#
#
#
# Elastic Compliance Matrix: (Units=1/GPa)
#
#
# Indices 1 2 3 4 5 6 
#
# 1 0.025096 0.010364 -0.002926 -0.007313 -0.010493 0.021655
# 2 0.010364 0.030105 -0.003148 -0.008203 -0.014164 0.021597
# 3 -0.002926 -0.003148 0.007128 -0.000966 -0.002516 -0.000264
# 4 -0.007313 -0.008203 -0.000966 0.035599 0.014540 -0.007860
# 5 -0.010493 -0.014164 -0.002516 0.014540 0.041972 -0.008785
# 6 0.021655 0.021597 -0.000264 -0.007860 -0.008785 0.052270
#
#
# Mechanical properties :
#
#
# Convention : Reuss Voigt Hill
#
# Bulk Modulus (GPa) = 14.10216 55.77256 34.93736
# Shear Modulus (GPa) = 24.12821 37.95394 31.04107
#
# Velocity S-wave (km/s) = 3.11734 3.90976 3.53582
# Velocity P-wave (km/s) = 4.31704 6.54557 5.54443
#
# Compressibility (1/GPa) = 0.07091114
#
# Stress axis : x y z
#
# Youngs Moduli (GPa) = 39.84621 33.21694 140.29171
#
# Poissons Ratio (x) = -0.34427 0.41048
# Poissons Ratio (y) = -0.41297 0.44157
# Poissons Ratio (z) = 0.11659 0.10455
#
# Static dielectric constant tensor:
#      x y z
#    x 5.254270 0.301810 0.262250 
#    y 0.301810 4.499310 0.040650 
#    z 0.262250 0.040650 5.859570 
# 
# 
# High freq. dielectric constant tensor:
#      x y z
#    x 2.003790 -0.007370 0.001940 
#    y -0.007370 1.964500 0.001770 
#    z 0.001940 0.001770 2.019990 
# 
# From -- ./inp_files/484603.got.cif
#   From: 2010.06.25/outbox.cif.g09.slc.cpg/sg2_243_cif.got.tgz:484603.got - 2010.06.27 13:26:56.
