data_PCOD8016536
_publ_section_title
;
Structure prediction by ZEFSAII (Michael W. Deem and Ramdas Pophale) SiO2 
 PCOD8016536
Probable space group: P -1
;
_chemical_formula_sum "Si O2"
_cell_formula_units_Z 16
_cell_length_a 8.347099
_cell_length_b 11.859191
_cell_length_c 14.914523
_cell_angle_alpha 58.515272
_cell_angle_beta 128.170910
_cell_angle_gamma 142.652092
_cell_volume 702.650937
_symmetry_space_group_name_H-M "P -1"
_symmetry_group_IT_number 2
_symmetry_cell_setting 'triclinic'
loop_
_space_group_symop_operation_xyz
x,y,z
-x,-y,-z
loop_
_atom_site_type_symbol
_atom_site_label
_atom_site_fract_x
_atom_site_fract_y
_atom_site_fract_z
Si Si1 0.121097 0.900484 0.060515
Si Si2 0.725619 0.273187 0.105161
Si Si3 0.137532 0.030548 0.185970
Si Si4 0.818315 0.319423 0.926244
Si Si5 0.320846 0.255521 0.717787
Si Si6 0.732578 0.184231 0.331900
Si Si7 0.180210 0.475907 0.515120
Si Si8 0.334247 0.143183 0.574735
O O1 0.013517 0.862502 0.141945
O O2 0.242662 0.810843 0.120760
O O3 0.384261 0.126344 0.059180
O O4 0.904426 0.845977 0.929215
O O5 0.861425 0.261727 0.243648
O O6 0.858691 0.480598 0.058357
O O7 0.794312 0.233515 0.049883
O O8 0.962822 0.938322 0.255868
O O9 0.473585 0.167899 0.269054
O O10 0.596043 0.340992 0.837618
O O11 0.283177 0.397019 0.641828
O O12 0.383714 0.214085 0.662786
O O13 0.986588 0.326192 0.430624
O O14 0.588105 0.973220 0.372189
O O15 0.467290 0.675672 0.494904
O O16 0.000000 0.500000 0.500000
O O17 0.000000 0.000000 0.500000
#
# Coordination Sequence:
#
# PCOD8016536 Si02
#       8
#     2   2   2   2   2   2   2   2
#     4  10  21  45  64  97 147 179 228 273 350 408
#     4  10  22  40  67  98 132 176 226 286 338 410
#     4  10  23  40  71 101 138 191 220 284 345 427
#     4  11  23  40  68 101 137 176 232 286 343 409
#     4  12  24  44  74 102 142 181 238 286 352 407
#     4  11  25  48  70  99 143 181 237 283 355 414
#     4  12  29  50  71 103 144 185 233 292 352 417
#     4  12  27  46  75 103 136 185 239 297 340 404
#
# _framework density 22.770907999999999
#
# number of rings (size 3 to 8) (size 9 to 14) (size 15 to 20)
#    0.000    1.000    2.500    3.750    5.250    2.000 
#    4.500    5.625    0.000    0.000    0.000    0.000 
#    0.000    0.000    0.000    0.000    0.000    0.000 
#
# Total GULP energy -198262.249988 kJ/mol
# GULP energy per Si atom -12391.390624 kJ/mol
# Density = 2.271908 g / cm^3
# Si number density = 22.770908 Si / 1000 Ang^3
#
#
#
# Elastic Constant Matrix: (Units=GPa)
#
#
# Indices 1 2 3 4 5 6 
#
# 1 96.7455 32.2280 30.1251 -1.5705 4.8742 -7.6576
# 2 32.2280 82.3725 22.0532 1.9042 2.8466 3.2189
# 3 30.1251 22.0532 89.5877 -1.0950 5.4359 -3.8446
# 4 -1.5705 1.9042 -1.0950 23.7008 1.6867 0.8970
# 5 4.8742 2.8466 5.4359 1.6867 40.6165 -1.2522
# 6 -7.6576 3.2189 -3.8446 0.8970 -1.2522 37.6120
#
#
#
# Elastic Compliance Matrix: (Units=1/GPa)
#
#
# Indices 1 2 3 4 5 6 
#
# 1 0.013032 -0.004359 -0.003134 0.001025 -0.000800 0.002655
# 2 -0.004359 0.014574 -0.002227 -0.001459 -0.000212 -0.002335
# 3 -0.003134 -0.002227 0.012879 0.000620 -0.001192 0.000815
# 4 0.001025 -0.001459 0.000620 0.042567 -0.001892 -0.000681
# 5 -0.000800 -0.000212 -0.001192 -0.001892 0.024988 0.000610
# 6 0.002655 -0.002335 0.000815 -0.000681 0.000610 0.027447
#
#
# Mechanical properties :
#
#
# Convention : Reuss Voigt Hill
#
# Bulk Modulus (GPa) = 47.51866 48.61313 48.06590
# Shear Modulus (GPa) = 30.87519 32.67250 31.77384
#
# Velocity S-wave (km/s) = 3.68626 3.79203 3.73952
# Velocity P-wave (km/s) = 6.24751 6.36929 6.30869
#
# Compressibility (1/GPa) = 0.02104436
#
# Stress axis : x y z
#
# Youngs Moduli (GPa) = 76.73712 68.61522 77.64501
#
# Poissons Ratio (x) = 0.29912 0.24333
# Poissons Ratio (y) = 0.33452 0.17291
# Poissons Ratio (z) = 0.24049 0.15280
#
# Static dielectric constant tensor:
#      x y z
#    x 4.228420 -0.066250 -0.129430 
#    y -0.066250 4.077880 -0.019880 
#    z -0.129430 -0.019880 4.333410 
# 
# 
# High freq. dielectric constant tensor:
#      x y z
#    x 1.903370 0.006770 -0.006940 
#    y 0.006770 1.884640 0.006370 
#    z -0.006940 0.006370 1.907770 
# 
# From -- ./inp_files/500094.got.cif
#   From: 2010.06.25/outbox.cif.g09.slc.cpg/sg2_251_cif.got.tgz:500094.got - 2010.06.27 13:26:56.
