data_PCOD8016919
_publ_section_title
;
Structure prediction by ZEFSAII (Michael W. Deem and Ramdas Pophale) SiO2 
 PCOD8016919
Probable space group: P -1
;
_chemical_formula_sum "Si O2"
_cell_formula_units_Z 12
_cell_length_a 9.114237
_cell_length_b 5.079255
_cell_length_c 13.911267
_cell_angle_alpha 83.488933
_cell_angle_beta 60.609778
_cell_angle_gamma 83.360434
_cell_volume 556.158393
_symmetry_space_group_name_H-M "P -1"
_symmetry_group_IT_number 2
_symmetry_cell_setting 'triclinic'
loop_
_space_group_symop_operation_xyz
x,y,z
-x,-y,-z
loop_
_atom_site_type_symbol
_atom_site_label
_atom_site_fract_x
_atom_site_fract_y
_atom_site_fract_z
Si Si1 0.439619 0.336420 0.937837
Si Si2 0.745666 0.974620 0.843161
Si Si3 0.837047 0.502160 0.119144
Si Si4 0.118583 0.043944 0.769744
Si Si5 0.120192 0.323939 0.361643
Si Si6 0.103118 0.151584 0.570508
O O1 0.333055 0.515795 0.887458
O O2 0.604332 0.193587 0.839668
O O3 0.500000 0.500000 0.000000
O O4 0.315331 0.127538 0.029929
O O5 0.760489 0.742895 0.766256
O O6 0.920830 0.101064 0.804743
O O7 0.846304 0.262505 0.201321
O O8 0.824279 0.776864 0.169764
O O9 0.000000 0.500000 0.000000
O O10 0.211943 0.120234 0.636392
O O11 0.056770 0.632255 0.370196
O O12 0.209736 0.246156 0.439968
O O13 0.962244 0.139179 0.415205
#
# Coordination Sequence:
#
# PCOD8016919 Si02
#       6
#     2   2   2   2   2   2
#     4  11  25  38  57  83 119 159 195 235 286 349
#     4  10  22  37  59  85 117 152 195 240 288 341
#     4  12  24  38  58  84 117 155 195 234 291 342
#     4  11  22  38  61  86 116 150 189 245 288 340
#     4   9  18  33  57  87 114 146 187 242 287 336
#     4   9  18  33  57  88 115 142 189 240 293 333
#
# _framework density 21.576585000000001
#
# number of rings (size 3 to 8) (size 9 to 14) (size 15 to 20)
#    0.000    1.667    1.667    3.500    9.333    0.000 
#    0.000    0.000    0.000    2.000    0.000    0.000 
#    0.000    0.000    0.000    0.000    0.000    0.000 
#
# Total GULP energy -148706.668251 kJ/mol
# GULP energy per Si atom -12392.222354 kJ/mol
# Density = 2.152748 g / cm^3
# Si number density = 21.576585 Si / 1000 Ang^3
#
#
#
# Elastic Constant Matrix: (Units=GPa)
#
#
# Indices 1 2 3 4 5 6 
#
# 1 81.8188 22.7718 25.4388 -0.2777 21.3227 -16.1105
# 2 22.7718 86.9445 17.7249 -3.2798 8.6759 -7.7576
# 3 25.4388 17.7249 97.4910 -1.3167 25.8456 -15.5909
# 4 -0.2777 -3.2798 -1.3167 43.6946 -5.0183 10.9472
# 5 21.3227 8.6759 25.8456 -5.0183 27.6987 2.2636
# 6 -16.1105 -7.7576 -15.5909 10.9472 2.2636 33.1035
#
#
#
# Elastic Compliance Matrix: (Units=1/GPa)
#
#
# Indices 1 2 3 4 5 6 
#
# 1 0.019635 -0.002813 0.002271 -0.005389 -0.018392 0.013006
# 2 -0.002813 0.012652 -0.001277 0.000622 -0.000561 0.000827
# 3 0.002271 -0.001277 0.016585 -0.004572 -0.018584 0.011400
# 4 -0.005389 0.000622 -0.004572 0.028175 0.014545 -0.014942
# 5 -0.018392 -0.000561 -0.018584 0.014545 0.072669 -0.027614
# 6 0.013006 0.000827 0.011400 -0.014942 -0.027614 0.048930
#
#
# Mechanical properties :
#
#
# Convention : Reuss Voigt Hill
#
# Bulk Modulus (GPa) = 22.10741 44.23616 33.17179
# Shear Modulus (GPa) = 23.00318 34.25395 28.62856
#
# Velocity S-wave (km/s) = 3.26869 3.98873 3.64653
# Velocity P-wave (km/s) = 4.95116 6.46218 5.75646
#
# Compressibility (1/GPa) = 0.04523369
#
# Stress axis : x y z
#
# Youngs Moduli (GPa) = 50.93028 79.03949 60.29598
#
# Poissons Ratio (x) = 0.22235 -0.13694
# Poissons Ratio (y) = 0.14327 0.07699
# Poissons Ratio (z) = -0.11567 0.10092
#
# Static dielectric constant tensor:
#      x y z
#    x 3.515680 -0.064750 0.221530 
#    y -0.064750 4.041820 -0.220260 
#    z 0.221530 -0.220260 4.828570 
# 
# 
# High freq. dielectric constant tensor:
#      x y z
#    x 1.788110 0.006010 0.026260 
#    y 0.006010 1.862520 -0.007890 
#    z 0.026260 -0.007890 1.863540 
# 
# From -- ./inp_files/24741.got.cif
#   From: 2010.06.25/outbox.cif.g09.slc.cpg/sg2_13_cif.got.tgz:24741.got - 2010.06.27 13:26:56.
