data_PCOD8016525
_publ_section_title
;
Structure prediction by ZEFSAII (Michael W. Deem and Ramdas Pophale) SiO2 
 PCOD8016525
Probable space group: P -1
;
_chemical_formula_sum "Si O2"
_cell_formula_units_Z 16
_cell_length_a 22.418398
_cell_length_b 5.390217
_cell_length_c 16.627109
_cell_angle_alpha 95.842576
_cell_angle_beta 17.400333
_cell_angle_gamma 101.924865
_cell_volume 555.772354
_symmetry_space_group_name_H-M "P -1"
_symmetry_group_IT_number 2
_symmetry_cell_setting 'triclinic'
loop_
_space_group_symop_operation_xyz
x,y,z
-x,-y,-z
loop_
_atom_site_type_symbol
_atom_site_label
_atom_site_fract_x
_atom_site_fract_y
_atom_site_fract_z
Si Si1 0.121290 0.733999 0.736238
Si Si2 0.808850 0.499980 0.969430
Si Si3 0.382327 0.572824 0.268137
Si Si4 0.131534 0.454711 0.433212
Si Si5 0.756671 0.975333 0.124090
Si Si6 0.751784 0.089255 0.827970
Si Si7 0.553495 0.743381 0.678848
Si Si8 0.273447 0.665561 0.703143
O O1 0.199427 0.670790 0.545286
O O2 0.232996 0.610434 0.658081
O O3 0.212802 0.053565 0.643646
O O4 0.864552 0.601698 0.076763
O O5 0.953520 0.551557 0.705758
O O6 0.808173 0.236220 0.008728
O O7 0.566127 0.455213 0.247051
O O8 0.895035 0.788816 0.917684
O O9 0.292339 0.429498 0.294464
O O10 0.416682 0.371380 0.278869
O O11 0.626386 0.790149 0.943041
O O12 0.255634 0.687184 0.218572
O O13 0.997170 0.169388 0.550578
O O14 0.807130 0.096479 0.153208
O O15 0.516799 0.760861 0.420281
O O16 0.598118 0.085433 0.101625
#
# Coordination Sequence:
#
# PCOD8016525 Si02
#       8
#     2   2   2   2   2   2   2   2
#     4  10  21  45  61  99 138 184 235 292 363 420
#     4  11  24  46  73 103 148 190 238 298 362 429
#     4  11  22  43  70 101 144 187 233 297 363 427
#     4  10  22  45  71 105 139 188 243 289 353 441
#     4  11  24  46  69 104 140 190 239 299 362 421
#     4   9  22  45  68 102 146 181 240 293 358 422
#     4  10  22  41  71  99 146 190 229 300 363 427
#     4  10  22  42  70  95 139 183 242 296 352 428
#
# _framework density 28.788765999999999
#
# number of rings (size 3 to 8) (size 9 to 14) (size 15 to 20)
#    0.000    1.750    1.250    1.875    3.500    2.500 
#   20.250    3.750    0.000    0.000    0.000    0.000 
#    0.000    0.000    0.000    0.000    0.000    0.000 
#
# Total GULP energy -198252.142305 kJ/mol
# GULP energy per Si atom -12390.758894 kJ/mol
# Density = 2.872324 g / cm^3
# Si number density = 28.788766 Si / 1000 Ang^3
#
#
#
# Elastic Constant Matrix: (Units=GPa)
#
#
# Indices 1 2 3 4 5 6 
#
# 1 164.4861 41.0932 21.7724 -19.2516 -7.2751 12.1205
# 2 41.0932 95.4782 44.1236 -34.9043 -3.5738 6.6276
# 3 21.7724 44.1236 147.5288 -35.1715 6.6659 2.1612
# 4 -19.2516 -34.9043 -35.1715 43.1148 -3.6464 -0.5502
# 5 -7.2751 -3.5738 6.6659 -3.6464 36.1707 -1.9624
# 6 12.1205 6.6276 2.1612 -0.5502 -1.9624 53.8550
#
#
#
# Elastic Compliance Matrix: (Units=1/GPa)
#
#
# Indices 1 2 3 4 5 6 
#
# 1 0.006973 -0.002400 -0.000061 0.001209 0.001233 -0.001214
# 2 -0.002400 0.016647 -0.002132 0.010868 0.002584 -0.001218
# 3 -0.000061 -0.002132 0.008740 0.005265 -0.001307 -0.000068
# 4 0.001209 0.010868 0.005265 0.037151 0.004022 -0.001295
# 5 0.001233 0.002584 -0.001307 0.004022 0.028826 0.000548
# 6 -0.001214 -0.001218 -0.000068 -0.001295 0.000548 0.019001
#
#
# Mechanical properties :
#
#
# Convention : Reuss Voigt Hill
#
# Bulk Modulus (GPa) = 43.15443 69.05241 56.10342
# Shear Modulus (GPa) = 37.24419 46.66169 41.95294
#
# Velocity S-wave (km/s) = 3.60071 4.03032 3.82156
# Velocity P-wave (km/s) = 5.68414 6.75988 6.24521
#
# Compressibility (1/GPa) = 0.02317259
#
# Stress axis : x y z
#
# Youngs Moduli (GPa) = 143.41422 60.07251 114.41174
#
# Poissons Ratio (x) = 0.14420 0.00694
# Poissons Ratio (y) = 0.34426 0.24397
# Poissons Ratio (z) = 0.00870 0.12810
#
# Static dielectric constant tensor:
#      x y z
#    x 5.466290 0.653000 -0.087790 
#    y 0.653000 5.135950 -0.084750 
#    z -0.087790 -0.084750 5.833400 
# 
# 
# High freq. dielectric constant tensor:
#      x y z
#    x 2.183360 0.022870 -0.006560 
#    y 0.022870 2.155410 0.002220 
#    z -0.006560 0.002220 2.197640 
# 
# From -- ./inp_files/578723.got.cif
#   From: 2010.06.25/outbox.cif.g09.slc.cpg/sg2_290_cif.got.tgz:578723.got - 2010.06.27 13:26:56.
