data_PCOD8016318
_publ_section_title
;
Structure prediction by ZEFSAII (Michael W. Deem and Ramdas Pophale) SiO2 
 PCOD8016318
Probable space group: P -1
;
_chemical_formula_sum "Si O2"
_cell_formula_units_Z 16
_cell_length_a 12.028217
_cell_length_b 7.390384
_cell_length_c 13.887579
_cell_angle_alpha 93.768513
_cell_angle_beta 130.784558
_cell_angle_gamma 60.172168
_cell_volume 745.112189
_symmetry_space_group_name_H-M "P -1"
_symmetry_group_IT_number 2
_symmetry_cell_setting 'triclinic'
loop_
_space_group_symop_operation_xyz
x,y,z
-x,-y,-z
loop_
_atom_site_type_symbol
_atom_site_label
_atom_site_fract_x
_atom_site_fract_y
_atom_site_fract_z
Si Si1 0.696334 0.390718 0.560282
Si Si2 0.741753 0.858466 0.033858
Si Si3 0.734510 0.196554 0.914660
Si Si4 0.127065 0.485573 0.651895
Si Si5 0.340577 0.642699 0.687434
Si Si6 0.889612 0.987579 0.794433
Si Si7 0.635846 0.017633 0.182729
Si Si8 0.910311 0.587667 0.724513
O O1 0.500000 0.500000 0.500000
O O2 0.690172 0.356076 0.442758
O O3 0.749842 0.562085 0.611099
O O4 0.847955 0.145334 0.684321
O O5 0.939972 0.616779 0.128170
O O6 0.727083 0.987028 0.128768
O O7 0.585154 0.819988 0.944645
O O8 0.714681 0.005225 0.931711
O O9 0.546843 0.444544 0.830495
O O10 0.779676 0.158221 0.826111
O O11 0.892904 0.177194 0.065752
O O12 0.197634 0.629250 0.665931
O O13 0.000000 0.500000 0.500000
O O14 0.010334 0.587054 0.686189
O O15 0.301859 0.225309 0.753626
O O16 0.297982 0.880413 0.701254
O O17 0.823118 0.829831 0.734260
#
# Coordination Sequence:
#
# PCOD8016318 Si02
#       8
#     2   2   2   2   2   2   2   2
#     4  12  26  46  65  98 139 173 224 271 322 402
#     4  10  21  44  66  98 135 167 220 276 323 395
#     4  11  23  45  69  98 132 169 232 274 319 399
#     4  11  24  42  62  98 135 169 221 265 320 406
#     4  12  25  42  70 101 134 175 218 274 333 390
#     4  11  26  45  69  96 131 180 221 276 329 382
#     4  10  24  40  66  99 134 171 213 273 334 384
#     4  11  25  44  68  96 133 175 218 271 334 388
#
# _framework density 21.473275999999998
#
# number of rings (size 3 to 8) (size 9 to 14) (size 15 to 20)
#    0.000    1.000    5.000    0.750    3.500    3.000 
#    0.000    0.000    0.000    0.000    0.000    0.000 
#    0.000    0.000    0.000    0.000    0.000    0.000 
#
# Total GULP energy -198469.763043 kJ/mol
# GULP energy per Si atom -12404.360190 kJ/mol
# Density = 2.142440 g / cm^3
# Si number density = 21.473276 Si / 1000 Ang^3
#
#
#
# Elastic Constant Matrix: (Units=GPa)
#
#
# Indices 1 2 3 4 5 6 
#
# 1 99.0696 27.5155 30.6159 5.8215 4.4660 18.1096
# 2 27.5155 96.2937 30.9262 27.9355 -0.1367 18.8166
# 3 30.6159 30.9262 102.7567 10.8701 -6.1738 6.6380
# 4 5.8215 27.9355 10.8701 31.9907 11.9748 5.4702
# 5 4.4660 -0.1367 -6.1738 11.9748 33.5459 -6.3613
# 6 18.1096 18.8166 6.6380 5.4702 -6.3613 22.5629
#
#
#
# Elastic Compliance Matrix: (Units=1/GPa)
#
#
# Indices 1 2 3 4 5 6 
#
# 1 0.013865 -0.001943 -0.003700 0.004771 -0.006396 -0.011379
# 2 -0.001943 0.017265 -0.002453 -0.013789 0.003313 -0.007840
# 3 -0.003700 -0.002453 0.012002 -0.003652 0.004696 0.003694
# 4 0.004771 -0.013789 -0.003652 0.053997 -0.022675 -0.010739
# 5 -0.006396 0.003313 0.004696 -0.022675 0.043171 0.018658
# 6 -0.011379 -0.007840 0.003694 -0.010739 0.018658 0.066770
#
#
# Mechanical properties :
#
#
# Convention : Reuss Voigt Hill
#
# Bulk Modulus (GPa) = 37.11959 52.91501 45.01730
# Shear Modulus (GPa) = 21.52923 31.55740 26.54332
#
# Velocity S-wave (km/s) = 3.16983 3.83771 3.51965
# Velocity P-wave (km/s) = 5.54266 6.65831 6.12594
#
# Compressibility (1/GPa) = 0.02693995
#
# Stress axis : x y z
#
# Youngs Moduli (GPa) = 72.12354 57.92110 83.31749
#
# Poissons Ratio (x) = 0.11254 0.30828
# Poissons Ratio (y) = 0.14014 0.20438
# Poissons Ratio (z) = 0.26686 0.14208
#
# Static dielectric constant tensor:
#      x y z
#    x 3.610940 -0.251470 0.121670 
#    y -0.251470 3.262040 0.144040 
#    z 0.121670 0.144040 3.955310 
# 
# 
# High freq. dielectric constant tensor:
#      x y z
#    x 1.845330 0.008200 0.000570 
#    y 0.008200 1.832190 -0.001740 
#    z 0.000570 -0.001740 1.856730 
# 
# From -- ./inp_files/69347.got.cif
#   From: 2010.06.25/outbox.cif.g09.slc.cpg/sg2_35_cif.got.tgz:69347.got - 2010.06.27 13:26:56.
