data_PCOD8016889
_publ_section_title
;
Structure prediction by ZEFSAII (Michael W. Deem and Ramdas Pophale) SiO2 
 PCOD8016889
Probable space group: P -1
;
_chemical_formula_sum "Si O2"
_cell_formula_units_Z 14
_cell_length_a 10.138233
_cell_length_b 13.116053
_cell_length_c 27.831901
_cell_angle_alpha 24.855187
_cell_angle_beta 153.949019
_cell_angle_gamma 146.770364
_cell_volume 678.608535
_symmetry_space_group_name_H-M "P -1"
_symmetry_group_IT_number 2
_symmetry_cell_setting 'triclinic'
loop_
_space_group_symop_operation_xyz
x,y,z
-x,-y,-z
loop_
_atom_site_type_symbol
_atom_site_label
_atom_site_fract_x
_atom_site_fract_y
_atom_site_fract_z
Si Si1 0.414547 0.293174 0.706118
Si Si2 0.250071 0.798206 0.452705
Si Si3 0.761384 0.042713 0.000443
Si Si4 0.641699 0.269358 0.371433
Si Si5 0.152241 0.227833 0.482907
Si Si6 0.271694 0.670882 0.040544
Si Si7 0.685180 0.238956 0.719928
O O1 0.372705 0.574551 0.560431
O O2 0.487480 0.168265 0.733109
O O3 0.103755 0.176328 0.679366
O O4 0.682546 0.254698 0.847518
O O5 0.315970 0.755577 0.547894
O O6 0.416098 0.037184 0.379687
O O7 0.469661 0.837663 0.995334
O O8 0.045057 0.926923 0.121655
O O9 0.855466 0.157317 0.034221
O O10 0.501529 0.514784 0.209442
O O11 0.958094 0.272203 0.447332
O O12 0.481426 0.180262 0.630709
O O13 0.180565 0.475284 0.355075
O O14 0.000000 0.000000 0.500000
O O15 0.000000 0.500000 0.000000
#
# Coordination Sequence:
#
# PCOD8016889 Si02
#       7
#     2   2   2   2   2   2   2
#     4  11  21  42  60  94 125 163 206 256 310 373
#     4  10  22  36  68  90 120 160 207 262 309 358
#     4  11  24  41  64  92 127 165 206 255 313 371
#     4  11  20  42  62  91 121 157 214 258 302 372
#     4  11  24  42  64  92 126 164 209 256 310 371
#     4  11  24  42  64  92 126 164 209 256 310 371
#     4  11  24  41  64  92 127 165 206 255 313 371
#
# _framework density 20.63045
#
# number of rings (size 3 to 8) (size 9 to 14) (size 15 to 20)
#    0.000    1.143    4.286    2.143    2.000    0.000 
#    2.571    0.000    0.000    5.143    0.000    0.000 
#    0.000    0.000    0.000    0.000    0.000    0.000 
#
# Total GULP energy -173615.454398 kJ/mol
# GULP energy per Si atom -12401.103886 kJ/mol
# Density = 2.058349 g / cm^3
# Si number density = 20.630450 Si / 1000 Ang^3
#
#
#
# Elastic Constant Matrix: (Units=GPa)
#
#
# Indices 1 2 3 4 5 6 
#
# 1 85.1311 12.7775 38.7403 1.5115 22.0914 -3.4169
# 2 12.7775 102.6920 26.0108 0.7932 14.2090 -5.9143
# 3 38.7403 26.0108 104.5809 3.8024 20.4649 -0.9525
# 4 1.5115 0.7932 3.8024 19.9085 2.5963 -8.9538
# 5 22.0914 14.2090 20.4649 2.5963 32.4600 0.3425
# 6 -3.4169 -5.9143 -0.9525 -8.9538 0.3425 22.0455
#
#
#
# Elastic Compliance Matrix: (Units=1/GPa)
#
#
# Indices 1 2 3 4 5 6 
#
# 1 0.016003 0.000495 -0.004433 0.002292 -0.008533 0.003485
# 2 0.000495 0.010988 -0.002180 0.002211 -0.003990 0.003890
# 3 -0.004433 -0.002180 0.012545 -0.002185 -0.003746 -0.001559
# 4 0.002292 0.002211 -0.002185 0.063206 -0.006486 0.026626
# 5 -0.008533 -0.003990 -0.003746 -0.006486 0.041303 -0.005831
# 6 0.003485 0.003890 -0.001559 0.026626 -0.005831 0.057782
#
#
# Mechanical properties :
#
#
# Convention : Reuss Voigt Hill
#
# Bulk Modulus (GPa) = 36.63103 49.71789 43.17446
# Shear Modulus (GPa) = 22.40515 29.20783 25.80649
#
# Velocity S-wave (km/s) = 3.29906 3.76674 3.54063
# Velocity P-wave (km/s) = 5.68385 6.56273 6.13904
#
# Compressibility (1/GPa) = 0.02729926
#
# Stress axis : x y z
#
# Youngs Moduli (GPa) = 62.48769 91.01200 79.71434
#
# Poissons Ratio (x) = -0.04509 0.35338
# Poissons Ratio (y) = -0.03096 0.17381
# Poissons Ratio (z) = 0.27701 0.19845
#
# Static dielectric constant tensor:
#      x y z
#    x 3.644520 0.099930 0.094420 
#    y 0.099930 3.861440 -0.077730 
#    z 0.094420 -0.077730 3.693020 
# 
# 
# High freq. dielectric constant tensor:
#      x y z
#    x 1.810010 0.002250 0.005880 
#    y 0.002250 1.800600 -0.001450 
#    z 0.005880 -0.001450 1.813640 
# 
# From -- ./inp_files/452192.got.cif
#   From: 2010.06.25/outbox.cif.g09.slc.cpg/sg2_227_cif.got.tgz:452192.got - 2010.06.27 13:26:56.
