data_PCOD8016251
_publ_section_title
;
Structure prediction by ZEFSAII (Michael W. Deem and Ramdas Pophale) SiO2 
 PCOD8016251
Probable space group: P -1
;
_chemical_formula_sum "Si O2"
_cell_formula_units_Z 16
_cell_length_a 10.452965
_cell_length_b 9.115183
_cell_length_c 21.723137
_cell_angle_alpha 51.914973
_cell_angle_beta 148.613136
_cell_angle_gamma 136.737360
_cell_volume 738.717969
_symmetry_space_group_name_H-M "P -1"
_symmetry_group_IT_number 2
_symmetry_cell_setting 'triclinic'
loop_
_space_group_symop_operation_xyz
x,y,z
-x,-y,-z
loop_
_atom_site_type_symbol
_atom_site_label
_atom_site_fract_x
_atom_site_fract_y
_atom_site_fract_z
Si Si1 0.338847 0.398128 0.167453
Si Si2 0.915355 0.400223 0.905450
Si Si3 0.406268 0.001312 0.772990
Si Si4 0.819965 0.346261 0.335284
Si Si5 0.760159 0.897655 0.685444
Si Si6 0.286380 0.877519 0.888788
Si Si7 0.095012 0.971316 0.479829
Si Si8 0.604758 0.261893 0.536075
O O1 0.301977 0.581277 0.140147
O O2 0.651061 0.473922 0.248693
O O3 0.274811 0.200289 0.236075
O O4 0.111370 0.319324 0.039485
O O5 0.110043 0.621966 0.893483
O O6 0.704401 0.209670 0.822749
O O7 0.339664 0.820719 0.741693
O O8 0.442473 0.918641 0.876497
O O9 0.163207 0.070087 0.659850
O O10 0.136600 0.506634 0.400827
O O11 0.841424 0.226490 0.437375
O O12 0.536283 0.726475 0.589264
O O13 0.074040 0.970793 0.772666
O O14 0.732753 0.106561 0.620845
O O15 0.500000 0.000000 0.000000
O O16 0.376259 0.181743 0.517833
O O17 0.000000 0.000000 0.500000
#
# Coordination Sequence:
#
# PCOD8016251 Si02
#       8
#     2   2   2   2   2   2   2   2
#     4  10  21  44  64  97 126 174 221 272 325 381
#     4  10  24  41  69  94 127 173 221 278 321 382
#     4  11  24  43  65  97 131 172 218 269 333 396
#     4  11  26  40  68  97 136 177 213 268 332 398
#     4  10  22  39  65  95 134 168 217 279 318 387
#     4  11  23  42  68  96 125 172 224 271 328 384
#     4  10  23  42  63  93 132 171 211 259 326 401
#     4  11  23  41  63 101 131 170 218 272 327 384
#
# _framework density 21.659146
#
# number of rings (size 3 to 8) (size 9 to 14) (size 15 to 20)
#    0.000    1.500    2.500    2.250    7.000    5.000 
#    0.000    0.625    0.000    0.000    0.000    0.000 
#    0.000    0.000    0.000    0.000    0.000    0.000 
#
# Total GULP energy -198312.133921 kJ/mol
# GULP energy per Si atom -12394.508370 kJ/mol
# Density = 2.160985 g / cm^3
# Si number density = 21.659146 Si / 1000 Ang^3
#
#
#
# Elastic Constant Matrix: (Units=GPa)
#
#
# Indices 1 2 3 4 5 6 
#
# 1 64.9879 33.2921 27.9431 -7.0412 -1.5034 17.9149
# 2 33.2921 105.4021 51.3733 25.0914 -1.9409 20.5002
# 3 27.9431 51.3733 124.1125 -7.7247 2.8945 6.7552
# 4 -7.0412 25.0914 -7.7247 36.5165 -1.0108 4.7646
# 5 -1.5034 -1.9409 2.8945 -1.0108 37.8411 -0.9003
# 6 17.9149 20.5002 6.7552 4.7646 -0.9003 33.0549
#
#
#
# Elastic Compliance Matrix: (Units=1/GPa)
#
#
# Indices 1 2 3 4 5 6 
#
# 1 0.023514 -0.007755 -0.000915 0.010901 0.000676 -0.009301
# 2 -0.007755 0.020416 -0.007503 -0.016499 0.000765 -0.004527
# 3 -0.000915 -0.007503 0.011752 0.007216 -0.001087 0.001678
# 4 0.010901 -0.016499 0.007216 0.042786 0.000099 -0.003315
# 5 0.000676 0.000765 -0.001087 0.000099 0.026580 0.000091
# 6 -0.009301 -0.004527 0.001678 -0.003315 0.000091 0.038238
#
#
# Mechanical properties :
#
#
# Convention : Reuss Voigt Hill
#
# Bulk Modulus (GPa) = 42.85199 57.74660 50.29929
# Shear Modulus (GPa) = 24.58072 33.60878 29.09475
#
# Velocity S-wave (km/s) = 3.37247 3.94345 3.66908
# Velocity P-wave (km/s) = 5.91543 6.88867 6.42052
#
# Compressibility (1/GPa) = 0.02333614
#
# Stress axis : x y z
#
# Youngs Moduli (GPa) = 42.52747 48.98096 85.09056
#
# Poissons Ratio (x) = 0.37984 0.07788
# Poissons Ratio (y) = 0.32979 0.63845
# Poissons Ratio (z) = 0.03892 0.36751
#
# Static dielectric constant tensor:
#      x y z
#    x 3.799490 0.168670 0.075090 
#    y 0.168670 3.684350 -0.220930 
#    z 0.075090 -0.220930 4.492890 
# 
# 
# High freq. dielectric constant tensor:
#      x y z
#    x 1.836890 0.016290 0.004890 
#    y 0.016290 1.833810 -0.005870 
#    z 0.004890 -0.005870 1.872210 
# 
# From -- ./inp_files/609811.got.cif
#   From: 2010.06.25/outbox.cif.g09.slc.cpg/sg2_305_cif.got.tgz:609811.got - 2010.06.27 13:26:56.
