data_PCOD8016968
_publ_section_title
;
Structure prediction by ZEFSAII (Michael W. Deem and Ramdas Pophale) SiO2 
 PCOD8016968
Probable space group: P -1
;
_chemical_formula_sum "Si O2"
_cell_formula_units_Z 12
_cell_length_a 12.039186
_cell_length_b 8.319412
_cell_length_c 13.910046
_cell_angle_alpha 48.185181
_cell_angle_beta 40.115506
_cell_angle_gamma 38.500738
_cell_volume 550.689904
_symmetry_space_group_name_H-M "P -1"
_symmetry_group_IT_number 2
_symmetry_cell_setting 'triclinic'
loop_
_space_group_symop_operation_xyz
x,y,z
-x,-y,-z
loop_
_atom_site_type_symbol
_atom_site_label
_atom_site_fract_x
_atom_site_fract_y
_atom_site_fract_z
Si Si1 0.584222 0.169629 0.676168
Si Si2 0.232185 0.531242 0.629886
Si Si3 0.312631 0.662850 0.132316
Si Si4 0.857639 0.588388 0.762311
Si Si5 0.376440 0.434839 0.892070
Si Si6 0.017768 0.744881 0.878538
O O1 0.421842 0.261310 0.658890
O O2 0.681363 0.340528 0.545768
O O3 0.463784 0.215049 0.838513
O O4 0.765610 0.867500 0.662787
O O5 0.091815 0.742572 0.722105
O O6 0.097025 0.460078 0.684915
O O7 0.145457 0.594396 0.245202
O O8 0.425660 0.563730 0.201225
O O9 0.500000 0.500000 0.000000
O O10 0.199491 0.975570 0.070625
O O11 0.719874 0.632600 0.929754
O O12 0.190624 0.707933 0.856486
O O13 0.000000 0.500000 0.000000
#
# Coordination Sequence:
#
# PCOD8016968 Si02
#       6
#     2   2   2   2   2   2
#     4  10  22  38  62  88 120 157 200 248 290 358
#     4  10  22  39  61  90 117 158 204 240 298 354
#     4  10  25  37  57  95 125 154 196 247 307 346
#     4  11  21  36  61  88 118 158 197 248 295 350
#     4  10  22  37  62  87 122 156 201 241 297 354
#     4  11  22  39  64  88 117 160 201 248 289 359
#
# _framework density 21.790848
#
# number of rings (size 3 to 8) (size 9 to 14) (size 15 to 20)
#    0.000    1.667    1.667    2.000    9.333    4.000 
#    0.000    3.333    0.000    6.000    0.000    0.000 
#    0.000    0.000    0.000    0.000    0.000    0.000 
#
# Total GULP energy -148723.938193 kJ/mol
# GULP energy per Si atom -12393.661516 kJ/mol
# Density = 2.174125 g / cm^3
# Si number density = 21.790848 Si / 1000 Ang^3
#
#
#
# Elastic Constant Matrix: (Units=GPa)
#
#
# Indices 1 2 3 4 5 6 
#
# 1 186.2424 58.7961 29.2836 -11.4887 -39.7304 -28.9202
# 2 58.7961 87.2823 12.5844 5.2389 -2.5190 -11.5044
# 3 29.2836 12.5844 48.2553 -2.5994 -13.3837 -4.8239
# 4 -11.4887 5.2389 -2.5994 20.1072 -2.3536 -5.0318
# 5 -39.7304 -2.5190 -13.3837 -2.3536 32.1660 3.9455
# 6 -28.9202 -11.5044 -4.8239 -5.0318 3.9455 25.4437
#
#
#
# Elastic Compliance Matrix: (Units=1/GPa)
#
#
# Indices 1 2 3 4 5 6 
#
# 1 0.014909 -0.008773 0.000292 0.016269 0.017377 0.013557
# 2 -0.008773 0.017850 -0.003470 -0.012249 -0.011384 -0.003216
# 3 0.000292 -0.003470 0.025040 0.006328 0.010588 0.003120
# 4 0.016269 -0.012249 0.006328 0.072023 0.024012 0.024673
# 5 0.017377 -0.011384 0.010588 0.024012 0.056273 0.012633
# 6 0.013557 -0.003216 0.003120 0.024673 0.012633 0.056769
#
#
# Mechanical properties :
#
#
# Convention : Reuss Voigt Hill
#
# Bulk Modulus (GPa) = 29.50171 58.12314 43.81243
# Shear Modulus (GPa) = 17.98134 30.28446 24.13290
#
# Velocity S-wave (km/s) = 2.87571 3.73202 3.33149
# Velocity P-wave (km/s) = 4.95926 6.73065 5.91168
#
# Compressibility (1/GPa) = 0.03389634
#
# Stress axis : x y z
#
# Youngs Moduli (GPa) = 67.07468 56.02236 39.93578
#
# Poissons Ratio (x) = 0.49149 -0.01165
# Poissons Ratio (y) = 0.58845 0.13857
# Poissons Ratio (z) = -0.01956 0.19439
#
# Static dielectric constant tensor:
#      x y z
#    x 4.938760 -0.259610 -0.194680 
#    y -0.259610 3.731550 0.103770 
#    z -0.194680 0.103770 3.754050 
# 
# 
# High freq. dielectric constant tensor:
#      x y z
#    x 1.875190 -0.029250 -0.007020 
#    y -0.029250 1.835260 0.007630 
#    z -0.007020 0.007630 1.833170 
# 
# From -- ./inp_files/241235.got.cif
#   From: 2010.06.25/outbox.cif.g09.slc.cpg/sg2_121_cif.got.tgz:241235.got - 2010.06.27 13:26:56.
