data_PCOD8016149
_publ_section_title
;
Structure prediction by ZEFSAII (Michael W. Deem and Ramdas Pophale) SiO2 
 PCOD8016149
Probable space group: P -1
;
_chemical_formula_sum "Si O2"
_cell_formula_units_Z 16
_cell_length_a 14.732235
_cell_length_b 14.172405
_cell_length_c 15.100246
_cell_angle_alpha 149.867549
_cell_angle_beta 130.265594
_cell_angle_gamma 31.080936
_cell_volume 760.967391
_symmetry_space_group_name_H-M "P -1"
_symmetry_group_IT_number 2
_symmetry_cell_setting 'triclinic'
loop_
_space_group_symop_operation_xyz
x,y,z
-x,-y,-z
loop_
_atom_site_type_symbol
_atom_site_label
_atom_site_fract_x
_atom_site_fract_y
_atom_site_fract_z
Si Si1 0.391966 0.286444 0.107805
Si Si2 0.635070 0.156254 0.001491
Si Si3 0.500255 0.281711 0.670555
Si Si4 0.825753 0.981350 0.517479
Si Si5 0.446913 0.178343 0.737811
Si Si6 0.025488 0.591397 0.851387
Si Si7 0.031808 0.774480 0.185730
Si Si8 0.312849 0.735295 0.516062
O O1 0.217818 0.425772 0.050414
O O2 0.279842 0.558218 0.326383
O O3 0.542867 0.214951 0.085478
O O4 0.500000 0.000000 0.000000
O O5 0.520163 0.182538 0.876642
O O6 0.633191 0.383123 0.170682
O O7 0.854687 0.832455 0.870863
O O8 0.489701 0.267975 0.757872
O O9 0.713719 0.079081 0.616708
O O10 0.448383 0.150318 0.480343
O O11 0.972874 0.633388 0.310215
O O12 0.930288 0.049592 0.650712
O O13 0.676373 0.166198 0.490757
O O14 0.222181 0.422243 0.798159
O O15 0.970485 0.774777 0.052571
O O16 0.856410 0.960178 0.290708
O O17 0.500000 0.500000 0.500000
#
# Coordination Sequence:
#
# PCOD8016149 Si02
#       8
#     2   2   2   2   2   2   2   2
#     4  11  24  40  63  95 129 172 219 261 324 385
#     4  12  23  42  67  96 130 171 217 266 325 393
#     4  10  21  43  71  93 129 169 216 270 329 389
#     4  10  22  43  62  90 129 167 215 265 327 384
#     4  10  23  45  68  95 130 170 212 276 330 378
#     4  11  25  40  65  97 128 170 216 264 327 391
#     4  11  23  43  62  91 134 172 213 274 318 378
#     4  11  24  40  62  91 127 174 217 266 325 385
#
# _framework density 21.025867999999999
#
# number of rings (size 3 to 8) (size 9 to 14) (size 15 to 20)
#    0.000    1.250    3.750    2.625    5.250    2.000 
#    0.000    5.625    0.000    0.000    0.000    0.000 
#    0.000    0.000    0.000    0.000    0.000    0.000 
#
# Total GULP energy -198326.982233 kJ/mol
# GULP energy per Si atom -12395.436390 kJ/mol
# Density = 2.097801 g / cm^3
# Si number density = 21.025868 Si / 1000 Ang^3
#
#
#
# Elastic Constant Matrix: (Units=GPa)
#
#
# Indices 1 2 3 4 5 6 
#
# 1 107.3898 40.7045 47.7316 11.0316 4.0001 17.6676
# 2 40.7045 108.0470 41.8806 28.5254 6.8038 -1.8187
# 3 47.7316 41.8806 112.6899 12.7795 10.4653 12.6430
# 4 11.0316 28.5254 12.7795 32.7669 7.1758 2.7157
# 5 4.0001 6.8038 10.4653 7.1758 37.8021 8.6323
# 6 17.6676 -1.8187 12.6430 2.7157 8.6323 27.2267
#
#
#
# Elastic Compliance Matrix: (Units=1/GPa)
#
#
# Indices 1 2 3 4 5 6 
#
# 1 0.013715 -0.004230 -0.003582 0.000696 0.002051 -0.008238
# 2 -0.004230 0.015146 -0.003273 -0.010853 -0.000824 0.006620
# 3 -0.003582 -0.003273 0.012104 -0.000048 -0.001695 -0.002972
# 4 0.000696 -0.010853 -0.000048 0.041168 -0.005089 -0.003647
# 5 0.002051 -0.000824 -0.001695 -0.005089 0.030014 -0.009607
# 6 -0.008238 0.006620 -0.002972 -0.003647 -0.009607 0.047307
#
#
# Mechanical properties :
#
#
# Convention : Reuss Voigt Hill
#
# Bulk Modulus (GPa) = 53.20518 65.41782 59.31150
# Shear Modulus (GPa) = 26.61160 32.74645 29.67902
#
# Velocity S-wave (km/s) = 3.56147 3.95072 3.76113
# Velocity P-wave (km/s) = 6.50167 7.21051 6.86524
#
# Compressibility (1/GPa) = 0.01879516
#
# Stress axis : x y z
#
# Youngs Moduli (GPa) = 72.91405 66.02449 82.61830
#
# Poissons Ratio (x) = 0.27926 0.29596
# Poissons Ratio (y) = 0.30841 0.27039
# Poissons Ratio (z) = 0.26120 0.21608
#
# Static dielectric constant tensor:
#      x y z
#    x 3.879240 0.168230 -0.009350 
#    y 0.168230 3.862240 -0.031850 
#    z -0.009350 -0.031850 4.095530 
# 
# 
# High freq. dielectric constant tensor:
#      x y z
#    x 1.820540 0.006270 0.000080 
#    y 0.006270 1.808780 0.003930 
#    z 0.000080 0.003930 1.843290 
# 
# From -- ./inp_files/218520.got.cif
#   From: 2010.06.25/outbox.cif.g09.slc.cpg/sg2_110_cif.got.tgz:218520.got - 2010.06.27 13:26:56.
