data_PCOD8016708
_publ_section_title
;
Structure prediction by ZEFSAII (Michael W. Deem and Ramdas Pophale) SiO2 
 PCOD8016708
Probable space group: P -1
;
_chemical_formula_sum "Si O2"
_cell_formula_units_Z 14
_cell_length_a 7.687921
_cell_length_b 16.682927
_cell_length_c 7.914729
_cell_angle_alpha 100.225528
_cell_angle_beta 81.409940
_cell_angle_gamma 40.598338
_cell_volume 582.601169
_symmetry_space_group_name_H-M "P -1"
_symmetry_group_IT_number 2
_symmetry_cell_setting 'triclinic'
loop_
_space_group_symop_operation_xyz
x,y,z
-x,-y,-z
loop_
_atom_site_type_symbol
_atom_site_label
_atom_site_fract_x
_atom_site_fract_y
_atom_site_fract_z
Si Si1 0.566358 0.571106 0.536700
Si Si2 0.095473 0.207911 0.720423
Si Si3 0.639387 0.080859 0.727441
Si Si4 0.046231 0.763313 0.898770
Si Si5 0.129403 0.283206 0.402024
Si Si6 0.715972 0.050072 0.073510
Si Si7 0.236922 0.802695 0.413839
O O1 0.500000 0.500000 0.500000
O O2 0.378663 0.671608 0.765768
O O3 0.476645 0.655544 0.415500
O O4 0.927573 0.439715 0.456838
O O5 0.454552 0.080636 0.651959
O O6 0.020241 0.292717 0.603759
O O7 0.960592 0.168986 0.689929
O O8 0.941241 0.296456 0.953502
O O9 0.583312 0.190401 0.693988
O O10 0.529324 0.123382 0.952721
O O11 0.991438 0.928490 0.628135
O O12 0.922599 0.767392 0.749110
O O13 0.822421 0.918870 0.045808
O O14 0.485381 0.168682 0.297390
O O15 0.000000 0.000000 0.000000
#
# Coordination Sequence:
#
# PCOD8016708 Si02
#       7
#     2   2   2   2   2   2   2
#     4  10  21  46  71  96 144 187 222 289 345 417
#     4  12  24  40  71 105 135 184 233 285 352 407
#     4  11  25  41  68 105 141 177 237 293 348 406
#     4  11  23  42  70  98 137 179 231 286 339 411
#     4  11  25  44  69 100 139 180 232 283 348 416
#     4  12  25  44  66 102 142 180 232 293 347 407
#     4  11  23  43  68 102 142 182 231 293 343 414
#
# _framework density 24.030161
#
# number of rings (size 3 to 8) (size 9 to 14) (size 15 to 20)
#    0.000    0.857    5.714    1.714    8.000    0.571 
#    0.000    3.571    0.000    0.000    0.000    0.000 
#    0.000    0.000    0.000    0.000    0.000    0.000 
#
# Total GULP energy -173489.113862 kJ/mol
# GULP energy per Si atom -12392.079562 kJ/mol
# Density = 2.397547 g / cm^3
# Si number density = 24.030161 Si / 1000 Ang^3
#
#
#
# Elastic Constant Matrix: (Units=GPa)
#
#
# Indices 1 2 3 4 5 6 
#
# 1 93.4614 32.1357 28.5026 -4.9273 -10.1267 -2.8282
# 2 32.1357 142.2254 68.5178 5.9183 -11.6583 1.2518
# 3 28.5026 68.5178 124.7666 -19.0728 -21.4126 -9.5976
# 4 -4.9273 5.9183 -19.0728 44.6977 -13.5857 -8.1019
# 5 -10.1267 -11.6583 -21.4126 -13.5857 25.8672 0.4543
# 6 -2.8282 1.2518 -9.5976 -8.1019 0.4543 31.1321
#
#
#
# Elastic Compliance Matrix: (Units=1/GPa)
#
#
# Indices 1 2 3 4 5 6 
#
# 1 0.012477 -0.002834 0.000702 0.004486 0.006500 0.002536
# 2 -0.002834 0.011833 -0.009107 -0.009281 -0.008087 -0.005838
# 3 0.000702 -0.009107 0.020645 0.019203 0.023144 0.011454
# 4 0.004486 -0.009281 0.019203 0.047151 0.037910 0.018418
# 5 0.006500 -0.008087 0.023144 0.037910 0.076333 0.016802
# 6 0.002536 -0.005838 0.011454 0.018418 0.016802 0.040666
#
#
# Mechanical properties :
#
#
# Convention : Reuss Voigt Hill
#
# Bulk Modulus (GPa) = 44.48749 68.75174 56.61961
# Shear Modulus (GPa) = 20.91399 35.75921 28.33660
#
# Velocity S-wave (km/s) = 2.95332 3.86177 3.43769
# Velocity P-wave (km/s) = 5.49389 6.96829 6.27455
#
# Compressibility (1/GPa) = 0.02247823
#
# Stress axis : x y z
#
# Youngs Moduli (GPa) = 80.14526 84.50631 48.43903
#
# Poissons Ratio (x) = 0.23946 -0.03401
# Poissons Ratio (y) = 0.22711 0.44113
# Poissons Ratio (z) = -0.05627 0.76960
#
# Static dielectric constant tensor:
#      x y z
#    x 4.346800 -0.308870 -0.345110 
#    y -0.308870 4.561400 0.192800 
#    z -0.345110 0.192800 4.912050 
# 
# 
# High freq. dielectric constant tensor:
#      x y z
#    x 1.944510 -0.009980 -0.015640 
#    y -0.009980 1.941360 -0.020270 
#    z -0.015640 -0.020270 1.955100 
# 
# From -- ./inp_files/212902.got.cif
#   From: 2010.06.25/outbox.cif.g09.slc.cpg/sg2_107_cif.got.tgz:212902.got - 2010.06.27 13:26:56.
