data_PCOD8016427
_publ_section_title
;
Structure prediction by ZEFSAII (Michael W. Deem and Ramdas Pophale) SiO2 
 PCOD8016427
Probable space group: P -1
;
_chemical_formula_sum "Si O2"
_cell_formula_units_Z 16
_cell_length_a 13.479892
_cell_length_b 9.027913
_cell_length_c 8.874848
_cell_angle_alpha 45.451185
_cell_angle_beta 85.448473
_cell_angle_gamma 100.051810
_cell_volume 725.855766
_symmetry_space_group_name_H-M "P -1"
_symmetry_group_IT_number 2
_symmetry_cell_setting 'triclinic'
loop_
_space_group_symop_operation_xyz
x,y,z
-x,-y,-z
loop_
_atom_site_type_symbol
_atom_site_label
_atom_site_fract_x
_atom_site_fract_y
_atom_site_fract_z
Si Si1 0.904940 0.262057 0.506544
Si Si2 0.628880 0.578441 0.191020
Si Si3 0.417566 0.087740 0.866982
Si Si4 0.812821 0.614378 0.347042
Si Si5 0.824399 0.100183 0.952063
Si Si6 0.141222 0.446445 0.282959
Si Si7 0.549977 0.835233 0.542187
Si Si8 0.253511 0.171219 0.284318
O O1 0.890274 0.503797 0.331617
O O2 0.893482 0.183798 0.735903
O O3 0.021594 0.288011 0.419038
O O4 0.826216 0.077520 0.541055
O O5 0.556874 0.672351 0.238208
O O6 0.704003 0.504816 0.349276
O O7 0.543661 0.386460 0.252186
O O8 0.699639 0.753452 0.939278
O O9 0.428380 0.101094 0.678429
O O10 0.500000 0.000000 0.000000
O O11 0.299041 0.951914 0.027324
O O12 0.797958 0.542210 0.574017
O O13 0.850615 0.881033 0.154181
O O14 0.854564 0.299554 0.930788
O O15 0.197818 0.347029 0.219754
O O16 0.657367 0.833526 0.605544
O O17 0.500000 0.000000 0.500000
#
# Coordination Sequence:
#
# PCOD8016427 Si02
#       8
#     2   2   2   2   2   2   2   2
#     4  11  23  45  69  96 134 184 225 279 340 393
#     4  11  24  44  67  97 132 183 216 270 341 403
#     4  11  24  41  69  97 132 174 221 274 328 408
#     4  10  21  44  70  95 131 175 226 284 324 403
#     4  10  22  43  68 101 132 173 229 276 337 397
#     4  11  26  40  72  99 134 177 229 284 340 390
#     4  12  27  41  69 101 135 177 224 270 344 405
#     4  12  24  46  64  99 146 174 221 286 332 406
#
# _framework density 22.042947000000002
#
# number of rings (size 3 to 8) (size 9 to 14) (size 15 to 20)
#    0.000    1.000    2.500    5.625    7.000    2.000 
#    2.250    0.625    0.000    0.000    0.000    0.000 
#    0.000    0.000    0.000    0.000    0.000    0.000 
#
# Total GULP energy -198300.223711 kJ/mol
# GULP energy per Si atom -12393.763982 kJ/mol
# Density = 2.199278 g / cm^3
# Si number density = 22.042947 Si / 1000 Ang^3
#
#
#
# Elastic Constant Matrix: (Units=GPa)
#
#
# Indices 1 2 3 4 5 6 
#
# 1 101.6466 46.4946 36.9885 2.5283 -1.6912 -0.1914
# 2 46.4946 165.8802 42.9186 -15.1145 -3.7645 -13.7231
# 3 36.9885 42.9186 67.3571 -3.2709 2.0806 4.4758
# 4 2.5283 -15.1145 -3.2709 44.2759 3.4632 -3.1819
# 5 -1.6912 -3.7645 2.0806 3.4632 32.5753 -0.3780
# 6 -0.1914 -13.7231 4.4758 -3.1819 -0.3780 43.0967
#
#
#
# Elastic Compliance Matrix: (Units=1/GPa)
#
#
# Indices 1 2 3 4 5 6 
#
# 1 0.013096 -0.002354 -0.005808 -0.002075 0.000997 -0.000233
# 2 -0.002354 0.008297 -0.004100 0.002834 0.000835 0.003274
# 3 -0.005808 -0.004100 0.020968 0.000402 -0.002198 -0.003499
# 4 -0.002075 0.002834 0.000402 0.024071 -0.002335 0.002608
# 5 0.000997 0.000835 -0.002198 -0.002335 0.031242 0.000600
# 6 -0.000233 0.003274 -0.003499 0.002608 0.000600 0.024806
#
#
# Mechanical properties :
#
#
# Convention : Reuss Voigt Hill
#
# Bulk Modulus (GPa) = 56.06076 65.29857 60.67966
# Shear Modulus (GPa) = 32.69073 37.88839 35.28956
#
# Velocity S-wave (km/s) = 3.85521 4.15039 4.00552
# Velocity P-wave (km/s) = 6.73087 7.25640 6.99857
#
# Compressibility (1/GPa) = 0.01783779
#
# Stress axis : x y z
#
# Youngs Moduli (GPa) = 76.36041 120.52661 47.69221
#
# Poissons Ratio (x) = 0.28368 0.27699
# Poissons Ratio (y) = 0.17972 0.19553
# Poissons Ratio (z) = 0.44349 0.49414
#
# Static dielectric constant tensor:
#      x y z
#    x 4.046590 -0.079520 0.052790 
#    y -0.079520 4.386000 -0.151100 
#    z 0.052790 -0.151100 3.837900 
# 
# 
# High freq. dielectric constant tensor:
#      x y z
#    x 1.875250 -0.006390 -0.003000 
#    y -0.006390 1.888580 -0.011960 
#    z -0.003000 -0.011960 1.852650 
# 
# From -- ./inp_files/242028.got.cif
#   From: 2010.06.25/outbox.cif.g09.slc.cpg/sg2_122_cif.got.tgz:242028.got - 2010.06.27 13:26:56.
