data_PCOD8016468
_publ_section_title
;
Structure prediction by ZEFSAII (Michael W. Deem and Ramdas Pophale) SiO2 
 PCOD8016468
Probable space group: P -1
;
_chemical_formula_sum "Si O2"
_cell_formula_units_Z 16
_cell_length_a 9.984122
_cell_length_b 15.122091
_cell_length_c 5.628554
_cell_angle_alpha 119.958599
_cell_angle_beta 87.882149
_cell_angle_gamma 77.173805
_cell_volume 706.812269
_symmetry_space_group_name_H-M "P -1"
_symmetry_group_IT_number 2
_symmetry_cell_setting 'triclinic'
loop_
_space_group_symop_operation_xyz
x,y,z
-x,-y,-z
loop_
_atom_site_type_symbol
_atom_site_label
_atom_site_fract_x
_atom_site_fract_y
_atom_site_fract_z
Si Si1 0.099927 0.934843 0.105446
Si Si2 0.600800 0.934426 0.210314
Si Si3 0.100866 0.682537 0.225670
Si Si4 0.889267 0.871527 0.328174
Si Si5 0.394307 0.678611 0.251890
Si Si6 0.115447 0.559388 0.558956
Si Si7 0.396505 0.865292 0.816529
Si Si8 0.407481 0.472966 0.272247
O O1 0.013239 0.858607 0.111834
O O2 0.140145 0.013642 0.396411
O O3 0.248383 0.857164 0.913937
O O4 0.000000 0.000000 0.000000
O O5 0.744939 0.861272 0.211369
O O6 0.500000 0.000000 0.500000
O O7 0.638163 0.019081 0.146419
O O8 0.519992 0.857871 0.987710
O O9 0.233314 0.733150 0.260504
O O10 0.096721 0.628985 0.411728
O O11 0.953180 0.774184 0.370502
O O12 0.109303 0.614786 0.891831
O O13 0.451617 0.761935 0.510262
O O14 0.381965 0.568388 0.214605
O O15 0.510513 0.643388 0.990653
O O16 0.262852 0.469621 0.398211
O O17 0.000000 0.500000 0.500000
O O18 0.500000 0.500000 0.500000
#
# Coordination Sequence:
#
# PCOD8016468 Si02
#       8
#     2   2   2   2   2   2   2   2
#     4  11  22  39  68  95 134 181 231 289 352 412
#     4  11  24  46  61  94 146 187 229 293 354 422
#     4  11  25  44  76 107 143 187 244 299 352 442
#     4  11  25  41  66 102 137 181 238 292 352 424
#     4  10  23  42  70 105 132 178 245 297 356 422
#     4  11  25  49  73 105 149 187 234 296 373 432
#     4  11  24  42  70  95 137 190 237 296 354 428
#     4  10  21  44  71  97 137 177 227 302 356 424
#
# _framework density 22.636842999999999
#
# number of rings (size 3 to 8) (size 9 to 14) (size 15 to 20)
#    0.000    1.250    3.750    1.125    7.000    1.000 
#    4.500    0.000    0.000    0.000    0.000    0.000 
#    0.000    0.000    0.000    0.000    0.000    0.000 
#
# Total GULP energy -198249.293109 kJ/mol
# GULP energy per Si atom -12390.580819 kJ/mol
# Density = 2.258532 g / cm^3
# Si number density = 22.636843 Si / 1000 Ang^3
#
#
#
# Elastic Constant Matrix: (Units=GPa)
#
#
# Indices 1 2 3 4 5 6 
#
# 1 188.6094 34.2248 64.2156 5.8730 6.6470 -19.8729
# 2 34.2248 39.2124 18.2697 -8.4700 -0.5844 -11.3757
# 3 64.2156 18.2697 151.3185 5.7861 12.4558 -2.3798
# 4 5.8730 -8.4700 5.7861 37.9605 -1.6617 -1.5356
# 5 6.6470 -0.5844 12.4558 -1.6617 42.9629 -2.1455
# 6 -19.8729 -11.3757 -2.3798 -1.5356 -2.1455 35.5291
#
#
#
# Elastic Compliance Matrix: (Units=1/GPa)
#
#
# Indices 1 2 3 4 5 6 
#
# 1 0.007329 -0.005062 -0.002355 -0.001836 -0.000481 0.002213
# 2 -0.005062 0.035931 -0.002654 0.009698 0.002870 0.009088
# 3 -0.002355 -0.002654 0.008142 -0.001639 -0.002187 -0.001824
# 4 -0.001836 0.009698 -0.001639 0.029273 0.002191 0.003366
# 5 -0.000481 0.002870 -0.002187 0.002191 0.024211 0.002060
# 6 0.002213 0.009088 -0.001824 0.003366 0.002060 0.032441
#
#
# Mechanical properties :
#
#
# Convention : Reuss Voigt Hill
#
# Bulk Modulus (GPa) = 31.98881 68.06229 50.02555
# Shear Modulus (GPa) = 29.78149 40.78583 35.28366
#
# Velocity S-wave (km/s) = 3.63108 4.24930 3.95230
# Velocity P-wave (km/s) = 5.63397 7.36259 6.55551
#
# Compressibility (1/GPa) = 0.03126093
#
# Stress axis : x y z
#
# Youngs Moduli (GPa) = 136.43569 27.83128 122.81564
#
# Poissons Ratio (x) = 0.14088 0.28919
# Poissons Ratio (y) = 0.69062 0.32598
# Poissons Ratio (z) = 0.32127 0.07387
#
# Static dielectric constant tensor:
#      x y z
#    x 3.982350 -1.090070 0.039720 
#    y -1.090070 2.259840 0.157840 
#    z 0.039720 0.157840 4.187580 
# 
# 
# High freq. dielectric constant tensor:
#      x y z
#    x 1.909300 -0.014970 -0.003220 
#    y -0.014970 1.874900 -0.010230 
#    z -0.003220 -0.010230 1.901760 
# 
# From -- ./inp_files/49322.got.cif
#   From: 2010.06.25/outbox.cif.g09.slc.cpg/sg2_25_cif.got.tgz:49322.got - 2010.06.27 13:26:56.
