data_PCOD8016658
_publ_section_title
;
Structure prediction by ZEFSAII (Michael W. Deem and Ramdas Pophale) SiO2 
 PCOD8016658
Probable space group: P -1
;
_chemical_formula_sum "Si O2"
_cell_formula_units_Z 14
_cell_length_a 10.763861
_cell_length_b 17.715325
_cell_length_c 17.970667
_cell_angle_alpha 22.256516
_cell_angle_beta 28.369620
_cell_angle_gamma 33.268468
_cell_volume 612.177310
_symmetry_space_group_name_H-M "P -1"
_symmetry_group_IT_number 2
_symmetry_cell_setting 'triclinic'
loop_
_space_group_symop_operation_xyz
x,y,z
-x,-y,-z
loop_
_atom_site_type_symbol
_atom_site_label
_atom_site_fract_x
_atom_site_fract_y
_atom_site_fract_z
Si Si1 0.527229 0.105858 0.643957
Si Si2 0.287074 0.014518 0.196311
Si Si3 0.066221 0.405010 0.678803
Si Si4 0.818418 0.163075 0.736991
Si Si5 0.767169 0.185423 0.143125
Si Si6 0.465768 0.692819 0.990174
Si Si7 0.778508 0.293015 0.201133
O O1 0.272995 0.256559 0.659714
O O2 0.653656 0.173139 0.440754
O O3 0.738662 0.093779 0.611513
O O4 0.448904 0.881264 0.881630
O O5 0.090454 0.221015 0.102290
O O6 0.223719 0.854012 0.314034
O O7 0.583543 0.067697 0.987915
O O8 0.184412 0.611148 0.440412
O O9 0.795939 0.421314 0.757473
O O10 0.000433 0.317697 0.874601
O O11 0.101518 0.045446 0.717762
O O12 0.655934 0.243521 0.230569
O O13 0.525704 0.225386 0.174916
O O14 0.719411 0.534142 0.022114
#
# Coordination Sequence:
#
# PCOD8016658 Si02
#       7
#     2   2   2   2   2   2   2
#     4  12  25  44  64 102 137 173 214 274 331 388
#     4  10  23  46  65  99 136 168 229 266 317 401
#     4  10  24  42  72  98 126 172 224 271 329 382
#     4  10  21  45  75  94 126 177 222 280 316 376
#     4   9  22  45  66 101 129 163 231 268 317 395
#     4  10  25  43  69  99 136 166 223 272 327 399
#     4  11  25  43  67  97 134 185 206 269 340 382
#
# _framework density 22.86919
#
# number of rings (size 3 to 8) (size 9 to 14) (size 15 to 20)
#    0.857    0.857    1.429    1.286    4.000    4.571 
#    2.571    0.000    0.000    0.000    0.000    0.000 
#    0.000    0.000    0.000    0.000    0.000    0.000 
#
# Total GULP energy -173534.115935 kJ/mol
# GULP energy per Si atom -12395.293995 kJ/mol
# Density = 2.281714 g / cm^3
# Si number density = 22.869190 Si / 1000 Ang^3
#
#
#
# Elastic Constant Matrix: (Units=GPa)
#
#
# Indices 1 2 3 4 5 6 
#
# 1 67.1062 18.5005 20.1354 -6.2831 7.8261 1.8022
# 2 18.5005 121.1238 34.6343 -31.5477 -5.6703 8.0454
# 3 20.1354 34.6343 58.8995 -12.8030 -4.3841 13.0169
# 4 -6.2831 -31.5477 -12.8030 39.2138 9.5352 3.2067
# 5 7.8261 -5.6703 -4.3841 9.5352 27.7218 -7.0179
# 6 1.8022 8.0454 13.0169 3.2067 -7.0179 28.0831
#
#
#
# Elastic Compliance Matrix: (Units=1/GPa)
#
#
# Indices 1 2 3 4 5 6 
#
# 1 0.017818 -0.000915 -0.005581 0.001978 -0.006838 -0.000229
# 2 -0.000915 0.012028 -0.004371 0.008739 -0.001682 -0.002779
# 3 -0.005581 -0.004371 0.024700 0.004367 0.000501 -0.010212
# 4 0.001978 0.008739 0.004367 0.038890 -0.014689 -0.012766
# 5 -0.006838 -0.001682 0.000501 -0.014689 0.046320 0.013941
# 6 -0.000229 -0.002779 -0.010212 -0.012766 0.013941 0.046094
#
#
# Mechanical properties :
#
#
# Convention : Reuss Voigt Hill
#
# Bulk Modulus (GPa) = 30.47920 43.74108 37.11014
# Shear Modulus (GPa) = 22.88112 30.59436 26.73774
#
# Velocity S-wave (km/s) = 3.16653 3.66156 3.42301
# Velocity P-wave (km/s) = 5.16970 6.08639 5.64668
#
# Compressibility (1/GPa) = 0.03280926
#
# Stress axis : x y z
#
# Youngs Moduli (GPa) = 56.12424 83.14182 40.48631
#
# Poissons Ratio (x) = 0.07610 0.22597
# Poissons Ratio (y) = 0.05137 0.17697
# Poissons Ratio (z) = 0.31325 0.36342
#
# Static dielectric constant tensor:
#      x y z
#    x 4.156390 0.006920 0.305830 
#    y 0.006920 4.127580 -0.035560 
#    z 0.305830 -0.035560 3.782240 
# 
# 
# High freq. dielectric constant tensor:
#      x y z
#    x 1.900210 0.004150 0.021800 
#    y 0.004150 1.915180 -0.006010 
#    z 0.021800 -0.006010 1.879930 
# 
# From -- ./inp_files/570290.got.cif
#   From: 2010.06.25/outbox.cif.g09.slc.cpg/sg2_286_cif.got.tgz:570290.got - 2010.06.27 13:26:56.
