data_PCOD8016420
_publ_section_title
;
Structure prediction by ZEFSAII (Michael W. Deem and Ramdas Pophale) SiO2 
 PCOD8016420
Probable space group: P -1
;
_chemical_formula_sum "Si O2"
_cell_formula_units_Z 16
_cell_length_a 9.633681
_cell_length_b 16.772985
_cell_length_c 12.056254
_cell_angle_alpha 148.658055
_cell_angle_beta 45.434646
_cell_angle_gamma 133.492209
_cell_volume 700.831916
_symmetry_space_group_name_H-M "P -1"
_symmetry_group_IT_number 2
_symmetry_cell_setting 'triclinic'
loop_
_space_group_symop_operation_xyz
x,y,z
-x,-y,-z
loop_
_atom_site_type_symbol
_atom_site_label
_atom_site_fract_x
_atom_site_fract_y
_atom_site_fract_z
Si Si1 0.712368 0.466257 0.317953
Si Si2 0.658025 0.877842 0.556956
Si Si3 0.257156 0.235197 0.049373
Si Si4 0.461424 0.144000 0.029002
Si Si5 0.998441 0.406460 0.501085
Si Si6 0.412063 0.555915 0.225431
Si Si7 0.867674 0.791454 0.537549
Si Si8 0.278948 0.003790 0.582906
O O1 0.500000 0.500000 0.500000
O O2 0.667909 0.283463 0.088583
O O3 0.824671 0.599986 0.325869
O O4 0.845097 0.484621 0.375276
O O5 0.553332 0.696655 0.379846
O O6 0.841583 0.871477 0.529153
O O7 0.727805 0.961904 0.502235
O O8 0.514325 0.974695 0.814449
O O9 0.395496 0.153182 0.949182
O O10 0.364834 0.415690 0.174702
O O11 0.059666 0.242112 0.241801
O O12 0.204518 0.140591 0.852524
O O13 0.287203 0.161610 0.232015
O O14 0.773260 0.377053 0.637876
O O15 0.000000 0.500000 0.500000
O O16 0.500000 0.500000 0.000000
O O17 0.099413 0.847097 0.516217
O O18 0.500000 0.000000 0.500000
#
# Coordination Sequence:
#
# PCOD8016420 Si02
#       8
#     2   2   2   2   2   2   2   2
#     4  10  21  44  70 103 140 177 232 291 345 411
#     4  12  26  46  70 102 147 182 234 289 355 418
#     4  11  22  45  69 103 139 183 234 293 344 414
#     4  11  24  44  75 104 139 181 236 294 351 413
#     4  10  23  39  73 105 135 178 234 292 343 408
#     4  11  25  44  70 106 140 184 232 285 354 416
#     4  11  26  45  73 102 141 189 236 284 354 422
#     4  12  27  46  70 102 148 186 233 292 349 418
#
# _framework density 22.830010000000001
#
# number of rings (size 3 to 8) (size 9 to 14) (size 15 to 20)
#    0.000    1.000    5.000    1.500    8.750    2.500 
#    2.250    0.625    0.000    0.000    0.000    0.000 
#    0.000    0.000    0.000    0.000    0.000    0.000 
#
# Total GULP energy -198268.701701 kJ/mol
# GULP energy per Si atom -12391.793856 kJ/mol
# Density = 2.277805 g / cm^3
# Si number density = 22.830010 Si / 1000 Ang^3
#
#
#
# Elastic Constant Matrix: (Units=GPa)
#
#
# Indices 1 2 3 4 5 6 
#
# 1 145.5748 39.0361 30.5006 -7.1250 -2.7173 0.4904
# 2 39.0361 100.5701 33.4827 7.2557 -0.9099 12.9220
# 3 30.5006 33.4827 116.9160 0.7988 2.7675 12.0220
# 4 -7.1250 7.2557 0.7988 34.2121 -3.9622 0.9305
# 5 -2.7173 -0.9099 2.7675 -3.9622 28.0897 -2.7476
# 6 0.4904 12.9220 12.0220 0.9305 -2.7476 44.5445
#
#
#
# Elastic Compliance Matrix: (Units=1/GPa)
#
#
# Indices 1 2 3 4 5 6 
#
# 1 0.008113 -0.002993 -0.001429 0.002475 0.001294 0.001193
# 2 -0.002993 0.012528 -0.002479 -0.003187 -0.000372 -0.002889
# 3 -0.001429 -0.002479 0.009877 -0.000110 -0.001404 -0.002015
# 4 0.002475 -0.003187 -0.000110 0.030937 0.004566 0.000562
# 5 0.001294 -0.000372 -0.001404 0.004566 0.036754 0.002644
# 6 0.001193 -0.002889 -0.002015 0.000562 0.002644 0.023969
#
#
# Mechanical properties :
#
#
# Convention : Reuss Voigt Hill
#
# Bulk Modulus (GPa) = 59.82926 63.23329 61.53127
# Shear Modulus (GPa) = 35.32204 38.70537 37.01370
#
# Velocity S-wave (km/s) = 3.93768 4.12196 4.03087
# Velocity P-wave (km/s) = 6.85107 7.10011 6.97670
#
# Compressibility (1/GPa) = 0.01671423
#
# Stress axis : x y z
#
# Youngs Moduli (GPa) = 123.26309 79.81933 101.24195
#
# Poissons Ratio (x) = 0.23891 0.14472
# Poissons Ratio (y) = 0.36895 0.25102
# Poissons Ratio (z) = 0.17620 0.19791
#
# Static dielectric constant tensor:
#      x y z
#    x -3.210580 -3.643870 6.231500 
#    y -3.643870 2.499770 3.147860 
#    z 6.231500 3.147860 -1.050940 
# 
# 
# High freq. dielectric constant tensor:
#      x y z
#    x 1.912350 -0.005910 0.004700 
#    y -0.005910 1.894040 0.002890 
#    z 0.004700 0.002890 1.899730 
# 
# From -- ./inp_files/403497.got.cif
#   From: 2010.06.25/outbox.cif.g09.slc.cpg/sg2_202_cif.got.tgz:403497.got - 2010.06.27 13:26:56.
