data_PCOD8016373
_publ_section_title
;
Structure prediction by ZEFSAII (Michael W. Deem and Ramdas Pophale) SiO2 
 PCOD8016373
Probable space group: P -1
;
_chemical_formula_sum "Si O2"
_cell_formula_units_Z 16
_cell_length_a 13.860015
_cell_length_b 19.352172
_cell_length_c 8.822560
_cell_angle_alpha 140.011090
_cell_angle_beta 138.178067
_cell_angle_gamma 31.338343
_cell_volume 761.159192
_symmetry_space_group_name_H-M "P -1"
_symmetry_group_IT_number 2
_symmetry_cell_setting 'triclinic'
loop_
_space_group_symop_operation_xyz
x,y,z
-x,-y,-z
loop_
_atom_site_type_symbol
_atom_site_label
_atom_site_fract_x
_atom_site_fract_y
_atom_site_fract_z
Si Si1 0.023724 0.216003 0.656668
Si Si2 0.192449 0.963918 0.200735
Si Si3 0.406089 0.651896 0.003029
Si Si4 0.665420 0.853874 0.874867
Si Si5 0.076138 0.648022 0.538869
Si Si6 0.298442 0.091770 0.333936
Si Si7 0.387768 0.600966 0.396233
Si Si8 0.588371 0.649662 0.500448
O O1 0.944617 0.337138 0.641939
O O2 0.835635 0.262348 0.601177
O O3 0.156479 0.059874 0.466456
O O4 0.141763 0.225015 0.934688
O O5 0.229763 0.007253 0.159231
O O6 0.366550 0.795246 0.148149
O O7 0.000000 0.000000 0.000000
O O8 0.484879 0.619462 0.211269
O O9 0.204091 0.686851 0.811836
O O10 0.578099 0.511769 0.874496
O O11 0.687554 0.892777 0.800276
O O12 0.583895 0.773160 0.646630
O O13 0.500000 0.000000 0.000000
O O14 0.184907 0.486819 0.444257
O O15 0.863053 0.745764 0.523430
O O16 0.500000 0.000000 0.500000
O O17 0.500000 0.500000 0.500000
O O18 0.479567 0.670469 0.564761
#
# Coordination Sequence:
#
# PCOD8016373 Si02
#       8
#     2   2   2   2   2   2   2   2
#     4  11  23  42  69  99 140 162 221 282 336 380
#     4  11  21  44  72  97 128 179 222 270 331 400
#     4  11  21  40  71 100 135 166 226 273 331 392
#     4  12  28  47  61  97 141 177 218 277 332 395
#     4  10  21  44  68  98 131 170 222 278 325 397
#     4  11  24  44  67  93 134 178 223 263 327 398
#     4  11  21  42  67 106 130 168 216 282 331 384
#     4  11  25  43  68  94 137 180 219 263 337 402
#
# _framework density 21.020568999999998
#
# number of rings (size 3 to 8) (size 9 to 14) (size 15 to 20)
#    0.000    1.000    5.000    4.500    3.500    3.000 
#    2.250    3.125    0.000    0.000    0.000    0.000 
#    0.000    0.000    0.000    0.000    0.000    0.000 
#
# Total GULP energy -198225.491925 kJ/mol
# GULP energy per Si atom -12389.093245 kJ/mol
# Density = 2.097273 g / cm^3
# Si number density = 21.020569 Si / 1000 Ang^3
#
#
#
# Elastic Constant Matrix: (Units=GPa)
#
#
# Indices 1 2 3 4 5 6 
#
# 1 164.0965 58.3742 53.6172 -2.9774 -9.1734 -0.8427
# 2 58.3742 117.5249 31.4585 -1.9325 -7.8835 -4.4435
# 3 53.6172 31.4585 101.9697 -18.0514 -6.4247 6.4339
# 4 -2.9774 -1.9325 -18.0514 50.9604 3.7339 -1.6394
# 5 -9.1734 -7.8835 -6.4247 3.7339 28.1839 -3.3978
# 6 -0.8427 -4.4435 6.4339 -1.6394 -3.3978 37.2965
#
#
#
# Elastic Compliance Matrix: (Units=1/GPa)
#
#
# Indices 1 2 3 4 5 6 
#
# 1 0.008441 -0.003144 -0.003595 -0.000974 0.001239 0.000506
# 2 -0.003144 0.010710 -0.001722 -0.000469 0.001841 0.001649
# 3 -0.003595 -0.001722 0.013163 0.004276 0.000502 -0.002323
# 4 -0.000974 -0.000469 0.004276 0.021228 -0.002297 -0.000092
# 5 0.001239 0.001841 0.000502 -0.002297 0.037234 0.003452
# 6 0.000506 0.001649 -0.002323 -0.000092 0.003452 0.027731
#
#
# Mechanical properties :
#
#
# Convention : Reuss Voigt Hill
#
# Bulk Modulus (GPa) = 64.96699 74.49897 69.73298
# Shear Modulus (GPa) = 35.57178 39.29756 37.43467
#
# Velocity S-wave (km/s) = 4.11814 4.32844 4.22460
# Velocity P-wave (km/s) = 7.32022 7.77808 7.55262
#
# Compressibility (1/GPa) = 0.01539243
#
# Stress axis : x y z
#
# Youngs Moduli (GPa) = 118.46612 93.37428 75.96795
#
# Poissons Ratio (x) = 0.29359 0.27309
# Poissons Ratio (y) = 0.37249 0.13080
# Poissons Ratio (z) = 0.42586 0.16078
#
# Static dielectric constant tensor:
#      x y z
#    x 4.012750 -0.180720 -0.031510 
#    y -0.180720 4.624990 0.195860 
#    z -0.031510 0.195860 3.718310 
# 
# 
# High freq. dielectric constant tensor:
#      x y z
#    x 1.827840 0.004710 -0.006630 
#    y 0.004710 1.845590 -0.012300 
#    z -0.006630 -0.012300 1.806460 
# 
# From -- ./inp_files/319119.got.cif
#   From: 2010.06.25/outbox.cif.g09.slc.cpg/sg2_160_cif.got.tgz:319119.got - 2010.06.27 13:26:56.
