data_PCOD8016211
_publ_section_title
;
Structure prediction by ZEFSAII (Michael W. Deem and Ramdas Pophale) SiO2 
 PCOD8016211
Probable space group: P -1
;
_chemical_formula_sum "Si O2"
_cell_formula_units_Z 14
_cell_length_a 12.330426
_cell_length_b 15.046489
_cell_length_c 8.806477
_cell_angle_alpha 31.378850
_cell_angle_beta 133.170853
_cell_angle_gamma 124.147254
_cell_volume 619.343035
_symmetry_space_group_name_H-M "P -1"
_symmetry_group_IT_number 2
_symmetry_cell_setting 'triclinic'
loop_
_space_group_symop_operation_xyz
x,y,z
-x,-y,-z
loop_
_atom_site_type_symbol
_atom_site_label
_atom_site_fract_x
_atom_site_fract_y
_atom_site_fract_z
Si Si1 0.065130 0.829833 0.233535
Si Si2 0.594910 0.231393 0.421003
Si Si3 0.342580 0.473760 0.730772
Si Si4 0.849940 0.736569 0.920119
Si Si5 0.087774 0.522113 0.899891
Si Si6 0.652621 0.397296 0.771470
Si Si7 0.585689 0.009565 0.224757
O O1 0.243922 0.821875 0.414669
O O2 0.008882 0.675748 0.504601
O O3 0.995126 0.813049 0.023570
O O4 0.000000 0.000000 0.000000
O O5 0.603279 0.350735 0.403245
O O6 0.521944 0.055195 0.652038
O O7 0.485144 0.337452 0.043385
O O8 0.273839 0.526713 0.423118
O O9 0.220952 0.398379 0.836514
O O10 0.735567 0.889330 0.539502
O O11 0.903807 0.647106 0.946955
O O12 0.252119 0.569620 0.036619
O O13 0.000000 0.500000 0.000000
O O14 0.500000 0.500000 0.500000
O O15 0.631373 0.197563 0.030123
O O16 0.500000 0.000000 0.000000
#
# Coordination Sequence:
#
# PCOD8016211 Si02
#       7
#     2   2   2   2   2   2   2
#     4  12  26  46  69 102 140 183 230 280 346 425
#     4  10  22  41  73  98 134 178 235 275 341 407
#     4  10  21  43  74  98 131 184 233 280 340 408
#     4  11  25  46  73  97 136 188 232 281 346 418
#     4  12  27  45  67 100 140 179 232 285 348 406
#     4  12  25  42  68 106 140 174 228 291 345 403
#     4  11  23  42  69 102 134 176 230 289 342 394
#
# _framework density 22.604600000000001
#
# number of rings (size 3 to 8) (size 9 to 14) (size 15 to 20)
#    0.000    0.857    2.857    3.857    4.000    3.429 
#    0.000    5.714    0.000    0.000    0.000    0.000 
#    0.000    0.000    0.000    0.000    0.000    0.000 
#
# Total GULP energy -173634.289046 kJ/mol
# GULP energy per Si atom -12402.449218 kJ/mol
# Density = 2.255315 g / cm^3
# Si number density = 22.604600 Si / 1000 Ang^3
#
#
#
# Elastic Constant Matrix: (Units=GPa)
#
#
# Indices 1 2 3 4 5 6 
#
# 1 125.3864 32.2794 56.0489 -16.9134 14.1973 -9.0056
# 2 32.2794 133.3250 51.6169 -2.1124 8.4232 -20.7055
# 3 56.0489 51.6169 141.5223 -12.2991 4.8900 -14.2304
# 4 -16.9134 -2.1124 -12.2991 43.2151 -3.2139 2.6358
# 5 14.1973 8.4232 4.8900 -3.2139 33.1727 1.3783
# 6 -9.0056 -20.7055 -14.2304 2.6358 1.3783 31.8807
#
#
#
# Elastic Compliance Matrix: (Units=1/GPa)
#
#
# Indices 1 2 3 4 5 6 
#
# 1 0.010564 -0.000830 -0.003430 0.002801 -0.003568 0.000837
# 2 -0.000830 0.009634 -0.002708 -0.001078 -0.002004 0.004990
# 3 -0.003430 -0.002708 0.009637 0.001239 0.000795 0.001437
# 4 0.002801 -0.001078 0.001239 0.024726 0.001348 -0.001458
# 5 -0.003568 -0.002004 0.000795 0.001348 0.032338 -0.003464
# 6 0.000837 0.004990 0.001437 -0.001458 -0.003464 0.035756
#
#
# Mechanical properties :
#
#
# Convention : Reuss Voigt Hill
#
# Bulk Modulus (GPa) = 62.89631 75.56935 69.23283
# Shear Modulus (GPa) = 35.23823 39.00629 37.12226
#
# Velocity S-wave (km/s) = 3.95257 4.15853 4.05686
# Velocity P-wave (km/s) = 6.97964 7.52073 7.25523
#
# Compressibility (1/GPa) = 0.01589918
#
# Stress axis : x y z
#
# Youngs Moduli (GPa) = 94.65731 103.79727 103.76741
#
# Poissons Ratio (x) = 0.08614 0.35596
# Poissons Ratio (y) = 0.07856 0.28099
# Poissons Ratio (z) = 0.32471 0.28107
#
# Static dielectric constant tensor:
#      x y z
#    x 5.788550 -1.416880 -0.969990 
#    y -1.416880 5.582740 0.993750 
#    z -0.969990 0.993750 4.880440 
# 
# 
# High freq. dielectric constant tensor:
#      x y z
#    x 1.886960 0.001330 0.000820 
#    y 0.001330 1.898260 0.008950 
#    z 0.000820 0.008950 1.908830 
# 
# From -- ./inp_files/158111.got.cif
#   From: 2010.06.25/outbox.cif.g09.slc.cpg/sg2_80_cif.got.tgz:158111.got - 2010.06.27 13:26:56.
