data_PCOD8016665
_publ_section_title
;
Structure prediction by ZEFSAII (Michael W. Deem and Ramdas Pophale) SiO2 
 PCOD8016665
Probable space group: P -1
;
_chemical_formula_sum "Si O2"
_cell_formula_units_Z 16
_cell_length_a 6.745003
_cell_length_b 21.645308
_cell_length_c 6.409798
_cell_angle_alpha 52.558901
_cell_angle_beta 111.695272
_cell_angle_gamma 108.562671
_cell_volume 684.805106
_symmetry_space_group_name_H-M "P -1"
_symmetry_group_IT_number 2
_symmetry_cell_setting 'triclinic'
loop_
_space_group_symop_operation_xyz
x,y,z
-x,-y,-z
loop_
_atom_site_type_symbol
_atom_site_label
_atom_site_fract_x
_atom_site_fract_y
_atom_site_fract_z
Si Si1 0.356698 0.842337 0.426829
Si Si2 0.151510 0.759485 0.895670
Si Si3 0.660729 0.969628 0.467229
Si Si4 0.901617 0.385951 0.091658
Si Si5 0.236067 0.498930 0.506804
Si Si6 0.964463 0.115785 0.110609
Si Si7 0.384456 0.694940 0.496113
Si Si8 0.649241 0.577870 0.665649
O O1 0.314075 0.818599 0.699193
O O2 0.529824 0.919899 0.334085
O O3 0.463004 0.774700 0.486183
O O4 0.130172 0.855077 0.202416
O O5 0.034062 0.692780 0.834122
O O6 0.001665 0.813206 0.853019
O O7 0.274485 0.711618 0.204105
O O8 0.805624 0.914343 0.766704
O O9 0.500000 0.000000 0.500000
O O10 0.798033 0.043699 0.269103
O O11 0.782936 0.362992 0.311292
O O12 0.132334 0.441966 0.094105
O O13 0.739492 0.431569 0.800903
O O14 0.424555 0.517276 0.718061
O O15 0.281370 0.420311 0.559629
O O16 0.000000 0.500000 0.500000
O O17 0.597402 0.658518 0.581647
#
# Coordination Sequence:
#
# PCOD8016665 Si02
#       8
#     2   2   2   2   2   2   2   2
#     4  10  22  43  66  94 134 176 213 274 326 381
#     4  10  21  46  63  93 138 166 218 278 313 388
#     4  11  22  42  67  97 132 169 219 271 320 389
#     4  11  24  43  68  94 135 172 213 276 326 385
#     4  11  25  45  68 100 137 164 221 275 319 399
#     4  10  23  42  65  95 132 171 216 266 328 386
#     4  10  23  45  64  98 135 168 229 270 318 395
#     4  11  24  42  71  99 124 182 212 262 342 382
#
# _framework density 23.364315000000001
#
# number of rings (size 3 to 8) (size 9 to 14) (size 15 to 20)
#    0.000    1.500    2.500    1.500    1.750    3.500 
#    9.000    0.000    0.000    0.000    0.000    0.000 
#    0.000    0.000    0.000    0.000    0.000    0.000 
#
# Total GULP energy -198218.861973 kJ/mol
# GULP energy per Si atom -12388.678873 kJ/mol
# Density = 2.331114 g / cm^3
# Si number density = 23.364315 Si / 1000 Ang^3
#
#
#
# Elastic Constant Matrix: (Units=GPa)
#
#
# Indices 1 2 3 4 5 6 
#
# 1 146.9646 59.0280 34.0203 10.5867 12.9212 -24.0874
# 2 59.0280 107.4260 21.2131 19.8249 7.8405 -14.4562
# 3 34.0203 21.2131 99.6945 -0.5218 0.1847 -8.4494
# 4 10.5867 19.8249 -0.5218 23.9543 -0.2153 4.1868
# 5 12.9212 7.8405 0.1847 -0.2153 29.3987 0.9222
# 6 -24.0874 -14.4562 -8.4494 4.1868 0.9222 44.6459
#
#
#
# Elastic Compliance Matrix: (Units=1/GPa)
#
#
# Indices 1 2 3 4 5 6 
#
# 1 0.009984 -0.003894 -0.002247 -0.001961 -0.003474 0.003956
# 2 -0.003894 0.014349 -0.001495 -0.010787 -0.002289 0.003321
# 3 -0.002247 -0.001495 0.011139 0.002458 0.001329 0.000154
# 4 -0.001961 -0.010787 0.002458 0.053236 0.004401 -0.009169
# 5 -0.003474 -0.002289 0.001329 0.004401 0.036287 -0.003526
# 6 0.003956 0.003321 0.000154 -0.009169 -0.003526 0.026570
#
#
# Mechanical properties :
#
#
# Convention : Reuss Voigt Hill
#
# Bulk Modulus (GPa) = 49.50773 64.73422 57.12097
# Shear Modulus (GPa) = 28.80694 35.58802 32.19748
#
# Velocity S-wave (km/s) = 3.51514 3.90703 3.71625
# Velocity P-wave (km/s) = 6.14088 6.93684 6.55096
#
# Compressibility (1/GPa) = 0.02019887
#
# Stress axis : x y z
#
# Youngs Moduli (GPa) = 100.16375 69.69360 89.77563
#
# Poissons Ratio (x) = 0.27141 0.20171
# Poissons Ratio (y) = 0.39008 0.13421
# Poissons Ratio (z) = 0.22505 0.10419
#
# Static dielectric constant tensor:
#      x y z
#    x 4.203330 -0.193340 0.064740 
#    y -0.193340 4.714430 0.061560 
#    z 0.064740 0.061560 4.274200 
# 
# 
# High freq. dielectric constant tensor:
#      x y z
#    x 1.916650 -0.016660 0.010530 
#    y -0.016660 1.945020 0.011100 
#    z 0.010530 0.011100 1.910470 
# 
# From -- ./inp_files/12833.got.cif
#   From: 2010.06.25/outbox.cif.g09.slc.cpg/sg2_7_cif.got.tgz:12833.got - 2010.06.27 13:26:56.
