data_PCOD8016651
_publ_section_title
;
Structure prediction by ZEFSAII (Michael W. Deem and Ramdas Pophale) SiO2 
 PCOD8016651
Probable space group: P -1
;
_chemical_formula_sum "Si O2"
_cell_formula_units_Z 14
_cell_length_a 11.414356
_cell_length_b 8.733453
_cell_length_c 9.792631
_cell_angle_alpha 46.584353
_cell_angle_beta 112.164692
_cell_angle_gamma 123.633075
_cell_volume 590.384934
_symmetry_space_group_name_H-M "P -1"
_symmetry_group_IT_number 2
_symmetry_cell_setting 'triclinic'
loop_
_space_group_symop_operation_xyz
x,y,z
-x,-y,-z
loop_
_atom_site_type_symbol
_atom_site_label
_atom_site_fract_x
_atom_site_fract_y
_atom_site_fract_z
Si Si1 0.803171 0.004795 0.926721
Si Si2 0.754178 0.323597 0.282045
Si Si3 0.820304 0.445291 0.539805
Si Si4 0.067956 0.924374 0.453546
Si Si5 0.934450 0.760291 0.961791
Si Si6 0.432065 0.656167 0.307921
Si Si7 0.477795 0.821777 0.937813
O O1 0.847685 0.214010 0.705810
O O2 0.861514 0.822267 0.020775
O O3 0.638988 0.869106 0.966743
O O4 0.894468 0.124911 0.029804
O O5 0.759876 0.435271 0.366693
O O6 0.788265 0.098087 0.437306
O O7 0.602705 0.274647 0.181800
O O8 0.872524 0.482378 0.125649
O O9 0.712981 0.420936 0.628879
O O10 0.960786 0.683813 0.478486
O O11 0.119277 0.157074 0.243355
O O12 0.000000 0.000000 0.500000
O O13 0.500000 0.500000 0.500000
O O14 0.533481 0.934153 0.195232
O O15 0.408415 0.632382 0.146845
#
# Coordination Sequence:
#
# PCOD8016651 Si02
#       7
#     2   2   2   2   2   2   2
#     4  10  21  45  73  99 138 187 232 291 349 420
#     4  12  26  47  72 109 142 183 242 295 347 431
#     4  11  23  47  73 101 143 189 238 293 353 418
#     4  12  28  44  72 106 142 188 237 297 354 426
#     4  11  24  42  73 100 139 184 236 286 357 413
#     4  10  25  45  71 101 146 192 227 289 361 421
#     4  10  26  45  69 106 146 182 237 292 352 417
#
# _framework density 23.713342999999998
#
# number of rings (size 3 to 8) (size 9 to 14) (size 15 to 20)
#    0.000    1.143    2.857    2.143    8.000    5.714 
#    0.000    0.000    0.000    0.000    0.000    0.000 
#    0.000    0.000    0.000    0.000    0.000    0.000 
#
# Total GULP energy -173448.416241 kJ/mol
# GULP energy per Si atom -12389.172589 kJ/mol
# Density = 2.365937 g / cm^3
# Si number density = 23.713343 Si / 1000 Ang^3
#
#
#
# Elastic Constant Matrix: (Units=GPa)
#
#
# Indices 1 2 3 4 5 6 
#
# 1 119.7972 24.5045 45.0785 16.1526 4.9801 22.8691
# 2 24.5045 56.1132 25.9928 17.5435 4.8108 10.8390
# 3 45.0785 25.9928 176.5998 4.5123 3.5111 9.4296
# 4 16.1526 17.5435 4.5123 27.8666 4.2262 4.2373
# 5 4.9801 4.8108 3.5111 4.2262 39.4325 2.0479
# 6 22.8691 10.8390 9.4296 4.2373 2.0479 28.3107
#
#
#
# Elastic Compliance Matrix: (Units=1/GPa)
#
#
# Indices 1 2 3 4 5 6 
#
# 1 0.011434 -0.001136 -0.002240 -0.004389 -0.000252 -0.007380
# 2 -0.001136 0.025015 -0.002724 -0.013653 -0.000910 -0.005643
# 3 -0.002240 -0.002724 0.006569 0.001920 -0.000196 0.000391
# 4 -0.004389 -0.013653 0.001920 0.046976 -0.003054 0.001323
# 5 -0.000252 -0.000910 -0.000196 -0.003054 0.025889 -0.000798
# 6 -0.007380 -0.005643 0.000391 0.001323 -0.000798 0.043174
#
#
# Mechanical properties :
#
#
# Convention : Reuss Voigt Hill
#
# Bulk Modulus (GPa) = 32.44772 60.40688 46.42730
# Shear Modulus (GPa) = 27.54371 36.25092 31.89732
#
# Velocity S-wave (km/s) = 3.41182 3.91412 3.67157
# Velocity P-wave (km/s) = 5.40682 6.77910 6.13147
#
# Compressibility (1/GPa) = 0.03081880
#
# Stress axis : x y z
#
# Youngs Moduli (GPa) = 87.45957 39.97523 152.22614
#
# Poissons Ratio (x) = 0.04541 0.34101
# Poissons Ratio (y) = 0.09936 0.41461
# Poissons Ratio (z) = 0.19592 0.10888
#
# Static dielectric constant tensor:
#      x y z
#    x 3.912830 0.104300 0.405750 
#    y 0.104300 3.945930 -0.405300 
#    z 0.405750 -0.405300 4.342810 
# 
# 
# High freq. dielectric constant tensor:
#      x y z
#    x 1.931490 0.000970 0.006370 
#    y 0.000970 1.916110 -0.007320 
#    z 0.006370 -0.007320 1.967700 
# 
# From -- ./inp_files/242235.got.cif
#   From: 2010.06.25/outbox.cif.g09.slc.cpg/sg2_122_cif.got.tgz:242235.got - 2010.06.27 13:26:56.
