data_PCOD8016228
_publ_section_title
;
Structure prediction by ZEFSAII (Michael W. Deem and Ramdas Pophale) SiO2 
 PCOD8016228
Probable space group: P -1
;
_chemical_formula_sum "Si O2"
_cell_formula_units_Z 14
_cell_length_a 20.106934
_cell_length_b 6.336956
_cell_length_c 20.423554
_cell_angle_alpha 61.491139
_cell_angle_beta 20.208676
_cell_angle_gamma 49.884791
_cell_volume 602.286827
_symmetry_space_group_name_H-M "P -1"
_symmetry_group_IT_number 2
_symmetry_cell_setting 'triclinic'
loop_
_space_group_symop_operation_xyz
x,y,z
-x,-y,-z
loop_
_atom_site_type_symbol
_atom_site_label
_atom_site_fract_x
_atom_site_fract_y
_atom_site_fract_z
Si Si1 0.588225 0.645437 0.677637
Si Si2 0.705118 0.320701 0.488322
Si Si3 0.516146 0.234062 0.992447
Si Si4 0.275874 0.349343 0.836781
Si Si5 0.053118 0.311534 0.581446
Si Si6 0.724366 0.670387 0.309959
Si Si7 0.379687 0.891943 0.223621
O O1 0.710249 0.516583 0.511791
O O2 0.797383 0.579044 0.544442
O O3 0.493845 0.455636 0.815270
O O4 0.353470 0.016392 0.835703
O O5 0.427166 0.421922 0.728841
O O6 0.769850 0.389720 0.349472
O O7 0.909550 0.946891 0.366956
O O8 0.239671 0.390877 0.195470
O O9 0.573110 0.969071 0.030404
O O10 0.500000 0.500000 0.000000
O O11 0.704108 0.089961 0.777654
O O12 0.343322 0.341719 0.699867
O O13 0.979270 0.624202 0.083187
O O14 0.145882 0.158796 0.445467
O O15 0.500000 0.000000 0.500000
#
# Coordination Sequence:
#
# PCOD8016228 Si02
#       7
#     2   2   2   2   2   2   2
#     4  10  21  44  61  91 129 166 217 260 319 376
#     4  10  22  42  64  95 128 173 218 262 323 382
#     4  11  24  41  64  97 126 164 213 257 320 381
#     4  10  23  42  64  94 132 170 214 271 320 377
#     4  10  23  42  63  89 129 169 205 266 317 373
#     4  11  22  42  67  94 130 170 216 266 321 386
#     4  10  23  39  64  91 122 164 207 260 311 376
#
# _framework density 23.244738999999999
#
# number of rings (size 3 to 8) (size 9 to 14) (size 15 to 20)
#    0.000    1.714    1.429    1.714    2.000    6.286 
#   10.286    0.000    0.000    0.000    0.000    0.000 
#    0.000    0.000    0.000    0.000    0.000    0.000 
#
# Total GULP energy -173479.363577 kJ/mol
# GULP energy per Si atom -12391.383113 kJ/mol
# Density = 2.319183 g / cm^3
# Si number density = 23.244739 Si / 1000 Ang^3
#
#
#
# Elastic Constant Matrix: (Units=GPa)
#
#
# Indices 1 2 3 4 5 6 
#
# 1 104.4658 58.3143 38.5592 -5.7147 5.5391 9.3953
# 2 58.3143 121.5003 26.7985 -25.8179 21.3732 2.9763
# 3 38.5592 26.7985 77.6815 2.8391 7.9463 -5.4147
# 4 -5.7147 -25.8179 2.8391 30.3559 -7.1847 6.0594
# 5 5.5391 21.3732 7.9463 -7.1847 27.9938 -8.8050
# 6 9.3953 2.9763 -5.4147 6.0594 -8.8050 48.3426
#
#
#
# Elastic Compliance Matrix: (Units=1/GPa)
#
#
# Indices 1 2 3 4 5 6 
#
# 1 0.015555 -0.006856 -0.005766 -0.001212 0.002661 -0.002610
# 2 -0.006856 0.015724 -0.001765 0.010841 -0.008211 -0.002688
# 3 -0.005766 -0.001765 0.017055 -0.005489 -0.002713 0.003333
# 4 -0.001212 0.010841 -0.005489 0.044368 0.003002 -0.006061
# 5 0.002661 -0.008211 -0.002713 0.003002 0.045388 0.007575
# 6 -0.002610 -0.002688 0.003333 -0.006061 0.007575 0.023871
#
#
# Mechanical properties :
#
#
# Convention : Reuss Voigt Hill
#
# Bulk Modulus (GPa) = 51.12442 61.22129 56.17285
# Shear Modulus (GPa) = 25.34801 33.33683 29.34242
#
# Velocity S-wave (km/s) = 3.30583 3.79115 3.55678
# Velocity P-wave (km/s) = 6.05087 6.74971 6.40982
#
# Compressibility (1/GPa) = 0.01956012
#
# Stress axis : x y z
#
# Youngs Moduli (GPa) = 64.28787 63.59722 58.63537
#
# Poissons Ratio (x) = 0.43600 0.33809
# Poissons Ratio (y) = 0.44074 0.10350
# Poissons Ratio (z) = 0.37068 0.11226
#
# Static dielectric constant tensor:
#      x y z
#    x 4.398520 -0.205630 0.191570 
#    y -0.205630 4.507530 -0.222720 
#    z 0.191570 -0.222720 4.041680 
# 
# 
# High freq. dielectric constant tensor:
#      x y z
#    x 1.920440 -0.002170 0.020600 
#    y -0.002170 1.941910 -0.004480 
#    z 0.020600 -0.004480 1.892240 
# 
# From -- ./inp_files/114462.got.cif
#   From: 2010.06.25/outbox.cif.g09.slc.cpg/sg2_58_cif.got.tgz:114462.got - 2010.06.27 13:26:56.
