data_PCOD8016093
_publ_section_title
;
Structure prediction by ZEFSAII (Michael W. Deem and Ramdas Pophale) SiO2 
 PCOD8016093
Probable space group: P -1
;
_chemical_formula_sum "Si O2"
_cell_formula_units_Z 16
_cell_length_a 12.260565
_cell_length_b 14.086929
_cell_length_c 7.860141
_cell_angle_alpha 79.077919
_cell_angle_beta 72.042910
_cell_angle_gamma 138.464925
_cell_volume 638.579935
_symmetry_space_group_name_H-M "P -1"
_symmetry_group_IT_number 2
_symmetry_cell_setting 'triclinic'
loop_
_space_group_symop_operation_xyz
x,y,z
-x,-y,-z
loop_
_atom_site_type_symbol
_atom_site_label
_atom_site_fract_x
_atom_site_fract_y
_atom_site_fract_z
Si Si1 0.954479 0.037285 0.165378
Si Si2 0.656026 0.137694 0.038114
Si Si3 0.950298 0.728860 0.195120
Si Si4 0.798429 0.941609 0.819801
Si Si5 0.347072 0.619318 0.357366
Si Si6 0.652391 0.198992 0.472849
Si Si7 0.455336 0.212258 0.343855
Si Si8 0.152035 0.508906 0.148314
O O1 0.100810 0.095269 0.229362
O O2 0.684824 0.842235 0.413594
O O3 0.040393 0.207509 0.013039
O O4 0.000000 0.000000 0.000000
O O5 0.516002 0.009382 0.320239
O O6 0.881247 0.238428 0.894388
O O7 0.720342 0.296112 0.952315
O O8 0.500000 0.000000 0.000000
O O9 0.704292 0.500987 0.433693
O O10 0.007621 0.845007 0.279570
O O11 0.719591 0.923682 0.682465
O O12 0.602610 0.797521 0.106524
O O13 0.309798 0.698280 0.426255
O O14 0.165780 0.469451 0.340834
O O15 0.541358 0.170001 0.374612
O O16 0.898037 0.332690 0.258638
O O17 0.689192 0.434569 0.086134
#
# Coordination Sequence:
#
# PCOD8016093 Si02
#       8
#     2   2   2   2   2   2   2   2
#     4  10  21  43  70  91 117 162 216 269 318 368
#     4  12  20  36  63  92 129 170 209 250 303 363
#     4  11  21  39  66  95 123 164 218 258 302 371
#     4  10  22  42  66  92 127 164 205 269 323 361
#     4  11  21  39  65  96 125 164 217 256 301 371
#     4  12  21  38  61  91 133 170 212 248 300 378
#     4  11  23  41  62  95 128 166 206 257 322 381
#     4  11  24  38  60  95 133 172 204 253 311 369
#
# _framework density 25.055593999999999
#
# number of rings (size 3 to 8) (size 9 to 14) (size 15 to 20)
#    0.000    1.000    5.000    3.375    0.000    1.000 
#    0.000    5.000    0.000   13.500    0.000    0.000 
#    0.000    0.000    0.000    0.000    0.000    0.000 
#
# Total GULP energy -198290.753409 kJ/mol
# GULP energy per Si atom -12393.172088 kJ/mol
# Density = 2.499857 g / cm^3
# Si number density = 25.055594 Si / 1000 Ang^3
#
#
#
# Elastic Constant Matrix: (Units=GPa)
#
#
# Indices 1 2 3 4 5 6 
#
# 1 95.0761 9.3647 31.9358 -1.4343 0.4061 13.1859
# 2 9.3647 26.0053 25.7918 -9.1014 -2.3867 0.3516
# 3 31.9358 25.7918 135.3797 -1.3428 0.3988 -10.5367
# 4 -1.4343 -9.1014 -1.3428 38.8886 1.3052 5.9298
# 5 0.4061 -2.3867 0.3988 1.3052 42.6756 8.5938
# 6 13.1859 0.3516 -10.5367 5.9298 8.5938 28.4061
#
#
#
# Elastic Compliance Matrix: (Units=1/GPa)
#
#
# Indices 1 2 3 4 5 6 
#
# 1 0.012892 -0.000320 -0.003598 0.001457 0.001472 -0.008064
# 2 -0.000320 0.054672 -0.010902 0.013593 0.004514 -0.008775
# 3 -0.003598 -0.010902 0.010840 -0.003329 -0.002011 0.007129
# 4 0.001457 0.013593 -0.003329 0.030131 0.001641 -0.008866
# 5 0.001472 0.004514 -0.002011 0.001641 0.025565 -0.009562
# 6 -0.008064 -0.008775 0.007129 -0.008866 -0.009562 0.046444
#
#
# Mechanical properties :
#
#
# Convention : Reuss Voigt Hill
#
# Bulk Modulus (GPa) = 20.50685 43.40507 31.95596
# Shear Modulus (GPa) = 22.08111 34.61865 28.34988
#
# Velocity S-wave (km/s) = 2.97186 3.72112 3.36740
# Velocity P-wave (km/s) = 4.46971 5.98527 5.28213
#
# Compressibility (1/GPa) = 0.04876420
#
# Stress axis : x y z
#
# Youngs Moduli (GPa) = 77.56730 18.29105 92.25099
#
# Poissons Ratio (x) = 0.00586 0.33189
# Poissons Ratio (y) = 0.02485 1.00568
# Poissons Ratio (z) = 0.27906 0.19940
#
# Static dielectric constant tensor:
#      x y z
#    x 5.278560 0.170680 0.167320 
#    y 0.170680 4.184370 0.257320 
#    z 0.167320 0.257320 5.182380 
# 
# 
# High freq. dielectric constant tensor:
#      x y z
#    x 2.002580 0.017790 0.006230 
#    y 0.017790 1.975020 0.013810 
#    z 0.006230 0.013810 2.020770 
# 
# From -- ./inp_files/272480.got.cif
#   From: 2010.06.25/outbox.cif.g09.slc.cpg/sg2_137_cif.got.tgz:272480.got - 2010.06.27 13:26:56.
