data_PCOD8016172
_publ_section_title
;
Structure prediction by ZEFSAII (Michael W. Deem and Ramdas Pophale) SiO2 
 PCOD8016172
Probable space group: P -1
;
_chemical_formula_sum "Si O2"
_cell_formula_units_Z 16
_cell_length_a 8.906612
_cell_length_b 15.299684
_cell_length_c 16.847426
_cell_angle_alpha 38.797726
_cell_angle_beta 149.973670
_cell_angle_gamma 135.573234
_cell_volume 714.107064
_symmetry_space_group_name_H-M "P -1"
_symmetry_group_IT_number 2
_symmetry_cell_setting 'triclinic'
loop_
_space_group_symop_operation_xyz
x,y,z
-x,-y,-z
loop_
_atom_site_type_symbol
_atom_site_label
_atom_site_fract_x
_atom_site_fract_y
_atom_site_fract_z
Si Si1 0.495475 0.224895 0.511009
Si Si2 0.855903 0.147713 0.220956
Si Si3 0.617833 0.481000 0.478795
Si Si4 0.856951 0.400557 0.933928
Si Si5 0.861859 0.016576 0.655255
Si Si6 0.185651 0.690694 0.559338
Si Si7 0.256287 0.246237 0.122777
Si Si8 0.696153 0.944884 0.855813
O O1 0.618014 0.314146 0.581473
O O2 0.612975 0.316689 0.422116
O O3 0.611401 0.071156 0.670227
O O4 0.131274 0.221730 0.348653
O O5 0.569789 0.083897 0.183448
O O6 0.748881 0.252480 0.031724
O O7 0.997497 0.015697 0.341969
O O8 0.500000 0.500000 0.500000
O O9 0.420360 0.540173 0.277323
O O10 0.961078 0.551670 0.573468
O O11 0.000000 0.500000 0.000000
O O12 0.087857 0.377163 0.982714
O O13 0.000530 0.174583 0.630852
O O14 0.500000 0.000000 0.500000
O O15 0.944186 0.897049 0.837292
O O16 0.402972 0.722210 0.712060
O O17 0.277487 0.206463 0.067602
O O18 0.000000 0.000000 0.000000
#
# Coordination Sequence:
#
# PCOD8016172 Si02
#       8
#     2   2   2   2   2   2   2   2
#     4  12  23  48  70  99 143 188 241 286 365 432
#     4  11  23  43  77 100 135 191 236 294 354 425
#     4  12  30  43  68 107 145 186 237 298 358 427
#     4  11  23  48  74 101 143 187 244 289 356 437
#     4   9  16  36  69 100 124 168 234 284 340 417
#     4  11  21  43  72 100 133 186 236 286 358 429
#     4  10  21  43  72 100 136 180 237 293 354 424
#     4  12  29  43  68 110 150 180 238 306 362 416
#
# _framework density 22.405604
#
# number of rings (size 3 to 8) (size 9 to 14) (size 15 to 20)
#    0.000    1.000    6.250    1.500    7.000    0.000 
#    0.000    3.750    0.000    0.000    0.000    0.000 
#    0.000    0.000    0.000    0.000    0.000    0.000 
#
# Total GULP energy -198241.244851 kJ/mol
# GULP energy per Si atom -12390.077803 kJ/mol
# Density = 2.235461 g / cm^3
# Si number density = 22.405604 Si / 1000 Ang^3
#
#
#
# Elastic Constant Matrix: (Units=GPa)
#
#
# Indices 1 2 3 4 5 6 
#
# 1 139.7425 51.0115 30.3818 19.3229 22.8317 -5.4543
# 2 51.0115 108.0623 28.8328 15.3474 15.4861 -8.1956
# 3 30.3818 28.8328 74.8358 13.3845 0.5163 -0.2170
# 4 19.3229 15.3474 13.3845 36.0866 -3.4225 6.6352
# 5 22.8317 15.4861 0.5163 -3.4225 33.5318 -0.8647
# 6 -5.4543 -8.1956 -0.2170 6.6352 -0.8647 50.7090
#
#
#
# Elastic Compliance Matrix: (Units=1/GPa)
#
#
# Indices 1 2 3 4 5 6 
#
# 1 0.010273 -0.002650 -0.002335 -0.004297 -0.006145 0.001124
# 2 -0.002650 0.012622 -0.003108 -0.003596 -0.004289 0.002139
# 3 -0.002335 -0.003108 0.016045 -0.003102 0.002456 -0.000237
# 4 -0.004297 -0.003596 -0.003102 0.034450 0.008011 -0.005428
# 5 -0.006145 -0.004289 0.002456 0.008011 0.036721 -0.001766
# 6 0.001124 0.002139 -0.000237 -0.005428 -0.001766 0.020866
#
#
# Mechanical properties :
#
#
# Convention : Reuss Voigt Hill
#
# Bulk Modulus (GPa) = 43.95035 60.34365 52.14700
# Shear Modulus (GPa) = 32.31030 38.22644 35.26837
#
# Velocity S-wave (km/s) = 3.80157 4.13499 3.97178
# Velocity P-wave (km/s) = 6.23920 7.05609 6.66018
#
# Compressibility (1/GPa) = 0.02275295
#
# Stress axis : x y z
#
# Youngs Moduli (GPa) = 97.34052 79.22779 62.32311
#
# Poissons Ratio (x) = 0.20998 0.14555
# Poissons Ratio (y) = 0.25798 0.19370
# Poissons Ratio (z) = 0.22733 0.24624
#
# Static dielectric constant tensor:
#      x y z
#    x 4.073140 -0.298220 0.118100 
#    y -0.298220 4.368810 -0.330990 
#    z 0.118100 -0.330990 3.997950 
# 
# 
# High freq. dielectric constant tensor:
#      x y z
#    x 1.886600 -0.018940 0.010800 
#    y -0.018940 1.882140 -0.007310 
#    z 0.010800 -0.007310 1.863290 
# 
# From -- ./inp_files/299591.got.cif
#   From: 2010.06.25/outbox.cif.g09.slc.cpg/sg2_150_cif.got.tgz:299591.got - 2010.06.27 13:26:56.
