data_PCOD8016566
_publ_section_title
;
Structure prediction by ZEFSAII (Michael W. Deem and Ramdas Pophale) SiO2 
 PCOD8016566
Probable space group: P -1
;
_chemical_formula_sum "Si O2"
_cell_formula_units_Z 16
_cell_length_a 16.271348
_cell_length_b 7.463717
_cell_length_c 5.670555
_cell_angle_alpha 70.055416
_cell_angle_beta 73.996951
_cell_angle_gamma 89.388447
_cell_volume 619.614302
_symmetry_space_group_name_H-M "P -1"
_symmetry_group_IT_number 2
_symmetry_cell_setting 'triclinic'
loop_
_space_group_symop_operation_xyz
x,y,z
-x,-y,-z
loop_
_atom_site_type_symbol
_atom_site_label
_atom_site_fract_x
_atom_site_fract_y
_atom_site_fract_z
Si Si1 0.403042 0.420958 0.597392
Si Si2 0.991497 0.254065 0.870909
Si Si3 0.753474 0.488950 0.074238
Si Si4 0.599237 0.968842 0.955290
Si Si5 0.764692 0.188976 0.828995
Si Si6 0.695516 0.759907 0.625156
Si Si7 0.167709 0.168047 0.888300
Si Si8 0.917438 0.323992 0.398667
O O1 0.500000 0.500000 0.500000
O O2 0.370029 0.407450 0.363025
O O3 0.342042 0.558316 0.720818
O O4 0.388920 0.204752 0.800429
O O5 0.069515 0.114639 0.901506
O O6 0.035779 0.467377 0.719550
O O7 0.942670 0.212707 0.675949
O O8 0.936881 0.230082 0.171188
O O9 0.787543 0.304172 0.005038
O O10 0.750047 0.656189 0.813513
O O11 0.823057 0.605432 0.141130
O O12 0.635448 0.917218 0.695820
O O13 0.660524 0.158430 0.900691
O O14 0.500000 0.000000 0.000000
O O15 0.811881 0.310904 0.517484
O O16 0.804987 0.984240 0.872328
O O17 0.764571 0.867670 0.351337
#
# Coordination Sequence:
#
# PCOD8016566 Si02
#       8
#     2   2   2   2   2   2   2   2
#     4  10  23  43  65  97 132 186 239 300 371 430
#     4  10  24  47  76 108 154 190 249 303 367 452
#     4  10  24  43  67 101 137 192 235 293 370 436
#     4  11  26  44  65 103 141 183 242 304 356 436
#     4  12  25  46  71 109 141 188 248 298 372 436
#     4  10  21  45  67  93 146 188 230 303 365 431
#     4  11  24  46  72 104 145 187 239 301 361 437
#     4  10  25  45  76 112 145 200 243 303 375 444
#
# _framework density 25.822516
#
# number of rings (size 3 to 8) (size 9 to 14) (size 15 to 20)
#    0.000    1.500    3.750    0.750   10.500    4.500 
#    2.250    0.000    0.000    0.000    0.000    0.000 
#    0.000    0.000    0.000    0.000    0.000    0.000 
#
# Total GULP energy -198209.943143 kJ/mol
# GULP energy per Si atom -12388.121446 kJ/mol
# Density = 2.576374 g / cm^3
# Si number density = 25.822516 Si / 1000 Ang^3
#
#
#
# Elastic Constant Matrix: (Units=GPa)
#
#
# Indices 1 2 3 4 5 6 
#
# 1 147.0545 12.2293 47.1083 10.3146 -29.8846 20.0714
# 2 12.2293 87.4970 28.3093 17.8723 -12.9456 7.5254
# 3 47.1083 28.3093 129.7109 26.9873 -17.5899 15.7851
# 4 10.3146 17.8723 26.9873 32.7246 -0.2523 -5.3374
# 5 -29.8846 -12.9456 -17.5899 -0.2523 41.2291 -9.4416
# 6 20.0714 7.5254 15.7851 -5.3374 -9.4416 34.6144
#
#
#
# Elastic Compliance Matrix: (Units=1/GPa)
#
#
# Indices 1 2 3 4 5 6 
#
# 1 0.009022 0.000888 -0.001849 -0.002338 0.005209 -0.003521
# 2 0.000888 0.014020 -0.000839 -0.007757 0.003881 -0.003318
# 3 -0.001849 -0.000839 0.011300 -0.009033 0.002080 -0.004724
# 4 -0.002338 -0.007757 -0.009033 0.045032 -0.004777 0.012802
# 5 0.005209 0.003881 0.002080 -0.004777 0.030758 0.002840
# 6 -0.003521 -0.003318 -0.004724 0.012802 0.002840 0.036556
#
#
# Mechanical properties :
#
#
# Convention : Reuss Voigt Hill
#
# Bulk Modulus (GPa) = 32.52709 59.95070 46.23890
# Shear Modulus (GPa) = 31.14606 40.15466 35.65036
#
# Velocity S-wave (km/s) = 3.47675 3.94766 3.71966
# Velocity P-wave (km/s) = 5.36104 6.63668 6.03267
#
# Compressibility (1/GPa) = 0.03074360
#
# Stress axis : x y z
#
# Youngs Moduli (GPa) = 110.84289 71.32609 88.49231
#
# Poissons Ratio (x) = -0.06336 0.16364
# Poissons Ratio (y) = -0.09847 0.07421
# Poissons Ratio (z) = 0.20497 0.05981
#
# Static dielectric constant tensor:
#      x y z
#    x 5.081020 0.113100 0.071590 
#    y 0.113100 4.584960 0.149110 
#    z 0.071590 0.149110 5.071680 
# 
# 
# High freq. dielectric constant tensor:
#      x y z
#    x 2.044820 0.009170 -0.000780 
#    y 0.009170 2.027120 -0.008210 
#    z -0.000780 -0.008210 2.041550 
# 
# From -- ./inp_files/90033.got.cif
#   From: 2010.06.25/outbox.cif.g09.slc.cpg/sg2_46_cif.got.tgz:90033.got - 2010.06.27 13:26:56.
