data_PCOD8016952
_publ_section_title
;
Structure prediction by ZEFSAII (Michael W. Deem and Ramdas Pophale) SiO2 
 PCOD8016952
Probable space group: P -1
;
_chemical_formula_sum "Si O2"
_cell_formula_units_Z 16
_cell_length_a 19.705314
_cell_length_b 5.618927
_cell_length_c 11.212724
_cell_angle_alpha 79.652388
_cell_angle_beta 40.722341
_cell_angle_gamma 95.606341
_cell_volume 742.012739
_symmetry_space_group_name_H-M "P -1"
_symmetry_group_IT_number 2
_symmetry_cell_setting 'triclinic'
loop_
_space_group_symop_operation_xyz
x,y,z
-x,-y,-z
loop_
_atom_site_type_symbol
_atom_site_label
_atom_site_fract_x
_atom_site_fract_y
_atom_site_fract_z
Si Si1 0.688067 0.670123 0.145278
Si Si2 0.445258 0.561018 0.183859
Si Si3 0.052265 0.380570 0.839722
Si Si4 0.258267 0.751184 0.413524
Si Si5 0.660503 0.961245 0.948456
Si Si6 0.592233 0.093498 0.255120
Si Si7 0.157956 0.077917 0.886285
Si Si8 0.636018 0.939309 0.519657
O O1 0.636232 0.356693 0.252633
O O2 0.804860 0.761499 0.054745
O O3 0.617948 0.835239 0.286714
O O4 0.704947 0.756268 0.975454
O O5 0.325452 0.567074 0.303769
O O6 0.425282 0.362046 0.338158
O O7 0.500000 0.500000 0.000000
O O8 0.531500 0.833213 0.091616
O O9 0.128050 0.598434 0.628566
O O10 0.133629 0.253379 0.801367
O O11 0.000000 0.500000 0.000000
O O12 0.952882 0.171869 0.916278
O O13 0.259526 0.927069 0.280927
O O14 0.325286 0.908441 0.422693
O O15 0.652707 0.173064 0.037091
O O16 0.456206 0.985611 0.439272
O O17 0.255263 0.990107 0.713585
#
# Coordination Sequence:
#
# PCOD8016952 Si02
#       8
#     2   2   2   2   2   2   2   2
#     4  10  24  43  66  95 140 182 216 273 334 403
#     4  12  21  35  61  98 142 174 212 268 336 408
#     4  11  25  45  68  94 124 168 236 288 333 381
#     4  12  22  37  66  98 130 174 217 283 333 389
#     4  10  22  37  61 101 137 173 210 263 335 414
#     4  10  22  40  63 102 137 178 219 256 337 420
#     4  11  26  45  66  92 127 176 229 288 330 388
#     4  12  21  37  63  98 133 176 218 270 338 396
#
# _framework density 21.562971999999998
#
# number of rings (size 3 to 8) (size 9 to 14) (size 15 to 20)
#    0.750    0.250    6.250    1.125    1.750    1.000 
#    0.000    0.625    0.000    1.500    0.000    0.000 
#    0.000    0.000    0.000    0.000    0.000    0.000 
#
# Total GULP energy -198259.480338 kJ/mol
# GULP energy per Si atom -12391.217521 kJ/mol
# Density = 2.151389 g / cm^3
# Si number density = 21.562972 Si / 1000 Ang^3
#
#
#
# Elastic Constant Matrix: (Units=GPa)
#
#
# Indices 1 2 3 4 5 6 
#
# 1 80.1226 28.1515 28.9018 -9.4942 -15.1842 18.3550
# 2 28.1515 116.6840 35.2706 -5.0230 -6.7301 11.7617
# 3 28.9018 35.2706 134.5980 -15.0048 -11.0672 8.9233
# 4 -9.4942 -5.0230 -15.0048 29.4347 -6.2439 -1.5605
# 5 -15.1842 -6.7301 -11.0672 -6.2439 12.0620 -5.9617
# 6 18.3550 11.7617 8.9233 -1.5605 -5.9617 31.9226
#
#
#
# Elastic Compliance Matrix: (Units=1/GPa)
#
#
# Indices 1 2 3 4 5 6 
#
# 1 0.021741 -0.002484 0.000254 0.012838 0.030197 -0.005389
# 2 -0.002484 0.009917 -0.002028 -0.000345 -0.000508 -0.001770
# 3 0.000254 -0.002028 0.009674 0.007254 0.012070 0.000506
# 4 0.012838 -0.000345 0.007254 0.052809 0.051393 0.002897
# 5 0.030197 -0.000508 0.012070 0.051393 0.164589 0.012701
# 6 -0.005389 -0.001770 0.000506 0.002897 0.012701 0.037449
#
#
# Mechanical properties :
#
#
# Convention : Reuss Voigt Hill
#
# Bulk Modulus (GPa) = 30.47421 57.33915 43.90668
# Shear Modulus (GPa) = 15.84116 30.62258 23.23187
#
# Velocity S-wave (km/s) = 2.71338 3.77257 3.28593
# Velocity P-wave (km/s) = 4.89693 6.75467 5.89939
#
# Compressibility (1/GPa) = 0.03281463
#
# Stress axis : x y z
#
# Youngs Moduli (GPa) = 45.99694 100.83837 103.36976
#
# Poissons Ratio (x) = 0.25053 -0.02626
# Poissons Ratio (y) = 0.11428 0.20964
# Poissons Ratio (z) = -0.01169 0.20450
#
# Static dielectric constant tensor:
#      x y z
#    x 4.236170 0.150960 0.119200 
#    y 0.150960 4.018520 0.015470 
#    z 0.119200 0.015470 3.787610 
# 
# 
# High freq. dielectric constant tensor:
#      x y z
#    x 1.844190 0.004990 0.010270 
#    y 0.004990 1.850050 0.000850 
#    z 0.010270 0.000850 1.828820 
# 
# From -- ./inp_files/468080.got.cif
#   From: 2010.06.25/outbox.cif.g09.slc.cpg/sg2_235_cif.got.tgz:468080.got - 2010.06.27 13:26:56.
