data_PCOD8016398
_publ_section_title
;
Structure prediction by ZEFSAII (Michael W. Deem and Ramdas Pophale) SiO2 
 PCOD8016398
Probable space group: P -1
;
_chemical_formula_sum "Si O2"
_cell_formula_units_Z 16
_cell_length_a 13.852324
_cell_length_b 10.767371
_cell_length_c 8.615386
_cell_angle_alpha 137.916798
_cell_angle_beta 81.213883
_cell_angle_gamma 118.474006
_cell_volume 711.580452
_symmetry_space_group_name_H-M "P -1"
_symmetry_group_IT_number 2
_symmetry_cell_setting 'triclinic'
loop_
_space_group_symop_operation_xyz
x,y,z
-x,-y,-z
loop_
_atom_site_type_symbol
_atom_site_label
_atom_site_fract_x
_atom_site_fract_y
_atom_site_fract_z
Si Si1 0.007156 0.155539 0.928472
Si Si2 0.525266 0.319141 0.882443
Si Si3 0.819397 0.831564 0.458634
Si Si4 0.865091 0.025337 0.124635
Si Si5 0.731875 0.033572 0.439480
Si Si6 0.777122 0.466799 0.924690
Si Si7 0.677761 0.681519 0.658969
Si Si8 0.489624 0.775892 0.844839
O O1 0.127767 0.390485 0.099159
O O2 0.032488 0.970671 0.803668
O O3 0.941992 0.052315 0.683746
O O4 0.925463 0.177430 0.095935
O O5 0.408223 0.083443 0.649559
O O6 0.500000 0.500000 0.000000
O O7 0.644918 0.383663 0.826528
O O8 0.553383 0.309836 0.048688
O O9 0.822677 0.617579 0.209622
O O10 0.728778 0.762105 0.552161
O O11 0.766623 0.874688 0.359196
O O12 0.795634 0.102947 0.318829
O O13 0.775941 0.771189 0.850719
O O14 0.778989 0.246140 0.736389
O O15 0.613486 0.807688 0.826446
O O16 0.597634 0.414957 0.433684
O O17 0.500000 0.000000 0.000000
#
# Coordination Sequence:
#
# PCOD8016398 Si02
#       8
#     2   2   2   2   2   2   2   2
#     4  10  23  44  71  96 131 184 229 283 350 405
#     4  12  23  47  70 101 145 183 229 284 349 419
#     4  11  23  45  69  96 138 179 230 285 345 417
#     4  10  21  44  69  96 131 177 233 283 342 416
#     4  12  25  42  70 103 137 177 231 287 349 411
#     4  12  25  41  69  99 136 180 226 282 343 412
#     4  10  22  43  68  93 137 186 220 285 348 409
#     4  11  24  41  67 102 140 179 233 282 347 419
#
# _framework density 22.485158999999999
#
# number of rings (size 3 to 8) (size 9 to 14) (size 15 to 20)
#    0.000    1.000    5.000    0.750    1.750    2.000 
#    2.250    0.000    0.000    0.000    0.000    0.000 
#    0.000    0.000    0.000    0.000    0.000    0.000 
#
# Total GULP energy -198240.984628 kJ/mol
# GULP energy per Si atom -12390.061539 kJ/mol
# Density = 2.243398 g / cm^3
# Si number density = 22.485159 Si / 1000 Ang^3
#
#
#
# Elastic Constant Matrix: (Units=GPa)
#
#
# Indices 1 2 3 4 5 6 
#
# 1 82.5609 38.3144 47.2646 9.2150 12.1905 18.6195
# 2 38.3144 83.8382 40.9807 3.9324 -5.0098 18.8278
# 3 47.2646 40.9807 106.3981 7.8851 -3.2227 9.4343
# 4 9.2150 3.9324 7.8851 26.5217 -6.6047 -0.0925
# 5 12.1905 -5.0098 -3.2227 -6.6047 32.2867 2.9748
# 6 18.6195 18.8278 9.4343 -0.0925 2.9748 44.8835
#
#
#
# Elastic Compliance Matrix: (Units=1/GPa)
#
#
# Indices 1 2 3 4 5 6 
#
# 1 0.022541 -0.006170 -0.007008 -0.007668 -0.011317 -0.004556
# 2 -0.006170 0.017802 -0.003695 0.001967 0.005539 -0.004494
# 3 -0.007008 -0.003695 0.013943 -0.000343 0.003274 0.001309
# 4 -0.007668 0.001967 -0.000343 0.043132 0.011830 0.001733
# 5 -0.011317 0.005539 0.003274 0.011830 0.038932 -0.000873
# 6 -0.004556 -0.004494 0.001309 0.001733 -0.000873 0.025842
#
#
# Mechanical properties :
#
#
# Convention : Reuss Voigt Hill
#
# Bulk Modulus (GPa) = 48.68215 58.43517 53.55866
# Shear Modulus (GPa) = 24.65679 30.48754 27.57216
#
# Velocity S-wave (km/s) = 3.31506 3.68624 3.50557
# Velocity P-wave (km/s) = 6.02915 6.64550 6.34481
#
# Compressibility (1/GPa) = 0.02054141
#
# Stress axis : x y z
#
# Youngs Moduli (GPa) = 44.36274 56.17465 71.71806
#
# Poissons Ratio (x) = 0.34657 0.50258
# Poissons Ratio (y) = 0.27370 0.26502
# Poissons Ratio (z) = 0.31088 0.20758
#
# Static dielectric constant tensor:
#      x y z
#    x 4.104990 0.406550 0.254560 
#    y 0.406550 4.037080 -0.105380 
#    z 0.254560 -0.105380 4.138800 
# 
# 
# High freq. dielectric constant tensor:
#      x y z
#    x 1.881130 0.035130 0.013360 
#    y 0.035130 1.879330 -0.007180 
#    z 0.013360 -0.007180 1.885360 
# 
# From -- ./inp_files/305993.got.cif
#   From: 2010.06.25/outbox.cif.g09.slc.cpg/sg2_153_cif.got.tgz:305993.got - 2010.06.27 13:26:56.
