data_PCOD8016112
_publ_section_title
;
Structure prediction by ZEFSAII (Michael W. Deem and Ramdas Pophale) SiO2 
 PCOD8016112
Probable space group: P -1
;
_chemical_formula_sum "Si O2"
_cell_formula_units_Z 16
_cell_length_a 26.688866
_cell_length_b 14.598244
_cell_length_c 9.028051
_cell_angle_alpha 49.104222
_cell_angle_beta 34.905003
_cell_angle_gamma 23.553498
_cell_volume 728.192081
_symmetry_space_group_name_H-M "P -1"
_symmetry_group_IT_number 2
_symmetry_cell_setting 'triclinic'
loop_
_space_group_symop_operation_xyz
x,y,z
-x,-y,-z
loop_
_atom_site_type_symbol
_atom_site_label
_atom_site_fract_x
_atom_site_fract_y
_atom_site_fract_z
Si Si1 0.176755 0.398035 0.938284
Si Si2 0.163152 0.092541 0.612813
Si Si3 0.685553 0.298828 0.176870
Si Si4 0.236891 0.339922 0.523546
Si Si5 0.605427 0.279956 0.081924
Si Si6 0.462437 0.211620 0.616940
Si Si7 0.874717 0.808253 0.729551
Si Si8 0.426651 0.309506 0.927253
O O1 0.155116 0.468466 0.747065
O O2 0.335562 0.282517 0.749326
O O3 0.233789 0.187011 0.029641
O O4 0.985159 0.643548 0.227175
O O5 0.114852 0.136980 0.510956
O O6 0.156608 0.966698 0.837179
O O7 0.361668 0.910664 0.345746
O O8 0.500000 0.500000 0.500000
O O9 0.679622 0.261970 0.061936
O O10 0.713481 0.409624 0.994728
O O11 0.076940 0.532506 0.587658
O O12 0.332464 0.092096 0.556879
O O13 0.389604 0.252356 0.199812
O O14 0.468679 0.339608 0.401373
O O15 0.500000 0.500000 0.000000
O O16 0.777013 0.016874 0.858249
O O17 0.380364 0.314688 0.871716
#
# Coordination Sequence:
#
# PCOD8016112 Si02
#       8
#     2   2   2   2   2   2   2   2
#     4  12  26  44  70 104 140 179 231 291 348 405
#     4  11  23  45  70 100 139 187 229 280 346 413
#     4  10  21  43  70  97 136 188 227 278 341 412
#     4  12  26  45  70 106 142 178 233 291 344 407
#     4  12  25  43  72 105 141 182 232 281 349 415
#     4  12  25  44  70 104 140 184 230 283 347 414
#     4  12  26  44  72 102 141 184 231 285 349 409
#     4  11  24  45  73  99 141 185 233 280 345 415
#
# _framework density 21.972224000000001
#
# number of rings (size 3 to 8) (size 9 to 14) (size 15 to 20)
#    0.000    0.500    3.750    6.000    3.500    0.000 
#    2.250    2.500    0.000    0.000    0.000    0.000 
#    0.000    0.000    0.000    0.000    0.000    0.000 
#
# Total GULP energy -198470.027342 kJ/mol
# GULP energy per Si atom -12404.376709 kJ/mol
# Density = 2.192221 g / cm^3
# Si number density = 21.972224 Si / 1000 Ang^3
#
#
#
# Elastic Constant Matrix: (Units=GPa)
#
#
# Indices 1 2 3 4 5 6 
#
# 1 146.1881 50.9393 31.7090 -2.6617 29.6403 -5.6759
# 2 50.9393 122.2394 28.9597 -12.2429 10.8117 -5.4812
# 3 31.7090 28.9597 82.8676 -9.0443 23.5899 0.4302
# 4 -2.6617 -12.2429 -9.0443 31.4696 -4.3876 7.1999
# 5 29.6403 10.8117 23.5899 -4.3876 46.2843 0.9932
# 6 -5.6759 -5.4812 0.4302 7.1999 0.9932 43.1004
#
#
#
# Elastic Compliance Matrix: (Units=1/GPa)
#
#
# Indices 1 2 3 4 5 6 
#
# 1 0.009212 -0.003250 -0.001253 -0.001779 -0.004696 0.001218
# 2 -0.003250 0.010321 -0.002352 0.003145 0.001160 0.000356
# 3 -0.001253 -0.002352 0.015452 0.002764 -0.006242 -0.000936
# 4 -0.001779 0.003145 0.002764 0.035319 0.002469 -0.005819
# 5 -0.004696 0.001160 -0.006242 0.002469 0.027789 -0.001461
# 6 0.001218 0.000356 -0.000936 -0.005819 -0.001461 0.024422
#
#
# Mechanical properties :
#
#
# Convention : Reuss Voigt Hill
#
# Bulk Modulus (GPa) = 47.00298 63.83458 55.41878
# Shear Modulus (GPa) = 34.88793 40.14999 37.51896
#
# Velocity S-wave (km/s) = 3.98907 4.27934 4.13675
# Velocity P-wave (km/s) = 6.53110 7.31659 6.93498
#
# Compressibility (1/GPa) = 0.02127525
#
# Stress axis : x y z
#
# Youngs Moduli (GPa) = 108.55640 96.89397 64.71642
#
# Poissons Ratio (x) = 0.31492 0.08106
# Poissons Ratio (y) = 0.35282 0.15220
# Poissons Ratio (z) = 0.13598 0.22788
#
# Static dielectric constant tensor:
#      x y z
#    x 4.074100 0.252080 0.217660 
#    y 0.252080 4.593950 -0.280050 
#    z 0.217660 -0.280050 3.896630 
# 
# 
# High freq. dielectric constant tensor:
#      x y z
#    x 1.872550 0.004380 0.021790 
#    y 0.004380 1.875560 -0.011320 
#    z 0.021790 -0.011320 1.857360 
# 
# From -- ./inp_files/296112.got.cif
#   From: 2010.06.25/outbox.cif.g09.slc.cpg/sg2_149_cif.got.tgz:296112.got - 2010.06.27 13:26:56.
