data_PCOD8016517
_publ_section_title
;
Structure prediction by ZEFSAII (Michael W. Deem and Ramdas Pophale) SiO2 
 PCOD8016517
Probable space group: P -1
;
_chemical_formula_sum "Si O2"
_cell_formula_units_Z 16
_cell_length_a 9.755736
_cell_length_b 15.492516
_cell_length_c 7.829528
_cell_angle_alpha 71.109588
_cell_angle_beta 79.863024
_cell_angle_gamma 36.457983
_cell_volume 657.780186
_symmetry_space_group_name_H-M "P -1"
_symmetry_group_IT_number 2
_symmetry_cell_setting 'triclinic'
loop_
_space_group_symop_operation_xyz
x,y,z
-x,-y,-z
loop_
_atom_site_type_symbol
_atom_site_label
_atom_site_fract_x
_atom_site_fract_y
_atom_site_fract_z
Si Si1 0.479997 0.576946 0.113573
Si Si2 0.750257 0.600394 0.929235
Si Si3 0.966013 0.083032 0.294340
Si Si4 0.057769 0.867927 0.198970
Si Si5 0.262492 0.378515 0.463276
Si Si6 0.432859 0.939819 0.267917
Si Si7 0.609663 0.346001 0.434096
Si Si8 0.551552 0.074754 0.117494
O O1 0.227698 0.760344 0.066534
O O2 0.512561 0.499615 0.329645
O O3 0.500000 0.500000 0.000000
O O4 0.677204 0.550923 0.086412
O O5 0.760929 0.566651 0.753142
O O6 0.562944 0.779189 0.861613
O O7 0.000000 0.500000 0.000000
O O8 0.710704 0.261232 0.275270
O O9 0.997893 0.007207 0.158530
O O10 0.161608 0.058208 0.268961
O O11 0.000000 0.000000 0.500000
O O12 0.179142 0.764234 0.408335
O O13 0.828192 0.930769 0.173899
O O14 0.406749 0.208585 0.553411
O O15 0.410439 0.380400 0.526204
O O16 0.000000 0.500000 0.500000
O O17 0.460007 0.030945 0.257016
O O18 0.522429 0.881917 0.091712
#
# Coordination Sequence:
#
# PCOD8016517 Si02
#       8
#     2   2   2   2   2   2   2   2
#     4  12  28  47  74 106 152 193 247 303 370 434
#     4  12  29  49  72 108 147 192 247 307 368 437
#     4  10  21  44  75 103 143 185 239 300 360 429
#     4  11  25  46  77 109 148 188 251 304 362 439
#     4  12  26  47  76 100 151 193 237 298 376 442
#     4  11  25  47  73 104 148 188 236 298 374 436
#     4  11  25  48  76 112 143 196 249 301 370 444
#     4  11  28  46  74 111 143 188 249 305 372 431
#
# _framework density 24.324237
#
# number of rings (size 3 to 8) (size 9 to 14) (size 15 to 20)
#    0.000    0.750    3.750    2.625    8.750    3.500 
#    0.000    0.000    0.000    0.000    0.000    0.000 
#    0.000    0.000    0.000    0.000    0.000    0.000 
#
# Total GULP energy -198430.895780 kJ/mol
# GULP energy per Si atom -12401.930986 kJ/mol
# Density = 2.426887 g / cm^3
# Si number density = 24.324237 Si / 1000 Ang^3
#
#
#
# Elastic Constant Matrix: (Units=GPa)
#
#
# Indices 1 2 3 4 5 6 
#
# 1 183.6669 56.9261 35.7904 -11.1607 -33.4712 -18.3355
# 2 56.9261 126.2221 24.2758 -2.9029 -10.9169 -10.9061
# 3 35.7904 24.2758 66.6270 -11.9235 -11.1238 0.0451
# 4 -11.1607 -2.9029 -11.9235 45.7629 5.1568 -3.2629
# 5 -33.4712 -10.9169 -11.1238 5.1568 46.8979 -1.5529
# 6 -18.3355 -10.9061 0.0451 -3.2629 -1.5529 44.4343
#
#
#
# Elastic Compliance Matrix: (Units=1/GPa)
#
#
# Indices 1 2 3 4 5 6 
#
# 1 0.007807 -0.002404 -0.002432 0.000821 0.004440 0.002849
# 2 -0.002404 0.009551 -0.002265 -0.000484 0.000067 0.001321
# 3 -0.002432 -0.002265 0.018067 0.003704 0.001574 -0.001251
# 4 0.000821 -0.000484 0.003704 0.023249 -0.001142 0.001883
# 5 0.004440 0.000067 0.001574 -0.001142 0.025093 0.002640
# 6 0.002849 0.001321 -0.001251 0.001883 0.002640 0.024237
#
#
# Mechanical properties :
#
#
# Convention : Reuss Voigt Hill
#
# Bulk Modulus (GPa) = 47.11680 67.83340 57.47510
# Shear Modulus (GPa) = 38.67544 44.72059 41.69802
#
# Velocity S-wave (km/s) = 3.99180 4.29245 4.14485
# Velocity P-wave (km/s) = 6.37639 7.24669 6.82542
#
# Compressibility (1/GPa) = 0.02122385
#
# Stress axis : x y z
#
# Youngs Moduli (GPa) = 128.08944 104.69776 55.35004
#
# Poissons Ratio (x) = 0.25172 0.13459
# Poissons Ratio (y) = 0.30796 0.12536
# Poissons Ratio (z) = 0.31146 0.23712
#
# Static dielectric constant tensor:
#      x y z
#    x 4.369760 0.138060 -0.162800 
#    y 0.138060 5.662980 -0.030020 
#    z -0.162800 -0.030020 4.579150 
# 
# 
# High freq. dielectric constant tensor:
#      x y z
#    x 1.965580 0.000010 -0.005170 
#    y 0.000010 1.974940 -0.003940 
#    z -0.005170 -0.003940 1.989040 
# 
# From -- ./inp_files/206307.got.cif
#   From: 2010.06.25/outbox.cif.g09.slc.cpg/sg2_104_cif.got.tgz:206307.got - 2010.06.27 13:26:56.
