data_PCOD8016900
_publ_section_title
;
Structure prediction by ZEFSAII (Michael W. Deem and Ramdas Pophale) SiO2 
 PCOD8016900
Probable space group: P -1
;
_chemical_formula_sum "Si O2"
_cell_formula_units_Z 14
_cell_length_a 11.973151
_cell_length_b 14.008641
_cell_length_c 6.080069
_cell_angle_alpha 106.912607
_cell_angle_beta 128.228519
_cell_angle_gamma 55.489057
_cell_volume 657.308780
_symmetry_space_group_name_H-M "P -1"
_symmetry_group_IT_number 2
_symmetry_cell_setting 'triclinic'
loop_
_space_group_symop_operation_xyz
x,y,z
-x,-y,-z
loop_
_atom_site_type_symbol
_atom_site_label
_atom_site_fract_x
_atom_site_fract_y
_atom_site_fract_z
Si Si1 0.644820 0.501821 0.303083
Si Si2 0.758622 0.123249 0.714166
Si Si3 0.401526 0.294697 0.349085
Si Si4 0.200693 0.415523 0.803815
Si Si5 0.125551 0.731359 0.323133
Si Si6 0.928107 0.645137 0.776314
Si Si7 0.014813 0.914116 0.647991
O O1 0.557521 0.617018 0.421263
O O2 0.770199 0.507183 0.286722
O O3 0.738351 0.394737 0.510640
O O4 0.500000 0.500000 0.000000
O O5 0.562795 0.167307 0.499126
O O6 0.787151 0.205679 0.639794
O O7 0.856763 0.987677 0.665872
O O8 0.816992 0.130817 0.035941
O O9 0.232488 0.306149 0.234243
O O10 0.371048 0.325317 0.072887
O O11 0.131123 0.342382 0.542862
O O12 0.065439 0.506177 0.877051
O O13 0.020008 0.805116 0.459002
O O14 0.009407 0.721620 0.990379
O O15 0.000000 0.000000 0.500000
#
# Coordination Sequence:
#
# PCOD8016900 Si02
#       7
#     2   2   2   2   2   2   2
#     4  11  23  33  55  92 120 148 195 241 282 340
#     4  10  22  40  64  86 112 153 188 245 296 338
#     4  11  22  38  57  85 123 153 192 235 287 340
#     4  10  22  37  55  79 128 164 190 223 286 344
#     4  11  22  36  61  87 116 150 198 236 283 346
#     4  10  23  36  55  85 118 164 194 227 280 349
#     4   9  21  41  63  86 113 145 195 241 297 344
#
# _framework density 21.298967000000001
#
# number of rings (size 3 to 8) (size 9 to 14) (size 15 to 20)
#    0.000    1.714    1.429    2.143    8.000    4.571 
#    0.000    0.714    0.000    8.571    0.000    0.000 
#    0.000    0.000    0.000    0.000    0.000    0.000 
#
# Total GULP energy -173509.618931 kJ/mol
# GULP energy per Si atom -12393.544209 kJ/mol
# Density = 2.125049 g / cm^3
# Si number density = 21.298967 Si / 1000 Ang^3
#
#
#
# Elastic Constant Matrix: (Units=GPa)
#
#
# Indices 1 2 3 4 5 6 
#
# 1 53.3913 12.0357 25.1344 -8.2600 3.0763 -10.8355
# 2 12.0357 61.9433 32.9763 -1.8432 7.0644 -23.0930
# 3 25.1344 32.9763 144.2382 -2.6360 6.8721 -16.0981
# 4 -8.2600 -1.8432 -2.6360 50.5923 -0.3268 -0.9480
# 5 3.0763 7.0644 6.8721 -0.3268 31.8905 -3.2065
# 6 -10.8355 -23.0930 -16.0981 -0.9480 -3.2065 24.4852
#
#
#
# Elastic Compliance Matrix: (Units=1/GPa)
#
#
# Indices 1 2 3 4 5 6 
#
# 1 0.022339 0.000635 -0.002978 0.003671 -0.000755 0.008570
# 2 0.000635 0.026812 -0.003519 0.001308 -0.002924 0.022923
# 3 -0.002978 -0.003519 0.008371 -0.000168 -0.000661 0.000774
# 4 0.003671 0.001308 -0.000168 0.020470 -0.000042 0.003534
# 5 -0.000755 -0.002924 -0.000661 -0.000042 0.032290 0.000701
# 6 0.008570 0.022923 0.000774 0.003534 0.000701 0.066990
#
#
# Mechanical properties :
#
#
# Convention : Reuss Voigt Hill
#
# Bulk Modulus (GPa) = 21.83491 44.42950 33.13221
# Shear Modulus (GPa) = 24.47827 34.02205 29.25016
#
# Velocity S-wave (km/s) = 3.39377 4.00103 3.70984
# Velocity P-wave (km/s) = 5.06268 6.49996 5.82582
#
# Compressibility (1/GPa) = 0.04579822
#
# Stress axis : x y z
#
# Youngs Moduli (GPa) = 44.76433 37.29697 119.45580
#
# Poissons Ratio (x) = -0.02370 0.35580
# Poissons Ratio (y) = -0.02844 0.42036
# Poissons Ratio (z) = 0.13333 0.13125
#
# Static dielectric constant tensor:
#      x y z
#    x 3.645300 -0.322830 -0.151080 
#    y -0.322830 4.080070 0.204070 
#    z -0.151080 0.204070 4.220090 
# 
# 
# High freq. dielectric constant tensor:
#      x y z
#    x 1.809280 -0.021580 -0.011900 
#    y -0.021580 1.817950 0.001000 
#    z -0.011900 0.001000 1.860340 
# 
# From -- ./inp_files/63955.got.cif
#   From: 2010.06.25/outbox.cif.g09.slc.cpg/sg2_32_cif.got.tgz:63955.got - 2010.06.27 13:26:56.
