data_PCOD8016472
_publ_section_title
;
Structure prediction by ZEFSAII (Michael W. Deem and Ramdas Pophale) SiO2 
 PCOD8016472
Probable space group: P -1
;
_chemical_formula_sum "Si O2"
_cell_formula_units_Z 16
_cell_length_a 7.533706
_cell_length_b 16.026697
_cell_length_c 22.294123
_cell_angle_alpha 161.976640
_cell_angle_beta 116.879725
_cell_angle_gamma 70.871476
_cell_volume 690.007797
_symmetry_space_group_name_H-M "P -1"
_symmetry_group_IT_number 2
_symmetry_cell_setting 'triclinic'
loop_
_space_group_symop_operation_xyz
x,y,z
-x,-y,-z
loop_
_atom_site_type_symbol
_atom_site_label
_atom_site_fract_x
_atom_site_fract_y
_atom_site_fract_z
Si Si1 0.187530 0.875674 0.444659
Si Si2 0.768795 0.516052 0.914678
Si Si3 0.186382 0.607157 0.462617
Si Si4 0.893895 0.713536 0.653880
Si Si5 0.983951 0.678956 0.879875
Si Si6 0.560349 0.215873 0.928358
Si Si7 0.615621 0.212439 0.797086
Si Si8 0.865174 0.886700 0.644800
O O1 0.247588 0.782178 0.324979
O O2 0.138813 0.597422 0.288417
O O3 0.384211 0.139545 0.682868
O O4 0.000000 0.000000 0.500000
O O5 0.785715 0.465413 0.954787
O O6 0.554116 0.589331 0.923474
O O7 0.969067 0.777790 0.096915
O O8 0.241386 0.437532 0.411314
O O9 0.107707 0.386126 0.245254
O O10 0.977035 0.687467 0.496799
O O11 0.394437 0.885567 0.671532
O O12 0.764580 0.771544 0.616827
O O13 0.000000 0.500000 0.500000
O O14 0.067229 0.034764 0.915450
O O15 0.240547 0.763652 0.984764
O O16 0.629747 0.324412 0.944556
O O17 0.667815 0.915217 0.597444
#
# Coordination Sequence:
#
# PCOD8016472 Si02
#       8
#     2   2   2   2   2   2   2   2
#     4  12  27  43  66 102 143 180 231 280 334 416
#     4  11  24  42  67  95 138 186 222 278 350 397
#     4  10  24  42  70  99 137 178 225 283 348 396
#     4  10  21  44  71  98 133 179 232 283 344 397
#     4  12  23  45  69  98 143 176 229 282 340 400
#     4  11  24  43  68 105 136 178 230 282 334 416
#     4  12  23  41  66  99 139 178 233 278 338 407
#     4  10  22  42  67  97 133 179 228 283 332 415
#
# _framework density 23.188143
#
# number of rings (size 3 to 8) (size 9 to 14) (size 15 to 20)
#    0.000    1.000    3.750    2.250    3.500    1.500 
#    0.000    0.000    0.000    5.250    0.000    0.000 
#    0.000    0.000    0.000    0.000    0.000    0.000 
#
# Total GULP energy -198242.104482 kJ/mol
# GULP energy per Si atom -12390.131530 kJ/mol
# Density = 2.313537 g / cm^3
# Si number density = 23.188143 Si / 1000 Ang^3
#
#
#
# Elastic Constant Matrix: (Units=GPa)
#
#
# Indices 1 2 3 4 5 6 
#
# 1 95.9861 43.6454 35.1215 -0.5595 -6.6512 1.8420
# 2 43.6454 134.6469 36.9674 9.4914 2.6963 14.1076
# 3 35.1215 36.9674 100.3620 6.0453 -18.4800 0.6328
# 4 -0.5595 9.4914 6.0453 36.1735 -7.2072 3.0369
# 5 -6.6512 2.6963 -18.4800 -7.2072 27.7613 -0.9963
# 6 1.8420 14.1076 0.6328 3.0369 -0.9963 32.5323
#
#
#
# Elastic Compliance Matrix: (Units=1/GPa)
#
#
# Indices 1 2 3 4 5 6 
#
# 1 0.013390 -0.003781 -0.003032 0.002060 0.002121 0.000813
# 2 -0.003781 0.010240 -0.003151 -0.002852 -0.004884 -0.004049
# 3 -0.003032 -0.003151 0.013799 0.000108 0.008848 0.001530
# 4 0.002060 -0.002852 0.000108 0.030250 0.008644 -0.001441
# 5 0.002121 -0.004884 0.008848 0.008644 0.045224 0.002404
# 6 0.000813 -0.004049 0.001530 -0.001441 0.002404 0.032627
#
#
# Mechanical properties :
#
#
# Convention : Reuss Voigt Hill
#
# Bulk Modulus (GPa) = 57.13599 62.49596 59.81597
# Shear Modulus (GPa) = 29.19011 33.64414 31.41712
#
# Velocity S-wave (km/s) = 3.55186 3.81323 3.68486
# Velocity P-wave (km/s) = 6.44318 6.81159 6.62995
#
# Compressibility (1/GPa) = 0.01750210
#
# Stress axis : x y z
#
# Youngs Moduli (GPa) = 74.68214 97.65176 72.47150
#
# Poissons Ratio (x) = 0.36921 0.21972
# Poissons Ratio (y) = 0.28236 0.22834
# Poissons Ratio (z) = 0.22643 0.30768
#
# Static dielectric constant tensor:
#      x y z
#    x 4.351560 0.068060 -0.167140 
#    y 0.068060 4.778500 0.326980 
#    z -0.167140 0.326980 4.168270 
# 
# 
# High freq. dielectric constant tensor:
#      x y z
#    x 1.916790 0.005030 -0.016200 
#    y 0.005030 1.928550 0.018680 
#    z -0.016200 0.018680 1.906700 
# 
# From -- ./inp_files/590557.got.cif
#   From: 2010.06.25/outbox.cif.g09.slc.cpg/sg2_296_cif.got.tgz:590557.got - 2010.06.27 13:26:56.
