data_PCOD8016202
_publ_section_title
;
Structure prediction by ZEFSAII (Michael W. Deem and Ramdas Pophale) SiO2 
 PCOD8016202
Probable space group: P -1
;
_chemical_formula_sum "Si O2"
_cell_formula_units_Z 14
_cell_length_a 13.236992
_cell_length_b 9.698536
_cell_length_c 9.249482
_cell_angle_alpha 41.418880
_cell_angle_beta 125.476696
_cell_angle_gamma 121.470703
_cell_volume 631.358616
_symmetry_space_group_name_H-M "P -1"
_symmetry_group_IT_number 2
_symmetry_cell_setting 'triclinic'
loop_
_space_group_symop_operation_xyz
x,y,z
-x,-y,-z
loop_
_atom_site_type_symbol
_atom_site_label
_atom_site_fract_x
_atom_site_fract_y
_atom_site_fract_z
Si Si1 0.794743 0.443293 0.436826
Si Si2 0.423246 0.911564 0.146785
Si Si3 0.487414 0.770902 0.603061
Si Si4 0.954853 0.827951 0.718423
Si Si5 0.310202 0.196583 0.046924
Si Si6 0.895668 0.064419 0.759012
Si Si7 0.176716 0.593178 0.180938
O O1 0.645242 0.366220 0.362777
O O2 0.802584 0.675006 0.191014
O O3 0.891100 0.314318 0.532629
O O4 0.840832 0.460544 0.624293
O O5 0.505417 0.800679 0.419761
O O6 0.311201 0.728705 0.145636
O O7 0.500000 0.000000 0.000000
O O8 0.375347 0.112471 0.025600
O O9 0.500000 0.000000 0.500000
O O10 0.595242 0.672208 0.858206
O O11 0.846017 0.635117 0.735380
O O12 0.893687 0.948296 0.697949
O O13 0.000000 0.000000 0.500000
O O14 0.075682 0.737120 0.941621
O O15 0.238907 0.988720 0.230418
O O16 0.000000 0.000000 0.000000
#
# Coordination Sequence:
#
# PCOD8016202 Si02
#       7
#     2   2   2   2   2   2   2
#     4  11  22  41  73  94 136 180 226 276 342 405
#     4  10  21  43  73  99 141 183 223 282 347 409
#     4   9  18  42  63  95 132 171 224 279 322 401
#     4  11  26  45  71  96 140 179 228 289 347 403
#     4  11  23  42  69 100 137 178 225 284 337 402
#     4  12  24  45  69 100 133 177 233 285 333 412
#     4  10  23  46  65 104 138 174 233 284 341 417
#
# _framework density 22.174401
#
# number of rings (size 3 to 8) (size 9 to 14) (size 15 to 20)
#    0.000    1.429    5.714    0.429    4.000    4.000 
#    7.714    1.429    0.000    0.000    0.000    1.000 
#    0.000    0.000    0.000    0.000    0.000    0.000 
#
# Total GULP energy -173471.200719 kJ/mol
# GULP energy per Si atom -12390.800051 kJ/mol
# Density = 2.212393 g / cm^3
# Si number density = 22.174401 Si / 1000 Ang^3
#
#
#
# Elastic Constant Matrix: (Units=GPa)
#
#
# Indices 1 2 3 4 5 6 
#
# 1 97.3434 55.7961 37.1170 4.3835 -12.5297 -20.0386
# 2 55.7961 126.6004 62.0185 14.2257 1.2239 -12.7100
# 3 37.1170 62.0185 150.1867 0.6864 10.6977 -12.3752
# 4 4.3835 14.2257 0.6864 36.4749 -3.2889 6.2404
# 5 -12.5297 1.2239 10.6977 -3.2889 31.5165 -3.3704
# 6 -20.0386 -12.7100 -12.3752 6.2404 -3.3704 39.7844
#
#
#
# Elastic Compliance Matrix: (Units=1/GPa)
#
#
# Indices 1 2 3 4 5 6 
#
# 1 0.016781 -0.005949 -0.001720 -0.000075 0.008198 0.006723
# 2 -0.005949 0.012884 -0.003641 -0.004515 -0.002045 0.000522
# 3 -0.001720 -0.003641 0.008846 0.001109 -0.003401 0.000260
# 4 -0.000075 -0.004515 0.001109 0.030350 0.002327 -0.005699
# 5 0.008198 -0.002045 -0.003401 0.002327 0.037020 0.005189
# 6 0.006723 0.000522 0.000260 -0.005699 0.005189 0.030103
#
#
# Mechanical properties :
#
#
# Convention : Reuss Voigt Hill
#
# Bulk Modulus (GPa) = 62.93053 75.99929 69.46491
# Shear Modulus (GPa) = 30.50629 36.16843 33.33736
#
# Velocity S-wave (km/s) = 3.71313 4.04306 3.88160
# Velocity P-wave (km/s) = 6.84284 7.49286 7.17521
#
# Compressibility (1/GPa) = 0.01589054
#
# Stress axis : x y z
#
# Youngs Moduli (GPa) = 59.59008 77.61681 113.05119
#
# Poissons Ratio (x) = 0.46175 0.19448
# Poissons Ratio (y) = 0.35451 0.41159
# Poissons Ratio (z) = 0.10251 0.28258
#
# Static dielectric constant tensor:
#      x y z
#    x 3.668440 0.363760 -0.013620 
#    y 0.363760 4.656310 0.355360 
#    z -0.013620 0.355360 4.650910 
# 
# 
# High freq. dielectric constant tensor:
#      x y z
#    x 1.852550 0.014770 0.001000 
#    y 0.014770 1.882710 0.003620 
#    z 0.001000 0.003620 1.894090 
# 
# From -- ./inp_files/242273.got.cif
#   From: 2010.06.25/outbox.cif.g09.slc.cpg/sg2_122_cif.got.tgz:242273.got - 2010.06.27 13:26:56.
