data_PCOD8016036
_publ_section_title
;
Structure prediction by ZEFSAII (Michael W. Deem and Ramdas Pophale) SiO2 
 PCOD8016036
Probable space group: P -1
;
_chemical_formula_sum "Si O2"
_cell_formula_units_Z 14
_cell_length_a 5.494354
_cell_length_b 9.404893
_cell_length_c 18.944297
_cell_angle_alpha 136.526700
_cell_angle_beta 124.269238
_cell_angle_gamma 67.763158
_cell_volume 555.808828
_symmetry_space_group_name_H-M "P -1"
_symmetry_group_IT_number 2
_symmetry_cell_setting 'triclinic'
loop_
_space_group_symop_operation_xyz
x,y,z
-x,-y,-z
loop_
_atom_site_type_symbol
_atom_site_label
_atom_site_fract_x
_atom_site_fract_y
_atom_site_fract_z
Si Si1 0.191648 0.760206 0.132504
Si Si2 0.230868 0.217766 0.326255
Si Si3 0.403228 0.445572 0.562861
Si Si4 0.708043 0.409806 0.252823
Si Si5 0.075856 0.213207 0.049645
Si Si6 0.835652 0.627988 0.163131
Si Si7 0.027745 0.785995 0.386528
O O1 0.483629 0.653300 0.112716
O O2 0.990405 0.631930 0.111399
O O3 0.296134 0.979623 0.261993
O O4 0.983630 0.809301 0.050886
O O5 0.169390 0.311912 0.428103
O O6 0.521858 0.336137 0.385015
O O7 0.969026 0.249849 0.238411
O O8 0.264952 0.485939 0.628937
O O9 0.689747 0.312877 0.571246
O O10 0.417215 0.275584 0.139105
O O11 0.748033 0.616237 0.285900
O O12 0.886627 0.396242 0.117902
O O13 0.000000 0.000000 0.000000
O O14 0.017382 0.801881 0.304522
O O15 0.000000 0.000000 0.500000
#
# Coordination Sequence:
#
# PCOD8016036 Si02
#       7
#     2   2   2   2   2   2   2
#     4  12  29  50  80 112 162 210 263 326 405 464
#     4  10  24  42  72 110 147 203 254 326 398 470
#     4  10  21  43  69 106 149 194 266 320 389 471
#     4  11  24  45  74 109 150 198 272 320 390 470
#     4  12  28  52  83 112 157 211 270 329 390 465
#     4  12  28  54  75 119 160 204 269 329 396 481
#     4  11  25  44  76 109 156 206 256 324 401 477
#
# _framework density 25.188517000000001
#
# number of rings (size 3 to 8) (size 9 to 14) (size 15 to 20)
#    0.000    0.857    1.429    3.857    8.000    2.286 
#    0.000    0.000    0.000    0.000    0.000    0.000 
#    0.000    0.000    0.000    0.000    0.000    0.000 
#
# Total GULP energy -173539.872617 kJ/mol
# GULP energy per Si atom -12395.705187 kJ/mol
# Density = 2.513119 g / cm^3
# Si number density = 25.188517 Si / 1000 Ang^3
#
#
#
# Elastic Constant Matrix: (Units=GPa)
#
#
# Indices 1 2 3 4 5 6 
#
# 1 106.8590 48.2192 40.1907 9.1780 11.7599 -0.7604
# 2 48.2192 125.7451 45.1435 13.7601 8.7167 0.1969
# 3 40.1907 45.1435 119.7693 -1.7133 7.6442 1.4912
# 4 9.1780 13.7601 -1.7133 51.3903 0.7862 -5.0987
# 5 11.7599 8.7167 7.6442 0.7862 47.2612 -6.9790
# 6 -0.7604 0.1969 1.4912 -5.0987 -6.9790 27.5283
#
#
#
# Elastic Compliance Matrix: (Units=1/GPa)
#
#
# Indices 1 2 3 4 5 6 
#
# 1 0.012264 -0.003445 -0.002706 -0.001352 -0.001992 -0.000246
# 2 -0.003445 0.010594 -0.002819 -0.002367 -0.000695 -0.000633
# 3 -0.002706 -0.002819 0.010385 0.001546 -0.000583 -0.000479
# 4 -0.001352 -0.002367 0.001546 0.020765 0.000759 0.003934
# 5 -0.001992 -0.000695 -0.000583 0.000759 0.022734 0.005885
# 6 -0.000246 -0.000633 -0.000479 0.003934 0.005885 0.038571
#
#
# Mechanical properties :
#
#
# Convention : Reuss Voigt Hill
#
# Bulk Modulus (GPa) = 65.34388 68.83113 67.08751
# Shear Modulus (GPa) = 36.13964 39.82397 37.98180
#
# Velocity S-wave (km/s) = 3.79194 3.98054 3.88738
# Velocity P-wave (km/s) = 6.72086 6.96505 6.84405
#
# Compressibility (1/GPa) = 0.01530365
#
# Stress axis : x y z
#
# Youngs Moduli (GPa) = 81.53922 94.39531 96.29148
#
# Poissons Ratio (x) = 0.32518 0.26057
# Poissons Ratio (y) = 0.28090 0.27141
# Poissons Ratio (z) = 0.22065 0.26607
#
# Static dielectric constant tensor:
#      x y z
#    x 4.445910 0.015430 -0.160210 
#    y 0.015430 4.879690 -0.231170 
#    z -0.160210 -0.231170 4.850560 
# 
# 
# High freq. dielectric constant tensor:
#      x y z
#    x 1.993660 -0.005270 -0.011030 
#    y -0.005270 2.011410 -0.012550 
#    z -0.011030 -0.012550 2.030800 
# 
# From -- ./inp_files/360302.got.cif
#   From: 2010.06.25/outbox.cif.g09.slc.cpg/sg2_181_cif.got.tgz:360302.got - 2010.06.27 13:26:56.
