data_PCOD8016134
_publ_section_title
;
Structure prediction by ZEFSAII (Michael W. Deem and Ramdas Pophale) SiO2 
 PCOD8016134
Probable space group: P -1
;
_chemical_formula_sum "Si O2"
_cell_formula_units_Z 14
_cell_length_a 18.292885
_cell_length_b 13.604401
_cell_length_c 5.140251
_cell_angle_alpha 92.755250
_cell_angle_beta 82.448464
_cell_angle_gamma 152.348122
_cell_volume 582.006971
_symmetry_space_group_name_H-M "P -1"
_symmetry_group_IT_number 2
_symmetry_cell_setting 'triclinic'
loop_
_space_group_symop_operation_xyz
x,y,z
-x,-y,-z
loop_
_atom_site_type_symbol
_atom_site_label
_atom_site_fract_x
_atom_site_fract_y
_atom_site_fract_z
Si Si1 0.572454 0.635587 0.232214
Si Si2 0.884177 0.447844 0.638724
Si Si3 0.902196 0.949622 0.233226
Si Si4 0.673858 0.032562 0.853247
Si Si5 0.003525 0.316024 0.862410
Si Si6 0.137645 0.299728 0.558778
Si Si7 0.495109 0.763386 0.384826
O O1 0.500000 0.500000 0.500000
O O2 0.764094 0.850794 0.156532
O O3 0.536889 0.707223 0.244667
O O4 0.500000 0.500000 0.000000
O O5 0.868966 0.499525 0.400337
O O6 0.000000 0.500000 0.500000
O O7 0.721590 0.200532 0.771245
O O8 0.957689 0.593410 0.865545
O O9 0.822747 0.769140 0.426733
O O10 0.016432 0.161770 0.355154
O O11 0.000000 0.000000 0.000000
O O12 0.565805 0.859854 0.652141
O O13 0.572886 0.927792 0.153591
O O14 0.824405 0.136999 0.842013
O O15 0.039079 0.239466 0.832883
O O16 0.304225 0.552570 0.452942
#
# Coordination Sequence:
#
# PCOD8016134 Si02
#       7
#     2   2   2   2   2   2   2
#     4  12  25  45  68  98 132 180 230 277 338 390
#     4  10  21  43  71 102 132 173 224 287 335 405
#     4  11  26  45  71  93 143 184 235 279 336 405
#     4  11  23  42  69  98 130 175 227 278 336 401
#     4  11  23  42  73 100 134 174 232 277 339 406
#     4  11  27  44  64 104 136 187 225 283 342 403
#     4  12  25  42  66  97 140 176 225 276 337 404
#
# _framework density 24.054693
#
# number of rings (size 3 to 8) (size 9 to 14) (size 15 to 20)
#    0.000    0.857    1.429    6.857    8.000    0.000 
#    0.000    4.286    0.000    0.000    0.000    0.000 
#    0.000    0.000    0.000    0.000    0.000    0.000 
#
# Total GULP energy -173561.988142 kJ/mol
# GULP energy per Si atom -12397.284867 kJ/mol
# Density = 2.399994 g / cm^3
# Si number density = 24.054693 Si / 1000 Ang^3
#
#
#
# Elastic Constant Matrix: (Units=GPa)
#
#
# Indices 1 2 3 4 5 6 
#
# 1 63.1378 19.4989 16.7799 22.2286 -19.6275 15.8555
# 2 19.4989 115.9536 31.9645 11.0351 -12.7500 19.2030
# 3 16.7799 31.9645 145.4560 20.6382 -13.8392 4.6430
# 4 22.2286 11.0351 20.6382 55.0554 -9.3639 -4.4756
# 5 -19.6275 -12.7500 -13.8392 -9.3639 36.7179 -4.1693
# 6 15.8555 19.2030 4.6430 -4.4756 -4.1693 32.2829
#
#
#
# Elastic Compliance Matrix: (Units=1/GPa)
#
#
# Indices 1 2 3 4 5 6 
#
# 1 0.025406 -0.000194 -0.000230 -0.009510 0.009592 -0.012409
# 2 -0.000194 0.010440 -0.001692 -0.001545 0.001825 -0.005850
# 3 -0.000230 -0.001692 0.007744 -0.002199 0.001637 -0.000088
# 4 -0.009510 -0.001545 -0.002199 0.024021 0.000737 0.009331
# 5 0.009592 0.001825 0.001637 0.000737 0.033621 -0.001588
# 6 -0.012409 -0.005850 -0.000088 0.009331 -0.001588 0.041651
#
#
# Mechanical properties :
#
#
# Convention : Reuss Voigt Hill
#
# Bulk Modulus (GPa) = 25.40875 51.22601 38.31738
# Shear Modulus (GPa) = 31.20438 41.89817 36.55128
#
# Velocity S-wave (km/s) = 3.60561 4.17800 3.90231
# Velocity P-wave (km/s) = 5.28391 6.67953 6.02229
#
# Compressibility (1/GPa) = 0.03935652
#
# Stress axis : x y z
#
# Youngs Moduli (GPa) = 39.36155 95.78775 129.13227
#
# Poissons Ratio (x) = 0.01859 0.02972
# Poissons Ratio (y) = 0.00764 0.21852
# Poissons Ratio (z) = 0.00906 0.16209
#
# Static dielectric constant tensor:
#      x y z
#    x 5.813890 -1.186790 0.745230 
#    y -1.186790 5.183170 -0.677620 
#    z 0.745230 -0.677620 4.699700 
# 
# 
# High freq. dielectric constant tensor:
#      x y z
#    x 1.954340 -0.010560 -0.001920 
#    y -0.010560 1.960610 -0.006530 
#    z -0.001920 -0.006530 1.969770 
# 
# From -- ./inp_files/93076.got.cif
#   From: 2010.06.25/outbox.cif.g09.slc.cpg/sg2_47_cif.got.tgz:93076.got - 2010.06.27 13:26:56.
