data_PCOD8016163
_publ_section_title
;
Structure prediction by ZEFSAII (Michael W. Deem and Ramdas Pophale) SiO2 
 PCOD8016163
Probable space group: P -1
;
_chemical_formula_sum "Si O2"
_cell_formula_units_Z 16
_cell_length_a 13.368907
_cell_length_b 14.282393
_cell_length_c 8.821269
_cell_angle_alpha 91.181870
_cell_angle_beta 53.032516
_cell_angle_gamma 134.932073
_cell_volume 666.631949
_symmetry_space_group_name_H-M "P -1"
_symmetry_group_IT_number 2
_symmetry_cell_setting 'triclinic'
loop_
_space_group_symop_operation_xyz
x,y,z
-x,-y,-z
loop_
_atom_site_type_symbol
_atom_site_label
_atom_site_fract_x
_atom_site_fract_y
_atom_site_fract_z
Si Si1 0.397925 0.380984 0.290612
Si Si2 0.673606 0.424859 0.231382
Si Si3 0.300626 0.247813 0.065507
Si Si4 0.049074 0.250869 0.819752
Si Si5 0.825097 0.367551 0.889949
Si Si6 0.659056 0.311798 0.708957
Si Si7 0.593615 0.034060 0.079726
Si Si8 0.880313 0.003117 0.205441
O O1 0.637064 0.478165 0.134900
O O2 0.253022 0.225847 0.289175
O O3 0.223307 0.281634 0.594695
O O4 0.478342 0.534599 0.164291
O O5 0.797604 0.555524 0.267408
O O6 0.412916 0.204948 0.505145
O O7 0.858001 0.465518 0.995233
O O8 0.037636 0.104794 0.222345
O O9 0.418134 0.224388 0.903143
O O10 0.862444 0.155966 0.849193
O O11 0.909724 0.120508 0.092583
O O12 0.707646 0.338994 0.845786
O O13 0.093943 0.495346 0.602830
O O14 0.638170 0.164452 0.122355
O O15 0.603399 0.171125 0.684787
O O16 0.500000 0.000000 0.000000
O O17 0.000000 0.000000 0.000000
#
# Coordination Sequence:
#
# PCOD8016163 Si02
#       8
#     2   2   2   2   2   2   2   2
#     4  11  23  43  70 107 148 187 236 289 357 424
#     4  12  25  45  71 103 148 189 236 291 358 423
#     4  11  23  41  72 111 142 188 238 291 355 427
#     4  12  25  47  72 100 148 189 229 299 359 423
#     4  10  23  44  69 100 136 186 235 293 345 416
#     4  10  21  43  71  97 140 182 235 291 351 410
#     4  10  24  45  71 101 131 181 241 288 344 414
#     4  12  25  42  69 105 146 189 233 285 362 425
#
# _framework density 24.001249000000001
#
# number of rings (size 3 to 8) (size 9 to 14) (size 15 to 20)
#    0.000    1.000    3.750    2.625    0.000    5.000 
#    0.000    1.250    0.000    0.000    0.000    0.000 
#    0.000    0.000    0.000    0.000    0.000    0.000 
#
# Total GULP energy -198259.997580 kJ/mol
# GULP energy per Si atom -12391.249849 kJ/mol
# Density = 2.394662 g / cm^3
# Si number density = 24.001249 Si / 1000 Ang^3
#
#
#
# Elastic Constant Matrix: (Units=GPa)
#
#
# Indices 1 2 3 4 5 6 
#
# 1 105.8812 49.4496 24.3604 -6.7062 -4.5402 3.5900
# 2 49.4496 123.3778 47.1875 2.3622 -2.9932 1.5997
# 3 24.3604 47.1875 79.8624 0.8659 0.5822 -3.9288
# 4 -6.7062 2.3622 0.8659 39.4010 -2.1899 -6.0708
# 5 -4.5402 -2.9932 0.5822 -2.1899 25.9282 -5.0199
# 6 3.5900 1.5997 -3.9288 -6.0708 -5.0199 44.5238
#
#
#
# Elastic Compliance Matrix: (Units=1/GPa)
#
#
# Indices 1 2 3 4 5 6 
#
# 1 0.011982 -0.004367 -0.001132 0.002363 0.001743 -0.000390
# 2 -0.004367 0.012151 -0.005872 -0.001429 0.000506 -0.000740
# 3 -0.001132 -0.005872 0.016424 0.000001 -0.000926 0.001647
# 4 0.002363 -0.001429 0.000001 0.026643 0.003246 0.003860
# 5 0.001743 0.000506 -0.000926 0.003246 0.040142 0.004728
# 6 -0.000390 -0.000740 0.001647 0.003860 0.004728 0.023723
#
#
# Mechanical properties :
#
#
# Convention : Reuss Voigt Hill
#
# Bulk Modulus (GPa) = 56.13352 61.23514 58.68433
# Shear Modulus (GPa) = 31.29986 34.51219 32.90602
#
# Velocity S-wave (km/s) = 3.61514 3.79612 3.70674
# Velocity P-wave (km/s) = 6.39251 6.69199 6.54396
#
# Compressibility (1/GPa) = 0.01781467
#
# Stress axis : x y z
#
# Youngs Moduli (GPa) = 83.45600 82.30053 60.88673
#
# Poissons Ratio (x) = 0.35944 0.06892
# Poissons Ratio (y) = 0.36449 0.35751
# Poissons Ratio (z) = 0.09447 0.48324
#
# Static dielectric constant tensor:
#      x y z
#    x 4.620280 -0.005960 0.076190 
#    y -0.005960 4.693500 -0.333580 
#    z 0.076190 -0.333580 4.439480 
# 
# 
# High freq. dielectric constant tensor:
#      x y z
#    x 1.968850 -0.004490 0.006510 
#    y -0.004490 1.963260 -0.016310 
#    z 0.006510 -0.016310 1.916240 
# 
# From -- ./inp_files/315388.got.cif
#   From: 2010.06.25/outbox.cif.g09.slc.cpg/sg2_158_cif.got.tgz:315388.got - 2010.06.27 13:26:56.
