data_PCOD8016965
_publ_section_title
;
Structure prediction by ZEFSAII (Michael W. Deem and Ramdas Pophale) SiO2 
 PCOD8016965
Probable space group: P -1
;
_chemical_formula_sum "Si O2"
_cell_formula_units_Z 16
_cell_length_a 9.454176
_cell_length_b 9.158808
_cell_length_c 20.792043
_cell_angle_alpha 60.132605
_cell_angle_beta 27.645042
_cell_angle_gamma 63.153889
_cell_volume 724.158474
_symmetry_space_group_name_H-M "P -1"
_symmetry_group_IT_number 2
_symmetry_cell_setting 'triclinic'
loop_
_space_group_symop_operation_xyz
x,y,z
-x,-y,-z
loop_
_atom_site_type_symbol
_atom_site_label
_atom_site_fract_x
_atom_site_fract_y
_atom_site_fract_z
Si Si1 0.629452 0.216106 0.172872
Si Si2 0.081835 0.261381 0.471540
Si Si3 0.531200 0.839537 0.292254
Si Si4 0.069596 0.631324 0.357865
Si Si5 0.546964 0.086219 0.031138
Si Si6 0.305843 0.364642 0.144126
Si Si7 0.693834 0.747958 0.111962
Si Si8 0.070361 0.333433 0.735497
O O1 0.423471 0.225993 0.317845
O O2 0.466873 0.306454 0.158472
O O3 0.690412 0.017986 0.181200
O O4 0.956611 0.300245 0.037460
O O5 0.964404 0.445844 0.456724
O O6 0.837116 0.135327 0.566835
O O7 0.060043 0.244018 0.561553
O O8 0.651620 0.721908 0.210855
O O9 0.613246 0.736058 0.346872
O O10 0.443722 0.634554 0.200957
O O11 0.919231 0.695059 0.338665
O O12 0.819989 0.214291 0.893262
O O13 0.262769 0.202206 0.149504
O O14 0.500000 0.000000 0.000000
O O15 0.616579 0.942330 0.085755
O O16 0.992869 0.467426 0.266299
O O17 0.500000 0.500000 0.000000
#
# Coordination Sequence:
#
# PCOD8016965 Si02
#       8
#     2   2   2   2   2   2   2   2
#     4  12  21  40  67  98 124 168 220 270 314 386
#     4  10  24  43  62  89 132 177 216 259 321 392
#     4  11  23  40  68  94 127 173 216 262 324 389
#     4  10  22  43  63  90 131 177 209 266 331 382
#     4  11  20  36  62  97 136 167 201 269 339 379
#     4  10  22  37  61  97 135 161 212 266 321 384
#     4  11  21  37  67  96 125 167 213 265 329 386
#     4  11  21  40  67  94 128 170 217 268 322 381
#
# _framework density 22.094611
#
# number of rings (size 3 to 8) (size 9 to 14) (size 15 to 20)
#    0.000    1.250    5.000    2.250    0.000    1.000 
#    0.000    4.375    0.000    0.000    0.000    0.000 
#    0.000    0.000    0.000    0.000    0.000    0.000 
#
# Total GULP energy -198286.067882 kJ/mol
# GULP energy per Si atom -12392.879243 kJ/mol
# Density = 2.204432 g / cm^3
# Si number density = 22.094611 Si / 1000 Ang^3
#
#
#
# Elastic Constant Matrix: (Units=GPa)
#
#
# Indices 1 2 3 4 5 6 
#
# 1 133.0455 35.3758 37.0455 9.7731 19.3706 -6.6229
# 2 35.3758 69.0213 5.0312 1.1366 2.5450 -8.0999
# 3 37.0455 5.0312 106.8432 11.8132 4.6449 4.5046
# 4 9.7731 1.1366 11.8132 29.3652 -0.2135 4.3189
# 5 19.3706 2.5450 4.6449 -0.2135 21.9069 -7.0223
# 6 -6.6229 -8.0999 4.5046 4.3189 -7.0223 33.8426
#
#
#
# Elastic Compliance Matrix: (Units=1/GPa)
#
#
# Indices 1 2 3 4 5 6 
#
# 1 0.011148 -0.005156 -0.002977 -0.002352 -0.008702 -0.000162
# 2 -0.005156 0.017392 0.000623 0.000261 0.003624 0.003789
# 3 -0.002977 0.000623 0.010785 -0.003151 -0.000244 -0.001518
# 4 -0.002352 0.000261 -0.003151 0.036741 0.001692 -0.004316
# 5 -0.008702 0.003624 -0.000244 0.001692 0.056415 0.010687
# 6 -0.000162 0.003789 -0.001518 -0.004316 0.010687 0.033394
#
#
# Mechanical properties :
#
#
# Convention : Reuss Voigt Hill
#
# Bulk Modulus (GPa) = 41.14532 51.53499 46.34015
# Shear Modulus (GPa) = 26.45521 32.45343 29.45432
#
# Velocity S-wave (km/s) = 3.46404 3.83670 3.65512
# Velocity P-wave (km/s) = 5.88746 6.55762 6.23156
#
# Compressibility (1/GPa) = 0.02430410
#
# Stress axis : x y z
#
# Youngs Moduli (GPa) = 89.70358 57.49668 92.71765
#
# Poissons Ratio (x) = 0.29645 0.27605
# Poissons Ratio (y) = 0.46251 -0.05772
# Poissons Ratio (z) = 0.26707 -0.03579
#
# Static dielectric constant tensor:
#      x y z
#    x 3.922060 0.071980 0.176310 
#    y 0.071980 4.201550 -0.063960 
#    z 0.176310 -0.063960 4.025950 
# 
# 
# High freq. dielectric constant tensor:
#      x y z
#    x 1.860980 0.001670 0.020760 
#    y 0.001670 1.863460 -0.012670 
#    z 0.020760 -0.012670 1.859310 
# 
# From -- ./inp_files/199404.got.cif
#   From: 2010.06.25/outbox.cif.g09.slc.cpg/sg2_100_cif.got.tgz:199404.got - 2010.06.27 13:26:56.
