data_PCOD8016734
_publ_section_title
;
Structure prediction by ZEFSAII (Michael W. Deem and Ramdas Pophale) SiO2 
 PCOD8016734
Probable space group: P -1
;
_chemical_formula_sum "Si O2"
_cell_formula_units_Z 14
_cell_length_a 8.311073
_cell_length_b 12.523848
_cell_length_c 9.507813
_cell_angle_alpha 118.115921
_cell_angle_beta 72.951661
_cell_angle_gamma 60.946756
_cell_volume 561.521415
_symmetry_space_group_name_H-M "P -1"
_symmetry_group_IT_number 2
_symmetry_cell_setting 'triclinic'
loop_
_space_group_symop_operation_xyz
x,y,z
-x,-y,-z
loop_
_atom_site_type_symbol
_atom_site_label
_atom_site_fract_x
_atom_site_fract_y
_atom_site_fract_z
Si Si1 0.511222 0.572993 0.687874
Si Si2 0.163933 0.334289 0.956390
Si Si3 0.296805 0.287673 0.191465
Si Si4 0.187726 0.088966 0.156814
Si Si5 0.958455 0.860494 0.076583
Si Si6 0.842048 0.231430 0.566090
Si Si7 0.712403 0.044382 0.536915
O O1 0.500000 0.500000 0.500000
O O2 0.668238 0.615481 0.653743
O O3 0.626693 0.442378 0.713851
O O4 0.238586 0.763489 0.926279
O O5 0.429392 0.152663 0.704965
O O6 0.001917 0.301789 0.004308
O O7 0.187284 0.391526 0.134862
O O8 0.000000 0.500000 0.000000
O O9 0.137880 0.262732 0.289267
O O10 0.550696 0.085887 0.949697
O O11 0.963500 0.138450 0.323760
O O12 0.194332 0.038907 0.964755
O O13 0.786479 0.008594 0.332418
O O14 0.725777 0.181550 0.652763
O O15 0.084172 0.144535 0.544714
#
# Coordination Sequence:
#
# PCOD8016734 Si02
#       7
#     2   2   2   2   2   2   2
#     4  12  26  44  68 109 143 181 235 293 352 407
#     4  11  24  47  69 105 141 180 235 294 355 418
#     4  10  24  43  73 100 140 186 235 290 351 416
#     4  10  21  47  70 101 137 187 237 288 346 419
#     4  11  25  43  72 102 140 186 236 287 349 418
#     4  11  24  43  68 101 142 182 237 283 350 416
#     4  11  25  44  72 102 138 189 235 283 355 424
#
# _framework density 24.932264
#
# number of rings (size 3 to 8) (size 9 to 14) (size 15 to 20)
#    0.000    1.143    2.857    2.143    6.000    2.286 
#    0.000    0.000    0.000    0.000    0.000    0.000 
#    0.000    0.000    0.000    0.000    0.000    0.000 
#
# Total GULP energy -173462.558060 kJ/mol
# GULP energy per Si atom -12390.182719 kJ/mol
# Density = 2.487552 g / cm^3
# Si number density = 24.932264 Si / 1000 Ang^3
#
#
#
# Elastic Constant Matrix: (Units=GPa)
#
#
# Indices 1 2 3 4 5 6 
#
# 1 55.9607 42.1583 6.2294 -3.1003 16.0517 -14.9574
# 2 42.1583 132.3264 -3.3268 -6.0475 -0.4072 -16.4117
# 3 6.2294 -3.3268 74.1166 -4.5801 1.0207 -9.7193
# 4 -3.1003 -6.0475 -4.5801 32.0654 -3.9823 -6.3670
# 5 16.0517 -0.4072 1.0207 -3.9823 34.1779 4.2815
# 6 -14.9574 -16.4117 -9.7193 -6.3670 4.2815 31.3734
#
#
#
# Elastic Compliance Matrix: (Units=1/GPa)
#
#
# Indices 1 2 3 4 5 6 
#
# 1 0.033454 -0.008949 -0.001058 0.001970 -0.017273 0.013698
# 2 -0.008949 0.010777 0.001541 0.002267 0.004334 0.001717
# 3 -0.001058 0.001541 0.014585 0.003342 -0.000224 0.005529
# 4 0.001970 0.002267 0.003342 0.034471 0.001776 0.009913
# 5 -0.017273 0.004334 -0.000224 0.001776 0.039014 -0.011001
# 6 0.013698 0.001717 0.005529 0.009913 -0.011001 0.044529
#
#
# Mechanical properties :
#
#
# Convention : Reuss Voigt Hill
#
# Bulk Modulus (GPa) = 23.87471 39.16952 31.52212
# Shear Modulus (GPa) = 24.07059 34.01287 29.04173
#
# Velocity S-wave (km/s) = 3.11052 3.69753 3.41666
# Velocity P-wave (km/s) = 4.74311 5.82867 5.31369
#
# Compressibility (1/GPa) = 0.04188532
#
# Stress axis : x y z
#
# Youngs Moduli (GPa) = 29.89154 92.79161 68.56361
#
# Poissons Ratio (x) = 0.83041 0.07252
# Poissons Ratio (y) = 0.26751 -0.10569
# Poissons Ratio (z) = 0.03161 -0.14303
#
# Static dielectric constant tensor:
#      x y z
#    x 4.652630 0.007420 -0.213500 
#    y 0.007420 4.607360 -0.176840 
#    z -0.213500 -0.176840 4.108970 
# 
# 
# High freq. dielectric constant tensor:
#      x y z
#    x 1.995840 -0.003110 -0.013890 
#    y -0.003110 2.005930 -0.007790 
#    z -0.013890 -0.007790 1.969950 
# 
# From -- ./inp_files/186575.got.cif
#   From: 2010.06.25/outbox.cif.g09.slc.cpg/sg2_94_cif.got.tgz:186575.got - 2010.06.27 13:26:56.
