data_PCOD8016421
_publ_section_title
;
Structure prediction by ZEFSAII (Michael W. Deem and Ramdas Pophale) SiO2 
 PCOD8016421
Probable space group: P -1
;
_chemical_formula_sum "Si O2"
_cell_formula_units_Z 16
_cell_length_a 18.015331
_cell_length_b 9.764101
_cell_length_c 5.095558
_cell_angle_alpha 111.195374
_cell_angle_beta 117.375342
_cell_angle_gamma 57.540563
_cell_volume 663.675444
_symmetry_space_group_name_H-M "P -1"
_symmetry_group_IT_number 2
_symmetry_cell_setting 'triclinic'
loop_
_space_group_symop_operation_xyz
x,y,z
-x,-y,-z
loop_
_atom_site_type_symbol
_atom_site_label
_atom_site_fract_x
_atom_site_fract_y
_atom_site_fract_z
Si Si1 0.740858 0.262105 0.804274
Si Si2 0.538707 0.810607 0.247306
Si Si3 0.204299 0.942085 0.777511
Si Si4 0.292068 0.389765 0.912343
Si Si5 0.929411 0.709593 0.311539
Si Si6 0.464323 0.612171 0.272298
Si Si7 0.351008 0.078658 0.136705
Si Si8 0.119568 0.428224 0.361288
O O1 0.756046 0.176739 0.489464
O O2 0.646373 0.285450 0.812177
O O3 0.815377 0.149131 0.067822
O O4 0.743276 0.435489 0.877615
O O5 0.602468 0.661233 0.054835
O O6 0.508461 0.740549 0.406609
O O7 0.605810 0.892048 0.501638
O O8 0.443289 0.942078 0.038656
O O9 0.106120 0.096290 0.651944
O O10 0.277712 0.009414 0.030744
O O11 0.221620 0.414043 0.573080
O O12 0.295087 0.247141 0.006259
O O13 0.904315 0.681020 0.545547
O O14 0.041239 0.617769 0.387122
O O15 0.879704 0.637586 0.975564
O O16 0.500000 0.500000 0.500000
O O17 0.500000 0.500000 0.000000
#
# Coordination Sequence:
#
# PCOD8016421 Si02
#       8
#     2   2   2   2   2   2   2   2
#     4  12  28  42  67  97 140 183 229 271 348 406
#     4  11  25  42  67  99 132 181 232 294 331 396
#     4  12  25  46  68  99 138 182 226 282 336 413
#     4  12  25  43  68 101 136 179 228 288 336 409
#     4  10  21  44  70 107 133 175 221 286 341 408
#     4  12  24  44  64  91 134 183 227 277 332 401
#     4  11  25  42  67  96 132 176 231 286 336 390
#     4  10  22  40  76 104 135 170 228 280 347 401
#
# _framework density 24.108167999999999
#
# number of rings (size 3 to 8) (size 9 to 14) (size 15 to 20)
#    0.000    0.750    3.750    3.375    3.500    0.000 
#    0.000    1.250    0.000    0.000    0.000    0.000 
#    0.000    0.000    0.000    0.000    0.000    0.000 
#
# Total GULP energy -198375.409487 kJ/mol
# GULP energy per Si atom -12398.463093 kJ/mol
# Density = 2.405330 g / cm^3
# Si number density = 24.108168 Si / 1000 Ang^3
#
#
#
# Elastic Constant Matrix: (Units=GPa)
#
#
# Indices 1 2 3 4 5 6 
#
# 1 43.6405 25.4750 9.5160 -1.6368 1.0791 -12.1984
# 2 25.4750 175.3975 38.5656 -10.4679 5.8662 -7.1049
# 3 9.5160 38.5656 79.7381 -12.5885 -8.0835 5.1667
# 4 -1.6368 -10.4679 -12.5885 32.1203 -2.0637 3.0634
# 5 1.0791 5.8662 -8.0835 -2.0637 29.6128 -8.4616
# 6 -12.1984 -7.1049 5.1667 3.0634 -8.4616 36.3268
#
#
#
# Elastic Compliance Matrix: (Units=1/GPa)
#
#
# Indices 1 2 3 4 5 6 
#
# 1 0.027941 -0.003273 -0.002431 -0.001406 0.001606 0.009581
# 2 -0.003273 0.006972 -0.003076 0.000755 -0.002000 0.000173
# 3 -0.002431 -0.003076 0.015878 0.005684 0.004543 -0.003097
# 4 -0.001406 0.000755 0.005684 0.034037 0.002873 -0.003334
# 5 0.001606 -0.002000 0.004543 0.002873 0.037855 0.008077
# 6 0.009581 0.000173 -0.003097 -0.003334 0.008077 0.033382
#
#
# Mechanical properties :
#
#
# Convention : Reuss Voigt Hill
#
# Bulk Modulus (GPa) = 30.09413 49.54326 39.81870
# Shear Modulus (GPa) = 27.07050 34.62661 30.84855
#
# Velocity S-wave (km/s) = 3.35457 3.79397 3.58102
# Velocity P-wave (km/s) = 5.24540 6.30772 5.80093
#
# Compressibility (1/GPa) = 0.03322907
#
# Stress axis : x y z
#
# Youngs Moduli (GPa) = 35.78982 143.43057 62.98192
#
# Poissons Ratio (x) = 0.46946 0.15314
# Poissons Ratio (y) = 0.11714 0.19374
# Poissons Ratio (z) = 0.08702 0.44121
#
# Static dielectric constant tensor:
#      x y z
#    x 4.102390 -0.294790 0.087210 
#    y -0.294790 5.041460 -0.224520 
#    z 0.087210 -0.224520 4.199750 
# 
# 
# High freq. dielectric constant tensor:
#      x y z
#    x 1.934830 -0.016630 -0.007810 
#    y -0.016630 1.981590 -0.009470 
#    z -0.007810 -0.009470 1.947210 
# 
# From -- ./inp_files/117280.got.cif
#   From: 2010.06.25/outbox.cif.g09.slc.cpg/sg2_59_cif.got.tgz:117280.got - 2010.06.27 13:26:56.
