data_PCOD8016730
_publ_section_title
;
Structure prediction by ZEFSAII (Michael W. Deem and Ramdas Pophale) SiO2 
 PCOD8016730
Probable space group: P -1
;
_chemical_formula_sum "Si O2"
_cell_formula_units_Z 16
_cell_length_a 14.271285
_cell_length_b 9.772351
_cell_length_c 8.466962
_cell_angle_alpha 73.747458
_cell_angle_beta 43.853357
_cell_angle_gamma 62.194324
_cell_volume 720.555737
_symmetry_space_group_name_H-M "P -1"
_symmetry_group_IT_number 2
_symmetry_cell_setting 'triclinic'
loop_
_space_group_symop_operation_xyz
x,y,z
-x,-y,-z
loop_
_atom_site_type_symbol
_atom_site_label
_atom_site_fract_x
_atom_site_fract_y
_atom_site_fract_z
Si Si1 0.246274 0.003581 0.107703
Si Si2 0.304439 0.660729 0.112882
Si Si3 0.988882 0.094535 0.143658
Si Si4 0.133325 0.544198 0.875309
Si Si5 0.186212 0.082861 0.493395
Si Si6 0.391816 0.408972 0.358655
Si Si7 0.948490 0.396581 0.711053
Si Si8 0.454216 0.060610 0.360952
O O1 0.193576 0.115524 0.287479
O O2 0.141796 0.056774 0.063392
O O3 0.283343 0.824011 0.163813
O O4 0.396544 0.022400 0.887523
O O5 0.325742 0.531719 0.260574
O O6 0.150153 0.684787 0.218051
O O7 0.435782 0.611948 0.835101
O O8 0.911931 0.274818 0.147802
O O9 0.882763 0.044976 0.395486
O O10 0.000000 0.000000 0.000000
O O11 0.291478 0.459818 0.622764
O O12 0.144954 0.502045 0.060960
O O13 0.000000 0.500000 0.000000
O O14 0.336292 0.006435 0.437288
O O15 0.091982 0.246894 0.640702
O O16 0.388455 0.246331 0.366170
O O17 0.000000 0.500000 0.500000
O O18 0.500000 0.000000 0.500000
#
# Coordination Sequence:
#
# PCOD8016730 Si02
#       8
#     2   2   2   2   2   2   2   2
#     4  11  24  41  71  99 135 183 229 287 349 421
#     4  10  21  47  67  99 136 183 227 290 352 421
#     4  12  24  44  70 102 141 181 231 288 349 411
#     4  12  26  43  69 102 139 181 235 289 346 422
#     4  12  24  42  68 102 136 180 239 285 346 421
#     4  10  24  43  71  95 140 183 233 286 356 415
#     4  12  26  41  67  99 141 181 234 289 352 410
#     4  11  25  44  67  98 140 183 231 295 352 413
#
# _framework density 22.205082000000001
#
# number of rings (size 3 to 8) (size 9 to 14) (size 15 to 20)
#    0.000    0.750    2.500    4.500    5.250    1.500 
#    0.000    5.000    0.000    0.000    0.000    0.000 
#    0.000    0.000    0.000    0.000    0.000    0.000 
#
# Total GULP energy -198232.381354 kJ/mol
# GULP energy per Si atom -12389.523835 kJ/mol
# Density = 2.215454 g / cm^3
# Si number density = 22.205082 Si / 1000 Ang^3
#
#
#
# Elastic Constant Matrix: (Units=GPa)
#
#
# Indices 1 2 3 4 5 6 
#
# 1 106.7620 -5.1797 34.2438 9.5987 -11.8506 -0.9201
# 2 -5.1797 44.6538 17.8756 -4.4610 -2.5765 -1.7894
# 3 34.2438 17.8756 163.8888 8.8326 0.8203 6.3201
# 4 9.5987 -4.4610 8.8326 31.8756 4.1102 3.9792
# 5 -11.8506 -2.5765 0.8203 4.1102 45.0850 -2.8237
# 6 -0.9201 -1.7894 6.3201 3.9792 -2.8237 26.5316
#
#
#
# Elastic Compliance Matrix: (Units=1/GPa)
#
#
# Indices 1 2 3 4 5 6 
#
# 1 0.010929 0.002229 -0.002458 -0.002982 0.003438 0.001928
# 2 0.002229 0.024537 -0.003410 0.003179 0.001903 0.002270
# 3 -0.002458 -0.003410 0.007139 -0.001351 -0.000968 -0.001916
# 4 -0.002982 0.003179 -0.001351 0.034248 -0.004021 -0.005132
# 5 0.003438 0.001903 -0.000968 -0.004021 0.023803 0.003614
# 6 0.001928 0.002270 -0.001916 -0.005132 0.003614 0.039522
#
#
# Mechanical properties :
#
#
# Convention : Reuss Voigt Hill
#
# Bulk Modulus (GPa) = 28.30678 45.46488 36.88583
# Shear Modulus (GPa) = 31.40083 38.58943 34.99513
#
# Velocity S-wave (km/s) = 3.76457 4.17329 3.97419
# Velocity P-wave (km/s) = 5.62775 6.61372 6.14055
#
# Compressibility (1/GPa) = 0.03532722
#
# Stress axis : x y z
#
# Youngs Moduli (GPa) = 91.49670 40.75525 140.08044
#
# Poissons Ratio (x) = -0.09085 0.34426
# Poissons Ratio (y) = -0.20397 0.47774
# Poissons Ratio (z) = 0.22486 0.13899
#
# Static dielectric constant tensor:
#      x y z
#    x 3.951260 -0.119270 0.002280 
#    y -0.119270 3.936060 -0.443680 
#    z 0.002280 -0.443680 4.956450 
# 
# 
# High freq. dielectric constant tensor:
#      x y z
#    x 1.866030 -0.000130 -0.008450 
#    y -0.000130 1.877410 -0.009110 
#    z -0.008450 -0.009110 1.898080 
# 
# From -- ./inp_files/298104.got.cif
#   From: 2010.06.25/outbox.cif.g09.slc.cpg/sg2_150_cif.got.tgz:298104.got - 2010.06.27 13:26:56.
