data_PCOD8016647
_publ_section_title
;
Structure prediction by ZEFSAII (Michael W. Deem and Ramdas Pophale) SiO2 
 PCOD8016647
Probable space group: P -1
;
_chemical_formula_sum "Si O2"
_cell_formula_units_Z 14
_cell_length_a 13.236216
_cell_length_b 8.947181
_cell_length_c 13.706002
_cell_angle_alpha 136.211078
_cell_angle_beta 146.736007
_cell_angle_gamma 43.531250
_cell_volume 583.734810
_symmetry_space_group_name_H-M "P -1"
_symmetry_group_IT_number 2
_symmetry_cell_setting 'triclinic'
loop_
_space_group_symop_operation_xyz
x,y,z
-x,-y,-z
loop_
_atom_site_type_symbol
_atom_site_label
_atom_site_fract_x
_atom_site_fract_y
_atom_site_fract_z
Si Si1 0.244597 0.360926 0.724964
Si Si2 0.598968 0.328261 0.121585
Si Si3 0.327341 0.173840 0.243755
Si Si4 0.738323 0.069221 0.572108
Si Si5 0.026626 0.520438 0.805648
Si Si6 0.682432 0.225766 0.816809
Si Si7 0.870335 0.855348 0.130915
O O1 0.260276 0.591771 0.799501
O O2 0.058750 0.421666 0.675616
O O3 0.205666 0.197677 0.534224
O O4 0.441611 0.249055 0.894512
O O5 0.490225 0.529916 0.203841
O O6 0.740475 0.103836 0.183241
O O7 0.539415 0.203009 0.416875
O O8 0.201743 0.374419 0.308323
O O9 0.354085 0.925746 0.195552
O O10 0.218310 0.206440 0.068511
O O11 0.689393 0.096612 0.659985
O O12 0.906029 0.167219 0.719757
O O13 0.137385 0.323542 0.877799
O O14 0.113512 0.729449 0.982756
#
# Coordination Sequence:
#
# PCOD8016647 Si02
#       7
#     2   2   2   2   2   2   2
#     4  10  22  44  71 106 133 185 231 286 345 404
#     4  10  21  45  72  98 142 176 229 289 342 403
#     4  12  24  48  70 102 144 176 230 304 327 407
#     4  12  26  43  76 108 134 179 242 280 351 408
#     4  11  26  45  73 100 144 190 226 275 358 412
#     4  11  24  45  76 107 130 186 236 284 351 404
#     4  12  26  46  71 104 141 190 227 277 352 419
#
# _framework density 23.983495000000001
#
# number of rings (size 3 to 8) (size 9 to 14) (size 15 to 20)
#    0.000    0.857    4.286    3.000    2.000    5.143 
#    0.000    0.000    0.000    0.000    0.000    0.000 
#    0.000    0.000    0.000    0.000    0.000    0.000 
#
# Total GULP energy -173629.776019 kJ/mol
# GULP energy per Si atom -12402.126858 kJ/mol
# Density = 2.392891 g / cm^3
# Si number density = 23.983495 Si / 1000 Ang^3
#
#
#
# Elastic Constant Matrix: (Units=GPa)
#
#
# Indices 1 2 3 4 5 6 
#
# 1 78.3386 19.3949 23.5056 11.0210 -24.2145 -20.8663
# 2 19.3949 87.4248 8.7534 -3.6985 -6.3928 -16.4011
# 3 23.5056 8.7534 91.3558 -3.6358 -15.5749 -9.6427
# 4 11.0210 -3.6985 -3.6358 19.9049 -17.9098 2.5839
# 5 -24.2145 -6.3928 -15.5749 -17.9098 34.2025 6.6908
# 6 -20.8663 -16.4011 -9.6427 2.5839 6.6908 41.7108
#
#
#
# Elastic Compliance Matrix: (Units=1/GPa)
#
#
# Indices 1 2 3 4 5 6 
#
# 1 0.019259 -0.002342 -0.002969 -0.006044 0.007265 0.007236
# 2 -0.002342 0.013084 0.000718 0.007481 0.004452 0.002961
# 3 -0.002969 0.000718 0.014542 0.016934 0.013735 -0.001093
# 4 -0.006044 0.007481 0.016934 0.127287 0.074617 -0.016021
# 5 0.007265 0.004452 0.013735 0.074617 0.082354 -0.009272
# 6 0.007236 0.002961 -0.001093 -0.016021 -0.009272 0.030986
#
#
# Mechanical properties :
#
#
# Convention : Reuss Voigt Hill
#
# Bulk Modulus (GPa) = 26.52620 40.04743 33.28681
# Shear Modulus (GPa) = 16.16744 32.86132 24.51438
#
# Velocity S-wave (km/s) = 2.59917 3.70559 3.20055
# Velocity P-wave (km/s) = 4.48239 5.91969 5.25045
#
# Compressibility (1/GPa) = 0.03769858
#
# Stress axis : x y z
#
# Youngs Moduli (GPa) = 51.92343 76.43098 68.76847
#
# Poissons Ratio (x) = 0.17902 0.20418
# Poissons Ratio (y) = 0.12162 -0.04940
# Poissons Ratio (z) = 0.15416 -0.05491
#
# Static dielectric constant tensor:
#      x y z
#    x 4.367470 -0.337810 0.121230 
#    y -0.337810 4.245480 -0.018400 
#    z 0.121230 -0.018400 4.226680 
# 
# 
# High freq. dielectric constant tensor:
#      x y z
#    x 1.956730 -0.026780 0.005450 
#    y -0.026780 1.945400 0.003570 
#    z 0.005450 0.003570 1.941040 
# 
# From -- ./inp_files/530279.got.cif
#   From: 2010.06.25/outbox.cif.g09.slc.cpg/sg2_266_cif.got.tgz:530279.got - 2010.06.27 13:26:56.
