data_PCOD8016956
_publ_section_title
;
Structure prediction by ZEFSAII (Michael W. Deem and Ramdas Pophale) SiO2 
 PCOD8016956
Probable space group: P -1
;
_chemical_formula_sum "Si O2"
_cell_formula_units_Z 14
_cell_length_a 5.264641
_cell_length_b 18.044204
_cell_length_c 17.848042
_cell_angle_alpha 155.573457
_cell_angle_beta 62.524101
_cell_angle_gamma 108.522022
_cell_volume 597.323169
_symmetry_space_group_name_H-M "P -1"
_symmetry_group_IT_number 2
_symmetry_cell_setting 'triclinic'
loop_
_space_group_symop_operation_xyz
x,y,z
-x,-y,-z
loop_
_atom_site_type_symbol
_atom_site_label
_atom_site_fract_x
_atom_site_fract_y
_atom_site_fract_z
Si Si1 0.273883 0.645630 0.422407
Si Si2 0.144429 0.889788 0.450528
Si Si3 0.413178 0.153898 0.316192
Si Si4 0.297225 0.249147 0.117701
Si Si5 0.829335 0.622049 0.238985
Si Si6 0.783582 0.740902 0.190265
Si Si7 0.386067 0.712207 0.735396
O O1 0.424074 0.726438 0.544838
O O2 0.280351 0.433256 0.241521
O O3 0.480509 0.646740 0.322256
O O4 0.943325 0.766400 0.559840
O O5 0.442491 0.739985 0.242087
O O6 0.941674 0.773575 0.413459
O O7 0.204914 0.050678 0.644827
O O8 0.000000 0.000000 0.500000
O O9 0.523395 0.159706 0.221424
O O10 0.510430 0.934170 0.122536
O O11 0.450988 0.261344 0.186709
O O12 0.968053 0.227330 0.152163
O O13 0.917618 0.679200 0.197585
O O14 0.026474 0.409565 0.033793
O O15 0.500000 0.500000 0.500000
#
# Coordination Sequence:
#
# PCOD8016956 Si02
#       7
#     2   2   2   2   2   2   2
#     4  12  26  44  62  97 140 173 212 268 333 392
#     4   9  18  36  61  91 114 148 209 265 305 369
#     4  12  26  44  68  97 134 173 219 271 323 387
#     4  12  24  44  68 100 129 175 220 264 326 387
#     4  10  22  37  61  87 120 168 203 260 321 370
#     4   9  19  39  63  87 117 156 219 259 304 377
#     4  12  21  43  75  94 130 172 221 274 316 374
#
# _framework density 23.437899999999999
#
# number of rings (size 3 to 8) (size 9 to 14) (size 15 to 20)
#    0.000    1.143    2.857    3.429    2.000    1.143 
#    5.143    0.000    0.000    0.000    0.000    0.000 
#    0.000    0.000    0.000    0.000    0.000    0.000 
#
# Total GULP energy -173519.972691 kJ/mol
# GULP energy per Si atom -12394.283764 kJ/mol
# Density = 2.338455 g / cm^3
# Si number density = 23.437900 Si / 1000 Ang^3
#
#
#
# Elastic Constant Matrix: (Units=GPa)
#
#
# Indices 1 2 3 4 5 6 
#
# 1 131.3348 21.9146 56.1065 -0.3335 -25.8275 34.0624
# 2 21.9146 77.1581 54.1735 0.4288 -5.6991 37.2292
# 3 56.1065 54.1735 183.6488 21.5319 -30.6411 34.1040
# 4 -0.3335 0.4288 21.5319 20.5086 2.4536 0.4993
# 5 -25.8275 -5.6991 -30.6411 2.4536 38.5182 -7.7649
# 6 34.0624 37.2292 34.1040 0.4993 -7.7649 40.0161
#
#
#
# Elastic Compliance Matrix: (Units=1/GPa)
#
#
# Indices 1 2 3 4 5 6 
#
# 1 0.011512 0.003643 -0.002174 0.002139 0.004269 -0.010534
# 2 0.003643 0.027781 -0.006223 0.007059 -0.003779 -0.024465
# 3 -0.002174 -0.006223 0.010371 -0.011597 0.006659 0.000238
# 4 0.002139 0.007059 -0.011597 0.062172 -0.010992 -0.001414
# 5 0.004269 -0.003779 0.006659 -0.010992 0.034470 0.001033
# 6 -0.010534 -0.024465 0.000238 -0.001414 0.001033 0.056733
#
#
# Mechanical properties :
#
#
# Convention : Reuss Voigt Hill
#
# Bulk Modulus (GPa) = 24.90267 72.94788 48.92527
# Shear Modulus (GPa) = 22.13045 37.13841 29.63443
#
# Velocity S-wave (km/s) = 3.07614 3.98495 3.55967
# Velocity P-wave (km/s) = 4.82337 7.23634 6.14937
#
# Compressibility (1/GPa) = 0.04015634
#
# Stress axis : x y z
#
# Youngs Moduli (GPa) = 86.86630 35.99586 96.41839
#
# Poissons Ratio (x) = -0.13112 0.20961
# Poissons Ratio (y) = -0.31643 0.59999
# Poissons Ratio (z) = 0.18885 0.22400
#
# Static dielectric constant tensor:
#      x y z
#    x 1.994710 1.762020 0.574560 
#    y 1.762020 3.522580 0.421080 
#    z 0.574560 0.421080 4.933530 
# 
# 
# High freq. dielectric constant tensor:
#      x y z
#    x 1.939200 0.020310 -0.007750 
#    y 0.020310 1.910130 0.022120 
#    z -0.007750 0.022120 1.941930 
# 
# From -- ./inp_files/97956.got.cif
#   From: 2010.06.25/outbox.cif.g09.slc.cpg/sg2_49_cif.got.tgz:97956.got - 2010.06.27 13:26:56.
