data_PCOD8016289
_publ_section_title
;
Structure prediction by ZEFSAII (Michael W. Deem and Ramdas Pophale) SiO2 
 PCOD8016289
Probable space group: P -1
;
_chemical_formula_sum "Si O2"
_cell_formula_units_Z 16
_cell_length_a 15.625947
_cell_length_b 9.332516
_cell_length_c 9.619671
_cell_angle_alpha 70.149404
_cell_angle_beta 143.325867
_cell_angle_gamma 108.215977
_cell_volume 786.049200
_symmetry_space_group_name_H-M "P -1"
_symmetry_group_IT_number 2
_symmetry_cell_setting 'triclinic'
loop_
_space_group_symop_operation_xyz
x,y,z
-x,-y,-z
loop_
_atom_site_type_symbol
_atom_site_label
_atom_site_fract_x
_atom_site_fract_y
_atom_site_fract_z
Si Si1 0.852063 0.903174 0.216612
Si Si2 0.595665 0.425362 0.034989
Si Si3 0.887475 0.572094 0.423688
Si Si4 0.864516 0.917294 0.538875
Si Si5 0.560162 0.459480 0.442843
Si Si6 0.870564 0.560744 0.723342
Si Si7 0.546687 0.871296 0.703449
Si Si8 0.604466 0.083523 0.220955
O O1 0.928672 0.751002 0.407622
O O2 0.806659 0.954468 0.295344
O O3 0.718489 0.880717 0.945734
O O4 0.970172 0.016023 0.255880
O O5 0.733857 0.541567 0.161515
O O6 0.646303 0.258811 0.181329
O O7 0.500000 0.500000 0.000000
O O8 0.504466 0.413929 0.779785
O O9 0.884336 0.506440 0.598957
O O10 0.000000 0.500000 0.500000
O O11 0.862332 0.743282 0.646699
O O12 0.752744 0.001226 0.462043
O O13 0.500000 0.500000 0.500000
O O14 0.731826 0.481077 0.646472
O O15 0.506571 0.291327 0.376453
O O16 0.000000 0.500000 0.000000
O O17 0.476331 0.911232 0.742212
O O18 0.500000 0.000000 0.500000
O O19 0.500000 0.000000 0.000000
#
# Coordination Sequence:
#
# PCOD8016289 Si02
#       8
#     2   2   2   2   2   2   2   2
#     4  10  21  44  66 100 137 176 223 282 335 412
#     4  12  22  45  72  97 134 177 237 293 332 410
#     4  11  22  41  70  98 130 179 229 282 343 407
#     4  10  23  42  70 102 136 177 227 276 343 413
#     4  12  28  46  71 101 137 187 237 290 350 405
#     4  11  26  45  67  99 142 180 230 288 347 414
#     4  12  27  44  67 102 144 176 228 289 346 410
#     4  12  23  42  72 102 131 181 232 279 344 409
#
# _framework density 20.354960999999999
#
# number of rings (size 3 to 8) (size 9 to 14) (size 15 to 20)
#    0.000    0.750    5.000    1.500    7.000    0.000 
#    0.000    0.625    0.000    0.000    0.000    0.000 
#    0.000    0.000    0.000    0.000    0.000    0.000 
#
# Total GULP energy -198330.665713 kJ/mol
# GULP energy per Si atom -12395.666607 kJ/mol
# Density = 2.030863 g / cm^3
# Si number density = 20.354961 Si / 1000 Ang^3
#
#
#
# Elastic Constant Matrix: (Units=GPa)
#
#
# Indices 1 2 3 4 5 6 
#
# 1 153.9053 51.7377 60.4518 12.1934 8.0593 -14.9802
# 2 51.7377 120.1658 48.0130 5.6667 9.7440 0.8096
# 3 60.4518 48.0130 139.0915 1.4257 9.3987 4.5208
# 4 12.1934 5.6667 1.4257 36.2411 3.4560 4.0680
# 5 8.0593 9.7440 9.3987 3.4560 38.0184 2.5963
# 6 -14.9802 0.8096 4.5208 4.0680 2.5963 34.0232
#
#
#
# Elastic Compliance Matrix: (Units=1/GPa)
#
#
# Indices 1 2 3 4 5 6 
#
# 1 0.009438 -0.002581 -0.003304 -0.003156 -0.000582 0.005078
# 2 -0.002581 0.010530 -0.002380 -0.000443 -0.001461 -0.000906
# 3 -0.003304 -0.002380 0.009590 0.001514 -0.001008 -0.002777
# 4 -0.003156 -0.000443 0.001514 0.029404 -0.001927 -0.004949
# 5 -0.000582 -0.001461 -0.001008 -0.001927 0.027358 -0.001945
# 6 0.005078 -0.000906 -0.002777 -0.004949 -0.001945 0.032758
#
#
# Mechanical properties :
#
#
# Convention : Reuss Voigt Hill
#
# Bulk Modulus (GPa) = 76.76819 81.50751 79.13785
# Shear Modulus (GPa) = 35.72674 38.52054 37.12364
#
# Velocity S-wave (km/s) = 4.19404 4.35494 4.27525
# Velocity P-wave (km/s) = 7.82623 8.08810 7.95824
#
# Compressibility (1/GPa) = 0.01302623
#
# Stress axis : x y z
#
# Youngs Moduli (GPa) = 105.95570 94.96897 104.27532
#
# Poissons Ratio (x) = 0.24516 0.34454
# Poissons Ratio (y) = 0.27352 0.24818
# Poissons Ratio (z) = 0.35009 0.22603
#
# Static dielectric constant tensor:
#      x y z
#    x 3.704630 0.096590 -0.018120 
#    y 0.096590 3.372000 0.137120 
#    z -0.018120 0.137120 3.505730 
# 
# 
# High freq. dielectric constant tensor:
#      x y z
#    x 1.802670 0.001310 0.010560 
#    y 0.001310 1.808580 0.002200 
#    z 0.010560 0.002200 1.793980 
# 
# From -- ./inp_files/283516.got.cif
#   From: 2010.06.25/outbox.cif.g09.slc.cpg/sg2_142_cif.got.tgz:283516.got - 2010.06.27 13:26:56.
