data_PCOD8016179
_publ_section_title
;
Structure prediction by ZEFSAII (Michael W. Deem and Ramdas Pophale) SiO2 
 PCOD8016179
Probable space group: P -1
;
_chemical_formula_sum "Si O2"
_cell_formula_units_Z 16
_cell_length_a 5.389122
_cell_length_b 11.474696
_cell_length_c 12.132466
_cell_angle_alpha 56.509066
_cell_angle_beta 84.089129
_cell_angle_gamma 105.564215
_cell_volume 572.565541
_symmetry_space_group_name_H-M "P -1"
_symmetry_group_IT_number 2
_symmetry_cell_setting 'triclinic'
loop_
_space_group_symop_operation_xyz
x,y,z
-x,-y,-z
loop_
_atom_site_type_symbol
_atom_site_label
_atom_site_fract_x
_atom_site_fract_y
_atom_site_fract_z
Si Si1 0.698485 0.289784 0.548806
Si Si2 0.015235 0.110179 0.543759
Si Si3 0.259643 0.131420 0.812974
Si Si4 0.086668 0.134398 0.143821
Si Si5 0.045830 0.636850 0.844592
Si Si6 0.549759 0.620432 0.716550
Si Si7 0.956573 0.614861 0.294083
Si Si8 0.541407 0.313680 0.885365
O O1 0.398814 0.179269 0.660697
O O2 0.876158 0.357166 0.614627
O O3 0.807376 0.194950 0.509183
O O4 0.713044 0.442623 0.401261
O O5 0.311860 0.251903 0.451854
O O6 0.000000 0.000000 0.500000
O O7 0.926242 0.008091 0.709131
O O8 0.477986 0.169214 0.881637
O O9 0.114504 0.242028 0.793638
O O10 0.062735 0.952477 0.916442
O O11 0.903797 0.215909 0.159208
O O12 0.398336 0.249936 0.042937
O O13 0.323320 0.671790 0.749792
O O14 0.780087 0.622634 0.793402
O O15 0.000000 0.500000 0.000000
O O16 0.427113 0.441058 0.779873
O O17 0.130337 0.605872 0.179735
#
# Coordination Sequence:
#
# PCOD8016179 Si02
#       8
#     2   2   2   2   2   2   2   2
#     4  10  22  43  69 105 146 196 252 321 388 478
#     4  12  26  48  76 114 156 204 269 331 405 465
#     4  11  25  44  72 112 151 202 259 329 405 467
#     4  12  27  49  75 114 157 208 261 335 403 472
#     4  12  28  52  83 115 159 211 270 326 401 475
#     4  12  28  52  82 118 157 211 271 331 393 480
#     4  10  21  43  72 103 144 196 258 312 393 468
#     4  11  26  47  75 110 154 202 264 321 396 484
#
# _framework density 27.944396999999999
#
# number of rings (size 3 to 8) (size 9 to 14) (size 15 to 20)
#    0.000    0.750    5.000    1.125    3.500    3.000 
#    2.250    0.000    0.000    0.000    0.000    0.000 
#    0.000    0.000    0.000    0.000    0.000    0.000 
#
# Total GULP energy -198260.941758 kJ/mol
# GULP energy per Si atom -12391.308860 kJ/mol
# Density = 2.788079 g / cm^3
# Si number density = 27.944397 Si / 1000 Ang^3
#
#
#
# Elastic Constant Matrix: (Units=GPa)
#
#
# Indices 1 2 3 4 5 6 
#
# 1 101.8792 37.9490 48.1919 -0.2929 -25.3198 -33.2962
# 2 37.9490 155.4106 30.3185 -16.2040 -18.3014 -31.5574
# 3 48.1919 30.3185 167.7168 -12.4884 -24.4317 -9.0659
# 4 -0.2929 -16.2040 -12.4884 46.4069 -3.8404 -8.5022
# 5 -25.3198 -18.3014 -24.4317 -3.8404 53.3706 7.8550
# 6 -33.2962 -31.5574 -9.0659 -8.5022 7.8550 47.2989
#
#
#
# Elastic Compliance Matrix: (Units=1/GPa)
#
#
# Indices 1 2 3 4 5 6 
#
# 1 0.015792 -0.000655 -0.003164 0.001138 0.004498 0.009531
# 2 -0.000655 0.008431 -0.000476 0.003968 0.001841 0.005480
# 3 -0.003164 -0.000476 0.007312 0.001733 0.001978 -0.001160
# 4 0.001138 0.003968 0.001733 0.025103 0.003362 0.007734
# 5 0.004498 0.001841 0.001978 0.003362 0.022406 0.001657
# 6 0.009531 0.005480 -0.001160 0.007734 0.001657 0.032400
#
#
# Mechanical properties :
#
#
# Convention : Reuss Voigt Hill
#
# Bulk Modulus (GPa) = 43.58330 73.10282 58.34306
# Shear Modulus (GPa) = 39.15948 49.98511 44.57230
#
# Velocity S-wave (km/s) = 3.74750 4.23393 3.99812
# Velocity P-wave (km/s) = 5.86134 7.07944 6.49899
#
# Compressibility (1/GPa) = 0.02294457
#
# Stress axis : x y z
#
# Youngs Moduli (GPa) = 63.32126 118.61432 136.75855
#
# Poissons Ratio (x) = 0.07773 0.43273
# Poissons Ratio (y) = 0.04150 0.06508
# Poissons Ratio (z) = 0.20036 0.05644
#
# Static dielectric constant tensor:
#      x y z
#    x 5.408130 0.431770 -0.112090 
#    y 0.431770 5.995390 0.027080 
#    z -0.112090 0.027080 5.344870 
# 
# 
# High freq. dielectric constant tensor:
#      x y z
#    x 2.132660 0.009410 -0.003920 
#    y 0.009410 2.155170 -0.002510 
#    z -0.003920 -0.002510 2.151200 
# 
# From -- ./inp_files/482619.got.cif
#   From: 2010.06.25/outbox.cif.g09.slc.cpg/sg2_242_cif.got.tgz:482619.got - 2010.06.27 13:26:56.
