data_PCOD8016392
_publ_section_title
;
Structure prediction by ZEFSAII (Michael W. Deem and Ramdas Pophale) SiO2 
 PCOD8016392
Probable space group: P -1
;
_chemical_formula_sum "Si O2"
_cell_formula_units_Z 12
_cell_length_a 9.222693
_cell_length_b 10.748908
_cell_length_c 17.717160
_cell_angle_alpha 151.451152
_cell_angle_beta 39.470300
_cell_angle_gamma 142.416629
_cell_volume 494.318505
_symmetry_space_group_name_H-M "P -1"
_symmetry_group_IT_number 2
_symmetry_cell_setting 'triclinic'
loop_
_space_group_symop_operation_xyz
x,y,z
-x,-y,-z
loop_
_atom_site_type_symbol
_atom_site_label
_atom_site_fract_x
_atom_site_fract_y
_atom_site_fract_z
Si Si1 0.691017 0.616140 0.715944
Si Si2 0.790607 0.254381 0.364373
Si Si3 0.324232 0.748792 0.226559
Si Si4 0.495327 0.803499 0.757614
Si Si5 0.447178 0.339606 0.051497
Si Si6 0.839450 0.710187 0.461433
O O1 0.683963 0.334314 0.527094
O O2 0.635335 0.827552 0.793198
O O3 0.956831 0.786253 0.738546
O O4 0.491058 0.529407 0.818942
O O5 0.850220 0.514032 0.421720
O O6 0.597312 0.968432 0.254960
O O7 0.316655 0.625068 0.078302
O O8 0.113722 0.872914 0.402066
O O9 0.268278 0.470113 0.152636
O O10 0.694971 0.900878 0.657307
O O11 0.323446 0.478703 0.641362
O O12 0.333370 0.997403 0.926190
#
# Coordination Sequence:
#
# PCOD8016392 Si02
#       6
#     2   2   2   2   2   2
#     4  10  22  42  67  94 131 166 208 268 322 366
#     4  10  21  44  69  92 123 175 219 252 307 390
#     4  11  24  40  70  95 124 172 218 257 306 388
#     4  10  22  42  67  94 131 166 208 268 322 366
#     4  11  23  41  62 101 130 163 212 266 321 368
#     4  10  21  44  69  92 123 175 219 252 307 390
#
# _framework density 24.275846000000001
#
# number of rings (size 3 to 8) (size 9 to 14) (size 15 to 20)
#    0.000    1.667    3.333    0.500    0.000    5.333 
#    0.000    1.667    0.000    0.000    0.000    0.000 
#    0.000    0.000    0.000    0.000    0.000    0.000 
#
# Total GULP energy -148675.716271 kJ/mol
# GULP energy per Si atom -12389.643023 kJ/mol
# Density = 2.422059 g / cm^3
# Si number density = 24.275846 Si / 1000 Ang^3
#
#
#
# Elastic Constant Matrix: (Units=GPa)
#
#
# Indices 1 2 3 4 5 6 
#
# 1 127.8006 38.9513 49.4101 -11.9299 10.9938 -0.8792
# 2 38.9513 73.6641 27.6233 -18.4828 15.3736 2.3234
# 3 49.4101 27.6233 139.6319 -17.8920 4.7693 -13.8143
# 4 -11.9299 -18.4828 -17.8920 28.2103 -16.3522 3.1303
# 5 10.9938 15.3736 4.7693 -16.3522 44.7228 -10.6919
# 6 -0.8792 2.3234 -13.8143 3.1303 -10.6919 29.5029
#
#
#
# Elastic Compliance Matrix: (Units=1/GPa)
#
#
# Indices 1 2 3 4 5 6 
#
# 1 0.010296 -0.004244 -0.003001 -0.001012 -0.001401 -0.001164
# 2 -0.004244 0.019389 -0.001590 0.008393 -0.003470 -0.004546
# 3 -0.003001 -0.001590 0.009600 0.005169 0.003397 0.005213
# 4 -0.001012 0.008393 0.005169 0.053307 0.016822 0.002169
# 5 -0.001401 -0.003470 0.003397 0.016822 0.032511 0.011819
# 6 -0.001164 -0.004546 0.005213 0.002169 0.011819 0.040712
#
#
# Mechanical properties :
#
#
# Convention : Reuss Voigt Hill
#
# Bulk Modulus (GPa) = 46.26183 63.67398 54.96790
# Shear Modulus (GPa) = 26.22042 35.49465 30.85753
#
# Velocity S-wave (km/s) = 3.29006 3.82794 3.56915
# Velocity P-wave (km/s) = 5.79057 6.76933 6.29899
#
# Compressibility (1/GPa) = 0.02161609
#
# Stress axis : x y z
#
# Youngs Moduli (GPa) = 97.12128 51.57609 104.16537
#
# Poissons Ratio (x) = 0.21889 0.31259
# Poissons Ratio (y) = 0.41219 0.16558
# Poissons Ratio (z) = 0.29146 0.08199
#
# Static dielectric constant tensor:
#      x y z
#    x 4.618210 -0.475590 -0.186470 
#    y -0.475590 4.089020 -0.178610 
#    z -0.186470 -0.178610 4.812670 
# 
# 
# High freq. dielectric constant tensor:
#      x y z
#    x 1.972890 -0.049830 -0.015220 
#    y -0.049830 1.929430 -0.014680 
#    z -0.015220 -0.014680 1.995070 
# 
# From -- ./inp_files/58531.got.cif
#   From: 2010.06.25/outbox.cif.g09.slc.cpg/sg2_30_cif.got.tgz:58531.got - 2010.06.27 13:26:56.
