data_PCOD8016694
_publ_section_title
;
Structure prediction by ZEFSAII (Michael W. Deem and Ramdas Pophale) SiO2 
 PCOD8016694
Probable space group: P -1
;
_chemical_formula_sum "Si O2"
_cell_formula_units_Z 16
_cell_length_a 6.304270
_cell_length_b 14.714125
_cell_length_c 18.307241
_cell_angle_alpha 29.030036
_cell_angle_beta 60.223777
_cell_angle_gamma 69.224263
_cell_volume 702.425149
_symmetry_space_group_name_H-M "P -1"
_symmetry_group_IT_number 2
_symmetry_cell_setting 'triclinic'
loop_
_space_group_symop_operation_xyz
x,y,z
-x,-y,-z
loop_
_atom_site_type_symbol
_atom_site_label
_atom_site_fract_x
_atom_site_fract_y
_atom_site_fract_z
Si Si1 0.409050 0.272357 0.426629
Si Si2 0.828587 0.713012 0.689989
Si Si3 0.062452 0.815182 0.079244
Si Si4 0.010601 0.777983 0.357864
Si Si5 0.847219 0.594013 0.138588
Si Si6 0.782032 0.577374 0.414039
Si Si7 0.302390 0.021539 0.358104
Si Si8 0.372716 0.131126 0.102277
O O1 0.389886 0.318281 0.311438
O O2 0.608594 0.438235 0.314519
O O3 0.137380 0.260875 0.514252
O O4 0.490427 0.069828 0.570331
O O5 0.722732 0.784309 0.732656
O O6 0.920869 0.516187 0.832365
O O7 0.043009 0.874719 0.506016
O O8 0.917843 0.769453 0.059568
O O9 0.953508 0.631415 0.275861
O O10 0.354963 0.825758 0.010420
O O11 0.000000 0.000000 0.000000
O O12 0.148130 0.608736 0.430806
O O13 0.816963 0.764282 0.331516
O O14 0.215356 0.965858 0.196236
O O15 0.767815 0.688789 0.010507
O O16 0.500000 0.500000 0.500000
O O17 0.388223 0.076273 0.222649
#
# Coordination Sequence:
#
# PCOD8016694 Si02
#       8
#     2   2   2   2   2   2   2   2
#     4  11  22  43  72  99 135 179 232 282 340 403
#     4  10  21  46  70 105 134 179 231 284 339 411
#     4  12  27  44  67  96 143 183 228 284 345 409
#     4  11  24  39  67  98 130 175 235 284 331 411
#     4  11  25  43  69  98 141 184 222 284 349 408
#     4  11  24  42  66  96 131 179 234 284 337 400
#     4  10  24  40  74 103 137 178 231 283 341 411
#     4  12  26  43  66 104 141 183 222 284 350 406
#
# _framework density 22.778227999999999
#
# number of rings (size 3 to 8) (size 9 to 14) (size 15 to 20)
#    0.000    1.000    1.250    4.875    7.000    4.500 
#    0.000    2.500    0.000    0.000    0.000    0.000 
#    0.000    0.000    0.000    0.000    0.000    0.000 
#
# Total GULP energy -198320.137007 kJ/mol
# GULP energy per Si atom -12395.008563 kJ/mol
# Density = 2.272638 g / cm^3
# Si number density = 22.778228 Si / 1000 Ang^3
#
#
#
# Elastic Constant Matrix: (Units=GPa)
#
#
# Indices 1 2 3 4 5 6 
#
# 1 141.0182 67.7594 62.1412 -8.4862 2.7499 6.0727
# 2 67.7594 125.7090 44.3795 -10.8856 -1.8278 2.7081
# 3 62.1412 44.3795 98.5827 0.5141 -1.7015 -4.4296
# 4 -8.4862 -10.8856 0.5141 33.6567 -2.8767 2.7814
# 5 2.7499 -1.8278 -1.7015 -2.8767 54.9347 -8.6156
# 6 6.0727 2.7081 -4.4296 2.7814 -8.6156 31.9010
#
#
#
# Elastic Compliance Matrix: (Units=1/GPa)
#
#
# Indices 1 2 3 4 5 6 
#
# 1 0.011943 -0.004162 -0.005834 0.001910 -0.001327 -0.003255
# 2 -0.004162 0.011347 -0.002517 0.002757 0.000557 -0.000611
# 3 -0.005834 -0.002517 0.015167 -0.002747 0.001159 0.003983
# 4 0.001910 0.002757 -0.002747 0.031499 0.001019 -0.003450
# 5 -0.001327 0.000557 0.001159 0.001019 0.019236 0.005473
# 6 -0.003255 -0.000611 0.003983 -0.003450 0.005473 0.034350
#
#
# Mechanical properties :
#
#
# Convention : Reuss Voigt Hill
#
# Bulk Modulus (GPa) = 74.44813 79.31890 76.88351
# Shear Modulus (GPa) = 32.67042 36.83380 34.75211
#
# Velocity S-wave (km/s) = 3.79130 4.02563 3.91022
# Velocity P-wave (km/s) = 7.20556 7.51701 7.36293
#
# Compressibility (1/GPa) = 0.01343217
#
# Stress axis : x y z
#
# Youngs Moduli (GPa) = 83.73401 88.13222 65.93125
#
# Poissons Ratio (x) = 0.36677 0.38462
# Poissons Ratio (y) = 0.34847 0.16594
# Poissons Ratio (z) = 0.48847 0.22182
#
# Static dielectric constant tensor:
#      x y z
#    x 3.445920 -0.234910 -0.054000 
#    y -0.234910 3.855350 -0.222510 
#    z -0.054000 -0.222510 4.065550 
# 
# 
# High freq. dielectric constant tensor:
#      x y z
#    x 1.913770 0.010180 0.000610 
#    y 0.010180 1.889650 -0.014420 
#    z 0.000610 -0.014420 1.897580 
# 
# From -- ./inp_files/117293.got.cif
#   From: 2010.06.25/outbox.cif.g09.slc.cpg/sg2_59_cif.got.tgz:117293.got - 2010.06.27 13:26:56.
