data_PCOD8016689
_publ_section_title
;
Structure prediction by ZEFSAII (Michael W. Deem and Ramdas Pophale) SiO2 
 PCOD8016689
Probable space group: P -1
;
_chemical_formula_sum "Si O2"
_cell_formula_units_Z 16
_cell_length_a 14.252283
_cell_length_b 13.907071
_cell_length_c 9.559716
_cell_angle_alpha 89.369250
_cell_angle_beta 111.197105
_cell_angle_gamma 31.821211
_cell_volume 709.959722
_symmetry_space_group_name_H-M "P -1"
_symmetry_group_IT_number 2
_symmetry_cell_setting 'triclinic'
loop_
_space_group_symop_operation_xyz
x,y,z
-x,-y,-z
loop_
_atom_site_type_symbol
_atom_site_label
_atom_site_fract_x
_atom_site_fract_y
_atom_site_fract_z
Si Si1 0.523852 0.266990 0.372466
Si Si2 0.736451 0.121530 0.762485
Si Si3 0.064723 0.045468 0.596360
Si Si4 0.791770 0.465397 0.419726
Si Si5 0.143976 0.766197 0.211671
Si Si6 0.085266 0.533754 0.042622
Si Si7 0.185614 0.188874 0.852555
Si Si8 0.743061 0.650248 0.148870
O O1 0.738486 0.068141 0.611218
O O2 0.359339 0.498755 0.341418
O O3 0.354909 0.318639 0.265356
O O4 0.648581 0.181778 0.290686
O O5 0.499463 0.287207 0.713168
O O6 0.721550 0.249806 0.738742
O O7 0.980514 0.879642 0.986334
O O8 0.887482 0.278529 0.418754
O O9 0.029082 0.078612 0.744685
O O10 0.000000 0.000000 0.500000
O O11 0.836768 0.514474 0.338933
O O12 0.957812 0.337877 0.648877
O O13 0.870485 0.777293 0.011297
O O14 0.117521 0.531110 0.897043
O O15 0.000000 0.500000 0.000000
O O16 0.180969 0.304703 0.804238
O O17 0.443114 0.910055 0.959943
#
# Coordination Sequence:
#
# PCOD8016689 Si02
#       8
#     2   2   2   2   2   2   2   2
#     4  12  23  44  71  93 134 183 220 276 342 395
#     4  11  24  42  69  95 131 174 226 275 337 399
#     4  12  25  44  71  97 138 181 222 280 343 399
#     4  12  24  41  69 101 135 174 228 275 332 405
#     4  11  25  48  65  96 135 176 228 282 333 407
#     4  10  22  41  66  98 132 173 221 270 330 400
#     4  10  21  46  69  93 136 181 212 278 341 393
#     4  10  24  42  68 100 135 172 226 274 334 400
#
# _framework density 22.536490000000001
#
# number of rings (size 3 to 8) (size 9 to 14) (size 15 to 20)
#    0.000    1.000    3.750    2.250    5.250    1.000 
#    0.000    1.875    0.000    8.250    0.000    0.000 
#    0.000    0.000    0.000    0.000    0.000    0.000 
#
# Total GULP energy -198274.716825 kJ/mol
# GULP energy per Si atom -12392.169802 kJ/mol
# Density = 2.248520 g / cm^3
# Si number density = 22.536490 Si / 1000 Ang^3
#
#
#
# Elastic Constant Matrix: (Units=GPa)
#
#
# Indices 1 2 3 4 5 6 
#
# 1 96.1460 33.9876 25.5197 4.1694 4.5432 -13.3219
# 2 33.9876 111.0273 22.2938 16.8696 -14.4001 -24.7648
# 3 25.5197 22.2938 85.4927 13.2354 9.3999 -0.2364
# 4 4.1694 16.8696 13.2354 27.3182 -5.2421 -4.4884
# 5 4.5432 -14.4001 9.3999 -5.2421 38.9259 -4.5322
# 6 -13.3219 -24.7648 -0.2364 -4.4884 -4.5322 38.6243
#
#
#
# Elastic Compliance Matrix: (Units=1/GPa)
#
#
# Indices 1 2 3 4 5 6 
#
# 1 0.012648 -0.003173 -0.003033 0.001607 -0.001430 0.002328
# 2 -0.003173 0.013777 -0.002693 -0.004159 0.006489 0.008000
# 3 -0.003033 -0.002693 0.014986 -0.006905 -0.005674 -0.004149
# 4 0.001607 -0.004159 -0.006905 0.044095 0.006312 0.003710
# 5 -0.001430 0.006489 -0.005674 0.006312 0.031415 0.008052
# 6 0.002328 0.008000 -0.004149 0.003710 0.008052 0.033174
#
#
# Mechanical properties :
#
#
# Convention : Reuss Voigt Hill
#
# Bulk Modulus (GPa) = 42.34977 50.69647 46.52312
# Shear Modulus (GPa) = 28.44736 35.03135 31.73936
#
# Velocity S-wave (km/s) = 3.55671 3.94690 3.75688
# Velocity P-wave (km/s) = 5.97490 6.58140 6.28547
#
# Compressibility (1/GPa) = 0.02361288
#
# Stress axis : x y z
#
# Youngs Moduli (GPa) = 79.06321 72.58555 66.72937
#
# Poissons Ratio (x) = 0.23032 0.20240
# Poissons Ratio (y) = 0.25087 0.17969
# Poissons Ratio (z) = 0.23981 0.19546
#
# Static dielectric constant tensor:
#      x y z
#    x 4.293670 -0.306150 0.217650 
#    y -0.306150 4.286040 0.401260 
#    z 0.217650 0.401260 3.840820 
# 
# 
# High freq. dielectric constant tensor:
#      x y z
#    x 1.912070 -0.013660 0.017740 
#    y -0.013660 1.890340 0.017420 
#    z 0.017740 0.017420 1.869930 
# 
# From -- ./inp_files/315275.got.cif
#   From: 2010.06.25/outbox.cif.g09.slc.cpg/sg2_158_cif.got.tgz:315275.got - 2010.06.27 13:26:56.
