data_PCOD8016443
_publ_section_title
;
Structure prediction by ZEFSAII (Michael W. Deem and Ramdas Pophale) SiO2 
 PCOD8016443
Probable space group: P -1
;
_chemical_formula_sum "Si O2"
_cell_formula_units_Z 14
_cell_length_a 13.231848
_cell_length_b 18.681257
_cell_length_c 9.666052
_cell_angle_alpha 146.825617
_cell_angle_beta 133.709694
_cell_angle_gamma 28.756932
_cell_volume 620.631222
_symmetry_space_group_name_H-M "P -1"
_symmetry_group_IT_number 2
_symmetry_cell_setting 'triclinic'
loop_
_space_group_symop_operation_xyz
x,y,z
-x,-y,-z
loop_
_atom_site_type_symbol
_atom_site_label
_atom_site_fract_x
_atom_site_fract_y
_atom_site_fract_z
Si Si1 0.649328 0.982722 0.708743
Si Si2 0.031785 0.184844 0.610506
Si Si3 0.701887 0.379240 0.852859
Si Si4 0.538144 0.010889 0.208561
Si Si5 0.274855 0.816290 0.053053
Si Si6 0.391946 0.388781 0.622039
Si Si7 0.112627 0.658185 0.555637
O O1 0.571675 0.022425 0.856374
O O2 0.888667 0.760308 0.562492
O O3 0.500000 0.000000 0.500000
O O4 0.649689 0.134289 0.912298
O O5 0.891436 0.242677 0.702216
O O6 0.882560 0.362391 0.640799
O O7 0.212763 0.156755 0.788972
O O8 0.144673 0.979644 0.316316
O O9 0.492444 0.602442 0.966984
O O10 0.630256 0.280772 0.655971
O O11 0.763305 0.407871 0.102420
O O12 0.417709 0.234194 0.475624
O O13 0.500000 0.000000 0.000000
O O14 0.130001 0.802735 0.831496
O O15 0.291298 0.449795 0.470403
#
# Coordination Sequence:
#
# PCOD8016443 Si02
#       7
#     2   2   2   2   2   2   2
#     4  11  20  41  67  90 138 177 211 275 330 390
#     4  11  22  43  67 100 128 175 230 267 330 397
#     4  10  22  42  73  95 136 170 217 289 333 383
#     4  12  27  43  61  99 139 180 224 265 335 411
#     4  10  21  44  71 101 131 172 228 278 331 393
#     4  10  23  46  63  99 137 170 220 277 340 393
#     4  10  23  41  73 100 126 177 228 275 337 389
#
# _framework density 22.557680000000001
#
# number of rings (size 3 to 8) (size 9 to 14) (size 15 to 20)
#    0.000    1.429    4.286    1.714    2.000    6.857 
#    2.571    1.429    0.000    0.000    0.000    0.000 
#    0.000    0.000    0.000    0.000    0.000    0.000 
#
# Total GULP energy -173531.461310 kJ/mol
# GULP energy per Si atom -12395.104379 kJ/mol
# Density = 2.250634 g / cm^3
# Si number density = 22.557680 Si / 1000 Ang^3
#
#
#
# Elastic Constant Matrix: (Units=GPa)
#
#
# Indices 1 2 3 4 5 6 
#
# 1 176.6554 34.1516 46.7285 -3.7382 -18.7340 -12.4447
# 2 34.1516 79.7486 27.2934 -22.4225 1.9673 2.5344
# 3 46.7285 27.2934 63.6497 -18.6037 -14.0756 -7.4387
# 4 -3.7382 -22.4225 -18.6037 39.7703 3.3527 -2.1644
# 5 -18.7340 1.9673 -14.0756 3.3527 33.4048 -2.8580
# 6 -12.4447 2.5344 -7.4387 -2.1644 -2.8580 38.7672
#
#
#
# Elastic Compliance Matrix: (Units=1/GPa)
#
#
# Indices 1 2 3 4 5 6 
#
# 1 0.007796 -0.002803 -0.004531 -0.003126 0.003102 0.001870
# 2 -0.002803 0.017866 -0.004940 0.007820 -0.005747 -0.003003
# 3 -0.004531 -0.004940 0.026071 0.008555 0.008301 0.004961
# 4 -0.003126 0.007820 0.008555 0.033515 -0.001813 0.001864
# 5 0.003102 -0.005747 0.008301 -0.001813 0.036167 0.005529
# 6 0.001870 -0.003003 0.004961 0.001864 0.005529 0.028055
#
#
# Mechanical properties :
#
#
# Convention : Reuss Voigt Hill
#
# Bulk Modulus (GPa) = 36.78245 59.60010 48.19128
# Shear Modulus (GPa) = 27.31067 36.51382 31.91224
#
# Velocity S-wave (km/s) = 3.48329 4.02766 3.76532
# Velocity P-wave (km/s) = 5.70255 6.93599 6.34929
#
# Compressibility (1/GPa) = 0.02718688
#
# Stress axis : x y z
#
# Youngs Moduli (GPa) = 128.27859 55.97191 38.35649
#
# Poissons Ratio (x) = 0.15688 0.17377
# Poissons Ratio (y) = 0.35954 0.18947
# Poissons Ratio (z) = 0.58117 0.27648
#
# Static dielectric constant tensor:
#      x y z
#    x 5.343090 0.133020 0.681470 
#    y 0.133020 4.217480 -0.348400 
#    z 0.681470 -0.348400 4.278530 
# 
# 
# High freq. dielectric constant tensor:
#      x y z
#    x 1.899060 0.012870 0.000980 
#    y 0.012870 1.898450 -0.023770 
#    z 0.000980 -0.023770 1.866000 
# 
# From -- ./inp_files/280160.got.cif
#   From: 2010.06.25/outbox.cif.g09.slc.cpg/sg2_141_cif.got.tgz:280160.got - 2010.06.27 13:26:56.
