data_PCOD8016946
_publ_section_title
;
Structure prediction by ZEFSAII (Michael W. Deem and Ramdas Pophale) SiO2 
 PCOD8016946
Probable space group: P -1
;
_chemical_formula_sum "Si O2"
_cell_formula_units_Z 14
_cell_length_a 13.142758
_cell_length_b 32.376757
_cell_length_c 15.738012
_cell_angle_alpha 16.184447
_cell_angle_beta 153.331477
_cell_angle_gamma 160.364423
_cell_volume 622.984113
_symmetry_space_group_name_H-M "P -1"
_symmetry_group_IT_number 2
_symmetry_cell_setting 'triclinic'
loop_
_space_group_symop_operation_xyz
x,y,z
-x,-y,-z
loop_
_atom_site_type_symbol
_atom_site_label
_atom_site_fract_x
_atom_site_fract_y
_atom_site_fract_z
Si Si1 0.794699 0.707024 0.851836
Si Si2 0.756503 0.335960 0.709540
Si Si3 0.303820 0.282658 0.916440
Si Si4 0.624617 0.051958 0.895401
Si Si5 0.383235 0.298697 0.647933
Si Si6 0.713834 0.959576 0.766768
Si Si7 0.279470 0.145104 0.341804
O O1 0.741309 0.707180 0.913142
O O2 0.500000 0.500000 0.000000
O O3 0.931607 0.930078 0.486898
O O4 0.072792 0.724185 0.998174
O O5 0.638429 0.399807 0.564642
O O6 0.000000 0.500000 0.500000
O O7 0.462099 0.146092 0.815972
O O8 0.541130 0.517874 0.606870
O O9 0.986859 0.222178 0.825213
O O10 0.279368 0.166654 0.047469
O O11 0.432122 0.246725 0.164367
O O12 0.485903 0.123792 0.592935
O O13 0.500000 0.000000 0.000000
O O14 0.403337 0.162467 0.991411
O O15 0.050476 0.171291 0.611079
O O16 0.500000 0.000000 0.500000
#
# Coordination Sequence:
#
# PCOD8016946 Si02
#       7
#     2   2   2   2   2   2   2
#     4  10  22  37  60  93 140 190 227 276 344 414
#     4  11  23  40  66 104 143 183 233 287 348 437
#     4  12  25  45  74 102 143 186 236 302 367 417
#     4  11  23  41  66 100 148 191 228 287 360 423
#     4  11  26  50  72 110 142 183 250 294 359 441
#     4  11  28  50  79 102 139 190 245 305 359 420
#     4  10  24  40  59 101 140 184 241 285 340 436
#
# _framework density 22.472483
#
# number of rings (size 3 to 8) (size 9 to 14) (size 15 to 20)
#    0.000    1.143    1.429    4.714   10.000    2.857 
#    0.000    0.000    0.000    0.000    0.000    0.000 
#    0.000    0.000    0.000    0.000    0.000    0.000 
#
# Total GULP energy -173478.322591 kJ/mol
# GULP energy per Si atom -12391.308756 kJ/mol
# Density = 2.242133 g / cm^3
# Si number density = 22.472483 Si / 1000 Ang^3
#
#
#
# Elastic Constant Matrix: (Units=GPa)
#
#
# Indices 1 2 3 4 5 6 
#
# 1 92.6480 56.9567 29.8541 -7.7109 1.6237 7.6969
# 2 56.9567 140.1178 74.7147 -11.3891 12.7878 -10.3102
# 3 29.8541 74.7147 95.9660 -13.4256 2.8772 0.2293
# 4 -7.7109 -11.3891 -13.4256 48.8815 -12.6394 8.8317
# 5 1.6237 12.7878 2.8772 -12.6394 34.3509 -5.2434
# 6 7.6969 -10.3102 0.2293 8.8317 -5.2434 33.6081
#
#
#
# Elastic Compliance Matrix: (Units=1/GPa)
#
#
# Indices 1 2 3 4 5 6 
#
# 1 0.015702 -0.007492 0.001287 0.002738 0.001983 -0.006313
# 2 -0.007492 0.016774 -0.010992 -0.002821 -0.004954 0.006905
# 3 0.001287 -0.010992 0.019128 0.004591 0.003436 -0.004468
# 4 0.002738 -0.002821 0.004591 0.024956 0.008692 -0.006726
# 5 0.001983 -0.004954 0.003436 0.008692 0.033927 0.001012
# 6 -0.006313 0.006905 -0.004468 -0.006726 0.001012 0.035275
#
#
# Mechanical properties :
#
#
# Convention : Reuss Voigt Hill
#
# Bulk Modulus (GPa) = 58.10388 72.42031 65.26210
# Shear Modulus (GPa) = 26.89738 34.51519 30.70629
#
# Velocity S-wave (km/s) = 3.46338 3.92329 3.70049
# Velocity P-wave (km/s) = 6.47341 7.26768 6.88201
#
# Compressibility (1/GPa) = 0.01721055
#
# Stress axis : x y z
#
# Youngs Moduli (GPa) = 63.68482 59.61551 52.28066
#
# Poissons Ratio (x) = 0.44664 -0.06727
# Poissons Ratio (y) = 0.47712 0.57465
# Poissons Ratio (z) = -0.08195 0.65527
#
# Static dielectric constant tensor:
#      x y z
#    x 3.859870 -0.170700 -0.349330 
#    y -0.170700 4.172140 -0.264470 
#    z -0.349330 -0.264470 3.264110 
# 
# 
# High freq. dielectric constant tensor:
#      x y z
#    x 1.882140 -0.011620 0.009140 
#    y -0.011620 1.887080 -0.009630 
#    z 0.009140 -0.009630 1.893860 
# 
# From -- ./inp_files/524623.got.cif
#   From: 2010.06.25/outbox.cif.g09.slc.cpg/sg2_263_cif.got.tgz:524623.got - 2010.06.27 13:26:56.
