data_PCOD8016775
_publ_section_title
;
Structure prediction by ZEFSAII (Michael W. Deem and Ramdas Pophale) SiO2 
 PCOD8016775
Probable space group: P -1
;
_chemical_formula_sum "Si O2"
_cell_formula_units_Z 16
_cell_length_a 17.244613
_cell_length_b 19.548535
_cell_length_c 12.103793
_cell_angle_alpha 138.487388
_cell_angle_beta 30.898130
_cell_angle_gamma 158.339656
_cell_volume 747.429683
_symmetry_space_group_name_H-M "P -1"
_symmetry_group_IT_number 2
_symmetry_cell_setting 'triclinic'
loop_
_space_group_symop_operation_xyz
x,y,z
-x,-y,-z
loop_
_atom_site_type_symbol
_atom_site_label
_atom_site_fract_x
_atom_site_fract_y
_atom_site_fract_z
Si Si1 0.256631 0.879055 0.352808
Si Si2 0.085680 0.453532 0.201402
Si Si3 0.393438 0.434335 0.805233
Si Si4 0.204208 0.702064 0.854484
Si Si5 0.837574 0.787734 0.832287
Si Si6 0.173280 0.467340 0.696578
Si Si7 0.689211 0.204557 0.585431
Si Si8 0.104261 0.942200 0.926273
O O1 0.284942 0.855823 0.415393
O O2 0.092833 0.893941 0.572779
O O3 0.090355 0.700864 0.266755
O O4 0.554214 0.072187 0.165356
O O5 0.870081 0.363501 0.261337
O O6 0.920560 0.312611 0.339533
O O7 0.273844 0.657779 0.252194
O O8 0.289388 0.482262 0.937974
O O9 0.562072 0.561414 0.865406
O O10 0.595480 0.489391 0.541185
O O11 0.117650 0.205766 0.884142
O O12 0.309051 0.655390 0.724544
O O13 0.938474 0.593933 0.115638
O O14 0.921255 0.816269 0.889832
O O15 0.781363 0.875621 0.985131
O O16 0.371809 0.017543 0.695957
#
# Coordination Sequence:
#
# PCOD8016775 Si02
#       8
#     2   2   2   2   2   2   2   2
#     4  11  21  40  64  90 120 156 201 247 298 358
#     4  11  23  40  62  87 126 159 195 249 301 354
#     4  11  22  39  59  85 120 159 195 248 297 351
#     4  11  22  42  66  88 119 160 201 253 294 351
#     4  10  22  35  55  88 121 155 196 242 295 358
#     4  10  24  41  63  92 119 155 207 249 298 347
#     4  11  23  39  61  92 121 159 200 242 300 365
#     4  11  21  37  57  85 122 159 198 238 295 362
#
# _framework density 21.406697000000001
#
# number of rings (size 3 to 8) (size 9 to 14) (size 15 to 20)
#    0.000    1.250    2.500    3.750    0.000    4.000 
#    0.000    0.000    0.000    1.500    0.000    0.000 
#    0.000    0.000    0.000    0.000    0.000    0.000 
#
# Total GULP energy -198403.741325 kJ/mol
# GULP energy per Si atom -12400.233833 kJ/mol
# Density = 2.135797 g / cm^3
# Si number density = 21.406697 Si / 1000 Ang^3
#
#
#
# Elastic Constant Matrix: (Units=GPa)
#
#
# Indices 1 2 3 4 5 6 
#
# 1 68.5285 11.5273 25.5233 -9.2954 0.8036 -6.8857
# 2 11.5273 71.4671 18.4815 -14.1238 2.8536 -7.7935
# 3 25.5233 18.4815 110.3123 -2.9687 -11.7627 -16.1425
# 4 -9.2954 -14.1238 -2.9687 31.2312 0.7565 1.0473
# 5 0.8036 2.8536 -11.7627 0.7565 33.5301 -2.2979
# 6 -6.8857 -7.7935 -16.1425 1.0473 -2.2979 28.2109
#
#
#
# Elastic Compliance Matrix: (Units=1/GPa)
#
#
# Indices 1 2 3 4 5 6 
#
# 1 0.016813 -0.000690 -0.003600 0.004336 -0.001598 0.001562
# 2 -0.000690 0.016439 -0.002247 0.006978 -0.002147 0.002653
# 3 -0.003600 -0.002247 0.011557 -0.001290 0.004741 0.005548
# 4 0.004336 0.006978 -0.001290 0.036365 -0.001920 0.000742
# 5 -0.001598 -0.002147 0.004741 -0.001920 0.032054 0.004412
# 6 0.001562 0.002653 0.005548 0.000742 0.004412 0.040068
#
#
# Mechanical properties :
#
#
# Convention : Reuss Voigt Hill
#
# Bulk Modulus (GPa) = 31.51029 40.15246 35.83138
# Shear Modulus (GPa) = 28.25689 31.57949 29.91819
#
# Velocity S-wave (km/s) = 3.63713 3.84502 3.74252
# Velocity P-wave (km/s) = 5.69122 6.20564 5.95399
#
# Compressibility (1/GPa) = 0.03173566
#
# Stress axis : x y z
#
# Youngs Moduli (GPa) = 59.47751 60.83079 86.52613
#
# Poissons Ratio (x) = 0.04197 0.31146
# Poissons Ratio (y) = 0.04103 0.19446
# Poissons Ratio (z) = 0.21409 0.13671
#
# Static dielectric constant tensor:
#      x y z
#    x 3.607790 0.022010 -0.140940 
#    y 0.022010 3.926260 0.056590 
#    z -0.140940 0.056590 3.833850 
# 
# 
# High freq. dielectric constant tensor:
#      x y z
#    x 1.819580 -0.004900 -0.014390 
#    y -0.004900 1.856400 0.005550 
#    z -0.014390 0.005550 1.838170 
# 
# From -- ./inp_files/272196.got.cif
#   From: 2010.06.25/outbox.cif.g09.slc.cpg/sg2_137_cif.got.tgz:272196.got - 2010.06.27 13:26:56.
