data_PCOD8016293
_publ_section_title
;
Structure prediction by ZEFSAII (Michael W. Deem and Ramdas Pophale) SiO2 
 PCOD8016293
Probable space group: P -1
;
_chemical_formula_sum "Si O2"
_cell_formula_units_Z 10
_cell_length_a 5.154888
_cell_length_b 19.992595
_cell_length_c 7.298936
_cell_angle_alpha 47.909740
_cell_angle_beta 43.608886
_cell_angle_gamma 61.239839
_cell_volume 385.008307
_symmetry_space_group_name_H-M "P -1"
_symmetry_group_IT_number 2
_symmetry_cell_setting 'triclinic'
loop_
_space_group_symop_operation_xyz
x,y,z
-x,-y,-z
loop_
_atom_site_type_symbol
_atom_site_label
_atom_site_fract_x
_atom_site_fract_y
_atom_site_fract_z
Si Si1 0.040125 0.183485 0.432127
Si Si2 0.836385 0.800024 0.259115
Si Si3 0.066560 0.007906 0.240631
Si Si4 0.220492 0.560848 0.917909
Si Si5 0.232651 0.317931 0.801165
O O1 0.609161 0.192015 0.570938
O O2 0.150134 0.076897 0.589303
O O3 0.104245 0.232210 0.504488
O O4 0.314781 0.233909 0.051760
O O5 0.005005 0.725238 0.169488
O O6 0.065445 0.894493 0.942649
O O7 0.000000 0.000000 0.500000
O O8 0.500000 0.000000 0.000000
O O9 0.398954 0.639879 0.558858
O O10 0.500000 0.500000 0.000000
O O11 0.000000 0.500000 0.000000
O O12 0.972126 0.604449 0.124632
#
# Coordination Sequence:
#
# PCOD8016293 Si02
#       5
#     2   2   2   2   2
#     4  11  25  45  73 109 150 194 241 292 348 424
#     4  11  25  45  73 109 150 194 241 292 348 424
#     4  10  21  44  66 105 151 197 236 288 346 411
#     4  12  30  52  78 105 144 185 236 304 380 440
#     4  12  26  51  78 110 144 188 242 301 360 436
#
# _framework density 25.973465000000001
#
# number of rings (size 3 to 8) (size 9 to 14) (size 15 to 20)
#    0.000    0.800    4.000    1.800    2.800    4.800 
#    0.000    4.000    0.000    0.000    0.000    0.000 
#    0.000    0.000    0.000    0.000    0.000    0.000 
#
# Total GULP energy -123939.817509 kJ/mol
# GULP energy per Si atom -12393.981751 kJ/mol
# Density = 2.591435 g / cm^3
# Si number density = 25.973465 Si / 1000 Ang^3
#
#
#
# Elastic Constant Matrix: (Units=GPa)
#
#
# Indices 1 2 3 4 5 6 
#
# 1 103.3731 38.5595 42.4969 -4.7183 24.6443 38.9329
# 2 38.5595 179.2068 34.8232 -1.9311 16.3976 46.9476
# 3 42.4969 34.8232 161.9604 -0.4628 22.0009 26.9882
# 4 -4.7183 -1.9311 -0.4628 61.8781 5.4224 11.1273
# 5 24.6443 16.3976 22.0009 5.4224 31.4686 14.0651
# 6 38.9329 46.9476 26.9882 11.1273 14.0651 39.0555
#
#
#
# Elastic Compliance Matrix: (Units=1/GPa)
#
#
# Indices 1 2 3 4 5 6 
#
# 1 0.018539 0.001923 -0.001119 0.005512 -0.007197 -0.018998
# 2 0.001923 0.008619 -0.000136 0.002763 -0.000692 -0.012721
# 3 -0.001119 -0.000136 0.007406 0.000765 -0.003038 -0.002962
# 4 0.005512 0.002763 0.000765 0.019430 -0.003562 -0.013598
# 5 -0.007197 -0.000692 -0.003038 -0.003562 0.042360 -0.004134
# 6 -0.018998 -0.012721 -0.002962 -0.013598 -0.004134 0.067246
#
#
# Mechanical properties :
#
#
# Convention : Reuss Voigt Hill
#
# Bulk Modulus (GPa) = 27.85490 75.14442 51.49966
# Shear Modulus (GPa) = 28.69785 48.39116 38.54450
#
# Velocity S-wave (km/s) = 3.32760 4.32105 3.85645
# Velocity P-wave (km/s) = 5.05089 7.34093 6.30083
#
# Compressibility (1/GPa) = 0.03590032
#
# Stress axis : x y z
#
# Youngs Moduli (GPa) = 53.94098 116.02939 135.03092
#
# Poissons Ratio (x) = -0.22318 0.15107
# Poissons Ratio (y) = -0.10375 0.01836
# Poissons Ratio (z) = 0.06035 0.01578
#
# Static dielectric constant tensor:
#      x y z
#    x 4.215040 0.276850 0.026520 
#    y 0.276850 6.058860 -0.542280 
#    z 0.026520 -0.542280 5.355110 
# 
# 
# High freq. dielectric constant tensor:
#      x y z
#    x 2.014980 0.015550 0.006500 
#    y 0.015550 2.067350 0.002740 
#    z 0.006500 0.002740 2.062690 
# 
# From -- ./inp_files/2818.got.cif
#   From: 2010.06.25/outbox.cif.g09.slc.cpg/sg2_2_cif.got.tgz:2818.got - 2010.06.27 13:26:56.
