data_PCOD8016782
_publ_section_title
;
Structure prediction by ZEFSAII (Michael W. Deem and Ramdas Pophale) SiO2 
 PCOD8016782
Probable space group: P -1
;
_chemical_formula_sum "Si O2"
_cell_formula_units_Z 14
_cell_length_a 19.924236
_cell_length_b 5.006515
_cell_length_c 15.102062
_cell_angle_alpha 124.696244
_cell_angle_beta 32.581565
_cell_angle_gamma 125.760301
_cell_volume 648.033868
_symmetry_space_group_name_H-M "P -1"
_symmetry_group_IT_number 2
_symmetry_cell_setting 'triclinic'
loop_
_space_group_symop_operation_xyz
x,y,z
-x,-y,-z
loop_
_atom_site_type_symbol
_atom_site_label
_atom_site_fract_x
_atom_site_fract_y
_atom_site_fract_z
Si Si1 0.886468 0.179804 0.290959
Si Si2 0.234412 0.346686 0.806182
Si Si3 0.528284 0.127761 0.393187
Si Si4 0.280879 0.301751 0.949264
Si Si5 0.055998 0.776349 0.120687
Si Si6 0.371176 0.765088 0.354882
Si Si7 0.497069 0.168627 0.128701
O O1 0.782011 0.276340 0.491046
O O2 0.992804 0.520678 0.219637
O O3 0.822267 0.021819 0.239623
O O4 0.943655 0.889341 0.214877
O O5 0.387400 0.480823 0.631306
O O6 0.228439 0.343797 0.917855
O O7 0.143112 0.594280 0.925445
O O8 0.500000 0.000000 0.500000
O O9 0.621196 0.932787 0.205197
O O10 0.407494 0.041055 0.445134
O O11 0.355654 0.650218 0.975478
O O12 0.156196 0.112341 0.110041
O O13 0.401309 0.414845 0.282202
O O14 0.443230 0.882378 0.205678
O O15 0.500000 0.000000 0.000000
#
# Coordination Sequence:
#
# PCOD8016782 Si02
#       7
#     2   2   2   2   2   2   2
#     4  12  25  36  62  88 136 171 206 251 289 374
#     4  11  22  37  60  90 131 176 216 244 295 367
#     4  10  22  35  58  92 134 169 202 255 313 374
#     4  10  22  39  63  89 122 163 213 259 306 374
#     4  11  24  40  56  90 129 177 217 239 293 359
#     4  11  24  42  63  98 126 162 208 256 331 372
#     4  11  24  46  72  95 119 154 210 277 332 379
#
# _framework density 21.603812000000001
#
# number of rings (size 3 to 8) (size 9 to 14) (size 15 to 20)
#    0.000    1.143    2.857    3.000   10.000    1.143 
#    0.000    0.000    0.000    5.143    0.000    0.000 
#    0.000    0.000    0.000    0.000    0.000    0.000 
#
# Total GULP energy -173539.692538 kJ/mol
# GULP energy per Si atom -12395.692324 kJ/mol
# Density = 2.155464 g / cm^3
# Si number density = 21.603812 Si / 1000 Ang^3
#
#
#
# Elastic Constant Matrix: (Units=GPa)
#
#
# Indices 1 2 3 4 5 6 
#
# 1 61.1143 13.4981 21.2263 1.8735 4.0785 -2.2048
# 2 13.4981 81.1813 28.8215 -23.0601 3.4534 -1.4681
# 3 21.2263 28.8215 77.6029 -18.8486 -8.8072 13.3015
# 4 1.8735 -23.0601 -18.8486 40.5962 -0.7254 1.1183
# 5 4.0785 3.4534 -8.8072 -0.7254 39.4575 0.7267
# 6 -2.2048 -1.4681 13.3015 1.1183 0.7267 34.6210
#
#
#
# Elastic Compliance Matrix: (Units=1/GPa)
#
#
# Indices 1 2 3 4 5 6 
#
# 1 0.019881 -0.002139 -0.007140 -0.005628 -0.003642 0.004177
# 2 -0.002139 0.016411 -0.004314 0.007325 -0.002081 0.002024
# 3 -0.007140 -0.004314 0.020535 0.007766 0.006006 -0.008904
# 4 -0.005628 0.007325 0.007766 0.032815 0.002354 -0.004141
# 5 -0.003642 -0.002081 0.006006 0.002354 0.027347 -0.003278
# 6 0.004177 0.002024 -0.008904 -0.004141 -0.003278 0.032860
#
#
# Mechanical properties :
#
#
# Convention : Reuss Voigt Hill
#
# Bulk Modulus (GPa) = 33.73546 38.55447 36.14497
# Shear Modulus (GPa) = 26.75013 33.35844 30.05429
#
# Velocity S-wave (km/s) = 3.52264 3.93377 3.73387
# Velocity P-wave (km/s) = 5.67404 6.20625 5.94611
#
# Compressibility (1/GPa) = 0.02964240
#
# Stress axis : x y z
#
# Youngs Moduli (GPa) = 50.29878 60.93417 48.69672
#
# Poissons Ratio (x) = 0.13034 0.34768
# Poissons Ratio (y) = 0.10759 0.21008
# Poissons Ratio (z) = 0.35911 0.26287
#
# Static dielectric constant tensor:
#      x y z
#    x 3.913510 0.066310 -0.545200 
#    y 0.066310 4.272000 -0.285360 
#    z -0.545200 -0.285360 3.898470 
# 
# 
# High freq. dielectric constant tensor:
#      x y z
#    x 1.833590 -0.017200 -0.042530 
#    y -0.017200 1.857040 -0.020670 
#    z -0.042530 -0.020670 1.838330 
# 
# From -- ./inp_files/56918.got.cif
#   From: 2010.06.25/outbox.cif.g09.slc.cpg/sg2_29_cif.got.tgz:56918.got - 2010.06.27 13:26:56.
