data_PCOD8016664
_publ_section_title
;
Structure prediction by ZEFSAII (Michael W. Deem and Ramdas Pophale) SiO2 
 PCOD8016664
Probable space group: P -1
;
_chemical_formula_sum "Si O2"
_cell_formula_units_Z 16
_cell_length_a 9.671510
_cell_length_b 11.809555
_cell_length_c 14.634356
_cell_angle_alpha 102.009255
_cell_angle_beta 25.739299
_cell_angle_gamma 92.688485
_cell_volume 670.024120
_symmetry_space_group_name_H-M "P -1"
_symmetry_group_IT_number 2
_symmetry_cell_setting 'triclinic'
loop_
_space_group_symop_operation_xyz
x,y,z
-x,-y,-z
loop_
_atom_site_type_symbol
_atom_site_label
_atom_site_fract_x
_atom_site_fract_y
_atom_site_fract_z
Si Si1 0.536092 0.650541 0.211632
Si Si2 0.718834 0.027099 0.749598
Si Si3 0.370020 0.423124 0.301326
Si Si4 0.254170 0.162917 0.765482
Si Si5 0.114102 0.249274 0.123384
Si Si6 0.387284 0.756514 0.723073
Si Si7 0.805790 0.766868 0.717986
Si Si8 0.795096 0.899019 0.418344
O O1 0.613891 0.504816 0.158541
O O2 0.667960 0.715741 0.226921
O O3 0.136149 0.717349 0.448555
O O4 0.723281 0.658798 0.007095
O O5 0.829430 0.106252 0.775757
O O6 0.655763 0.911809 0.816244
O O7 0.362303 0.110044 0.934719
O O8 0.000000 0.000000 0.500000
O O9 0.412186 0.376122 0.373486
O O10 0.467799 0.297744 0.161183
O O11 0.000000 0.500000 0.500000
O O12 0.183026 0.170512 0.701528
O O13 0.571505 0.042320 0.575170
O O14 0.922204 0.161227 0.016427
O O15 0.065748 0.276018 0.263614
O O16 0.752419 0.263304 0.296854
O O17 0.644505 0.831735 0.573194
#
# Coordination Sequence:
#
# PCOD8016664 Si02
#       8
#     2   2   2   2   2   2   2   2
#     4  10  21  46  63  89 133 172 220 274 335 374
#     4  12  22  41  67  99 141 179 206 267 336 397
#     4  10  25  44  71  91 127 178 228 281 330 386
#     4  10  22  40  66 100 134 172 213 272 326 402
#     4  11  25  39  70 101 133 172 218 270 333 401
#     4  11  24  44  66  97 132 176 222 271 331 394
#     4  11  22  43  66  98 134 173 221 269 323 395
#     4  11  23  39  67 100 138 172 212 264 335 400
#
# _framework density 23.879739000000001
#
# number of rings (size 3 to 8) (size 9 to 14) (size 15 to 20)
#    0.000    1.250    2.500    3.000    5.250    3.500 
#    0.000    8.125    0.000    0.000    0.000    0.000 
#    0.000    0.000    0.000    0.000    0.000    0.000 
#
# Total GULP energy -198355.072200 kJ/mol
# GULP energy per Si atom -12397.192013 kJ/mol
# Density = 2.382539 g / cm^3
# Si number density = 23.879739 Si / 1000 Ang^3
#
#
#
# Elastic Constant Matrix: (Units=GPa)
#
#
# Indices 1 2 3 4 5 6 
#
# 1 143.8595 79.6031 10.8676 -6.0935 -7.9957 -6.5362
# 2 79.6031 202.4235 24.1969 -22.6509 -4.6712 9.9592
# 3 10.8676 24.1969 32.2823 -11.5786 -3.7142 -1.5751
# 4 -6.0935 -22.6509 -11.5786 20.3209 -10.7478 -3.4864
# 5 -7.9957 -4.6712 -3.7142 -10.7478 33.6479 9.0328
# 6 -6.5362 9.9592 -1.5751 -3.4864 9.0328 32.5151
#
#
#
# Elastic Compliance Matrix: (Units=1/GPa)
#
#
# Indices 1 2 3 4 5 6 
#
# 1 0.009198 -0.003793 -0.000373 -0.000898 0.000598 0.002730
# 2 -0.003793 0.007730 -0.001454 0.007892 0.003419 -0.003304
# 3 -0.000373 -0.001454 0.045504 0.032196 0.014478 0.002005
# 4 -0.000898 0.007892 0.032196 0.094353 0.034727 -0.000569
# 5 0.000598 0.003419 0.014478 0.034727 0.045480 -0.009136
# 6 0.002730 -0.003304 0.002005 -0.000569 -0.009136 0.034890
#
#
# Mechanical properties :
#
#
# Convention : Reuss Voigt Hill
#
# Bulk Modulus (GPa) = 19.53518 67.54453 43.53986
# Shear Modulus (GPa) = 18.83524 34.88995 26.86260
#
# Velocity S-wave (km/s) = 2.81152 3.82654 3.35761
# Velocity P-wave (km/s) = 4.32874 6.91881 5.77096
#
# Compressibility (1/GPa) = 0.05118969
#
# Stress axis : x y z
#
# Youngs Moduli (GPa) = 108.72265 129.36025 21.97620
#
# Poissons Ratio (x) = 0.49072 0.00820
# Poissons Ratio (y) = 0.41243 0.03196
# Poissons Ratio (z) = 0.04057 0.18815
#
# Static dielectric constant tensor:
#      x y z
#    x 4.532490 0.128200 -0.081100 
#    y 0.128200 4.732050 -0.124390 
#    z -0.081100 -0.124390 4.098180 
# 
# 
# High freq. dielectric constant tensor:
#      x y z
#    x 1.959480 -0.000960 -0.007230 
#    y -0.000960 1.949550 -0.015050 
#    z -0.007230 -0.015050 1.928400 
# 
# From -- ./inp_files/500496.got.cif
#   From: 2010.06.25/outbox.cif.g09.slc.cpg/sg2_251_cif.got.tgz:500496.got - 2010.06.27 13:26:56.
