data_PCOD8016469
_publ_section_title
;
Structure prediction by ZEFSAII (Michael W. Deem and Ramdas Pophale) SiO2 
 PCOD8016469
Probable space group: P -1
;
_chemical_formula_sum "Si O2"
_cell_formula_units_Z 16
_cell_length_a 7.731216
_cell_length_b 21.501921
_cell_length_c 6.441549
_cell_angle_alpha 73.772043
_cell_angle_beta 64.817619
_cell_angle_gamma 113.850716
_cell_volume 742.798570
_symmetry_space_group_name_H-M "P -1"
_symmetry_group_IT_number 2
_symmetry_cell_setting 'triclinic'
loop_
_space_group_symop_operation_xyz
x,y,z
-x,-y,-z
loop_
_atom_site_type_symbol
_atom_site_label
_atom_site_fract_x
_atom_site_fract_y
_atom_site_fract_z
Si Si1 0.903085 0.291069 0.551448
Si Si2 0.586471 0.111494 0.419739
Si Si3 0.165778 0.631752 0.830361
Si Si4 0.530444 0.235237 0.139615
Si Si5 0.297319 0.535797 0.620409
Si Si6 0.678330 0.040128 0.060841
Si Si7 0.993999 0.826598 0.519658
Si Si8 0.333925 0.460129 0.318828
O O1 0.853401 0.302308 0.330043
O O2 0.023857 0.245380 0.524681
O O3 0.076029 0.379925 0.476375
O O4 0.661550 0.240487 0.856948
O O5 0.532223 0.175987 0.356486
O O6 0.618238 0.087407 0.199096
O O7 0.821601 0.143521 0.409884
O O8 0.349958 0.032292 0.726173
O O9 0.335909 0.676537 0.901044
O O10 0.275275 0.606043 0.624875
O O11 0.909417 0.551495 0.097359
O O12 0.264997 0.203789 0.238731
O O13 0.300017 0.524696 0.380025
O O14 0.551978 0.564895 0.549789
O O15 0.931682 0.104951 0.757431
O O16 0.500000 0.000000 0.000000
O O17 0.500000 0.500000 0.000000
#
# Coordination Sequence:
#
# PCOD8016469 Si02
#       8
#     2   2   2   2   2   2   2   2
#     4  12  24  42  63  96 135 169 225 283 326 396
#     4  10  21  44  71  97 138 170 219 269 320 391
#     4  11  23  42  62  91 129 168 223 282 329 395
#     4  12  25  43  67  99 135 179 218 273 335 395
#     4  10  23  40  63  89 122 170 223 278 341 391
#     4   9  20  42  72 101 134 173 211 275 317 385
#     4  11  24  42  68  98 135 176 219 265 335 388
#     4  11  22  40  64  90 124 172 223 280 335 395
#
# _framework density 21.540161000000001
#
# number of rings (size 3 to 8) (size 9 to 14) (size 15 to 20)
#    0.000    1.250    5.000    0.750    0.000    4.000 
#    2.250    5.625    0.000    0.000    0.000    0.000 
#    0.000    0.000    0.000    0.000    0.000    0.000 
#
# Total GULP energy -198306.782204 kJ/mol
# GULP energy per Si atom -12394.173888 kJ/mol
# Density = 2.149113 g / cm^3
# Si number density = 21.540161 Si / 1000 Ang^3
#
#
#
# Elastic Constant Matrix: (Units=GPa)
#
#
# Indices 1 2 3 4 5 6 
#
# 1 88.9550 24.7070 25.2673 -1.4608 -10.4475 -2.1855
# 2 24.7070 87.0577 25.8590 13.7993 0.4626 -1.2253
# 3 25.2673 25.8590 102.7590 4.4414 -6.5759 -9.9199
# 4 -1.4608 13.7993 4.4414 40.8111 -1.3164 4.9670
# 5 -10.4475 0.4626 -6.5759 -1.3164 29.3769 5.1960
# 6 -2.1855 -1.2253 -9.9199 4.9670 5.1960 27.9947
#
#
#
# Elastic Compliance Matrix: (Units=1/GPa)
#
#
# Indices 1 2 3 4 5 6 
#
# 1 0.013429 -0.003510 -0.002333 0.002214 0.004617 -0.001182
# 2 -0.003510 0.014014 -0.002540 -0.004752 -0.002379 0.000724
# 3 -0.002333 -0.002540 0.011409 -0.000883 0.001069 0.003708
# 4 0.002214 -0.004752 -0.000883 0.027070 0.002883 -0.005686
# 5 0.004617 -0.002379 0.001069 0.002883 0.037291 -0.006798
# 6 -0.001182 0.000724 0.003708 -0.005686 -0.006798 0.039245
#
#
# Mechanical properties :
#
#
# Convention : Reuss Voigt Hill
#
# Bulk Modulus (GPa) = 45.28113 47.82644 46.55379
# Shear Modulus (GPa) = 30.01459 33.16577 31.59018
#
# Velocity S-wave (km/s) = 3.73691 3.92818 3.83374
# Velocity P-wave (km/s) = 6.29974 6.54414 6.42310
#
# Compressibility (1/GPa) = 0.02208425
#
# Stress axis : x y z
#
# Youngs Moduli (GPa) = 74.46640 71.35974 87.65093
#
# Poissons Ratio (x) = 0.25049 0.20449
# Poissons Ratio (y) = 0.26140 0.22266
# Poissons Ratio (z) = 0.17373 0.18127
#
# Static dielectric constant tensor:
#      x y z
#    x 3.744220 -0.011030 0.264710 
#    y -0.011030 4.348890 -0.351960 
#    z 0.264710 -0.351960 4.710620 
# 
# 
# High freq. dielectric constant tensor:
#      x y z
#    x 1.822100 0.008620 0.005670 
#    y 0.008620 1.859200 0.003690 
#    z 0.005670 0.003690 1.853580 
# 
# From -- ./inp_files/52885.got.cif
#   From: 2010.06.25/outbox.cif.g09.slc.cpg/sg2_27_cif.got.tgz:52885.got - 2010.06.27 13:26:56.
