data_PCOD8016643
_publ_section_title
;
Structure prediction by ZEFSAII (Michael W. Deem and Ramdas Pophale) SiO2 
 PCOD8016643
Probable space group: P -1
;
_chemical_formula_sum "Si O2"
_cell_formula_units_Z 16
_cell_length_a 13.924332
_cell_length_b 14.080946
_cell_length_c 8.800046
_cell_angle_alpha 79.958314
_cell_angle_beta 79.181337
_cell_angle_gamma 146.692181
_cell_volume 734.487937
_symmetry_space_group_name_H-M "P -1"
_symmetry_group_IT_number 2
_symmetry_cell_setting 'triclinic'
loop_
_space_group_symop_operation_xyz
x,y,z
-x,-y,-z
loop_
_atom_site_type_symbol
_atom_site_label
_atom_site_fract_x
_atom_site_fract_y
_atom_site_fract_z
Si Si1 0.185973 0.731517 0.448010
Si Si2 0.647567 0.387491 0.274736
Si Si3 0.702006 0.904275 0.275700
Si Si4 0.203694 0.317124 0.065808
Si Si5 0.597834 0.712172 0.049455
Si Si6 0.398547 0.997892 0.892099
Si Si7 0.628565 0.926894 0.824599
Si Si8 0.020838 0.483306 0.830159
O O1 0.426380 0.902946 0.289435
O O2 0.134423 0.675406 0.658195
O O3 0.000000 0.500000 0.500000
O O4 0.168938 0.826824 0.367702
O O5 0.475705 0.261513 0.491975
O O6 0.544572 0.231827 0.215367
O O7 0.841079 0.491636 0.252447
O O8 0.737433 0.567284 0.131273
O O9 0.616450 0.756758 0.208776
O O10 0.722125 0.030906 0.171566
O O11 0.938038 0.085184 0.230806
O O12 0.340673 0.473442 0.132360
O O13 0.265918 0.263232 0.025068
O O14 0.716631 0.899731 0.857374
O O15 0.497388 0.138249 0.973086
O O16 0.226575 0.767247 0.078381
O O17 0.000000 0.500000 0.000000
#
# Coordination Sequence:
#
# PCOD8016643 Si02
#       8
#     2   2   2   2   2   2   2   2
#     4  12  25  41  66  94 127 176 222 270 334 399
#     4  11  24  42  64  99 129 170 225 272 331 404
#     4  11  22  42  68  98 137 171 221 276 334 394
#     4  10  21  45  72  96 133 178 218 273 348 386
#     4   9  22  44  70  98 134 175 222 278 332 400
#     4  11  23  44  62  93 131 170 224 270 328 403
#     4  10  23  42  64  90 133 171 217 275 321 394
#     4  12  26  41  65  94 131 174 217 275 329 395
#
# _framework density 21.783884
#
# number of rings (size 3 to 8) (size 9 to 14) (size 15 to 20)
#    0.000    1.250    3.750    1.500    3.500    1.500 
#    6.750    5.625    0.000    0.000    0.000    0.000 
#    0.000    0.000    0.000    0.000    0.000    0.000 
#
# Total GULP energy -198301.523273 kJ/mol
# GULP energy per Si atom -12393.845205 kJ/mol
# Density = 2.173430 g / cm^3
# Si number density = 21.783884 Si / 1000 Ang^3
#
#
#
# Elastic Constant Matrix: (Units=GPa)
#
#
# Indices 1 2 3 4 5 6 
#
# 1 104.8769 36.3019 50.8627 -7.7888 3.7839 -7.5954
# 2 36.3019 110.3239 47.1136 2.4078 -10.0893 -1.8705
# 3 50.8627 47.1136 147.1477 -1.6966 -2.8910 -5.8733
# 4 -7.7888 2.4078 -1.6966 34.3789 1.5509 2.0702
# 5 3.7839 -10.0893 -2.8910 1.5509 33.3457 -10.1719
# 6 -7.5954 -1.8705 -5.8733 2.0702 -10.1719 34.2833
#
#
#
# Elastic Compliance Matrix: (Units=1/GPa)
#
#
# Indices 1 2 3 4 5 6 
#
# 1 0.012583 -0.002966 -0.003367 0.002931 -0.002400 0.001160
# 2 -0.002966 0.011559 -0.002587 -0.001836 0.003943 0.000811
# 3 -0.003367 -0.002587 0.008831 -0.000224 0.000627 0.000825
# 4 0.002931 -0.001836 -0.000224 0.030136 -0.002978 -0.002192
# 5 -0.002400 0.003943 0.000627 -0.002978 0.034786 0.010292
# 6 0.001160 0.000811 0.000825 -0.002192 0.010292 0.032797
#
#
# Mechanical properties :
#
#
# Convention : Reuss Voigt Hill
#
# Bulk Modulus (GPa) = 66.08213 70.10055 68.09134
# Shear Modulus (GPa) = 32.55707 35.60625 34.08166
#
# Velocity S-wave (km/s) = 3.87013 4.04731 3.95971
# Velocity P-wave (km/s) = 7.09731 7.35465 7.22712
#
# Compressibility (1/GPa) = 0.01513268
#
# Stress axis : x y z
#
# Youngs Moduli (GPa) = 79.47400 86.50906 113.24256
#
# Poissons Ratio (x) = 0.25662 0.38124
# Poissons Ratio (y) = 0.23575 0.29297
# Poissons Ratio (z) = 0.26756 0.22381
#
# Static dielectric constant tensor:
#      x y z
#    x 3.568570 0.086160 -0.780220 
#    y 0.086160 4.194780 0.326100 
#    z -0.780220 0.326100 1.859160 
# 
# 
# High freq. dielectric constant tensor:
#      x y z
#    x 1.858490 -0.000320 0.015860 
#    y -0.000320 1.866120 0.006330 
#    z 0.015860 0.006330 1.850300 
# 
# From -- ./inp_files/39170.got.cif
#   From: 2010.06.25/outbox.cif.g09.slc.cpg/sg2_20_cif.got.tgz:39170.got - 2010.06.27 13:26:56.
