data_PCOD8016674
_publ_section_title
;
Structure prediction by ZEFSAII (Michael W. Deem and Ramdas Pophale) SiO2 
 PCOD8016674
Probable space group: P -1
;
_chemical_formula_sum "Si O2"
_cell_formula_units_Z 14
_cell_length_a 8.514176
_cell_length_b 15.330685
_cell_length_c 9.561880
_cell_angle_alpha 45.342319
_cell_angle_beta 129.724700
_cell_angle_gamma 111.279243
_cell_volume 674.276302
_symmetry_space_group_name_H-M "P -1"
_symmetry_group_IT_number 2
_symmetry_cell_setting 'triclinic'
loop_
_space_group_symop_operation_xyz
x,y,z
-x,-y,-z
loop_
_atom_site_type_symbol
_atom_site_label
_atom_site_fract_x
_atom_site_fract_y
_atom_site_fract_z
Si Si1 0.449494 0.713557 0.032144
Si Si2 0.202687 0.281426 0.574146
Si Si3 0.561353 0.133016 0.405812
Si Si4 0.160156 0.539437 0.938187
Si Si5 0.023902 0.048643 0.804873
Si Si6 0.081420 0.881952 0.773394
Si Si7 0.721252 0.729713 0.692905
O O1 0.642817 0.659707 0.301757
O O2 0.536988 0.775150 0.876080
O O3 0.332622 0.601968 0.045216
O O4 0.303645 0.818954 0.917249
O O5 0.186088 0.144326 0.777361
O O6 0.299713 0.270101 0.486842
O O7 0.975266 0.367139 0.352832
O O8 0.478608 0.186158 0.449177
O O9 0.806748 0.123240 0.544269
O O10 0.500000 0.000000 0.500000
O O11 0.269466 0.409422 0.079796
O O12 0.000000 0.500000 0.000000
O O13 0.101302 0.928019 0.890865
O O14 0.000000 0.000000 0.000000
O O15 0.928059 0.781653 0.794541
O O16 0.000000 0.000000 0.500000
#
# Coordination Sequence:
#
# PCOD8016674 Si02
#       7
#     2   2   2   2   2   2   2
#     4  12  24  42  69  96 132 175 218 272 321 391
#     4  11  24  44  67  98 129 175 223 263 329 393
#     4  12  23  42  65  98 134 170 215 271 334 379
#     4  10  21  46  67  92 134 171 222 270 322 383
#     4  12  25  41  64  97 141 168 217 276 327 391
#     4  12  20  43  67  92 134 173 211 272 333 384
#     4  11  23  41  69  96 127 176 217 268 328 391
#
# _framework density 20.763003999999999
#
# number of rings (size 3 to 8) (size 9 to 14) (size 15 to 20)
#    0.000    0.571    8.571    0.857    2.000    3.429 
#    0.000    0.714    0.000    0.000    0.000    0.000 
#    0.000    0.000    0.000    0.000    0.000    0.000 
#
# Total GULP energy -173621.716907 kJ/mol
# GULP energy per Si atom -12401.551208 kJ/mol
# Density = 2.071575 g / cm^3
# Si number density = 20.763004 Si / 1000 Ang^3
#
#
#
# Elastic Constant Matrix: (Units=GPa)
#
#
# Indices 1 2 3 4 5 6 
#
# 1 76.4716 42.9659 22.9708 -1.0120 -7.8014 -4.2060
# 2 42.9659 157.7938 68.2710 -3.5697 -2.9636 13.8031
# 3 22.9708 68.2710 92.4478 8.8238 -8.2569 3.8330
# 4 -1.0120 -3.5697 8.8238 35.5569 3.8999 6.2381
# 5 -7.8014 -2.9636 -8.2569 3.8999 37.8437 1.3414
# 6 -4.2060 13.8031 3.8330 6.2381 1.3414 40.3713
#
#
#
# Elastic Compliance Matrix: (Units=1/GPa)
#
#
# Indices 1 2 3 4 5 6 
#
# 1 0.016184 -0.004402 -0.000585 -0.000718 0.002822 0.003264
# 2 -0.004402 0.011211 -0.007550 0.003804 -0.001924 -0.004099
# 3 -0.000585 -0.007550 0.017342 -0.005762 0.003608 0.001645
# 4 -0.000718 0.003804 -0.005762 0.031340 -0.004141 -0.005533
# 5 0.002822 -0.001924 0.003608 -0.004141 0.028058 0.000317
# 6 0.003264 -0.004099 0.001645 -0.005533 0.000317 0.027200
#
#
# Mechanical properties :
#
#
# Convention : Reuss Voigt Hill
#
# Bulk Modulus (GPa) = 50.85971 66.12538 58.49255
# Shear Modulus (GPa) = 30.68133 35.58809 33.13471
#
# Velocity S-wave (km/s) = 3.84825 4.14456 3.99915
# Velocity P-wave (km/s) = 6.65536 7.40405 7.03967
#
# Compressibility (1/GPa) = 0.01966193
#
# Stress axis : x y z
#
# Youngs Moduli (GPa) = 61.78981 89.19473 57.66298
#
# Poissons Ratio (x) = 0.39268 0.03372
# Poissons Ratio (y) = 0.27203 0.43538
# Poissons Ratio (z) = 0.03613 0.67346
#
# Static dielectric constant tensor:
#      x y z
#    x 3.888940 -0.193420 0.164960 
#    y -0.193420 4.277580 -0.294370 
#    z 0.164960 -0.294370 4.046250 
# 
# 
# High freq. dielectric constant tensor:
#      x y z
#    x 1.810870 0.006440 -0.004190 
#    y 0.006440 1.822770 -0.007470 
#    z -0.004190 -0.007470 1.801120 
# 
# From -- ./inp_files/178363.got.cif
#   From: 2010.06.25/outbox.cif.g09.slc.cpg/sg2_90_cif.got.tgz:178363.got - 2010.06.27 13:26:56.
