data_PCOD8016304
_publ_section_title
;
Structure prediction by ZEFSAII (Michael W. Deem and Ramdas Pophale) SiO2 
 PCOD8016304
Probable space group: P -1
;
_chemical_formula_sum "Si O2"
_cell_formula_units_Z 16
_cell_length_a 12.280291
_cell_length_b 19.986140
_cell_length_c 9.035684
_cell_angle_alpha 77.980315
_cell_angle_beta 143.523849
_cell_angle_gamma 130.252952
_cell_volume 731.920884
_symmetry_space_group_name_H-M "P -1"
_symmetry_group_IT_number 2
_symmetry_cell_setting 'triclinic'
loop_
_space_group_symop_operation_xyz
x,y,z
-x,-y,-z
loop_
_atom_site_type_symbol
_atom_site_label
_atom_site_fract_x
_atom_site_fract_y
_atom_site_fract_z
Si Si1 0.908984 0.683150 0.868649
Si Si2 0.798901 0.496837 0.864510
Si Si3 0.780270 0.487363 0.190346
Si Si4 0.685519 0.250838 0.269434
Si Si5 0.744209 0.035900 0.549904
Si Si6 0.228856 0.232497 0.777303
Si Si7 0.470370 0.896415 0.583970
Si Si8 0.235795 0.829106 0.873232
O O1 0.981845 0.625438 0.001022
O O2 0.546317 0.596503 0.548553
O O3 0.981293 0.718827 0.759645
O O4 0.136322 0.795662 0.173864
O O5 0.753219 0.461340 0.000171
O O6 0.000000 0.500000 0.000000
O O7 0.000000 0.500000 0.500000
O O8 0.949992 0.612939 0.348996
O O9 0.425221 0.365802 0.932318
O O10 0.506579 0.162300 0.257692
O O11 0.710798 0.205001 0.188365
O O12 0.465224 0.245427 0.972721
O O13 0.518698 0.031894 0.339162
O O14 0.099502 0.171181 0.827269
O O15 0.757714 0.990067 0.730962
O O16 0.578715 0.946362 0.272334
O O17 0.919816 0.148221 0.370917
#
# Coordination Sequence:
#
# PCOD8016304 Si02
#       8
#     2   2   2   2   2   2   2   2
#     4  10  23  41  63  93 127 173 212 256 326 381
#     4  11  23  41  64  94 132 169 213 262 317 385
#     4  10  23  42  63 100 134 162 214 262 317 389
#     4  11  24  41  68  96 130 169 213 267 321 382
#     4  10  23  43  68  93 128 171 216 269 321 372
#     4  11  23  41  65  93 131 168 213 260 322 378
#     4  10  21  44  66  93 129 166 217 270 315 382
#     4  11  23  43  66  93 130 167 216 266 318 386
#
# _framework density 21.860285999999999
#
# number of rings (size 3 to 8) (size 9 to 14) (size 15 to 20)
#    0.000    1.500    3.750    0.375    3.500    3.500 
#    2.250    0.000    0.000    0.000    0.000    0.000 
#    0.000    0.000    0.000    0.000    0.000    0.000 
#
# Total GULP energy -198289.987937 kJ/mol
# GULP energy per Si atom -12393.124246 kJ/mol
# Density = 2.181053 g / cm^3
# Si number density = 21.860286 Si / 1000 Ang^3
#
#
#
# Elastic Constant Matrix: (Units=GPa)
#
#
# Indices 1 2 3 4 5 6 
#
# 1 112.3016 56.5133 50.3576 7.5781 -5.2933 7.6054
# 2 56.5133 140.1248 21.0781 9.2372 4.3894 18.4030
# 3 50.3576 21.0781 39.9034 -5.8950 1.7421 -3.2038
# 4 7.5781 9.2372 -5.8950 37.0609 -1.1703 8.9208
# 5 -5.2933 4.3894 1.7421 -1.1703 30.1269 0.6832
# 6 7.6054 18.4030 -3.2038 8.9208 0.6832 35.9128
#
#
#
# Elastic Compliance Matrix: (Units=1/GPa)
#
#
# Indices 1 2 3 4 5 6 
#
# 1 0.028758 -0.005329 -0.035481 -0.008880 0.007637 -0.004464
# 2 -0.005329 0.009636 0.001406 -0.000305 -0.002352 -0.003563
# 3 -0.035481 0.001406 0.072647 0.015842 -0.010241 0.009534
# 4 -0.008880 -0.000305 0.015842 0.032466 -0.001066 -0.004594
# 5 0.007637 -0.002352 -0.010241 -0.001066 0.035468 -0.001735
# 6 -0.004464 -0.003563 0.009534 -0.004594 -0.001735 0.032641
#
#
# Mechanical properties :
#
#
# Convention : Reuss Voigt Hill
#
# Bulk Modulus (GPa) = 31.02302 60.91422 45.96862
# Shear Modulus (GPa) = 16.60202 31.57884 24.09043
#
# Velocity S-wave (km/s) = 2.75882 3.80488 3.32327
# Velocity P-wave (km/s) = 4.93664 6.87230 5.98327
#
# Compressibility (1/GPa) = 0.03223412
#
# Stress axis : x y z
#
# Youngs Moduli (GPa) = 34.77310 103.77986 13.76512
#
# Poissons Ratio (x) = 0.55300 0.48840
# Poissons Ratio (y) = 0.18529 -0.01936
# Poissons Ratio (z) = 1.23379 -0.14594
#
# Static dielectric constant tensor:
#      x y z
#    x 3.649280 0.222450 -0.131820 
#    y 0.222450 4.481650 0.206400 
#    z -0.131820 0.206400 3.904650 
# 
# 
# High freq. dielectric constant tensor:
#      x y z
#    x 1.838150 0.017590 -0.009040 
#    y 0.017590 1.887780 0.005220 
#    z -0.009040 0.005220 1.845030 
# 
# From -- ./inp_files/283068.got.cif
#   From: 2010.06.25/outbox.cif.g09.slc.cpg/sg2_142_cif.got.tgz:283068.got - 2010.06.27 13:26:56.
