data_PCOD8016259
_publ_section_title
;
Structure prediction by ZEFSAII (Michael W. Deem and Ramdas Pophale) SiO2 
 PCOD8016259
Probable space group: P -1
;
_chemical_formula_sum "Si O2"
_cell_formula_units_Z 14
_cell_length_a 17.879684
_cell_length_b 8.102954
_cell_length_c 20.975259
_cell_angle_alpha 126.827301
_cell_angle_beta 161.891996
_cell_angle_gamma 43.885477
_cell_volume 600.824395
_symmetry_space_group_name_H-M "P -1"
_symmetry_group_IT_number 2
_symmetry_cell_setting 'triclinic'
loop_
_space_group_symop_operation_xyz
x,y,z
-x,-y,-z
loop_
_atom_site_type_symbol
_atom_site_label
_atom_site_fract_x
_atom_site_fract_y
_atom_site_fract_z
Si Si1 0.466842 0.210110 0.806634
Si Si2 0.886343 0.008456 0.775091
Si Si3 0.085614 0.640233 0.689189
Si Si4 0.980850 0.505184 0.264738
Si Si5 0.776784 0.207458 0.604209
Si Si6 0.735186 0.728277 0.992713
Si Si7 0.443283 0.535997 0.298238
O O1 0.366419 0.459448 0.826416
O O2 0.219633 0.295559 0.572548
O O3 0.482689 0.005049 0.819866
O O4 0.775224 0.095668 0.993217
O O5 0.661432 0.203504 0.580514
O O6 0.783001 0.164398 0.793684
O O7 0.865024 0.774055 0.709088
O O8 0.153493 0.481378 0.772569
O O9 0.040123 0.906245 0.727492
O O10 0.240075 0.543206 0.490522
O O11 0.708275 0.721724 0.046742
O O12 0.505783 0.351771 0.366927
O O13 0.931135 0.351568 0.767204
O O14 0.719255 0.508542 0.898803
#
# Coordination Sequence:
#
# PCOD8016259 Si02
#       7
#     2   2   2   2   2   2   2
#     4  10  22  41  69  90 117 167 210 251 306 358
#     4  10  22  39  63  95 121 164 209 246 306 365
#     4  10  21  44  65  90 124 157 212 262 294 358
#     4  10  24  40  61  94 126 162 199 252 310 364
#     4   9  20  39  63  92 121 162 207 253 300 358
#     4  10  22  39  62  94 123 164 204 241 316 363
#     4  11  21  41  62  91 135 158 195 258 304 372
#
# _framework density 23.301314999999999
#
# number of rings (size 3 to 8) (size 9 to 14) (size 15 to 20)
#    0.000    2.000    1.429    0.857    2.000    8.571 
#   10.286    2.143    0.000    0.000    0.000    0.000 
#    0.000    0.000    0.000    0.000    0.000    0.000 
#
# Total GULP energy -173569.133616 kJ/mol
# GULP energy per Si atom -12397.795258 kJ/mol
# Density = 2.324828 g / cm^3
# Si number density = 23.301315 Si / 1000 Ang^3
#
#
#
# Elastic Constant Matrix: (Units=GPa)
#
#
# Indices 1 2 3 4 5 6 
#
# 1 76.5204 21.8009 36.2335 4.4326 -20.3820 1.7565
# 2 21.8009 65.0338 20.2803 25.5905 1.5569 -6.1057
# 3 36.2335 20.2803 68.1748 8.1905 -10.2582 -10.6849
# 4 4.4326 25.5905 8.1905 33.8525 -1.9878 -2.2746
# 5 -20.3820 1.5569 -10.2582 -1.9878 33.5801 -6.2167
# 6 1.7565 -6.1057 -10.6849 -2.2746 -6.2167 38.9483
#
#
#
# Elastic Compliance Matrix: (Units=1/GPa)
#
#
# Indices 1 2 3 4 5 6 
#
# 1 0.021947 -0.007064 -0.008957 0.005094 0.010743 -0.002542
# 2 -0.007064 0.026175 -0.002647 -0.018542 -0.007135 0.001474
# 3 -0.008957 -0.002647 0.021738 -0.001526 0.002393 0.006245
# 4 0.005094 -0.018542 -0.001526 0.043611 0.006059 -0.000041
# 5 0.010743 -0.007135 0.002393 0.006059 0.038756 0.005593
# 6 -0.002542 0.001474 0.006245 -0.000041 0.005593 0.028625
#
#
# Mechanical properties :
#
#
# Convention : Reuss Voigt Hill
#
# Bulk Modulus (GPa) = 30.74599 40.70651 35.72625
# Shear Modulus (GPa) = 21.83116 30.03712 25.93414
#
# Velocity S-wave (km/s) = 3.06421 3.59426 3.33977
# Velocity P-wave (km/s) = 5.07374 5.89343 5.49888
#
# Compressibility (1/GPa) = 0.03252456
#
# Stress axis : x y z
#
# Youngs Moduli (GPa) = 45.56401 38.20387 46.00220
#
# Poissons Ratio (x) = 0.26988 0.41203
# Poissons Ratio (y) = 0.32188 0.12176
# Poissons Ratio (z) = 0.40811 0.10112
#
# Static dielectric constant tensor:
#      x y z
#    x 4.160930 0.133780 -0.465780 
#    y 0.133780 4.284350 0.035110 
#    z -0.465780 0.035110 3.990470 
# 
# 
# High freq. dielectric constant tensor:
#      x y z
#    x 1.914200 0.005940 -0.027420 
#    y 0.005940 1.922640 0.009240 
#    z -0.027420 0.009240 1.914180 
# 
# From -- ./inp_files/273668.got.cif
#   From: 2010.06.25/outbox.cif.g09.slc.cpg/sg2_137_cif.got.tgz:273668.got - 2010.06.27 13:26:56.
