data_PCOD8016786
_publ_section_title
;
Structure prediction by ZEFSAII (Michael W. Deem and Ramdas Pophale) SiO2 
 PCOD8016786
Probable space group: P -1
;
_chemical_formula_sum "Si O2"
_cell_formula_units_Z 16
_cell_length_a 9.106107
_cell_length_b 13.817015
_cell_length_c 11.630723
_cell_angle_alpha 148.692195
_cell_angle_beta 85.702939
_cell_angle_gamma 86.187628
_cell_volume 733.836829
_symmetry_space_group_name_H-M "P -1"
_symmetry_group_IT_number 2
_symmetry_cell_setting 'triclinic'
loop_
_space_group_symop_operation_xyz
x,y,z
-x,-y,-z
loop_
_atom_site_type_symbol
_atom_site_label
_atom_site_fract_x
_atom_site_fract_y
_atom_site_fract_z
Si Si1 0.464109 0.450184 0.324118
Si Si2 0.761020 0.421248 0.131729
Si Si3 0.323852 0.594800 0.130702
Si Si4 0.265623 0.212683 0.797405
Si Si5 0.005691 0.066061 0.778757
Si Si6 0.221255 0.164079 0.498024
Si Si7 0.277343 0.793385 0.568485
Si Si8 0.522556 0.941670 0.166218
O O1 0.500000 0.500000 0.500000
O O2 0.596554 0.470325 0.249816
O O3 0.306018 0.593345 0.433158
O O4 0.440362 0.236283 0.104977
O O5 0.819642 0.615285 0.320402
O O6 0.751766 0.331993 0.913708
O O7 0.878922 0.251523 0.022850
O O8 0.301674 0.765885 0.399632
O O9 0.500000 0.500000 0.000000
O O10 0.239447 0.443298 0.037191
O O11 0.305928 0.148039 0.598810
O O12 0.408214 0.121495 0.776551
O O13 0.111389 0.155957 0.781551
O O14 0.930157 0.912608 0.563920
O O15 0.110269 0.939106 0.744470
O O16 0.340980 0.024937 0.265512
O O17 0.401535 0.893953 0.717670
#
# Coordination Sequence:
#
# PCOD8016786 Si02
#       8
#     2   2   2   2   2   2   2   2
#     4  12  25  46  71  94 123 166 229 281 316 375
#     4  11  24  41  61  97 131 174 212 261 324 381
#     4  11  20  37  66  94 138 170 211 261 313 388
#     4  10  22  35  59  98 138 173 207 253 321 385
#     4  11  26  37  62  96 145 169 211 254 329 397
#     4  11  22  37  63  95 139 172 210 256 315 397
#     4  11  24  42  64 102 129 170 211 267 324 385
#     4  11  21  40  66  93 124 169 222 263 317 382
#
# _framework density 21.803211000000001
#
# number of rings (size 3 to 8) (size 9 to 14) (size 15 to 20)
#    0.000    1.000    5.000    1.500    7.000    1.500 
#    0.000    0.625    0.000    3.750    0.000    0.000 
#    0.000    0.000    0.000    0.000    0.000    0.000 
#
# Total GULP energy -198339.878223 kJ/mol
# GULP energy per Si atom -12396.242389 kJ/mol
# Density = 2.175359 g / cm^3
# Si number density = 21.803211 Si / 1000 Ang^3
#
#
#
# Elastic Constant Matrix: (Units=GPa)
#
#
# Indices 1 2 3 4 5 6 
#
# 1 99.6551 16.6074 42.0909 14.4504 13.1370 -6.0540
# 2 16.6074 56.0405 41.5217 3.8694 -3.1330 -17.8419
# 3 42.0909 41.5217 119.8373 18.3932 18.4161 -11.3530
# 4 14.4504 3.8694 18.3932 26.6462 -8.8653 -0.9121
# 5 13.1370 -3.1330 18.4161 -8.8653 37.4175 18.4269
# 6 -6.0540 -17.8419 -11.3530 -0.9121 18.4269 29.2195
#
#
#
# Elastic Compliance Matrix: (Units=1/GPa)
#
#
# Indices 1 2 3 4 5 6 
#
# 1 0.014112 -0.000926 -0.000002 -0.011381 -0.012639 0.009973
# 2 -0.000926 0.028989 -0.009464 0.003970 0.002144 0.012604
# 3 -0.000002 -0.009464 0.019413 -0.018940 -0.022354 0.015270
# 4 -0.011381 0.003970 -0.018940 0.070892 0.047790 -0.035219
# 5 -0.012639 0.002144 -0.022354 0.047790 0.083917 -0.061425
# 6 0.009973 0.012604 0.015270 -0.035219 -0.061425 0.087557
#
#
# Mechanical properties :
#
#
# Convention : Reuss Voigt Hill
#
# Bulk Modulus (GPa) = 23.96292 52.88587 38.42440
# Shear Modulus (GPa) = 14.72431 30.34418 22.53425
#
# Velocity S-wave (km/s) = 2.60153 3.73464 3.21834
# Velocity P-wave (km/s) = 4.47642 6.55022 5.60998
#
# Compressibility (1/GPa) = 0.04173114
#
# Stress axis : x y z
#
# Youngs Moduli (GPa) = 70.86146 34.49562 51.51201
#
# Poissons Ratio (x) = 0.03196 0.00008
# Poissons Ratio (y) = 0.06565 0.48748
# Poissons Ratio (z) = 0.00011 0.32645
#
# Static dielectric constant tensor:
#      x y z
#    x 3.975150 -0.033510 0.192930 
#    y -0.033510 3.650100 0.433640 
#    z 0.192930 0.433640 4.028990 
# 
# 
# High freq. dielectric constant tensor:
#      x y z
#    x 1.855840 -0.007270 0.014410 
#    y -0.007270 1.820900 0.044260 
#    z 0.014410 0.044260 1.857260 
# 
# From -- ./inp_files/313914.got.cif
#   From: 2010.06.25/outbox.cif.g09.slc.cpg/sg2_157_cif.got.tgz:313914.got - 2010.06.27 13:26:56.
