data_PCOD8016835
_publ_section_title
;
Structure prediction by ZEFSAII (Michael W. Deem and Ramdas Pophale) SiO2 
 PCOD8016835
Probable space group: P -1
;
_chemical_formula_sum "Si O2"
_cell_formula_units_Z 10
_cell_length_a 8.643493
_cell_length_b 13.901044
_cell_length_c 9.513437
_cell_angle_alpha 62.236766
_cell_angle_beta 41.331722
_cell_angle_gamma 41.616676
_cell_volume 489.323081
_symmetry_space_group_name_H-M "P -1"
_symmetry_group_IT_number 2
_symmetry_cell_setting 'triclinic'
loop_
_space_group_symop_operation_xyz
x,y,z
-x,-y,-z
loop_
_atom_site_type_symbol
_atom_site_label
_atom_site_fract_x
_atom_site_fract_y
_atom_site_fract_z
Si Si1 0.640783 0.584711 0.207521
Si Si2 0.789605 0.963267 0.616057
Si Si3 0.748464 0.302521 0.348086
Si Si4 0.100140 0.111096 0.981722
Si Si5 0.131826 0.852534 0.181727
O O1 0.617127 0.462912 0.299269
O O2 0.515591 0.669754 0.386606
O O3 0.444486 0.696888 0.136712
O O4 0.000000 0.500000 0.000000
O O5 0.918989 0.814895 0.711028
O O6 0.839060 0.934704 0.435087
O O7 0.407970 0.091369 0.817707
O O8 0.000000 0.000000 0.500000
O O9 0.807047 0.224954 0.212014
O O10 0.969268 0.177612 0.870507
O O11 0.216394 0.950513 0.023776
#
# Coordination Sequence:
#
# PCOD8016835 Si02
#       5
#     2   2   2   2   2
#     4  10  22  39  59  84 118 153 196 242 286 344
#     4  11  21  36  63  89 114 153 197 240 288 341
#     4  10  22  36  60  87 110 155 200 233 287 349
#     4  11  22  38  61  89 121 148 196 243 289 351
#     4  10  23  39  58  90 120 154 189 241 300 337
#
# _framework density 20.436395999999998
#
# number of rings (size 3 to 8) (size 9 to 14) (size 15 to 20)
#    0.000    1.600    2.000    2.400    5.600    0.800 
#    0.000    1.000    0.000    0.000    0.000    0.000 
#    0.000    0.000    0.000    0.000    0.000    0.000 
#
# Total GULP energy -123914.847353 kJ/mol
# GULP energy per Si atom -12391.484735 kJ/mol
# Density = 2.038988 g / cm^3
# Si number density = 20.436396 Si / 1000 Ang^3
#
#
#
# Elastic Constant Matrix: (Units=GPa)
#
#
# Indices 1 2 3 4 5 6 
#
# 1 109.3169 45.0330 77.5302 9.5506 24.0488 -10.5231
# 2 45.0330 114.2655 45.2332 0.0577 7.9672 -18.0180
# 3 77.5302 45.2332 124.6457 22.9040 25.7999 -19.0839
# 4 9.5506 0.0577 22.9040 38.9870 -1.6023 3.6152
# 5 24.0488 7.9672 25.7999 -1.6023 46.0082 -2.3188
# 6 -10.5231 -18.0180 -19.0839 3.6152 -2.3188 25.4791
#
#
#
# Elastic Compliance Matrix: (Units=1/GPa)
#
#
# Indices 1 2 3 4 5 6 
#
# 1 0.017912 -0.003341 -0.010015 0.001644 -0.003262 -0.002996
# 2 -0.003341 0.011536 -0.001760 0.001381 0.001054 0.005360
# 3 -0.010015 -0.001760 0.019346 -0.010055 -0.005152 0.010067
# 4 0.001644 0.001381 -0.010055 0.032290 0.005161 -0.009987
# 5 -0.003262 0.001054 -0.005152 0.005161 0.026185 -0.002810
# 6 -0.002996 0.005360 0.010067 -0.009987 -0.002810 0.050503
#
#
# Mechanical properties :
#
#
# Convention : Reuss Voigt Hill
#
# Bulk Modulus (GPa) = 53.86858 75.98011 64.92434
# Shear Modulus (GPa) = 25.74809 34.12362 29.93586
#
# Velocity S-wave (km/s) = 3.55338 4.09069 3.83146
# Velocity P-wave (km/s) = 6.57660 7.71824 7.17018
#
# Compressibility (1/GPa) = 0.01856370
#
# Stress axis : x y z
#
# Youngs Moduli (GPa) = 55.82777 86.68739 51.69085
#
# Poissons Ratio (x) = 0.28959 0.51767
# Poissons Ratio (y) = 0.18650 0.09095
# Poissons Ratio (z) = 0.55910 0.15253
#
# Static dielectric constant tensor:
#      x y z
#    x 3.411000 -0.152540 0.357540 
#    y -0.152540 3.568550 0.180040 
#    z 0.357540 0.180040 3.878380 
# 
# 
# High freq. dielectric constant tensor:
#      x y z
#    x 1.764700 -0.007190 0.020950 
#    y -0.007190 1.805540 -0.004550 
#    z 0.020950 -0.004550 1.817760 
# 
# From -- ./inp_files/15177.got.cif
#   From: 2010.06.25/outbox.cif.g09.slc.cpg/sg2_8_cif.got.tgz:15177.got - 2010.06.27 13:26:56.
