data_PCOD8016594
_publ_section_title
;
Structure prediction by ZEFSAII (Michael W. Deem and Ramdas Pophale) SiO2 
 PCOD8016594
Probable space group: P -1
;
_chemical_formula_sum "Si O2"
_cell_formula_units_Z 16
_cell_length_a 16.518207
_cell_length_b 6.705265
_cell_length_c 8.333530
_cell_angle_alpha 77.878062
_cell_angle_beta 51.300847
_cell_angle_gamma 87.292783
_cell_volume 700.007158
_symmetry_space_group_name_H-M "P -1"
_symmetry_group_IT_number 2
_symmetry_cell_setting 'triclinic'
loop_
_space_group_symop_operation_xyz
x,y,z
-x,-y,-z
loop_
_atom_site_type_symbol
_atom_site_label
_atom_site_fract_x
_atom_site_fract_y
_atom_site_fract_z
Si Si1 0.786963 0.319185 0.289722
Si Si2 0.361292 0.070073 0.455203
Si Si3 0.143970 0.496859 0.492487
Si Si4 0.036088 0.819137 0.093372
Si Si5 0.721157 0.791857 0.792674
Si Si6 0.100123 0.902494 0.337011
Si Si7 0.510922 0.837004 0.155706
Si Si8 0.597740 0.522623 0.491279
O O1 0.795265 0.394005 0.450829
O O2 0.702696 0.452876 0.289723
O O3 0.744413 0.080804 0.362256
O O4 0.900006 0.338124 0.060615
O O5 0.344906 0.173420 0.288274
O O6 0.374211 0.240171 0.545703
O O7 0.466323 0.953067 0.345585
O O8 0.221316 0.410179 0.279341
O O9 0.084498 0.663567 0.445695
O O10 0.065540 0.307415 0.684056
O O11 0.108766 0.919236 0.130609
O O12 0.000000 0.000000 0.000000
O O13 0.799630 0.984547 0.718519
O O14 0.628414 0.773344 0.045029
O O15 0.000000 0.000000 0.500000
O O16 0.433422 0.621004 0.286686
O O17 0.500000 0.000000 0.000000
O O18 0.500000 0.500000 0.500000
#
# Coordination Sequence:
#
# PCOD8016594 Si02
#       8
#     2   2   2   2   2   2   2   2
#     4  11  24  44  71 101 139 191 227 279 357 409
#     4  10  21  45  68  96 144 176 227 288 344 406
#     4  12  24  47  73  99 141 187 236 287 344 415
#     4  12  27  46  70 106 145 185 229 290 352 422
#     4  11  22  41  72 101 134 181 231 289 343 403
#     4  12  26  46  71 102 140 179 237 290 345 408
#     4   9  23  41  67 102 131 174 230 280 340 406
#     4  11  25  43  68 101 140 183 226 283 348 418
#
# _framework density 22.856912000000001
#
# number of rings (size 3 to 8) (size 9 to 14) (size 15 to 20)
#    0.000    1.000    3.750    2.250    0.000    8.000 
#    0.000    0.000    0.000    0.000    0.000    0.000 
#    0.000    0.000    0.000    0.000    0.000    0.000 
#
# Total GULP energy -198247.094769 kJ/mol
# GULP energy per Si atom -12390.443423 kJ/mol
# Density = 2.280489 g / cm^3
# Si number density = 22.856912 Si / 1000 Ang^3
#
#
#
# Elastic Constant Matrix: (Units=GPa)
#
#
# Indices 1 2 3 4 5 6 
#
# 1 112.0514 53.2501 30.5324 12.7584 -5.7648 -7.7259
# 2 53.2501 151.6215 46.9405 10.9322 -12.7111 -5.0661
# 3 30.5324 46.9405 82.5335 17.4585 -24.1520 -15.6559
# 4 12.7584 10.9322 17.4585 34.9452 -9.5049 -10.0993
# 5 -5.7648 -12.7111 -24.1520 -9.5049 42.9707 7.3702
# 6 -7.7259 -5.0661 -15.6559 -10.0993 7.3702 51.4932
#
#
#
# Elastic Compliance Matrix: (Units=1/GPa)
#
#
# Indices 1 2 3 4 5 6 
#
# 1 0.011259 -0.003220 -0.002128 -0.002237 -0.001212 0.000460
# 2 -0.003220 0.008952 -0.004063 0.000201 0.000117 -0.000815
# 3 -0.002128 -0.004063 0.018987 -0.004461 0.007669 0.003081
# 4 -0.002237 0.000201 -0.004461 0.033965 0.004007 0.004416
# 5 -0.001212 0.000117 0.007669 0.004007 0.028535 -0.001137
# 6 0.000460 -0.000815 0.003081 0.004416 -0.001137 0.021374
#
#
# Mechanical properties :
#
#
# Convention : Reuss Voigt Hill
#
# Bulk Modulus (GPa) = 49.07926 67.51694 58.29810
# Shear Modulus (GPa) = 33.62768 40.24737 36.93753
#
# Velocity S-wave (km/s) = 3.83982 4.20079 4.02435
# Velocity P-wave (km/s) = 6.41700 7.28916 6.86694
#
# Compressibility (1/GPa) = 0.02037521
#
# Stress axis : x y z
#
# Youngs Moduli (GPa) = 88.82034 111.70228 52.66824
#
# Poissons Ratio (x) = 0.35972 0.11206
# Poissons Ratio (y) = 0.28603 0.21401
# Poissons Ratio (z) = 0.18898 0.45388
#
# Static dielectric constant tensor:
#      x y z
#    x 4.280870 -0.185290 -0.280930 
#    y -0.185290 4.495070 0.270370 
#    z -0.280930 0.270370 4.385820 
# 
# 
# High freq. dielectric constant tensor:
#      x y z
#    x 1.900040 -0.011400 -0.019670 
#    y -0.011400 1.915770 0.010080 
#    z -0.019670 0.010080 1.893390 
# 
# From -- ./inp_files/323526.got.cif
#   From: 2010.06.25/outbox.cif.g09.slc.cpg/sg2_162_cif.got.tgz:323526.got - 2010.06.27 13:26:56.
