data_PCOD8016731
_publ_section_title
;
Structure prediction by ZEFSAII (Michael W. Deem and Ramdas Pophale) SiO2 
 PCOD8016731
Probable space group: P -1
;
_chemical_formula_sum "Si O2"
_cell_formula_units_Z 16
_cell_length_a 11.246699
_cell_length_b 5.323736
_cell_length_c 14.870103
_cell_angle_alpha 119.804779
_cell_angle_beta 125.021936
_cell_angle_gamma 83.813994
_cell_volume 612.627745
_symmetry_space_group_name_H-M "P -1"
_symmetry_group_IT_number 2
_symmetry_cell_setting 'triclinic'
loop_
_space_group_symop_operation_xyz
x,y,z
-x,-y,-z
loop_
_atom_site_type_symbol
_atom_site_label
_atom_site_fract_x
_atom_site_fract_y
_atom_site_fract_z
Si Si1 0.575166 0.673303 0.376057
Si Si2 0.686086 0.350565 0.852151
Si Si3 0.695483 0.355562 0.531017
Si Si4 0.839501 0.951692 0.037894
Si Si5 0.832000 0.841605 0.806649
Si Si6 0.001553 0.345574 0.569173
Si Si7 0.451721 0.810409 0.056945
Si Si8 0.322533 0.592243 0.794346
O O1 0.403147 0.532682 0.246295
O O2 0.600669 0.498998 0.444956
O O3 0.678155 0.627089 0.328566
O O4 0.604924 0.029008 0.466326
O O5 0.792736 0.621757 0.004678
O O6 0.555578 0.201826 0.840785
O O7 0.776912 0.135058 0.809481
O O8 0.716477 0.552269 0.665256
O O9 0.854708 0.361442 0.560731
O O10 0.844104 0.829848 0.916068
O O11 0.708682 0.115805 0.029799
O O12 0.006393 0.135009 0.167955
O O13 0.144154 0.536937 0.723287
O O14 0.000000 0.500000 0.500000
O O15 0.000000 0.000000 0.500000
O O16 0.597203 0.066965 0.138655
O O17 0.419005 0.527295 0.916375
#
# Coordination Sequence:
#
# PCOD8016731 Si02
#       8
#     2   2   2   2   2   2   2   2
#     4  12  26  45  72  95 154 181 240 281 353 409
#     4  11  24  44  70 102 135 187 232 301 354 413
#     4  12  26  48  69 109 137 195 230 291 340 433
#     4  10  21  47  69 102 135 182 224 308 352 417
#     4  10  25  43  73  98 143 175 245 283 364 413
#     4  12  24  45  71 100 144 189 226 281 351 418
#     4  10  23  43  71 102 137 180 240 289 359 417
#     4  11  22  45  69 102 140 186 230 293 347 426
#
# _framework density 26.117001999999999
#
# number of rings (size 3 to 8) (size 9 to 14) (size 15 to 20)
#    0.000    1.000    3.750    1.875    3.500    1.500 
#    9.000    0.000    0.000    0.000    0.000    0.000 
#    0.000    0.000    0.000    0.000    0.000    0.000 
#
# Total GULP energy -198272.074422 kJ/mol
# GULP energy per Si atom -12392.004651 kJ/mol
# Density = 2.605756 g / cm^3
# Si number density = 26.117002 Si / 1000 Ang^3
#
#
#
# Elastic Constant Matrix: (Units=GPa)
#
#
# Indices 1 2 3 4 5 6 
#
# 1 67.6139 -2.3940 -0.2694 -9.8427 16.9130 1.4300
# 2 -2.3940 95.6833 34.8306 -4.0008 7.5805 1.7914
# 3 -0.2694 34.8306 127.9430 -2.3316 17.4969 7.1080
# 4 -9.8427 -4.0008 -2.3316 45.2358 5.0740 -1.3156
# 5 16.9130 7.5805 17.4969 5.0740 39.2372 2.5125
# 6 1.4300 1.7914 7.1080 -1.3156 2.5125 36.5484
#
#
#
# Elastic Compliance Matrix: (Units=1/GPa)
#
#
# Indices 1 2 3 4 5 6 
#
# 1 0.017814 0.000970 0.001104 0.005023 -0.008998 -0.000160
# 2 0.000970 0.011727 -0.002964 0.001271 -0.001533 0.000115
# 3 0.001104 -0.002964 0.009274 0.000871 -0.004063 -0.001391
# 4 0.005023 0.001271 0.000871 0.024050 -0.005964 0.000847
# 5 -0.008998 -0.001533 -0.004063 -0.005964 0.032322 -0.001219
# 6 -0.000160 0.000115 -0.001391 0.000847 -0.001219 0.027746
#
#
# Mechanical properties :
#
#
# Convention : Reuss Voigt Hill
#
# Bulk Modulus (GPa) = 27.00158 39.50829 33.25494
# Shear Modulus (GPa) = 36.48097 41.47580 38.97839
#
# Velocity S-wave (km/s) = 3.74147 3.98939 3.86742
# Velocity P-wave (km/s) = 5.38757 6.03163 5.71868
#
# Compressibility (1/GPa) = 0.03703486
#
# Stress axis : x y z
#
# Youngs Moduli (GPa) = 56.13584 85.27483 107.82925
#
# Poissons Ratio (x) = -0.08268 -0.11910
# Poissons Ratio (y) = -0.05443 0.31960
# Poissons Ratio (z) = -0.06200 0.25275
#
# Static dielectric constant tensor:
#      x y z
#    x 5.135120 -0.231940 0.007500 
#    y -0.231940 4.935390 -0.063890 
#    z 0.007500 -0.063890 5.031960 
# 
# 
# High freq. dielectric constant tensor:
#      x y z
#    x 2.076020 -0.006350 0.000870 
#    y -0.006350 2.044290 0.005430 
#    z 0.000870 0.005430 2.057940 
# 
# From -- ./inp_files/511268.got.cif
#   From: 2010.06.25/outbox.cif.g09.slc.cpg/sg2_256_cif.got.tgz:511268.got - 2010.06.27 13:26:56.
