data_PCOD8016333
_publ_section_title
;
Structure prediction by ZEFSAII (Michael W. Deem and Ramdas Pophale) SiO2 
 PCOD8016333
Probable space group: P -1
;
_chemical_formula_sum "Si O2"
_cell_formula_units_Z 16
_cell_length_a 17.023947
_cell_length_b 11.666454
_cell_length_c 8.976493
_cell_angle_alpha 63.293591
_cell_angle_beta 145.864152
_cell_angle_gamma 127.369951
_cell_volume 789.453636
_symmetry_space_group_name_H-M "P -1"
_symmetry_group_IT_number 2
_symmetry_cell_setting 'triclinic'
loop_
_space_group_symop_operation_xyz
x,y,z
-x,-y,-z
loop_
_atom_site_type_symbol
_atom_site_label
_atom_site_fract_x
_atom_site_fract_y
_atom_site_fract_z
Si Si1 0.039372 0.665323 0.452983
Si Si2 0.494538 0.356571 0.139960
Si Si3 0.139563 0.197833 0.747989
Si Si4 0.639538 0.166444 0.968697
Si Si5 0.008463 0.670705 0.063298
Si Si6 0.247475 0.639846 0.246492
Si Si7 0.915799 0.875536 0.628754
Si Si8 0.423649 0.146553 0.896456
O O1 0.069069 0.715017 0.299824
O O2 0.000000 0.500000 0.500000
O O3 0.896930 0.688331 0.284851
O O4 0.193119 0.767439 0.726487
O O5 0.635520 0.400292 0.452954
O O6 0.500000 0.500000 0.000000
O O7 0.327421 0.256435 0.015424
O O8 0.521319 0.272847 0.093226
O O9 0.076020 0.185178 0.486507
O O10 0.056902 0.037418 0.783169
O O11 0.651067 0.236268 0.784970
O O12 0.514614 0.192346 0.855699
O O13 0.579069 0.995956 0.953780
O O14 0.157508 0.700776 0.176333
O O15 0.877538 0.502597 0.952715
O O16 0.930925 0.770444 0.833927
O O17 0.751068 0.876437 0.393507
#
# Coordination Sequence:
#
# PCOD8016333 Si02
#       8
#     2   2   2   2   2   2   2   2
#     4  12  24  42  66  97 131 171 216 270 320 381
#     4  11  25  42  66  96 130 169 213 266 324 387
#     4  10  23  41  68  93 129 173 212 260 329 383
#     4  11  23  43  68  94 132 171 214 265 326 380
#     4  11  25  39  68  95 130 170 216 270 318 383
#     4  11  24  43  64  98 130 168 219 265 320 389
#     4  10  21  44  67  93 131 170 215 265 321 389
#     4  10  23  43  67  95 131 171 210 268 324 380
#
# _framework density 20.267182999999999
#
# number of rings (size 3 to 8) (size 9 to 14) (size 15 to 20)
#    0.000    1.250    2.500    3.000    8.750    2.000 
#    4.500    1.875    0.000    0.000    0.000    0.000 
#    0.000    0.000    0.000    0.000    0.000    0.000 
#
# Total GULP energy -198509.441743 kJ/mol
# GULP energy per Si atom -12406.840109 kJ/mol
# Density = 2.022105 g / cm^3
# Si number density = 20.267183 Si / 1000 Ang^3
#
#
#
# Elastic Constant Matrix: (Units=GPa)
#
#
# Indices 1 2 3 4 5 6 
#
# 1 141.6158 51.4295 33.4782 -14.9017 2.9008 -2.1510
# 2 51.4295 80.7600 10.5317 -9.4974 -5.8531 -4.1009
# 3 33.4782 10.5317 80.4885 -8.2041 -4.7583 3.5215
# 4 -14.9017 -9.4974 -8.2041 34.9811 4.5086 -3.1550
# 5 2.9008 -5.8531 -4.7583 4.5086 30.9555 -0.6184
# 6 -2.1510 -4.1009 3.5215 -3.1550 -0.6184 37.7841
#
#
#
# Elastic Compliance Matrix: (Units=1/GPa)
#
#
# Indices 1 2 3 4 5 6 
#
# 1 0.010419 -0.006096 -0.003488 0.002389 -0.003005 0.000407
# 2 -0.006096 0.016730 0.000671 0.001783 0.003610 0.001614
# 3 -0.003488 0.000671 0.014145 0.001594 0.002371 -0.001272
# 4 0.002389 0.001783 0.001594 0.031241 -0.004138 0.002722
# 5 -0.003005 0.003610 0.002371 -0.004138 0.034240 0.000215
# 6 0.000407 0.001614 -0.001272 0.002722 0.000215 0.027014
#
#
# Mechanical properties :
#
#
# Convention : Reuss Voigt Hill
#
# Bulk Modulus (GPa) = 42.61026 54.86033 48.73530
# Shear Modulus (GPa) = 31.35994 34.57245 32.96619
#
# Velocity S-wave (km/s) = 3.93787 4.13465 4.03746
# Velocity P-wave (km/s) = 6.46109 7.06549 6.77004
#
# Compressibility (1/GPa) = 0.02346853
#
# Stress axis : x y z
#
# Youngs Moduli (GPa) = 95.97842 59.77133 70.69484
#
# Poissons Ratio (x) = 0.36439 0.24658
# Poissons Ratio (y) = 0.58512 -0.04744
# Poissons Ratio (z) = 0.33476 -0.04011
#
# Static dielectric constant tensor:
#      x y z
#    x 3.841490 -0.005660 0.070910 
#    y -0.005660 4.042650 0.127470 
#    z 0.070910 0.127470 3.571930 
# 
# 
# High freq. dielectric constant tensor:
#      x y z
#    x 1.801050 -0.002760 0.007910 
#    y -0.002760 1.802100 0.000910 
#    z 0.007910 0.000910 1.784910 
# 
# From -- ./inp_files/271469.got.cif
#   From: 2010.06.25/outbox.cif.g09.slc.cpg/sg2_136_cif.got.tgz:271469.got - 2010.06.27 13:26:56.
