data_PCOD8016481
_publ_section_title
;
Structure prediction by ZEFSAII (Michael W. Deem and Ramdas Pophale) SiO2 
 PCOD8016481
Probable space group: P -1
;
_chemical_formula_sum "Si O2"
_cell_formula_units_Z 14
_cell_length_a 20.416508
_cell_length_b 8.755790
_cell_length_c 7.438280
_cell_angle_alpha 77.561469
_cell_angle_beta 49.431826
_cell_angle_gamma 41.009545
_cell_volume 552.478695
_symmetry_space_group_name_H-M "P -1"
_symmetry_group_IT_number 2
_symmetry_cell_setting 'triclinic'
loop_
_space_group_symop_operation_xyz
x,y,z
-x,-y,-z
loop_
_atom_site_type_symbol
_atom_site_label
_atom_site_fract_x
_atom_site_fract_y
_atom_site_fract_z
Si Si1 0.425191 0.939141 0.655110
Si Si2 0.275372 0.681215 0.661820
Si Si3 0.145444 0.721362 0.207987
Si Si4 0.661182 0.409344 0.824508
Si Si5 0.839308 0.820297 0.145755
Si Si6 0.673860 0.052492 0.815266
Si Si7 0.946334 0.460109 0.460990
O O1 0.556941 0.607683 0.478811
O O2 0.500000 0.000000 0.500000
O O3 0.354913 0.029478 0.955855
O O4 0.291208 0.108903 0.702252
O O5 0.276343 0.615947 0.471393
O O6 0.150979 0.771401 0.978699
O O7 0.237489 0.925059 0.661566
O O8 0.293410 0.554281 0.097657
O O9 0.135737 0.550733 0.275161
O O10 0.000000 0.000000 0.500000
O O11 0.728618 0.132402 0.790540
O O12 0.476505 0.684949 0.099198
O O13 0.909705 0.809627 0.848846
O O14 0.000000 0.500000 0.000000
O O15 0.807365 0.768332 0.523592
O O16 0.000000 0.500000 0.500000
#
# Coordination Sequence:
#
# PCOD8016481 Si02
#       7
#     2   2   2   2   2   2   2
#     4  11  24  46  74 106 146 197 249 301 367 442
#     4  11  25  48  75 108 143 195 244 304 360 450
#     4  12  25  45  71 106 141 189 236 294 371 426
#     4  10  24  45  73 106 142 184 246 297 355 438
#     4  12  26  44  71 110 147 191 244 302 376 432
#     4  10  21  44  72 101 141 192 230 297 364 425
#     4  12  24  44  70  98 144 189 234 292 366 429
#
# _framework density 25.340344999999999
#
# number of rings (size 3 to 8) (size 9 to 14) (size 15 to 20)
#    0.000    0.857    2.857    3.857    0.000    6.857 
#    0.000    0.000    0.000    0.000    0.000    0.000 
#    0.000    0.000    0.000    0.000    0.000    0.000 
#
# Total GULP energy -173492.371181 kJ/mol
# GULP energy per Si atom -12392.312227 kJ/mol
# Density = 2.528267 g / cm^3
# Si number density = 25.340345 Si / 1000 Ang^3
#
#
#
# Elastic Constant Matrix: (Units=GPa)
#
#
# Indices 1 2 3 4 5 6 
#
# 1 92.6606 32.4335 13.8234 -6.1544 -19.9365 17.5015
# 2 32.4335 115.3660 24.4272 14.0983 -17.1917 18.8092
# 3 13.8234 24.4272 112.1697 10.3217 3.9436 12.0363
# 4 -6.1544 14.0983 10.3217 51.7677 7.5775 -0.4417
# 5 -19.9365 -17.1917 3.9436 7.5775 40.9854 -3.8622
# 6 17.5015 18.8092 12.0363 -0.4417 -3.8622 37.6965
#
#
#
# Elastic Compliance Matrix: (Units=1/GPa)
#
#
# Indices 1 2 3 4 5 6 
#
# 1 0.013820 -0.002409 -0.001051 0.001727 0.005085 -0.004338
# 2 -0.002409 0.011334 -0.001583 -0.003684 0.004071 -0.003657
# 3 -0.001051 -0.001583 0.009811 -0.001366 -0.002063 -0.002082
# 4 0.001727 -0.003684 -0.001366 0.021456 -0.004421 0.001271
# 5 0.005085 0.004071 -0.002063 -0.004421 0.029524 -0.000760
# 6 -0.004338 -0.003657 -0.002082 0.001271 -0.000760 0.030968
#
#
# Mechanical properties :
#
#
# Convention : Reuss Voigt Hill
#
# Bulk Modulus (GPa) = 40.19390 51.28493 45.73941
# Shear Modulus (GPa) = 36.95715 42.72406 39.84061
#
# Velocity S-wave (km/s) = 3.82308 4.11056 3.96943
# Velocity P-wave (km/s) = 5.94845 6.54304 6.25281
#
# Compressibility (1/GPa) = 0.02487940
#
# Stress axis : x y z
#
# Youngs Moduli (GPa) = 72.35833 88.23250 101.92736
#
# Poissons Ratio (x) = 0.21255 0.10711
# Poissons Ratio (y) = 0.17431 0.16134
# Poissons Ratio (z) = 0.07604 0.13966
#
# Static dielectric constant tensor:
#      x y z
#    x 15.164160 -0.751040 -10.049910 
#    y -0.751040 5.906360 1.240440 
#    z -10.049910 1.240440 16.348940 
# 
# 
# High freq. dielectric constant tensor:
#      x y z
#    x 1.979670 -0.002540 0.008620 
#    y -0.002540 2.030000 0.002050 
#    z 0.008620 0.002050 2.047580 
# 
# From -- ./inp_files/343517.got.cif
#   From: 2010.06.25/outbox.cif.g09.slc.cpg/sg2_172_cif.got.tgz:343517.got - 2010.06.27 13:26:56.
