data_PCOD8016363
_publ_section_title
;
Structure prediction by ZEFSAII (Michael W. Deem and Ramdas Pophale) SiO2 
 PCOD8016363
Probable space group: P -1
;
_chemical_formula_sum "Si O2"
_cell_formula_units_Z 16
_cell_length_a 6.455163
_cell_length_b 9.659352
_cell_length_c 18.759066
_cell_angle_alpha 109.908745
_cell_angle_beta 85.363160
_cell_angle_gamma 48.305257
_cell_volume 738.332727
_symmetry_space_group_name_H-M "P -1"
_symmetry_group_IT_number 2
_symmetry_cell_setting 'triclinic'
loop_
_space_group_symop_operation_xyz
x,y,z
-x,-y,-z
loop_
_atom_site_type_symbol
_atom_site_label
_atom_site_fract_x
_atom_site_fract_y
_atom_site_fract_z
Si Si1 0.482393 0.910379 0.553672
Si Si2 0.234864 0.322959 0.023106
Si Si3 0.153367 0.120277 0.347067
Si Si4 0.159259 0.288183 0.246199
Si Si5 0.184055 0.769612 0.321753
Si Si6 0.898913 0.874111 0.913830
Si Si7 0.610192 0.570848 0.401522
Si Si8 0.442656 0.374120 0.160087
O O1 0.757306 0.819072 0.580287
O O2 0.511983 0.725524 0.496594
O O3 0.500000 0.000000 0.500000
O O4 0.170311 0.090976 0.639135
O O5 0.139575 0.208172 0.029588
O O6 0.229351 0.437572 0.110523
O O7 0.000000 0.500000 0.000000
O O8 0.588422 0.130138 0.951528
O O9 0.319980 0.093646 0.265242
O O10 0.780525 0.335407 0.386563
O O11 0.240972 0.907108 0.320471
O O12 0.025195 0.264580 0.180759
O O13 0.398591 0.285403 0.212079
O O14 0.861312 0.521131 0.333460
O O15 0.317826 0.675903 0.381125
O O16 0.346849 0.586638 0.224651
O O17 0.197152 0.822750 0.907657
#
# Coordination Sequence:
#
# PCOD8016363 Si02
#       8
#     2   2   2   2   2   2   2   2
#     4  12  24  41  66  94 133 176 223 278 332 382
#     4  10  24  43  68 100 134 168 210 266 322 388
#     4  10  25  43  64  95 128 176 223 273 325 390
#     4   9  22  43  67  92 130 174 215 272 322 381
#     4  12  25  42  67  97 129 174 225 272 329 390
#     4  10  21  44  68  96 131 171 215 262 323 391
#     4  10  22  46  63  90 134 173 222 275 326 381
#     4  11  22  42  73  94 134 176 211 268 332 387
#
# _framework density 21.670445999999998
#
# number of rings (size 3 to 8) (size 9 to 14) (size 15 to 20)
#    0.750    0.750    2.500    1.875    0.000    5.000 
#    0.000    5.000    0.000    0.000    0.000    0.000 
#    0.000    0.000    0.000    0.000    0.000    0.000 
#
# Total GULP energy -198339.102748 kJ/mol
# GULP energy per Si atom -12396.193922 kJ/mol
# Density = 2.162112 g / cm^3
# Si number density = 21.670446 Si / 1000 Ang^3
#
#
#
# Elastic Constant Matrix: (Units=GPa)
#
#
# Indices 1 2 3 4 5 6 
#
# 1 83.3313 41.6442 24.3461 -1.8660 0.9374 -7.4320
# 2 41.6442 121.6847 33.8080 -5.5868 10.3402 -23.3713
# 3 24.3461 33.8080 76.8014 1.1004 -2.0038 -5.5145
# 4 -1.8660 -5.5868 1.1004 35.7660 -3.1425 2.2577
# 5 0.9374 10.3402 -2.0038 -3.1425 40.2974 3.7493
# 6 -7.4320 -23.3713 -5.5145 2.2577 3.7493 22.1656
#
#
#
# Elastic Compliance Matrix: (Units=1/GPa)
#
#
# Indices 1 2 3 4 5 6 
#
# 1 0.015026 -0.004530 -0.002796 0.000265 0.000749 -0.000587
# 2 -0.004530 0.013707 -0.003821 0.000806 -0.004721 0.012700
# 3 -0.002796 -0.003821 0.015557 -0.000975 0.001865 -0.001312
# 4 0.000265 0.000806 -0.000975 0.028485 0.002200 -0.002577
# 5 0.000749 -0.004721 0.001865 0.002200 0.027118 -0.009073
# 6 -0.000587 0.012700 -0.001312 -0.002577 -0.009073 0.059779
#
#
# Mechanical properties :
#
#
# Convention : Reuss Voigt Hill
#
# Bulk Modulus (GPa) = 45.45942 53.49045 49.47493
# Shear Modulus (GPa) = 26.41349 31.78041 29.09695
#
# Velocity S-wave (km/s) = 3.49502 3.83369 3.66827
# Velocity P-wave (km/s) = 6.10820 6.65833 6.38919
#
# Compressibility (1/GPa) = 0.02199764
#
# Stress axis : x y z
#
# Youngs Moduli (GPa) = 66.55139 72.95536 64.27933
#
# Poissons Ratio (x) = 0.33048 0.17970
# Poissons Ratio (y) = 0.30147 0.24559
# Poissons Ratio (z) = 0.18605 0.27874
#
# Static dielectric constant tensor:
#      x y z
#    x 3.819360 -0.081580 0.145740 
#    y -0.081580 3.780770 -0.112390 
#    z 0.145740 -0.112390 4.382890 
# 
# 
# High freq. dielectric constant tensor:
#      x y z
#    x 1.846980 -0.005650 0.003790 
#    y -0.005650 1.837850 -0.000340 
#    z 0.003790 -0.000340 1.859830 
# 
# From -- ./inp_files/582004.got.cif
#   From: 2010.06.25/outbox.cif.g09.slc.cpg/sg2_292_cif.got.tgz:582004.got - 2010.06.27 13:26:56.
