data_PCOD8016450
_publ_section_title
;
Structure prediction by ZEFSAII (Michael W. Deem and Ramdas Pophale) SiO2 
 PCOD8016450
Probable space group: P -1
;
_chemical_formula_sum "Si O2"
_cell_formula_units_Z 16
_cell_length_a 17.611567
_cell_length_b 8.394065
_cell_length_c 9.576724
_cell_angle_alpha 130.527073
_cell_angle_beta 125.983258
_cell_angle_gamma 85.912732
_cell_volume 751.659065
_symmetry_space_group_name_H-M "P -1"
_symmetry_group_IT_number 2
_symmetry_cell_setting 'triclinic'
loop_
_space_group_symop_operation_xyz
x,y,z
-x,-y,-z
loop_
_atom_site_type_symbol
_atom_site_label
_atom_site_fract_x
_atom_site_fract_y
_atom_site_fract_z
Si Si1 0.413487 0.480922 0.785491
Si Si2 0.663770 0.158107 0.037727
Si Si3 0.157108 0.764326 0.508781
Si Si4 0.257883 0.606870 0.290397
Si Si5 0.722757 0.067603 0.751204
Si Si6 0.476839 0.670901 0.668309
Si Si7 0.876953 0.812990 0.290915
Si Si8 0.055977 0.520649 0.717581
O O1 0.348247 0.605917 0.845136
O O2 0.487004 0.614710 0.807023
O O3 0.321074 0.207591 0.495368
O O4 0.500000 0.500000 0.000000
O O5 0.773037 0.214521 0.267453
O O6 0.663825 0.073547 0.832349
O O7 0.561374 0.950593 0.891517
O O8 0.183702 0.655756 0.342523
O O9 0.031283 0.584171 0.311404
O O10 0.179338 0.031272 0.637583
O O11 0.305896 0.801739 0.328302
O O12 0.355595 0.617701 0.487302
O O13 0.183681 0.335822 0.998065
O O14 0.853698 0.201080 0.991595
O O15 0.500000 0.500000 0.500000
O O16 0.876927 0.626329 0.300607
O O17 0.000000 0.000000 0.500000
O O18 0.000000 0.500000 0.500000
#
# Coordination Sequence:
#
# PCOD8016450 Si02
#       8
#     2   2   2   2   2   2   2   2
#     4  12  28  45  68 103 137 180 233 280 344 412
#     4  12  25  45  70  97 139 181 225 284 343 405
#     4  11  23  44  72  97 137 179 228 280 337 411
#     4  11  25  44  68 102 136 175 234 283 336 411
#     4  11  26  45  68 100 139 177 226 284 345 401
#     4  12  25  45  73  99 134 183 228 281 348 406
#     4   9  22  40  70  96 132 178 222 273 339 400
#     4  10  21  44  71 103 137 180 224 282 344 406
#
# _framework density 21.286245999999998
#
# number of rings (size 3 to 8) (size 9 to 14) (size 15 to 20)
#    0.000    1.000    3.750    1.875    3.500    7.500 
#    0.000    1.875    0.000    0.000    0.000    0.000 
#    0.000    0.000    0.000    0.000    0.000    0.000 
#
# Total GULP energy -198432.956442 kJ/mol
# GULP energy per Si atom -12402.059778 kJ/mol
# Density = 2.123780 g / cm^3
# Si number density = 21.286246 Si / 1000 Ang^3
#
#
#
# Elastic Constant Matrix: (Units=GPa)
#
#
# Indices 1 2 3 4 5 6 
#
# 1 110.4551 53.8482 53.4757 6.7181 -2.3802 -6.9742
# 2 53.8482 122.8303 66.8824 -5.7610 1.7867 -5.3660
# 3 53.4757 66.8824 143.2399 15.4045 6.5791 -3.3466
# 4 6.7181 -5.7610 15.4045 49.4668 0.4613 -2.8034
# 5 -2.3802 1.7867 6.5791 0.4613 33.2005 0.4891
# 6 -6.9742 -5.3660 -3.3466 -2.8034 0.4891 42.4832
#
#
#
# Elastic Compliance Matrix: (Units=1/GPa)
#
#
# Indices 1 2 3 4 5 6 
#
# 1 0.012525 -0.004056 -0.002691 -0.001281 0.001649 0.001228
# 2 -0.004056 0.012733 -0.004793 0.003572 -0.000088 0.000802
# 3 -0.002691 -0.004793 0.010685 -0.003525 -0.001997 -0.000415
# 4 -0.001281 0.003572 -0.003525 0.021983 0.000088 0.001413
# 5 0.001649 -0.000088 -0.001997 0.000088 0.030641 -0.000245
# 6 0.001228 0.000802 -0.000415 0.001413 -0.000245 0.023905
#
#
# Mechanical properties :
#
#
# Convention : Reuss Voigt Hill
#
# Bulk Modulus (GPa) = 77.74191 80.54865 79.14528
# Shear Modulus (GPa) = 35.75565 38.51805 37.13685
#
# Velocity S-wave (km/s) = 4.10293 4.25847 4.18142
# Velocity P-wave (km/s) = 7.68419 7.88050 7.78296
#
# Compressibility (1/GPa) = 0.01286307
#
# Stress axis : x y z
#
# Youngs Moduli (GPa) = 79.84243 78.53769 93.58920
#
# Poissons Ratio (x) = 0.31852 0.25189
# Poissons Ratio (y) = 0.32381 0.44853
# Poissons Ratio (z) = 0.21489 0.37640
#
# Static dielectric constant tensor:
#      x y z
#    x 3.820500 -0.103880 0.034980 
#    y -0.103880 4.391690 0.136680 
#    z 0.034980 0.136680 4.046380 
# 
# 
# High freq. dielectric constant tensor:
#      x y z
#    x 1.830690 -0.002410 0.005940 
#    y -0.002410 1.847850 0.000840 
#    z 0.005940 0.000840 1.849840 
# 
# From -- ./inp_files/329647.got.cif
#   From: 2010.06.25/outbox.cif.g09.slc.cpg/sg2_165_cif.got.tgz:329647.got - 2010.06.27 13:26:56.
