data_PCOD8016905
_publ_section_title
;
Structure prediction by ZEFSAII (Michael W. Deem and Ramdas Pophale) SiO2 
 PCOD8016905
Probable space group: P -1
;
_chemical_formula_sum "Si O2"
_cell_formula_units_Z 14
_cell_length_a 17.392637
_cell_length_b 9.254715
_cell_length_c 12.842808
_cell_angle_alpha 39.631284
_cell_angle_beta 141.827491
_cell_angle_gamma 110.132151
_cell_volume 610.206854
_symmetry_space_group_name_H-M "P -1"
_symmetry_group_IT_number 2
_symmetry_cell_setting 'triclinic'
loop_
_space_group_symop_operation_xyz
x,y,z
-x,-y,-z
loop_
_atom_site_type_symbol
_atom_site_label
_atom_site_fract_x
_atom_site_fract_y
_atom_site_fract_z
Si Si1 0.219559 0.646147 0.061027
Si Si2 0.041685 0.849481 0.978071
Si Si3 0.258167 0.583455 0.548827
Si Si4 0.558175 0.218811 0.384597
Si Si5 0.212990 0.150709 0.781964
Si Si6 0.452918 0.931812 0.325658
Si Si7 0.909651 0.575798 0.091804
O O1 0.110428 0.801444 0.962737
O O2 0.394322 0.306655 0.458955
O O3 0.109180 0.645662 0.859360
O O4 0.259991 0.851872 0.947347
O O5 0.181585 0.756048 0.261494
O O6 0.996875 0.639922 0.066783
O O7 0.878582 0.204437 0.623877
O O8 0.312474 0.253263 0.787391
O O9 0.421209 0.545589 0.760949
O O10 0.445141 0.212535 0.186435
O O11 0.487980 0.282423 0.391246
O O12 0.734893 0.882333 0.769941
O O13 0.018520 0.425486 0.397555
O O14 0.274232 0.069637 0.013066
#
# Coordination Sequence:
#
# PCOD8016905 Si02
#       7
#     2   2   2   2   2   2   2
#     4  11  21  36  55  79 113 145 175 215 269 326
#     4   9  18  35  59  80 105 141 180 221 266 317
#     4   9  19  35  56  82 106 137 181 225 265 308
#     4   9  19  40  60  75 106 145 181 218 262 324
#     4  11  22  35  54  84 111 137 180 226 266 311
#     4  10  22  37  56  80 108 146 179 213 270 323
#     4   9  20  37  58  81 104 139 184 226 263 305
#
# _framework density 22.94304
#
# number of rings (size 3 to 8) (size 9 to 14) (size 15 to 20)
#    0.000    2.286    0.000    3.000    0.000    2.857 
#    0.000    7.857    0.000    0.000    0.000    0.000 
#    0.000    0.000    0.000    0.000    0.000    0.000 
#
# Total GULP energy -173441.537958 kJ/mol
# GULP energy per Si atom -12388.681283 kJ/mol
# Density = 2.289082 g / cm^3
# Si number density = 22.943040 Si / 1000 Ang^3
#
#
#
# Elastic Constant Matrix: (Units=GPa)
#
#
# Indices 1 2 3 4 5 6 
#
# 1 70.9174 42.2846 9.2059 -7.6007 1.7742 3.3965
# 2 42.2846 173.9718 39.2610 4.2970 -5.7462 36.5511
# 3 9.2059 39.2610 65.8206 10.3686 -2.9168 0.1404
# 4 -7.6007 4.2970 10.3686 33.1918 12.1187 -9.8256
# 5 1.7742 -5.7462 -2.9168 12.1187 14.7248 -6.8008
# 6 3.3965 36.5511 0.1404 -9.8256 -6.8008 35.3581
#
#
#
# Elastic Compliance Matrix: (Units=1/GPa)
#
#
# Indices 1 2 3 4 5 6 
#
# 1 0.019284 -0.006223 -0.001378 0.011706 -0.012115 0.005508
# 2 -0.006223 0.011052 -0.004513 -0.006396 0.003972 -0.011823
# 3 -0.001378 -0.004513 0.020004 -0.008965 0.011825 0.004502
# 4 0.011706 -0.006396 -0.008965 0.057311 -0.047130 0.012384
# 5 -0.012115 0.003972 0.011825 -0.047130 0.114824 0.005999
# 6 0.005508 -0.011823 0.004502 0.012384 0.005999 0.044552
#
#
# Mechanical properties :
#
#
# Convention : Reuss Voigt Hill
#
# Bulk Modulus (GPa) = 38.29589 54.69031 46.49310
# Shear Modulus (GPa) = 16.66894 31.31883 23.99388
#
# Velocity S-wave (km/s) = 2.69836 3.69869 3.23739
# Velocity P-wave (km/s) = 5.14161 6.49073 5.85516
#
# Compressibility (1/GPa) = 0.02611246
#
# Stress axis : x y z
#
# Youngs Moduli (GPa) = 51.85674 90.48039 49.98916
#
# Poissons Ratio (x) = 0.56302 0.06889
# Poissons Ratio (y) = 0.32268 0.22562
# Poissons Ratio (z) = 0.07146 0.40837
#
# Static dielectric constant tensor:
#      x y z
#    x 3.874630 0.446500 0.034460 
#    y 0.446500 4.704570 0.113820 
#    z 0.034460 0.113820 3.807060 
# 
# 
# High freq. dielectric constant tensor:
#      x y z
#    x 1.875450 0.025990 -0.000290 
#    y 0.025990 1.931570 0.009790 
#    z -0.000290 0.009790 1.877810 
# 
# From -- ./inp_files/175995.got.cif
#   From: 2010.06.25/outbox.cif.g09.slc.cpg/sg2_88_cif.got.tgz:175995.got - 2010.06.27 13:26:56.
