data_PCOD8016509
_publ_section_title
;
Structure prediction by ZEFSAII (Michael W. Deem and Ramdas Pophale) SiO2 
 PCOD8016509
Probable space group: P -1
;
_chemical_formula_sum "Si O2"
_cell_formula_units_Z 10
_cell_length_a 7.658237
_cell_length_b 8.618619
_cell_length_c 7.465577
_cell_angle_alpha 90.854585
_cell_angle_beta 104.786989
_cell_angle_gamma 49.958310
_cell_volume 357.252363
_symmetry_space_group_name_H-M "P -1"
_symmetry_group_IT_number 2
_symmetry_cell_setting 'triclinic'
loop_
_space_group_symop_operation_xyz
x,y,z
-x,-y,-z
loop_
_atom_site_type_symbol
_atom_site_label
_atom_site_fract_x
_atom_site_fract_y
_atom_site_fract_z
Si Si1 0.641940 0.264574 0.477519
Si Si2 0.949674 0.602860 0.787416
Si Si3 0.449880 0.927523 0.248015
Si Si4 0.994623 0.706938 0.423244
Si Si5 0.461105 0.346687 0.045569
O O1 0.500000 0.500000 0.500000
O O2 0.921496 0.162022 0.571936
O O3 0.585922 0.241493 0.263019
O O4 0.598384 0.138420 0.584051
O O5 0.734063 0.825908 0.816232
O O6 0.862051 0.483857 0.687168
O O7 0.071504 0.611607 0.642855
O O8 0.172150 0.469093 0.987556
O O9 0.587676 0.162143 0.932574
O O10 0.711942 0.853511 0.320668
O O11 0.500000 0.500000 0.000000
#
# Coordination Sequence:
#
# PCOD8016509 Si02
#       5
#     2   2   2   2   2
#     4  12  23  45  77 101 138 193 230 287 363 411
#     4  10  21  44  73  97 143 189 225 293 356 405
#     4  11  25  46  73 104 138 186 238 289 348 417
#     4  10  22  45  72 102 144 182 234 292 347 425
#     4  11  22  46  68 105 146 178 235 293 347 424
#
# _framework density 27.991416999999998
#
# number of rings (size 3 to 8) (size 9 to 14) (size 15 to 20)
#    0.000    1.200    4.000    3.000    0.000    1.600 
#    0.000   21.000    0.000   16.800    0.000    0.000 
#    0.000    0.000    0.000    0.000    0.000    0.000 
#
# Total GULP energy -124075.788529 kJ/mol
# GULP energy per Si atom -12407.578853 kJ/mol
# Density = 2.792771 g / cm^3
# Si number density = 27.991417 Si / 1000 Ang^3
#
#
#
# Elastic Constant Matrix: (Units=GPa)
#
#
# Indices 1 2 3 4 5 6 
#
# 1 148.7434 69.5162 55.3890 8.6029 19.8512 8.2946
# 2 69.5162 217.3722 99.2211 14.4431 19.6396 6.3241
# 3 55.3890 99.2211 190.0251 29.5441 8.0986 -9.1802
# 4 8.6029 14.4431 29.5441 49.5579 4.1448 -4.7963
# 5 19.8512 19.6396 8.0986 4.1448 41.1908 4.7069
# 6 8.2946 6.3241 -9.1802 -4.7963 4.7069 17.4198
#
#
#
# Elastic Compliance Matrix: (Units=1/GPa)
#
#
# Indices 1 2 3 4 5 6 
#
# 1 0.008702 -0.001636 -0.001731 -0.000150 -0.002625 -0.003794
# 2 -0.001636 0.006777 -0.003143 0.000024 -0.001493 -0.002928
# 3 -0.001731 -0.003143 0.008135 -0.003162 0.000451 0.005260
# 4 -0.000150 0.000024 -0.003162 0.022777 -0.002211 0.005265
# 5 -0.002625 -0.001493 0.000451 -0.002211 0.027061 -0.005892
# 6 -0.003794 -0.002928 0.005260 0.005265 -0.005892 0.066089
#
#
# Mechanical properties :
#
#
# Convention : Reuss Voigt Hill
#
# Bulk Modulus (GPa) = 94.38707 111.59926 102.99316
# Shear Modulus (GPa) = 32.03248 43.76800 37.90024
#
# Velocity S-wave (km/s) = 3.38652 3.95856 3.68366
# Velocity P-wave (km/s) = 7.00604 7.80059 7.41397
#
# Compressibility (1/GPa) = 0.01059467
#
# Stress axis : x y z
#
# Youngs Moduli (GPa) = 114.91002 147.56510 122.93073
#
# Poissons Ratio (x) = 0.24135 0.21276
# Poissons Ratio (y) = 0.18794 0.38641
# Poissons Ratio (z) = 0.19888 0.46384
#
# Static dielectric constant tensor:
#      x y z
#    x 5.863640 0.143940 -0.074250 
#    y 0.143940 5.418360 0.362210 
#    z -0.074250 0.362210 5.372140 
# 
# 
# High freq. dielectric constant tensor:
#      x y z
#    x 2.159370 0.007000 -0.003510 
#    y 0.007000 2.151020 0.015630 
#    z -0.003510 0.015630 2.147280 
# 
# From -- ./inp_files/150421.got.cif
#   From: 2010.06.25/outbox.cif.g09.slc.cpg/sg2_76_cif.got.tgz:150421.got - 2010.06.27 13:26:56.
