data_PCOD8016697
_publ_section_title
;
Structure prediction by ZEFSAII (Michael W. Deem and Ramdas Pophale) SiO2 
 PCOD8016697
Probable space group: P -1
;
_chemical_formula_sum "Si O2"
_cell_formula_units_Z 16
_cell_length_a 6.645778
_cell_length_b 15.882880
_cell_length_c 8.622049
_cell_angle_alpha 77.866134
_cell_angle_beta 131.340450
_cell_angle_gamma 97.416534
_cell_volume 667.971232
_symmetry_space_group_name_H-M "P -1"
_symmetry_group_IT_number 2
_symmetry_cell_setting 'triclinic'
loop_
_space_group_symop_operation_xyz
x,y,z
-x,-y,-z
loop_
_atom_site_type_symbol
_atom_site_label
_atom_site_fract_x
_atom_site_fract_y
_atom_site_fract_z
Si Si1 0.327242 0.195334 0.817654
Si Si2 0.831368 0.681713 0.047832
Si Si3 0.671752 0.532975 0.214415
Si Si4 0.583483 0.346665 0.725697
Si Si5 0.751886 0.086208 0.929153
Si Si6 0.643973 0.939944 0.722566
Si Si7 0.232174 0.826234 0.431279
Si Si8 0.371696 0.634787 0.595296
O O1 0.282907 0.232275 0.956381
O O2 0.380179 0.270568 0.692370
O O3 0.568684 0.125919 0.956584
O O4 0.055661 0.143087 0.658673
O O5 0.882266 0.603515 0.230148
O O6 0.113100 0.693649 0.098273
O O7 0.615120 0.652432 0.826191
O O8 0.453511 0.576904 0.200414
O O9 0.800922 0.447190 0.396632
O O10 0.500000 0.500000 0.000000
O O11 0.505732 0.385592 0.503587
O O12 0.724838 0.140748 0.734694
O O13 0.654126 0.988781 0.875245
O O14 0.049794 0.084490 0.153783
O O15 0.467501 0.853276 0.659749
O O16 0.500000 0.000000 0.500000
O O17 0.196411 0.722258 0.450336
#
# Coordination Sequence:
#
# PCOD8016697 Si02
#       8
#     2   2   2   2   2   2   2   2
#     4  11  22  42  64  98 137 173 220 279 327 391
#     4  10  23  43  62  91 137 177 223 281 332 383
#     4   9  22  42  62  97 131 174 230 280 329 387
#     4  11  22  44  64  93 134 178 226 275 336 386
#     4  10  21  46  70  95 135 171 215 269 334 393
#     4   9  22  44  71  98 131 172 210 270 331 403
#     4  11  23  41  65  99 136 169 222 271 333 392
#     4  11  22  41  64  95 128 176 226 275 328 392
#
# _framework density 23.953126999999999
#
# number of rings (size 3 to 8) (size 9 to 14) (size 15 to 20)
#    0.000    1.750    2.500    0.375    3.500    3.000 
#   13.500    5.625    0.000    0.000    0.000    0.000 
#    0.000    0.000    0.000    0.000    0.000    0.000 
#
# Total GULP energy -198260.052059 kJ/mol
# GULP energy per Si atom -12391.253254 kJ/mol
# Density = 2.389861 g / cm^3
# Si number density = 23.953127 Si / 1000 Ang^3
#
#
#
# Elastic Constant Matrix: (Units=GPa)
#
#
# Indices 1 2 3 4 5 6 
#
# 1 122.4245 51.0822 35.2406 10.0016 13.3832 -16.4426
# 2 51.0822 115.2125 20.3926 19.2032 15.7856 -21.9289
# 3 35.2406 20.3926 95.2404 6.3347 11.9211 -15.7629
# 4 10.0016 19.2032 6.3347 35.7253 1.6398 8.1381
# 5 13.3832 15.7856 11.9211 1.6398 33.5858 1.1189
# 6 -16.4426 -21.9289 -15.7629 8.1381 1.1189 39.7297
#
#
#
# Elastic Compliance Matrix: (Units=1/GPa)
#
#
# Indices 1 2 3 4 5 6 
#
# 1 0.010971 -0.003684 -0.002725 -0.000909 -0.001684 0.001660
# 2 -0.003684 0.013812 0.000987 -0.008223 -0.005250 0.008323
# 3 -0.002725 0.000987 0.012869 -0.003066 -0.003972 0.005263
# 4 -0.000909 -0.008223 -0.003066 0.036134 0.004006 -0.013646
# 5 -0.001684 -0.005250 -0.003972 0.004006 0.034359 -0.006959
# 6 0.001660 0.008323 0.005263 -0.013646 -0.006959 0.035530
#
#
# Mechanical properties :
#
#
# Convention : Reuss Voigt Hill
#
# Bulk Modulus (GPa) = 37.30047 60.70090 49.00069
# Shear Modulus (GPa) = 30.58954 36.88563 33.73758
#
# Velocity S-wave (km/s) = 3.57747 3.92842 3.75705
# Velocity P-wave (km/s) = 5.71581 6.78036 6.27071
#
# Compressibility (1/GPa) = 0.02680931
#
# Stress axis : x y z
#
# Youngs Moduli (GPa) = 91.14939 72.39914 77.70814
#
# Poissons Ratio (x) = 0.26671 0.21174
# Poissons Ratio (y) = 0.33578 -0.07672
# Poissons Ratio (z) = 0.24836 -0.07148
#
# Static dielectric constant tensor:
#      x y z
#    x 4.304930 0.247810 -0.045560 
#    y 0.247810 5.245870 0.089150 
#    z -0.045560 0.089150 4.309720 
# 
# 
# High freq. dielectric constant tensor:
#      x y z
#    x 1.933750 0.010670 0.002720 
#    y 0.010670 1.971810 0.003310 
#    z 0.002720 0.003310 1.954340 
# 
# From -- ./inp_files/139006.got.cif
#   From: 2010.06.25/outbox.cif.g09.slc.cpg/sg2_70_cif.got.tgz:139006.got - 2010.06.27 13:26:56.
