data_PCOD8016854
_publ_section_title
;
Structure prediction by ZEFSAII (Michael W. Deem and Ramdas Pophale) SiO2 
 PCOD8016854
Probable space group: P -1
;
_chemical_formula_sum "Si O2"
_cell_formula_units_Z 14
_cell_length_a 5.228005
_cell_length_b 9.422592
_cell_length_c 15.099811
_cell_angle_alpha 78.264473
_cell_angle_beta 66.820613
_cell_angle_gamma 103.419787
_cell_volume 627.949071
_symmetry_space_group_name_H-M "P -1"
_symmetry_group_IT_number 2
_symmetry_cell_setting 'triclinic'
loop_
_space_group_symop_operation_xyz
x,y,z
-x,-y,-z
loop_
_atom_site_type_symbol
_atom_site_label
_atom_site_fract_x
_atom_site_fract_y
_atom_site_fract_z
Si Si1 0.593521 0.705356 0.691595
Si Si2 0.252975 0.174927 0.633366
Si Si3 0.755687 0.121655 0.393479
Si Si4 0.201029 0.321302 0.980495
Si Si5 0.418931 0.346150 0.757055
Si Si6 0.122395 0.670065 0.424811
Si Si7 0.574940 0.312138 0.087488
O O1 0.389739 0.777024 0.655375
O O2 0.442634 0.523133 0.719978
O O3 0.583191 0.748025 0.790542
O O4 0.945972 0.769343 0.608537
O O5 0.188784 0.240446 0.728429
O O6 0.610866 0.231452 0.558413
O O7 0.122154 0.248739 0.561611
O O8 0.124689 0.988816 0.671909
O O9 0.500000 0.000000 0.500000
O O10 0.313029 0.279375 0.876716
O O11 0.304167 0.503730 0.955067
O O12 0.338391 0.247591 0.048973
O O13 0.844929 0.248918 0.043669
O O14 0.739472 0.334113 0.691922
O O15 0.000000 0.500000 0.500000
#
# Coordination Sequence:
#
# PCOD8016854 Si02
#       7
#     2   2   2   2   2   2   2
#     4  11  24  40  62  92 118 158 203 250 291 355
#     4  10  24  40  58  85 120 162 190 245 300 347
#     4  12  27  41  62  85 126 163 201 238 300 357
#     4   9  17  32  56  89 115 147 188 244 301 350
#     4   9  24  35  68  90 120 151 207 247 296 347
#     4  10  22  36  62  86 118 152 201 249 295 343
#     4   9  18  33  56  84 122 146 185 246 304 342
#
# _framework density 22.294799999999999
#
# number of rings (size 3 to 8) (size 9 to 14) (size 15 to 20)
#    0.857    1.143    0.000    2.571    8.000    2.286 
#    0.000    0.000    0.000    5.143    0.000    0.000 
#    0.000    0.000    0.000    0.000    0.000    0.000 
#
# Total GULP energy -173494.903358 kJ/mol
# GULP energy per Si atom -12392.493097 kJ/mol
# Density = 2.224406 g / cm^3
# Si number density = 22.294800 Si / 1000 Ang^3
#
#
#
# Elastic Constant Matrix: (Units=GPa)
#
#
# Indices 1 2 3 4 5 6 
#
# 1 167.8311 20.7741 10.2013 0.1653 11.0763 -14.7023
# 2 20.7741 62.6566 -10.8426 -7.6279 8.1043 -0.9471
# 3 10.2013 -10.8426 41.9501 5.7433 -4.4558 -3.9786
# 4 0.1653 -7.6279 5.7433 15.1408 -5.3939 0.6437
# 5 11.0763 8.1043 -4.4558 -5.3939 34.8151 2.1064
# 6 -14.7023 -0.9471 -3.9786 0.6437 2.1064 25.6495
#
#
#
# Elastic Compliance Matrix: (Units=1/GPa)
#
#
# Indices 1 2 3 4 5 6 
#
# 1 0.006868 -0.002450 -0.001982 -0.001550 -0.002337 0.003770
# 2 -0.002450 0.018616 0.004221 0.007129 -0.001904 -0.000085
# 3 -0.001982 0.004221 0.026942 -0.007596 0.001723 0.003248
# 4 -0.001550 0.007129 -0.007596 0.076275 0.009953 -0.004535
# 5 -0.002337 -0.001904 0.001723 0.009953 0.031915 -0.004013
# 6 0.003770 -0.000085 0.003248 -0.004535 -0.004013 0.042092
#
#
# Mechanical properties :
#
#
# Convention : Reuss Voigt Hill
#
# Bulk Modulus (GPa) = 19.22919 34.74481 26.98700
# Shear Modulus (GPa) = 22.67952 31.94142 27.31047
#
# Velocity S-wave (km/s) = 3.19291 3.78919 3.50375
# Velocity P-wave (km/s) = 4.71556 5.89593 5.33847
#
# Compressibility (1/GPa) = 0.05200426
#
# Stress axis : x y z
#
# Youngs Moduli (GPa) = 145.60283 53.71863 37.11725
#
# Poissons Ratio (x) = 0.13159 0.07356
# Poissons Ratio (y) = 0.35666 -0.15666
# Poissons Ratio (z) = 0.28854 -0.22674
#
# Static dielectric constant tensor:
#      x y z
#    x 4.112820 -0.026910 -0.064190 
#    y -0.026910 4.193040 0.235480 
#    z -0.064190 0.235480 3.902940 
# 
# 
# High freq. dielectric constant tensor:
#      x y z
#    x 1.884890 -0.000270 -0.001280 
#    y -0.000270 1.866000 0.019580 
#    z -0.001280 0.019580 1.866270 
# 
# From -- ./inp_files/547046.got.cif
#   From: 2010.06.25/outbox.cif.g09.slc.cpg/sg2_274_cif.got.tgz:547046.got - 2010.06.27 13:26:56.
