data_PCOD8016547
_publ_section_title
;
Structure prediction by ZEFSAII (Michael W. Deem and Ramdas Pophale) SiO2 
 PCOD8016547
Probable space group: P -1
;
_chemical_formula_sum "Si O2"
_cell_formula_units_Z 14
_cell_length_a 11.975914
_cell_length_b 19.861650
_cell_length_c 20.763388
_cell_angle_alpha 158.843789
_cell_angle_beta 160.239673
_cell_angle_gamma 31.497318
_cell_volume 589.826350
_symmetry_space_group_name_H-M "P -1"
_symmetry_group_IT_number 2
_symmetry_cell_setting 'triclinic'
loop_
_space_group_symop_operation_xyz
x,y,z
-x,-y,-z
loop_
_atom_site_type_symbol
_atom_site_label
_atom_site_fract_x
_atom_site_fract_y
_atom_site_fract_z
Si Si1 0.717537 0.567050 0.479790
Si Si2 0.006774 0.737493 0.913390
Si Si3 0.764912 0.885062 0.432008
Si Si4 0.902071 0.494566 0.128893
Si Si5 0.849251 0.069055 0.190134
Si Si6 0.261505 0.339990 0.562963
Si Si7 0.748277 0.741197 0.979052
O O1 0.628359 0.683283 0.472710
O O2 0.427372 0.373267 0.156176
O O3 0.744265 0.686807 0.667092
O O4 0.091954 0.524844 0.637349
O O5 0.081584 0.552327 0.827372
O O6 0.361347 0.860773 0.189394
O O7 0.816822 0.844921 0.958908
O O8 0.898221 0.718248 0.316447
O O9 0.871712 0.867607 0.547942
O O10 0.920396 0.098296 0.678814
O O11 0.201936 0.424983 0.191646
O O12 0.570506 0.368113 0.804353
O O13 0.497460 0.130251 0.072425
O O14 0.984780 0.161512 0.277715
#
# Coordination Sequence:
#
# PCOD8016547 Si02
#       7
#     2   2   2   2   2   2   2
#     4  10  24  43  68  92 133 177 218 263 329 387
#     4  12  23  41  70 101 126 175 225 266 321 393
#     4  12  23  41  66 104 128 168 217 280 318 387
#     4  12  23  40  73  96 133 172 218 269 331 381
#     4  11  23  40  68  98 138 165 220 273 325 384
#     4  10  21  45  66  93 130 179 218 267 317 394
#     4  11  26  42  62 103 139 167 211 277 333 382
#
# _framework density 23.735799
#
# number of rings (size 3 to 8) (size 9 to 14) (size 15 to 20)
#    0.000    0.857    4.286    3.857    2.000    2.286 
#    0.000    0.714    0.000    0.000    0.000    0.000 
#    0.000    0.000    0.000    0.000    0.000    0.000 
#
# Total GULP energy -173536.378560 kJ/mol
# GULP energy per Si atom -12395.455611 kJ/mol
# Density = 2.368178 g / cm^3
# Si number density = 23.735799 Si / 1000 Ang^3
#
#
#
# Elastic Constant Matrix: (Units=GPa)
#
#
# Indices 1 2 3 4 5 6 
#
# 1 73.6746 25.0840 30.7249 -7.3914 -2.6863 -7.8973
# 2 25.0840 71.7883 11.6845 14.1557 -6.3341 -30.7441
# 3 30.7249 11.6845 90.0005 6.7709 2.9576 -8.2061
# 4 -7.3914 14.1557 6.7709 19.8901 -8.0614 -12.5320
# 5 -2.6863 -6.3341 2.9576 -8.0614 35.7074 2.4788
# 6 -7.8973 -30.7441 -8.2061 -12.5320 2.4788 39.1476
#
#
#
# Elastic Compliance Matrix: (Units=1/GPa)
#
#
# Indices 1 2 3 4 5 6 
#
# 1 0.022783 -0.009576 -0.008152 0.021433 0.005398 0.001886
# 2 -0.009576 0.025738 0.002290 -0.013780 -0.000454 0.014379
# 3 -0.008152 0.002290 0.014564 -0.011328 -0.003959 -0.000169
# 4 0.021433 -0.013780 -0.011328 0.092011 0.019536 0.019344
# 5 0.005398 -0.000454 -0.003959 0.019536 0.032786 0.004081
# 6 0.001886 0.014379 -0.000169 0.019344 0.004081 0.043116
#
#
# Mechanical properties :
#
#
# Convention : Reuss Voigt Hill
#
# Bulk Modulus (GPa) = 31.04768 41.16113 36.10440
# Shear Modulus (GPa) = 18.34121 30.14701 24.24411
#
# Velocity S-wave (km/s) = 2.78281 3.56772 3.19943
# Velocity P-wave (km/s) = 4.84090 5.86093 5.37517
#
# Compressibility (1/GPa) = 0.03220853
#
# Stress axis : x y z
#
# Youngs Moduli (GPa) = 43.89303 38.85260 68.66348
#
# Poissons Ratio (x) = 0.37205 0.55977
# Poissons Ratio (y) = 0.42032 -0.15726
# Poissons Ratio (z) = 0.35783 -0.08898
#
# Static dielectric constant tensor:
#      x y z
#    x 4.285170 -0.145120 0.048080 
#    y -0.145120 4.351310 0.022100 
#    z 0.048080 0.022100 4.085660 
# 
# 
# High freq. dielectric constant tensor:
#      x y z
#    x 1.928980 -0.013690 0.015170 
#    y -0.013690 1.938390 0.004890 
#    z 0.015170 0.004890 1.927970 
# 
# From -- ./inp_files/315943.got.cif
#   From: 2010.06.25/outbox.cif.g09.slc.cpg/sg2_158_cif.got.tgz:315943.got - 2010.06.27 13:26:56.
