data_PCOD8016671
_publ_section_title
;
Structure prediction by ZEFSAII (Michael W. Deem and Ramdas Pophale) SiO2 
 PCOD8016671
Probable space group: P -1
;
_chemical_formula_sum "Si O2"
_cell_formula_units_Z 14
_cell_length_a 11.785294
_cell_length_b 11.532773
_cell_length_c 6.971503
_cell_angle_alpha 128.851682
_cell_angle_beta 99.336222
_cell_angle_gamma 60.948070
_cell_volume 630.809401
_symmetry_space_group_name_H-M "P -1"
_symmetry_group_IT_number 2
_symmetry_cell_setting 'triclinic'
loop_
_space_group_symop_operation_xyz
x,y,z
-x,-y,-z
loop_
_atom_site_type_symbol
_atom_site_label
_atom_site_fract_x
_atom_site_fract_y
_atom_site_fract_z
Si Si1 0.052464 0.806549 0.868830
Si Si2 0.684899 0.018569 0.549243
Si Si3 0.073691 0.269517 0.906969
Si Si4 0.667328 0.353267 0.036334
Si Si5 0.879462 0.436297 0.696773
Si Si6 0.395195 0.419124 0.098944
Si Si7 0.500328 0.966919 0.191100
O O1 0.031576 0.704072 0.582914
O O2 0.208391 0.698968 0.847375
O O3 0.957614 0.829503 0.042455
O O4 0.000000 0.000000 0.000000
O O5 0.820509 0.861692 0.349759
O O6 0.566367 0.066459 0.414735
O O7 0.697849 0.187812 0.744170
O O8 0.647084 0.968116 0.693967
O O9 0.938470 0.380960 0.868661
O O10 0.123341 0.384461 0.152282
O O11 0.640528 0.512904 0.059502
O O12 0.533306 0.411470 0.187763
O O13 0.731289 0.459926 0.677044
O O14 0.411011 0.231743 0.929145
O O15 0.500000 0.000000 0.000000
#
# Coordination Sequence:
#
# PCOD8016671 Si02
#       7
#     2   2   2   2   2   2   2
#     4  12  27  44  68 103 136 178 230 277 339 402
#     4  10  22  42  69  96 136 179 217 278 339 396
#     4  11  24  45  69  95 136 179 227 280 332 403
#     4  10  23  44  69  97 139 176 223 273 341 406
#     4  11  24  45  69  97 131 180 230 276 338 395
#     4  10  21  46  66  98 133 177 220 273 341 394
#     4  10  22  44  67 103 133 172 230 277 332 400
#
# _framework density 22.193708999999998
#
# number of rings (size 3 to 8) (size 9 to 14) (size 15 to 20)
#    0.000    1.429    2.857    1.286    2.000    5.143 
#   15.429    0.000    0.000    0.000    0.000    0.000 
#    0.000    0.000    0.000    0.000    0.000    0.000 
#
# Total GULP energy -173536.275063 kJ/mol
# GULP energy per Si atom -12395.448219 kJ/mol
# Density = 2.214320 g / cm^3
# Si number density = 22.193709 Si / 1000 Ang^3
#
#
#
# Elastic Constant Matrix: (Units=GPa)
#
#
# Indices 1 2 3 4 5 6 
#
# 1 120.0133 50.5551 48.8857 -3.5193 -26.7583 0.8119
# 2 50.5551 120.2469 42.2624 -1.0770 -6.6263 19.0008
# 3 48.8857 42.2624 117.3653 1.8489 -15.5701 14.3684
# 4 -3.5193 -1.0770 1.8489 35.1396 -1.7433 -4.4513
# 5 -26.7583 -6.6263 -15.5701 -1.7433 40.3586 4.0803
# 6 0.8119 19.0008 14.3684 -4.4513 4.0803 35.6138
#
#
#
# Elastic Compliance Matrix: (Units=1/GPa)
#
#
# Indices 1 2 3 4 5 6 
#
# 1 0.013024 -0.004375 -0.003390 0.002037 0.006401 0.002927
# 2 -0.004375 0.011565 -0.001846 -0.000715 -0.001212 -0.005276
# 3 -0.003390 -0.001846 0.011394 -0.001389 0.002185 -0.003959
# 4 0.002037 -0.000715 -0.001389 0.029344 0.001521 0.004389
# 5 0.006401 -0.001212 0.002185 0.001521 0.030099 -0.003639
# 6 0.002927 -0.005276 -0.003959 0.004389 -0.003639 0.033390
#
#
# Mechanical properties :
#
#
# Convention : Reuss Voigt Hill
#
# Bulk Modulus (GPa) = 59.66744 71.22575 65.44659
# Shear Modulus (GPa) = 32.54688 36.61724 34.58206
#
# Velocity S-wave (km/s) = 3.83363 4.06629 3.95168
# Velocity P-wave (km/s) = 6.82194 7.36266 7.09745
#
# Compressibility (1/GPa) = 0.01675956
#
# Stress axis : x y z
#
# Youngs Moduli (GPa) = 76.78413 86.46814 87.76925
#
# Poissons Ratio (x) = 0.37833 0.29757
# Poissons Ratio (y) = 0.33596 0.16198
# Poissons Ratio (z) = 0.26033 0.15958
#
# Static dielectric constant tensor:
#      x y z
#    x 4.358080 0.015540 -0.086100 
#    y 0.015540 3.866630 0.100930 
#    z -0.086100 0.100930 3.795830 
# 
# 
# High freq. dielectric constant tensor:
#      x y z
#    x 1.890280 0.001260 -0.009160 
#    y 0.001260 1.868010 0.010250 
#    z -0.009160 0.010250 1.858890 
# 
# From -- ./inp_files/72354.got.cif
#   From: 2010.06.25/outbox.cif.g09.slc.cpg/sg2_37_cif.got.tgz:72354.got - 2010.06.27 13:26:56.
