data_PCOD8016062
_publ_section_title
;
Structure prediction by ZEFSAII (Michael W. Deem and Ramdas Pophale) SiO2 
 PCOD8016062
Probable space group: P -1
;
_chemical_formula_sum "Si O2"
_cell_formula_units_Z 16
_cell_length_a 11.113807
_cell_length_b 9.343647
_cell_length_c 19.152931
_cell_angle_alpha 40.738924
_cell_angle_beta 146.924740
_cell_angle_gamma 126.733154
_cell_volume 704.567914
_symmetry_space_group_name_H-M "P -1"
_symmetry_group_IT_number 2
_symmetry_cell_setting 'triclinic'
loop_
_space_group_symop_operation_xyz
x,y,z
-x,-y,-z
loop_
_atom_site_type_symbol
_atom_site_label
_atom_site_fract_x
_atom_site_fract_y
_atom_site_fract_z
Si Si1 0.825759 0.465293 0.733478
Si Si2 0.477364 0.762709 0.046627
Si Si3 0.988802 0.678532 0.867896
Si Si4 0.170983 0.367982 0.832216
Si Si5 0.798997 0.159395 0.646240
Si Si6 0.505428 0.810626 0.379456
Si Si7 0.220881 0.603073 0.587427
Si Si8 0.197044 0.843860 0.622680
O O1 0.727054 0.640380 0.561666
O O2 0.651906 0.280958 0.722524
O O3 0.843899 0.582415 0.772382
O O4 0.062571 0.341969 0.865787
O O5 0.589051 0.759558 0.024033
O O6 0.598036 0.577016 0.224848
O O7 0.224684 0.714547 0.935690
O O8 0.500000 0.000000 0.000000
O O9 0.876372 0.907678 0.757840
O O10 0.000000 0.500000 0.000000
O O11 0.215986 0.620627 0.756829
O O12 0.004972 0.289036 0.722047
O O13 0.618152 0.158847 0.618346
O O14 0.685199 0.288391 0.476526
O O15 0.574959 0.041715 0.300163
O O16 0.157815 0.802869 0.536787
O O17 0.000000 0.500000 0.500000
O O18 0.000000 0.000000 0.500000
#
# Coordination Sequence:
#
# PCOD8016062 Si02
#       8
#     2   2   2   2   2   2   2   2
#     4  10  23  45  67  98 139 181 236 287 352 417
#     4  11  23  45  70  99 144 183 229 284 360 415
#     4  12  28  46  67 102 144 191 232 282 357 433
#     4  10  21  43  69  96 137 177 227 293 343 415
#     4  11  23  44  71 101 139 178 238 294 342 416
#     4  10  23  41  71 100 137 183 231 299 350 399
#     4  11  22  40  74 106 132 178 235 296 346 405
#     4  11  21  37  63 104 139 165 229 288 354 409
#
# _framework density 22.708955
#
# number of rings (size 3 to 8) (size 9 to 14) (size 15 to 20)
#    0.000    1.250    5.000    0.750    5.250    1.500 
#    0.000    2.500    0.000    0.000    0.000    0.000 
#    0.000    0.000    0.000    0.000    0.000    0.000 
#
# Total GULP energy -198324.929284 kJ/mol
# GULP energy per Si atom -12395.308080 kJ/mol
# Density = 2.265727 g / cm^3
# Si number density = 22.708955 Si / 1000 Ang^3
#
#
#
# Elastic Constant Matrix: (Units=GPa)
#
#
# Indices 1 2 3 4 5 6 
#
# 1 88.1938 56.5112 25.8319 -3.7693 23.7394 1.8961
# 2 56.5112 193.6734 37.9302 -3.5513 6.5374 1.3495
# 3 25.8319 37.9302 56.8598 -9.8812 11.2959 -5.0226
# 4 -3.7693 -3.5513 -9.8812 37.2859 -2.4630 6.9352
# 5 23.7394 6.5374 11.2959 -2.4630 38.5606 -3.3714
# 6 1.8961 1.3495 -5.0226 6.9352 -3.3714 40.1241
#
#
#
# Elastic Compliance Matrix: (Units=1/GPa)
#
#
# Indices 1 2 3 4 5 6 
#
# 1 0.017530 -0.004093 -0.003539 0.000197 -0.009218 -0.001942
# 2 -0.004093 0.006921 -0.003302 -0.000445 0.002269 -0.000185
# 3 -0.003539 -0.003302 0.023124 0.004842 -0.003548 0.002038
# 4 0.000197 -0.000445 0.004842 0.028896 -0.000002 -0.004383
# 5 -0.009218 0.002269 -0.003548 -0.000002 0.032494 0.002646
# 6 -0.001942 -0.000185 0.002038 -0.004383 0.002646 0.026256
#
#
# Mechanical properties :
#
#
# Convention : Reuss Voigt Hill
#
# Bulk Modulus (GPa) = 38.90187 64.36375 51.63281
# Shear Modulus (GPa) = 30.18276 37.75770 33.97023
#
# Velocity S-wave (km/s) = 3.64965 4.08202 3.87188
# Velocity P-wave (km/s) = 5.90997 7.11489 6.54024
#
# Compressibility (1/GPa) = 0.02570570
#
# Stress axis : x y z
#
# Youngs Moduli (GPa) = 57.04571 144.48997 43.24533
#
# Poissons Ratio (x) = 0.59147 0.15306
# Poissons Ratio (y) = 0.23352 0.14278
# Poissons Ratio (z) = 0.20190 0.47706
#
# Static dielectric constant tensor:
#      x y z
#    x 4.374780 0.766100 -0.026820 
#    y 0.766100 12.638410 -3.613810 
#    z -0.026820 -3.613810 5.352250 
# 
# 
# High freq. dielectric constant tensor:
#      x y z
#    x 1.905710 0.000680 0.024850 
#    y 0.000680 1.924240 -0.005410 
#    z 0.024850 -0.005410 1.861380 
# 
# From -- ./inp_files/383556.got.cif
#   From: 2010.06.25/outbox.cif.g09.slc.cpg/sg2_192_cif.got.tgz:383556.got - 2010.06.27 13:26:56.
