data_PCOD8016792
_publ_section_title
;
Structure prediction by ZEFSAII (Michael W. Deem and Ramdas Pophale) SiO2 
 PCOD8016792
Probable space group: P -1
;
_chemical_formula_sum "Si O2"
_cell_formula_units_Z 16
_cell_length_a 15.067031
_cell_length_b 18.748641
_cell_length_c 8.252351
_cell_angle_alpha 143.187327
_cell_angle_beta 131.830279
_cell_angle_gamma 35.423260
_cell_volume 808.918494
_symmetry_space_group_name_H-M "P -1"
_symmetry_group_IT_number 2
_symmetry_cell_setting 'triclinic'
loop_
_space_group_symop_operation_xyz
x,y,z
-x,-y,-z
loop_
_atom_site_type_symbol
_atom_site_label
_atom_site_fract_x
_atom_site_fract_y
_atom_site_fract_z
Si Si1 0.992884 0.644611 0.224531
Si Si2 0.535009 0.794548 0.694287
Si Si3 0.208447 0.459721 0.704154
Si Si4 0.357080 0.003796 0.302142
Si Si5 0.566948 0.289144 0.300944
Si Si6 0.312093 0.083308 0.747167
Si Si7 0.082129 0.307971 0.422158
Si Si8 0.713165 0.432911 0.723435
O O1 0.860615 0.762075 0.145224
O O2 0.963825 0.707829 0.485147
O O3 0.140601 0.615248 0.282825
O O4 0.000000 0.500000 0.000000
O O5 0.676001 0.676127 0.529494
O O6 0.483786 0.710875 0.577957
O O7 0.381585 0.936703 0.677203
O O8 0.581368 0.866161 0.013555
O O9 0.136120 0.410898 0.654632
O O10 0.066490 0.618827 0.737464
O O11 0.300371 0.498223 0.990759
O O12 0.500000 0.000000 0.500000
O O13 0.290423 0.039079 0.464876
O O14 0.235805 0.132847 0.255955
O O15 0.396409 0.848109 0.010633
O O16 0.710245 0.291112 0.485566
O O17 0.427790 0.443039 0.330951
#
# Coordination Sequence:
#
# PCOD8016792 Si02
#       8
#     2   2   2   2   2   2   2   2
#     4  11  20  39  62  88 119 158 206 254 298 354
#     4  11  22  37  58  93 125 155 198 255 300 359
#     4  11  22  37  58  93 125 155 198 255 300 359
#     4  11  20  39  62  88 119 158 206 254 298 354
#     4  11  24  41  62  88 123 165 203 245 304 368
#     4  10  22  35  61  92 119 153 204 255 306 348
#     4  10  22  35  61  92 119 153 204 255 306 348
#     4  11  24  41  62  88 123 165 203 245 304 368
#
# _framework density 19.779495000000001
#
# number of rings (size 3 to 8) (size 9 to 14) (size 15 to 20)
#    0.000    1.250    2.500    4.500    3.500    0.500 
#    0.000    6.250    0.000    0.000    0.000    0.000 
#    0.000    0.000    0.000    0.000    0.000    0.000 
#
# Total GULP energy -198223.130141 kJ/mol
# GULP energy per Si atom -12388.945634 kJ/mol
# Density = 1.973448 g / cm^3
# Si number density = 19.779495 Si / 1000 Ang^3
#
#
#
# Elastic Constant Matrix: (Units=GPa)
#
#
# Indices 1 2 3 4 5 6 
#
# 1 108.4180 51.7960 66.0562 -4.0956 13.6701 -2.0029
# 2 51.7960 148.5700 26.6057 3.8794 9.1138 3.4163
# 3 66.0562 26.6057 78.7468 7.4511 15.0722 6.5498
# 4 -4.0956 3.8794 7.4511 22.3540 0.3863 -5.1451
# 5 13.6701 9.1138 15.0722 0.3863 28.6811 -1.7402
# 6 -2.0029 3.4163 6.5498 -5.1451 -1.7402 25.3648
#
#
#
# Elastic Compliance Matrix: (Units=1/GPa)
#
#
# Indices 1 2 3 4 5 6 
#
# 1 0.027324 -0.006104 -0.023906 0.016928 0.002023 0.012725
# 2 -0.006104 0.008576 0.003258 -0.004469 -0.001680 -0.003500
# 3 -0.023906 0.003258 0.036896 -0.020935 -0.009766 -0.016771
# 4 0.016928 -0.004469 -0.020935 0.060078 0.004749 0.019857
# 5 0.002023 -0.001680 -0.009766 0.004749 0.039905 0.006609
# 6 0.012725 -0.003500 -0.016771 0.019857 0.006609 0.049713
#
#
# Mechanical properties :
#
#
# Convention : Reuss Voigt Hill
#
# Bulk Modulus (GPa) = 51.83068 69.40560 60.61814
# Shear Modulus (GPa) = 17.70374 28.03179 22.86777
#
# Velocity S-wave (km/s) = 2.99499 3.76868 3.40389
# Velocity P-wave (km/s) = 6.18232 7.35548 6.79427
#
# Compressibility (1/GPa) = 0.01929359
#
# Stress axis : x y z
#
# Youngs Moduli (GPa) = 36.59741 116.61068 27.10286
#
# Poissons Ratio (x) = 0.71176 0.64792
# Poissons Ratio (y) = 0.22338 -0.08831
# Poissons Ratio (z) = 0.87490 -0.37996
#
# Static dielectric constant tensor:
#      x y z
#    x 3.868540 0.130970 -0.237650 
#    y 0.130970 4.459360 -0.221670 
#    z -0.237650 -0.221670 3.848050 
# 
# 
# High freq. dielectric constant tensor:
#      x y z
#    x 1.762160 0.002460 -0.017170 
#    y 0.002460 1.792670 0.000310 
#    z -0.017170 0.000310 1.751940 
# 
# From -- ./inp_files/338238.got.cif
#   From: 2010.06.25/outbox.cif.g09.slc.cpg/sg2_170_cif.got.tgz:338238.got - 2010.06.27 13:26:56.
