data_PCOD8016520
_publ_section_title
;
Structure prediction by ZEFSAII (Michael W. Deem and Ramdas Pophale) SiO2 
 PCOD8016520
Probable space group: P -1
;
_chemical_formula_sum "Si O2"
_cell_formula_units_Z 14
_cell_length_a 9.171346
_cell_length_b 8.583047
_cell_length_c 10.108199
_cell_angle_alpha 123.964427
_cell_angle_beta 88.019207
_cell_angle_gamma 78.622871
_cell_volume 636.633935
_symmetry_space_group_name_H-M "P -1"
_symmetry_group_IT_number 2
_symmetry_cell_setting 'triclinic'
loop_
_space_group_symop_operation_xyz
x,y,z
-x,-y,-z
loop_
_atom_site_type_symbol
_atom_site_label
_atom_site_fract_x
_atom_site_fract_y
_atom_site_fract_z
Si Si1 0.088111 0.791538 0.966893
Si Si2 0.376147 0.190926 0.068924
Si Si3 0.115243 0.705325 0.645107
Si Si4 0.207752 0.284298 0.376760
Si Si5 0.580540 0.438209 0.107365
Si Si6 0.357118 0.180735 0.591299
Si Si7 0.183532 0.106223 0.803536
O O1 0.099205 0.646206 0.772725
O O2 0.261960 0.739093 0.992147
O O3 0.983522 0.767224 0.083352
O O4 0.000000 0.000000 0.000000
O O5 0.252878 0.202255 0.191231
O O6 0.456140 0.365505 0.159570
O O7 0.304314 0.176782 0.921479
O O8 0.500000 0.000000 0.000000
O O9 0.207433 0.510773 0.478812
O O10 0.950758 0.764970 0.611672
O O11 0.200507 0.875088 0.708177
O O12 0.316822 0.181770 0.439570
O O13 0.605117 0.622606 0.271076
O O14 0.500000 0.500000 0.000000
O O15 0.219184 0.149532 0.671981
O O16 0.500000 0.000000 0.500000
#
# Coordination Sequence:
#
# PCOD8016520 Si02
#       7
#     2   2   2   2   2   2   2
#     4  10  21  44  77 102 137 185 246 299 343 428
#     4  12  25  43  74 105 136 195 243 289 359 434
#     4  10  22  44  73 103 134 179 244 302 340 418
#     4  11  25  44  70 103 140 183 241 295 355 419
#     4  12  27  48  71 109 151 185 241 304 365 428
#     4  12  28  47  66 105 154 189 228 299 373 430
#     4  11  24  45  74 102 139 191 243 291 361 429
#
# _framework density 21.990660999999999
#
# number of rings (size 3 to 8) (size 9 to 14) (size 15 to 20)
#    0.000    0.857    4.286    2.571    4.000    1.714 
#    5.143    0.000    0.000    0.000    0.000    0.000 
#    0.000    0.000    0.000    0.000    0.000    0.000 
#
# Total GULP energy -173451.317126 kJ/mol
# GULP energy per Si atom -12389.379795 kJ/mol
# Density = 2.194061 g / cm^3
# Si number density = 21.990661 Si / 1000 Ang^3
#
#
#
# Elastic Constant Matrix: (Units=GPa)
#
#
# Indices 1 2 3 4 5 6 
#
# 1 109.1508 52.0277 18.9941 4.6074 4.1171 -6.3938
# 2 52.0277 91.8453 27.6558 1.4880 1.6349 -0.9126
# 3 18.9941 27.6558 71.5753 3.1032 0.1164 5.8162
# 4 4.6074 1.4880 3.1032 32.7143 -3.6593 3.9689
# 5 4.1171 1.6349 0.1164 -3.6593 36.0384 -3.4839
# 6 -6.3938 -0.9126 5.8162 3.9689 -3.4839 51.9579
#
#
#
# Elastic Compliance Matrix: (Units=1/GPa)
#
#
# Indices 1 2 3 4 5 6 
#
# 1 0.012829 -0.006973 -0.000763 -0.001742 -0.001169 0.001596
# 2 -0.006973 0.016151 -0.004410 0.000696 0.000137 -0.000125
# 3 -0.000763 -0.004410 0.016075 -0.000992 -0.000049 -0.001898
# 4 -0.001742 0.000696 -0.000992 0.031505 0.003149 -0.002286
# 5 -0.001169 0.000137 -0.000049 0.003149 0.028343 0.001524
# 6 0.001596 -0.000125 -0.001898 -0.002286 0.001524 0.019930
#
#
# Mechanical properties :
#
#
# Convention : Reuss Voigt Hill
#
# Bulk Modulus (GPa) = 48.16126 52.21406 50.18766
# Shear Modulus (GPa) = 32.04196 35.73504 33.88850
#
# Velocity S-wave (km/s) = 3.82130 4.03551 3.92987
# Velocity P-wave (km/s) = 6.43569 6.74604 6.59269
#
# Compressibility (1/GPa) = 0.02076357
#
# Stress axis : x y z
#
# Youngs Moduli (GPa) = 77.94768 61.91641 62.20794
#
# Poissons Ratio (x) = 0.43173 0.04744
# Poissons Ratio (y) = 0.54351 0.27436
# Poissons Ratio (z) = 0.05944 0.27307
#
# Static dielectric constant tensor:
#      x y z
#    x 4.124520 -0.177700 -0.134190 
#    y -0.177700 3.880770 0.032960 
#    z -0.134190 0.032960 4.277110 
# 
# 
# High freq. dielectric constant tensor:
#      x y z
#    x 1.873210 -0.007070 0.003150 
#    y -0.007070 1.855880 0.006100 
#    z 0.003150 0.006100 1.873220 
# 
# From -- ./inp_files/156623.got.cif
#   From: 2010.06.25/outbox.cif.g09.slc.cpg/sg2_79_cif.got.tgz:156623.got - 2010.06.27 13:26:56.
