data_PCOD8016215
_publ_section_title
;
Structure prediction by ZEFSAII (Michael W. Deem and Ramdas Pophale) SiO2 
 PCOD8016215
Probable space group: P -1
;
_chemical_formula_sum "Si O2"
_cell_formula_units_Z 16
_cell_length_a 11.666996
_cell_length_b 8.747432
_cell_length_c 14.543313
_cell_angle_alpha 120.514711
_cell_angle_beta 30.935973
_cell_angle_gamma 105.457019
_cell_volume 607.589622
_symmetry_space_group_name_H-M "P -1"
_symmetry_group_IT_number 2
_symmetry_cell_setting 'triclinic'
loop_
_space_group_symop_operation_xyz
x,y,z
-x,-y,-z
loop_
_atom_site_type_symbol
_atom_site_label
_atom_site_fract_x
_atom_site_fract_y
_atom_site_fract_z
Si Si1 0.458540 0.851427 0.049541
Si Si2 0.372702 0.761479 0.333271
Si Si3 0.361080 0.405400 0.311966
Si Si4 0.018739 0.205940 0.529095
Si Si5 0.811456 0.773469 0.947111
Si Si6 0.917042 0.810473 0.309461
Si Si7 0.775778 0.467009 0.301387
Si Si8 0.217849 0.812359 0.931127
O O1 0.198909 0.979630 0.316987
O O2 0.472848 0.675307 0.919676
O O3 0.688637 0.772859 0.934072
O O4 0.500000 0.000000 0.000000
O O5 0.313922 0.631787 0.412062
O O6 0.242256 0.742605 0.322272
O O7 0.286975 0.979206 0.491568
O O8 0.657820 0.705621 0.106069
O O9 0.494673 0.310022 0.286843
O O10 0.123551 0.354721 0.457340
O O11 0.972764 0.244849 0.681171
O O12 0.085049 0.613708 0.721445
O O13 0.814576 0.983386 0.026833
O O14 0.803091 0.660211 0.308609
O O15 0.116659 0.820096 0.105215
O O16 0.500000 0.500000 0.500000
O O17 0.899207 0.296046 0.090007
#
# Coordination Sequence:
#
# PCOD8016215 Si02
#       8
#     2   2   2   2   2   2   2   2
#     4  10  21  43  75 108 161 190 245 302 375 442
#     4  12  26  42  74 116 157 201 243 301 379 453
#     4  11  24  44  73 114 156 200 249 302 370 446
#     4  11  23  45  70 110 162 200 239 304 376 450
#     4  12  26  48  77 112 149 196 254 302 388 436
#     4  12  27  46  75 108 152 201 251 303 372 451
#     4  12  29  54  80 103 143 199 259 322 372 433
#     4  12  26  51  78 107 152 196 253 314 369 441
#
# _framework density 26.333563999999999
#
# number of rings (size 3 to 8) (size 9 to 14) (size 15 to 20)
#    0.000    0.500    3.750    4.500    5.250    2.500 
#    0.000    1.875    0.000    0.000    0.000    0.000 
#    0.000    0.000    0.000    0.000    0.000    0.000 
#
# Total GULP energy -198351.366240 kJ/mol
# GULP energy per Si atom -12396.960390 kJ/mol
# Density = 2.627363 g / cm^3
# Si number density = 26.333564 Si / 1000 Ang^3
#
#
#
# Elastic Constant Matrix: (Units=GPa)
#
#
# Indices 1 2 3 4 5 6 
#
# 1 92.1793 28.7145 35.4987 1.3068 -18.8361 4.0547
# 2 28.7145 198.9758 29.0522 -8.2739 -17.6866 13.2655
# 3 35.4987 29.0522 81.0744 -16.8607 -28.4975 -9.3010
# 4 1.3068 -8.2739 -16.8607 41.5362 -5.3578 -4.9405
# 5 -18.8361 -17.6866 -28.4975 -5.3578 49.9693 4.5329
# 6 4.0547 13.2655 -9.3010 -4.9405 4.5329 48.9067
#
#
#
# Elastic Compliance Matrix: (Units=1/GPa)
#
#
# Indices 1 2 3 4 5 6 
#
# 1 0.013999 -0.000955 -0.006367 -0.003368 0.001179 -0.002562
# 2 -0.000955 0.005587 -0.001276 0.000563 0.001107 -0.001724
# 3 -0.006367 -0.001276 0.022119 0.010894 0.010458 0.005212
# 4 -0.003368 0.000563 0.010894 0.030282 0.007979 0.004518
# 5 0.001179 0.001107 0.010458 0.007979 0.027684 -0.000169
# 6 -0.002562 -0.001724 0.005212 0.004518 -0.000169 0.022590
#
#
# Mechanical properties :
#
#
# Convention : Reuss Voigt Hill
#
# Bulk Modulus (GPa) = 40.80157 62.08447 51.44302
# Shear Modulus (GPa) = 33.86931 46.68005 40.27468
#
# Velocity S-wave (km/s) = 3.59020 4.21485 3.91500
# Velocity P-wave (km/s) = 5.71960 6.87851 6.32565
#
# Compressibility (1/GPa) = 0.02450886
#
# Stress axis : x y z
#
# Youngs Moduli (GPa) = 71.43155 179.00195 45.21048
#
# Poissons Ratio (x) = 0.17095 0.28787
# Poissons Ratio (y) = 0.06822 0.05767
# Poissons Ratio (z) = 0.45483 0.22832
#
# Static dielectric constant tensor:
#      x y z
#    x 4.873140 0.258420 0.045740 
#    y 0.258420 5.046920 -0.087350 
#    z 0.045740 -0.087350 4.466410 
# 
# 
# High freq. dielectric constant tensor:
#      x y z
#    x 2.046020 0.008100 -0.000910 
#    y 0.008100 2.081200 -0.008630 
#    z -0.000910 -0.008630 2.056730 
# 
# From -- ./inp_files/515827.got.cif
#   From: 2010.06.25/outbox.cif.g09.slc.cpg/sg2_258_cif.got.tgz:515827.got - 2010.06.27 13:26:56.
