data_PCOD8016584
_publ_section_title
;
Structure prediction by ZEFSAII (Michael W. Deem and Ramdas Pophale) SiO2 
 PCOD8016584
Probable space group: P -1
;
_chemical_formula_sum "Si O2"
_cell_formula_units_Z 14
_cell_length_a 20.568327
_cell_length_b 13.441535
_cell_length_c 8.922559
_cell_angle_alpha 33.486242
_cell_angle_beta 33.723506
_cell_angle_gamma 32.396148
_cell_volume 657.871358
_symmetry_space_group_name_H-M "P -1"
_symmetry_group_IT_number 2
_symmetry_cell_setting 'triclinic'
loop_
_space_group_symop_operation_xyz
x,y,z
-x,-y,-z
loop_
_atom_site_type_symbol
_atom_site_label
_atom_site_fract_x
_atom_site_fract_y
_atom_site_fract_z
Si Si1 0.071079 0.334616 0.442418
Si Si2 0.426311 0.372422 0.829686
Si Si3 0.208688 0.482557 0.336713
Si Si4 0.469763 0.015523 0.714427
Si Si5 0.708707 0.628916 0.197256
Si Si6 0.337135 0.614673 0.180608
Si Si7 0.257651 0.055349 0.672658
O O1 0.170785 0.116317 0.607931
O O2 0.000000 0.500000 0.500000
O O3 0.947742 0.333414 0.590970
O O4 0.147731 0.410521 0.086873
O O5 0.500000 0.500000 0.500000
O O6 0.400512 0.285123 0.834643
O O7 0.279616 0.504544 0.022097
O O8 0.526984 0.192870 0.975213
O O9 0.289156 0.502238 0.295497
O O10 0.214669 0.256722 0.609619
O O11 0.332353 0.210192 0.787369
O O12 0.500000 0.000000 0.500000
O O13 0.587499 0.030507 0.560550
O O14 0.711559 0.422759 0.516938
O O15 0.500000 0.500000 0.000000
O O16 0.256697 0.863257 0.999830
#
# Coordination Sequence:
#
# PCOD8016584 Si02
#       7
#     2   2   2   2   2   2   2
#     4  10  21  45  68  90 133 185 229 269 328 408
#     4  11  23  37  64  99 130 166 223 278 337 391
#     4  10  23  46  67  91 138 180 219 279 333 401
#     4  11  23  40  62  97 135 172 218 275 350 393
#     4  12  22  39  68  96 130 178 220 275 337 404
#     4  12  25  39  66 103 136 167 224 283 341 398
#     4  10  22  41  68  92 136 178 214 280 344 386
#
# _framework density 21.280756
#
# number of rings (size 3 to 8) (size 9 to 14) (size 15 to 20)
#    0.000    1.143    5.714    3.000    2.000    1.143 
#    0.000    2.857    0.000    0.000    0.000    0.000 
#    0.000    0.000    0.000    0.000    0.000    0.000 
#
# Total GULP energy -173437.498545 kJ/mol
# GULP energy per Si atom -12388.392753 kJ/mol
# Density = 2.123232 g / cm^3
# Si number density = 21.280756 Si / 1000 Ang^3
#
#
#
# Elastic Constant Matrix: (Units=GPa)
#
#
# Indices 1 2 3 4 5 6 
#
# 1 117.3846 39.3759 52.3889 4.5640 -2.5487 -9.8283
# 2 39.3759 87.4803 76.2144 3.2244 -2.5636 -11.5350
# 3 52.3889 76.2144 188.4308 -9.9850 13.0956 -14.3492
# 4 4.5640 3.2244 -9.9850 44.0869 -2.1725 2.8977
# 5 -2.5487 -2.5636 13.0956 -2.1725 34.1983 3.4564
# 6 -9.8283 -11.5350 -14.3492 2.8977 3.4564 34.1556
#
#
#
# Elastic Compliance Matrix: (Units=1/GPa)
#
#
# Indices 1 2 3 4 5 6 
#
# 1 0.010471 -0.002921 -0.001772 -0.001306 0.001027 0.001289
# 2 -0.002921 0.019715 -0.007366 -0.002799 0.003641 0.002592
# 3 -0.001772 -0.007366 0.009290 0.002546 -0.004192 0.001114
# 4 -0.001306 -0.002799 0.002546 0.023774 0.000462 -0.002315
# 5 0.001027 0.003641 -0.004192 0.000462 0.031576 -0.003471
# 6 0.001289 0.002592 0.001114 -0.002315 -0.003471 0.031539
#
#
# Mechanical properties :
#
#
# Convention : Reuss Voigt Hill
#
# Bulk Modulus (GPa) = 65.11384 81.02823 73.07103
# Shear Modulus (GPa) = 32.13318 37.50926 34.82122
#
# Velocity S-wave (km/s) = 3.89004 4.20288 4.04948
# Velocity P-wave (km/s) = 7.13025 7.85562 7.50171
#
# Compressibility (1/GPa) = 0.01535772
#
# Stress axis : x y z
#
# Youngs Moduli (GPa) = 95.50470 50.72323 107.64176
#
# Poissons Ratio (x) = 0.14816 0.19075
# Poissons Ratio (y) = 0.27896 0.79288
# Poissons Ratio (z) = 0.16925 0.37362
#
# Static dielectric constant tensor:
#      x y z
#    x 4.438800 -0.679740 0.054140 
#    y -0.679740 4.271490 0.029040 
#    z 0.054140 0.029040 4.204210 
# 
# 
# High freq. dielectric constant tensor:
#      x y z
#    x 1.837270 -0.013800 0.009290 
#    y -0.013800 1.809740 -0.005720 
#    z 0.009290 -0.005720 1.837420 
# 
# From -- ./inp_files/354252.got.cif
#   From: 2010.06.25/outbox.cif.g09.slc.cpg/sg2_178_cif.got.tgz:354252.got - 2010.06.27 13:26:56.
