data_PCOD8016947
_publ_section_title
;
Structure prediction by ZEFSAII (Michael W. Deem and Ramdas Pophale) SiO2 
 PCOD8016947
Probable space group: P -1
;
_chemical_formula_sum "Si O2"
_cell_formula_units_Z 14
_cell_length_a 8.882325
_cell_length_b 13.137887
_cell_length_c 7.682766
_cell_angle_alpha 66.672301
_cell_angle_beta 129.244446
_cell_angle_gamma 108.254844
_cell_volume 635.086017
_symmetry_space_group_name_H-M "P -1"
_symmetry_group_IT_number 2
_symmetry_cell_setting 'triclinic'
loop_
_space_group_symop_operation_xyz
x,y,z
-x,-y,-z
loop_
_atom_site_type_symbol
_atom_site_label
_atom_site_fract_x
_atom_site_fract_y
_atom_site_fract_z
Si Si1 0.247850 0.175049 0.325994
Si Si2 0.429229 0.900661 0.136884
Si Si3 0.864163 0.285457 0.996216
Si Si4 0.317633 0.340315 0.979492
Si Si5 0.101478 0.720502 0.379795
Si Si6 0.274127 0.581292 0.896979
Si Si7 0.275428 0.960717 0.322491
O O1 0.386272 0.147173 0.603321
O O2 0.156599 0.061325 0.238282
O O3 0.375258 0.252692 0.228098
O O4 0.070417 0.239495 0.223552
O O5 0.311659 0.803250 0.007748
O O6 0.268700 0.945036 0.120778
O O7 0.500000 0.000000 0.000000
O O8 0.841492 0.309115 0.757650
O O9 0.837023 0.392354 0.023905
O O10 0.253029 0.448632 0.958871
O O11 0.133705 0.284485 0.773618
O O12 0.498102 0.371603 0.962076
O O13 0.176538 0.628805 0.622744
O O14 0.192389 0.842924 0.425260
O O15 0.500000 0.000000 0.500000
#
# Coordination Sequence:
#
# PCOD8016947 Si02
#       7
#     2   2   2   2   2   2   2
#     4  10  22  42  61  90 127 164 207 252 320 369
#     4  10  22  37  60  94 125 158 208 256 306 377
#     4  10  24  40  61  94 125 165 208 259 311 372
#     4  10  23  41  67  91 123 169 212 257 315 374
#     4  10  22  42  64  93 127 165 208 256 317 375
#     4  11  23  43  65  92 127 165 214 264 308 365
#     4   9  19  38  64  86 124 167 193 257 313 366
#
# _framework density 22.044257000000002
#
# number of rings (size 3 to 8) (size 9 to 14) (size 15 to 20)
#    0.000    2.000    0.000    3.000    6.000    9.143 
#    2.571    6.429    0.000    0.000    0.000    0.000 
#    0.000    0.000    0.000    0.000    0.000    0.000 
#
# Total GULP energy -173550.817572 kJ/mol
# GULP energy per Si atom -12396.486969 kJ/mol
# Density = 2.199408 g / cm^3
# Si number density = 22.044257 Si / 1000 Ang^3
#
#
#
# Elastic Constant Matrix: (Units=GPa)
#
#
# Indices 1 2 3 4 5 6 
#
# 1 61.5011 27.2674 19.0589 3.5229 12.4149 -17.2370
# 2 27.2674 92.8379 22.7027 -6.9390 8.2393 2.9222
# 3 19.0589 22.7027 81.5071 -7.1781 1.8793 11.1618
# 4 3.5229 -6.9390 -7.1781 29.9847 7.1368 5.8620
# 5 12.4149 8.2393 1.8793 7.1368 29.6071 -5.2863
# 6 -17.2370 2.9222 11.1618 5.8620 -5.2863 42.5125
#
#
#
# Elastic Compliance Matrix: (Units=1/GPa)
#
#
# Indices 1 2 3 4 5 6 
#
# 1 0.026480 -0.006740 -0.006751 -0.007855 -0.004496 0.013497
# 2 -0.006740 0.013835 -0.001122 0.005329 -0.003041 -0.004502
# 3 -0.006751 -0.001122 0.015756 0.005972 -0.000672 -0.007704
# 4 -0.007855 0.005329 0.005972 0.041915 -0.010859 -0.012249
# 5 -0.004496 -0.003041 -0.000672 -0.010859 0.040068 0.005042
# 6 0.013497 -0.004502 -0.007704 -0.012249 0.005042 0.033643
#
#
# Mechanical properties :
#
#
# Convention : Reuss Voigt Hill
#
# Bulk Modulus (GPa) = 37.24784 41.54492 39.39638
# Shear Modulus (GPa) = 23.82407 31.54201 27.68304
#
# Velocity S-wave (km/s) = 3.29102 3.78676 3.54756
# Velocity P-wave (km/s) = 5.60131 6.16494 5.88987
#
# Compressibility (1/GPa) = 0.02684719
#
# Stress axis : x y z
#
# Youngs Moduli (GPa) = 37.76373 72.27962 63.46649
#
# Poissons Ratio (x) = 0.48713 0.42847
# Poissons Ratio (y) = 0.25451 0.07119
# Poissons Ratio (z) = 0.25495 0.08108
#
# Static dielectric constant tensor:
#      x y z
#    x 3.947250 0.008970 0.144340 
#    y 0.008970 4.430960 -0.019370 
#    z 0.144340 -0.019370 4.047640 
# 
# 
# High freq. dielectric constant tensor:
#      x y z
#    x 1.858780 0.012260 0.013510 
#    y 0.012260 1.880870 -0.002200 
#    z 0.013510 -0.002200 1.856310 
# 
# From -- ./inp_files/185500.got.cif
#   From: 2010.06.25/outbox.cif.g09.slc.cpg/sg2_93_cif.got.tgz:185500.got - 2010.06.27 13:26:56.
