data_PCOD8016084
_publ_section_title
;
Structure prediction by ZEFSAII (Michael W. Deem and Ramdas Pophale) SiO2 
 PCOD8016084
Probable space group: P -1
;
_chemical_formula_sum "Si O2"
_cell_formula_units_Z 16
_cell_length_a 8.514080
_cell_length_b 11.506680
_cell_length_c 14.606950
_cell_angle_alpha 147.271941
_cell_angle_beta 76.620792
_cell_angle_gamma 113.135206
_cell_volume 697.180992
_symmetry_space_group_name_H-M "P -1"
_symmetry_group_IT_number 2
_symmetry_cell_setting 'triclinic'
loop_
_space_group_symop_operation_xyz
x,y,z
-x,-y,-z
loop_
_atom_site_type_symbol
_atom_site_label
_atom_site_fract_x
_atom_site_fract_y
_atom_site_fract_z
Si Si1 0.666434 0.583489 0.095235
Si Si2 0.464631 0.765118 0.957508
Si Si3 0.950071 0.435698 0.703234
Si Si4 0.802298 0.960640 0.474872
Si Si5 0.178908 0.211403 0.132172
Si Si6 0.708798 0.621507 0.414802
Si Si7 0.697594 0.875433 0.750374
Si Si8 0.010949 0.675109 0.033497
O O1 0.650583 0.381598 0.038328
O O2 0.716952 0.819833 0.301787
O O3 0.812235 0.650215 0.040893
O O4 0.500000 0.500000 0.000000
O O5 0.669924 0.810695 0.968835
O O6 0.403147 0.630066 0.779495
O O7 0.441136 0.011938 0.124448
O O8 0.852340 0.552777 0.728064
O O9 0.092069 0.359699 0.581214
O O10 0.799796 0.215405 0.626443
O O11 0.062095 0.605931 0.881530
O O12 0.690035 0.818902 0.481036
O O13 0.000000 0.000000 0.500000
O O14 0.230682 0.216447 0.233648
O O15 0.000000 0.000000 0.000000
O O16 0.622969 0.658056 0.546033
O O17 0.854950 0.063950 0.795288
O O18 0.000000 0.500000 0.000000
#
# Coordination Sequence:
#
# PCOD8016084 Si02
#       8
#     2   2   2   2   2   2   2   2
#     4  11  23  39  67 108 143 178 225 292 362 419
#     4  11  24  48  67  99 143 177 236 292 339 419
#     4  11  21  41  66 101 146 178 223 293 344 408
#     4   9  19  39  66  99 141 182 226 285 343 422
#     4  12  26  46  68  97 139 189 230 288 356 404
#     4  10  21  43  70 103 131 180 235 282 348 410
#     4  12  24  43  75  99 133 191 236 279 337 431
#     4  12  19  37  68 100 132 180 231 273 348 420
#
# _framework density 22.949562
#
# number of rings (size 3 to 8) (size 9 to 14) (size 15 to 20)
#    0.000    1.000    3.750    4.875    0.000    1.000 
#    2.250    1.875    0.000    0.000    0.000    0.000 
#    0.000    0.000    0.000    0.000    0.000    0.000 
#
# Total GULP energy -198274.075698 kJ/mol
# GULP energy per Si atom -12392.129731 kJ/mol
# Density = 2.289733 g / cm^3
# Si number density = 22.949562 Si / 1000 Ang^3
#
#
#
# Elastic Constant Matrix: (Units=GPa)
#
#
# Indices 1 2 3 4 5 6 
#
# 1 110.2778 41.1232 48.0431 7.2018 -6.7104 -6.8739
# 2 41.1232 103.5084 34.0319 8.8522 -13.7286 -14.9647
# 3 48.0431 34.0319 118.1350 -32.1108 -14.1787 -12.4780
# 4 7.2018 8.8522 -32.1108 30.2280 -12.3976 1.7058
# 5 -6.7104 -13.7286 -14.1787 -12.3976 34.4306 4.6543
# 6 -6.8739 -14.9647 -12.4780 1.7058 4.6543 49.7882
#
#
#
# Elastic Compliance Matrix: (Units=1/GPa)
#
#
# Indices 1 2 3 4 5 6 
#
# 1 0.016437 -0.001537 -0.013743 -0.022698 -0.011268 0.000194
# 2 -0.001537 0.013397 -0.006143 -0.010991 -0.001826 0.002822
# 3 -0.013743 -0.006143 0.032933 0.051022 0.026771 0.000259
# 4 -0.022698 -0.010991 0.051022 0.118779 0.055366 -0.002895
# 5 -0.011268 -0.001826 0.026771 0.055366 0.057439 -0.002662
# 6 0.000194 0.002822 0.000259 -0.002895 -0.002662 0.021373
#
#
# Mechanical properties :
#
#
# Convention : Reuss Voigt Hill
#
# Bulk Modulus (GPa) = 50.20031 64.25751 57.22891
# Shear Modulus (GPa) = 16.13704 36.80423 26.47064
#
# Velocity S-wave (km/s) = 2.65458 4.00897 3.39990
# Velocity P-wave (km/s) = 5.59619 7.03487 6.35636
#
# Compressibility (1/GPa) = 0.01992020
#
# Stress axis : x y z
#
# Youngs Moduli (GPa) = 60.83702 74.64253 30.36498
#
# Poissons Ratio (x) = 0.11474 0.41732
# Poissons Ratio (y) = 0.09351 0.18653
# Poissons Ratio (z) = 0.83611 0.45852
#
# Static dielectric constant tensor:
#      x y z
#    x 2.555850 -3.994770 1.949760 
#    y -3.994770 -5.078070 4.723130 
#    z 1.949760 4.723130 1.899410 
# 
# 
# High freq. dielectric constant tensor:
#      x y z
#    x 1.892330 0.006080 0.006000 
#    y 0.006080 1.919550 0.008310 
#    z 0.006000 0.008310 1.900090 
# 
# From -- ./inp_files/501161.got.cif
#   From: 2010.06.25/outbox.cif.g09.slc.cpg/sg2_251_cif.got.tgz:501161.got - 2010.06.27 13:26:56.
