data_PCOD8016161
_publ_section_title
;
Structure prediction by ZEFSAII (Michael W. Deem and Ramdas Pophale) SiO2 
 PCOD8016161
Probable space group: P -1
;
_chemical_formula_sum "Si O2"
_cell_formula_units_Z 12
_cell_length_a 15.323451
_cell_length_b 8.913664
_cell_length_c 15.694982
_cell_angle_alpha 78.946334
_cell_angle_beta 18.838527
_cell_angle_gamma 89.519779
_cell_volume 569.113632
_symmetry_space_group_name_H-M "P -1"
_symmetry_group_IT_number 2
_symmetry_cell_setting 'triclinic'
loop_
_space_group_symop_operation_xyz
x,y,z
-x,-y,-z
loop_
_atom_site_type_symbol
_atom_site_label
_atom_site_fract_x
_atom_site_fract_y
_atom_site_fract_z
Si Si1 0.581017 0.701642 0.897388
Si Si2 0.594387 0.719636 0.610213
Si Si3 0.255015 0.009518 0.165283
Si Si4 0.762032 0.552037 0.179735
Si Si5 0.794568 0.230802 0.890875
Si Si6 0.171835 0.966187 0.770079
O O1 0.670156 0.789898 0.901817
O O2 0.264416 0.680406 0.147715
O O3 0.500000 0.500000 0.000000
O O4 0.885740 0.842991 0.541952
O O5 0.375578 0.548658 0.771063
O O6 0.385003 0.756666 0.863737
O O7 0.791190 0.902755 0.354077
O O8 0.827755 0.671020 0.447124
O O9 0.500000 0.000000 0.000000
O O10 0.325630 0.978611 0.005402
O O11 0.500000 0.500000 0.500000
O O12 0.000000 0.500000 0.000000
O O13 0.949730 0.763922 0.961143
O O14 0.500000 0.000000 0.500000
O O15 0.000000 0.000000 0.000000
#
# Coordination Sequence:
#
# PCOD8016161 Si02
#       6
#     2   2   2   2   2   2
#     4  10  21  43  71  97 127 177 227 260 318 404
#     4  12  24  42  66  96 140 165 217 283 327 379
#     4   9  20  41  67  94 129 172 221 257 328 390
#     4  12  23  43  68  95 127 171 223 269 320 396
#     4  11  23  43  65  96 138 174 207 281 338 366
#     4  12  23  43  70  96 121 177 224 263 323 399
#
# _framework density 21.085422000000001
#
# number of rings (size 3 to 8) (size 9 to 14) (size 15 to 20)
#    0.000    1.000    5.000    2.000    0.000    2.667 
#    3.000    5.000    0.000    0.000    0.000    0.000 
#    0.000    0.000    0.000    0.000    0.000    0.000 
#
# Total GULP energy -148663.416996 kJ/mol
# GULP energy per Si atom -12388.618083 kJ/mol
# Density = 2.103743 g / cm^3
# Si number density = 21.085422 Si / 1000 Ang^3
#
#
#
# Elastic Constant Matrix: (Units=GPa)
#
#
# Indices 1 2 3 4 5 6 
#
# 1 122.9807 77.2829 43.3684 6.7637 -23.6207 36.7654
# 2 77.2829 197.0698 70.4348 -9.8797 -3.0536 41.1637
# 3 43.3684 70.4348 91.2482 16.5271 -19.4655 21.0719
# 4 6.7637 -9.8797 16.5271 54.4918 2.9719 3.9792
# 5 -23.6207 -3.0536 -19.4655 2.9719 41.4716 13.9777
# 6 36.7654 41.1637 21.0719 3.9792 13.9777 54.9266
#
#
#
# Elastic Compliance Matrix: (Units=1/GPa)
#
#
# Indices 1 2 3 4 5 6 
#
# 1 0.017096 -0.004953 0.002317 -0.003645 0.014808 -0.012124
# 2 -0.004953 0.009822 -0.007359 0.004955 -0.005879 -0.000085
# 3 0.002317 -0.007359 0.021775 -0.008457 0.014085 -0.007361
# 4 -0.003645 0.004955 -0.008457 0.022534 -0.008105 0.002401
# 5 0.014808 -0.005879 0.014085 -0.008105 0.046799 -0.022232
# 6 -0.012124 -0.000085 -0.007361 0.002401 -0.022232 0.034693
#
#
# Mechanical properties :
#
#
# Convention : Reuss Voigt Hill
#
# Bulk Modulus (GPa) = 34.84086 88.16343 61.50214
# Shear Modulus (GPa) = 27.43061 44.85884 36.14472
#
# Velocity S-wave (km/s) = 3.61075 4.61747 4.14479
# Velocity P-wave (km/s) = 5.82605 8.38637 7.22060
#
# Compressibility (1/GPa) = 0.02870193
#
# Stress axis : x y z
#
# Youngs Moduli (GPa) = 58.49236 101.80961 45.92429
#
# Poissons Ratio (x) = 0.50430 -0.10640
# Poissons Ratio (y) = 0.28973 0.33797
# Poissons Ratio (z) = -0.13552 0.74926
#
# Static dielectric constant tensor:
#      x y z
#    x 4.157260 0.508180 -0.360590 
#    y 0.508180 4.658160 0.285560 
#    z -0.360590 0.285560 3.849910 
# 
# 
# High freq. dielectric constant tensor:
#      x y z
#    x 1.826270 0.028710 -0.024410 
#    y 0.028710 1.844470 0.028930 
#    z -0.024410 0.028930 1.822010 
# 
# From -- ./inp_files/55323.got.cif
#   From: 2010.06.25/outbox.cif.g09.slc.cpg/sg2_28_cif.got.tgz:55323.got - 2010.06.27 13:26:56.
