data_PCOD8016641
_publ_section_title
;
Structure prediction by ZEFSAII (Michael W. Deem and Ramdas Pophale) SiO2 
 PCOD8016641
Probable space group: P -1
;
_chemical_formula_sum "Si O2"
_cell_formula_units_Z 16
_cell_length_a 10.344380
_cell_length_b 10.974644
_cell_length_c 9.726205
_cell_angle_alpha 37.893466
_cell_angle_beta 83.460330
_cell_angle_gamma 98.891609
_cell_volume 617.342075
_symmetry_space_group_name_H-M "P -1"
_symmetry_group_IT_number 2
_symmetry_cell_setting 'triclinic'
loop_
_space_group_symop_operation_xyz
x,y,z
-x,-y,-z
loop_
_atom_site_type_symbol
_atom_site_label
_atom_site_fract_x
_atom_site_fract_y
_atom_site_fract_z
Si Si1 0.975495 0.747064 0.615894
Si Si2 0.664053 0.546828 0.778141
Si Si3 0.886879 0.776436 0.884604
Si Si4 0.743537 0.553053 0.469802
Si Si5 0.612202 0.378927 0.215325
Si Si6 0.593750 0.148512 0.676353
Si Si7 0.016938 0.631697 0.234710
Si Si8 0.294403 0.011068 0.954445
O O1 0.818990 0.741785 0.605111
O O2 0.977046 0.714882 0.809706
O O3 0.999713 0.562915 0.692441
O O4 0.097256 0.977181 0.355648
O O5 0.665228 0.449627 0.713767
O O6 0.547068 0.645347 0.715374
O O7 0.635245 0.359197 0.065831
O O8 0.721508 0.616703 0.038082
O O9 0.947997 0.768784 0.034181
O O10 0.648834 0.394830 0.506070
O O11 0.906517 0.558053 0.446639
O O12 0.753597 0.793152 0.229022
O O13 0.631026 0.186152 0.474067
O O14 0.426108 0.038517 0.817252
O O15 0.669721 0.013368 0.866974
O O16 0.174473 0.784652 0.122998
#
# Coordination Sequence:
#
# PCOD8016641 Si02
#       8
#     2   2   2   2   2   2   2   2
#     4  10  23  44  72 103 145 187 238 294 363 431
#     4  10  22  41  76 102 142 186 233 305 357 425
#     4  10  22  44  73 105 139 191 232 296 368 434
#     4  12  24  45  72 106 147 191 241 301 360 426
#     4  10  21  45  72 107 140 186 242 296 372 421
#     4  11  24  46  72 104 145 189 245 305 357 437
#     4  12  25  44  69 105 145 187 243 298 353 431
#     4  11  26  43  72 106 146 192 244 294 367 425
#
# _framework density 25.917556999999999
#
# number of rings (size 3 to 8) (size 9 to 14) (size 15 to 20)
#    0.000    1.250    2.500    2.625    0.000    3.000 
#    0.000    0.000    0.000    9.000    0.000    0.000 
#    0.000    0.000    0.000    0.000    0.000    0.000 
#
# Total GULP energy -198354.196067 kJ/mol
# GULP energy per Si atom -12397.137254 kJ/mol
# Density = 2.585857 g / cm^3
# Si number density = 25.917557 Si / 1000 Ang^3
#
#
#
# Elastic Constant Matrix: (Units=GPa)
#
#
# Indices 1 2 3 4 5 6 
#
# 1 116.3685 31.1050 44.2412 1.6295 -14.3468 4.3343
# 2 31.1050 73.5763 51.1716 18.2408 -4.2140 -16.8225
# 3 44.2412 51.1716 150.2457 18.4585 -8.7560 -7.4693
# 4 1.6295 18.2408 18.4585 47.8016 1.9139 -4.5173
# 5 -14.3468 -4.2140 -8.7560 1.9139 31.8474 -0.2768
# 6 4.3343 -16.8225 -7.4693 -4.5173 -0.2768 34.4441
#
#
#
# Elastic Compliance Matrix: (Units=1/GPa)
#
#
# Indices 1 2 3 4 5 6 
#
# 1 0.011069 -0.004346 -0.001932 0.001527 0.003756 -0.003704
# 2 -0.004346 0.022719 -0.005289 -0.005556 0.000013 0.009767
# 3 -0.001932 -0.005289 0.009256 -0.001583 0.001065 -0.000532
# 4 0.001527 -0.005556 -0.001583 0.023660 -0.001906 -0.000161
# 5 0.003756 0.000013 0.001065 -0.001906 0.033499 -0.000216
# 6 -0.003704 0.009767 -0.000532 -0.000161 -0.000216 0.034131
#
#
# Mechanical properties :
#
#
# Convention : Reuss Voigt Hill
#
# Bulk Modulus (GPa) = 50.22683 65.91401 58.07042
# Shear Modulus (GPa) = 30.46828 37.06347 33.76588
#
# Velocity S-wave (km/s) = 3.43240 3.78571 3.61337
# Velocity P-wave (km/s) = 5.92706 6.67804 6.31372
#
# Compressibility (1/GPa) = 0.01990968
#
# Stress axis : x y z
#
# Youngs Moduli (GPa) = 90.33946 44.01696 108.03681
#
# Poissons Ratio (x) = 0.19131 0.20873
# Poissons Ratio (y) = 0.39264 0.57139
# Poissons Ratio (z) = 0.17454 0.23280
#
# Static dielectric constant tensor:
#      x y z
#    x 4.759870 0.205470 -0.179090 
#    y 0.205470 4.643550 0.599500 
#    z -0.179090 0.599500 5.101970 
# 
# 
# High freq. dielectric constant tensor:
#      x y z
#    x 2.038800 0.015140 -0.012440 
#    y 0.015140 2.022660 0.027400 
#    z -0.012440 0.027400 2.061170 
# 
# From -- ./inp_files/432297.got.cif
#   From: 2010.06.25/outbox.cif.g09.slc.cpg/sg2_217_cif.got.tgz:432297.got - 2010.06.27 13:26:56.
