data_PCOD8016174
_publ_section_title
;
Structure prediction by ZEFSAII (Michael W. Deem and Ramdas Pophale) SiO2 
 PCOD8016174
Probable space group: P -1
;
_chemical_formula_sum "Si O2"
_cell_formula_units_Z 16
_cell_length_a 18.395488
_cell_length_b 11.626378
_cell_length_c 8.798169
_cell_angle_alpha 139.497221
_cell_angle_beta 38.519370
_cell_angle_gamma 139.798700
_cell_volume 691.614821
_symmetry_space_group_name_H-M "P -1"
_symmetry_group_IT_number 2
_symmetry_cell_setting 'triclinic'
loop_
_space_group_symop_operation_xyz
x,y,z
-x,-y,-z
loop_
_atom_site_type_symbol
_atom_site_label
_atom_site_fract_x
_atom_site_fract_y
_atom_site_fract_z
Si Si1 0.171711 0.562549 0.370911
Si Si2 0.057009 0.380036 0.082700
Si Si3 0.624658 0.363165 0.636703
Si Si4 0.092226 0.930856 0.190102
Si Si5 0.677104 0.116991 0.755625
Si Si6 0.371087 0.244794 0.083820
Si Si7 0.467190 0.277017 0.285015
Si Si8 0.792537 0.296629 0.051215
O O1 0.143087 0.408347 0.122509
O O2 0.275575 0.544912 0.295760
O O3 0.218489 0.783962 0.448057
O O4 0.039682 0.515611 0.628620
O O5 0.147655 0.485178 0.895632
O O6 0.977383 0.153209 0.942266
O O7 0.606143 0.534870 0.754942
O O8 0.677696 0.258469 0.321041
O O9 0.486383 0.211711 0.775869
O O10 0.233644 0.097517 0.096230
O O11 0.099824 0.749942 0.085929
O O12 0.000000 0.000000 0.500000
O O13 0.603065 0.881013 0.622411
O O14 0.592934 0.243360 0.006727
O O15 0.738215 0.145540 0.851099
O O16 0.375250 0.216992 0.229074
O O17 0.500000 0.500000 0.500000
#
# Coordination Sequence:
#
# PCOD8016174 Si02
#       8
#     2   2   2   2   2   2   2   2
#     4  10  21  43  72 100 137 176 236 290 346 425
#     4  10  23  43  71  99 131 186 233 282 351 415
#     4  11  23  44  72 102 139 184 229 293 359 412
#     4  12  25  42  66 101 139 181 236 285 339 421
#     4  10  22  43  68 101 138 182 234 285 351 422
#     4  11  25  44  65 107 142 176 232 297 349 419
#     4  11  22  42  68  99 141 182 232 287 353 422
#     4  11  22  43  73  98 129 190 237 281 342 430
#
# _framework density 23.134263000000001
#
# number of rings (size 3 to 8) (size 9 to 14) (size 15 to 20)
#    0.000    1.250    3.750    1.875    1.750    1.500 
#    9.000    0.625    0.000    0.000    0.000    0.000 
#    0.000    0.000    0.000    0.000    0.000    0.000 
#
# Total GULP energy -198308.355327 kJ/mol
# GULP energy per Si atom -12394.272208 kJ/mol
# Density = 2.308161 g / cm^3
# Si number density = 23.134263 Si / 1000 Ang^3
#
#
#
# Elastic Constant Matrix: (Units=GPa)
#
#
# Indices 1 2 3 4 5 6 
#
# 1 52.7707 16.1189 12.7983 -16.3246 -3.5527 -2.9941
# 2 16.1189 105.0566 27.6973 -4.3608 1.8508 9.9940
# 3 12.7983 27.6973 90.0718 -12.0800 -5.9725 -3.3798
# 4 -16.3246 -4.3608 -12.0800 36.1707 0.9861 -5.7260
# 5 -3.5527 1.8508 -5.9725 0.9861 27.7086 -2.4539
# 6 -2.9941 9.9940 -3.3798 -5.7260 -2.4539 35.5795
#
#
#
# Elastic Compliance Matrix: (Units=1/GPa)
#
#
# Indices 1 2 3 4 5 6 
#
# 1 0.024075 -0.003663 -0.000414 0.010989 0.003295 0.005011
# 2 -0.003663 0.011392 -0.003581 -0.002101 -0.002313 -0.004346
# 3 -0.000414 -0.003581 0.013148 0.004179 0.003147 0.003109
# 4 0.010989 -0.002101 0.004179 0.034910 0.001886 0.007660
# 5 0.003295 -0.002313 0.003147 0.001886 0.037643 0.004126
# 6 0.005011 -0.004346 0.003109 0.007660 0.004126 0.031561
#
#
# Mechanical properties :
#
#
# Convention : Reuss Voigt Hill
#
# Bulk Modulus (GPa) = 30.03118 40.12534 35.07826
# Shear Modulus (GPa) = 27.91045 32.64406 30.27725
#
# Velocity S-wave (km/s) = 3.47717 3.76050 3.62161
# Velocity P-wave (km/s) = 5.39726 6.01974 5.71698
#
# Compressibility (1/GPa) = 0.03329873
#
# Stress axis : x y z
#
# Youngs Moduli (GPa) = 41.53698 87.78317 76.05767
#
# Poissons Ratio (x) = 0.32158 0.03149
# Poissons Ratio (y) = 0.15216 0.27233
# Poissons Ratio (z) = 0.01720 0.31432
#
# Static dielectric constant tensor:
#      x y z
#    x 4.381990 0.081830 0.017380 
#    y 0.081830 4.347320 -0.231150 
#    z 0.017380 -0.231150 3.980960 
# 
# 
# High freq. dielectric constant tensor:
#      x y z
#    x 1.921720 0.011400 0.003720 
#    y 0.011400 1.918980 -0.018190 
#    z 0.003720 -0.018190 1.891450 
# 
# From -- ./inp_files/333871.got.cif
#   From: 2010.06.25/outbox.cif.g09.slc.cpg/sg2_167_cif.got.tgz:333871.got - 2010.06.27 13:26:56.
