data_PCOD8016576
_publ_section_title
;
Structure prediction by ZEFSAII (Michael W. Deem and Ramdas Pophale) SiO2 
 PCOD8016576
Probable space group: P -1
;
_chemical_formula_sum "Si O2"
_cell_formula_units_Z 16
_cell_length_a 11.967472
_cell_length_b 14.921172
_cell_length_c 15.270257
_cell_angle_alpha 139.874822
_cell_angle_beta 150.864601
_cell_angle_gamma 59.836219
_cell_volume 727.035766
_symmetry_space_group_name_H-M "P -1"
_symmetry_group_IT_number 2
_symmetry_cell_setting 'triclinic'
loop_
_space_group_symop_operation_xyz
x,y,z
-x,-y,-z
loop_
_atom_site_type_symbol
_atom_site_label
_atom_site_fract_x
_atom_site_fract_y
_atom_site_fract_z
Si Si1 0.456413 0.318460 0.421275
Si Si2 0.107770 0.472939 0.252970
Si Si3 0.536474 0.169750 0.669234
Si Si4 0.288515 0.780937 0.982166
Si Si5 0.306091 0.298888 0.492382
Si Si6 0.117271 0.777344 0.555558
Si Si7 0.399715 0.008816 0.075816
Si Si8 0.524610 0.581272 0.982771
O O1 0.283987 0.403120 0.358095
O O2 0.762162 0.439403 0.685677
O O3 0.460245 0.288918 0.505214
O O4 0.324538 0.145357 0.149157
O O5 0.122991 0.609444 0.432633
O O6 0.803095 0.322460 0.921129
O O7 0.279154 0.163133 0.442311
O O8 0.500000 0.000000 0.500000
O O9 0.539195 0.184485 0.785844
O O10 0.299502 0.626159 0.839796
O O11 0.985714 0.734890 0.758500
O O12 0.440376 0.937028 0.139703
O O13 0.495252 0.468383 0.797482
O O14 0.322891 0.910011 0.726904
O O15 0.824552 0.739363 0.298928
O O16 0.172551 0.855226 0.749109
O O17 0.500000 0.500000 0.000000
#
# Coordination Sequence:
#
# PCOD8016576 Si02
#       8
#     2   2   2   2   2   2   2   2
#     4  10  23  41  71 102 135 184 225 279 350 409
#     4  10  21  45  68 100 138 175 233 278 341 411
#     4  12  26  43  68 101 139 179 226 287 341 417
#     4  12  26  43  67  99 139 180 235 282 353 403
#     4  12  25  44  70 102 139 181 228 288 343 414
#     4  10  22  46  71  99 140 180 236 282 338 412
#     4  10  24  43  70 103 139 184 226 287 343 409
#     4  12  24  44  70 101 133 182 235 288 340 413
#
# _framework density 22.007171
#
# number of rings (size 3 to 8) (size 9 to 14) (size 15 to 20)
#    0.000    1.000    3.750    1.875    3.500    2.000 
#    2.250    0.000    0.000    0.000    0.000    0.000 
#    0.000    0.000    0.000    0.000    0.000    0.000 
#
# Total GULP energy -198311.246621 kJ/mol
# GULP energy per Si atom -12394.452914 kJ/mol
# Density = 2.195708 g / cm^3
# Si number density = 22.007171 Si / 1000 Ang^3
#
#
#
# Elastic Constant Matrix: (Units=GPa)
#
#
# Indices 1 2 3 4 5 6 
#
# 1 125.1666 48.3434 46.2426 5.8642 -17.3908 1.2003
# 2 48.3434 132.9755 40.2470 8.3022 -5.3951 -6.5132
# 3 46.2426 40.2470 81.0990 16.3650 -12.9635 -6.3886
# 4 5.8642 8.3022 16.3650 36.3385 -1.0143 -5.5207
# 5 -17.3908 -5.3951 -12.9635 -1.0143 30.1978 3.4307
# 6 1.2003 -6.5132 -6.3886 -5.5207 3.4307 37.0722
#
#
#
# Elastic Compliance Matrix: (Units=1/GPa)
#
#
# Indices 1 2 3 4 5 6 
#
# 1 0.011355 -0.002649 -0.004783 0.000751 0.004258 -0.001940
# 2 -0.002649 0.009496 -0.003304 -0.000096 -0.001398 0.001300
# 3 -0.004783 -0.003304 0.018843 -0.006620 0.004359 0.001432
# 4 0.000751 -0.000096 -0.006620 0.030895 -0.001796 0.003585
# 5 0.004258 -0.001398 0.004359 -0.001796 0.037511 -0.003371
# 6 -0.001940 0.001300 0.001432 0.003585 -0.003371 0.028358
#
#
# Mechanical properties :
#
#
# Convention : Reuss Voigt Hill
#
# Bulk Modulus (GPa) = 54.88211 67.65635 61.26923
# Shear Modulus (GPa) = 30.48658 34.34889 32.41773
#
# Velocity S-wave (km/s) = 3.72600 3.95499 3.84220
# Velocity P-wave (km/s) = 6.59570 7.18787 6.89814
#
# Compressibility (1/GPa) = 0.01822087
#
# Stress axis : x y z
#
# Youngs Moduli (GPa) = 88.06752 105.30471 53.06953
#
# Poissons Ratio (x) = 0.27900 0.25386
# Poissons Ratio (y) = 0.23333 0.17533
# Poissons Ratio (z) = 0.42127 0.34791
#
# Static dielectric constant tensor:
#      x y z
#    x 4.154490 -0.218420 0.342410 
#    y -0.218420 4.481580 -0.295830 
#    z 0.342410 -0.295830 4.273900 
# 
# 
# High freq. dielectric constant tensor:
#      x y z
#    x 1.881050 -0.009020 -0.001030 
#    y -0.009020 1.872580 0.012180 
#    z -0.001030 0.012180 1.853860 
# 
# From -- ./inp_files/455777.got.cif
#   From: 2010.06.25/outbox.cif.g09.slc.cpg/sg2_228_cif.got.tgz:455777.got - 2010.06.27 13:26:56.
