data_PCOD8016735
_publ_section_title
;
Structure prediction by ZEFSAII (Michael W. Deem and Ramdas Pophale) SiO2 
 PCOD8016735
Probable space group: P -1
;
_chemical_formula_sum "Si O2"
_cell_formula_units_Z 16
_cell_length_a 8.827650
_cell_length_b 19.947645
_cell_length_c 9.388584
_cell_angle_alpha 65.674095
_cell_angle_beta 63.122306
_cell_angle_gamma 30.204368
_cell_volume 741.045699
_symmetry_space_group_name_H-M "P -1"
_symmetry_group_IT_number 2
_symmetry_cell_setting 'triclinic'
loop_
_space_group_symop_operation_xyz
x,y,z
-x,-y,-z
loop_
_atom_site_type_symbol
_atom_site_label
_atom_site_fract_x
_atom_site_fract_y
_atom_site_fract_z
Si Si1 0.248639 0.559081 0.654381
Si Si2 0.505910 0.309657 0.740861
Si Si3 0.147597 0.371016 0.596592
Si Si4 0.369670 0.153669 0.345421
Si Si5 0.099107 0.096818 0.487209
Si Si6 0.667170 0.224428 0.311331
Si Si7 0.468801 0.465412 0.188236
Si Si8 0.704170 0.145551 0.058682
O O1 0.500000 0.500000 0.500000
O O2 0.281039 0.459687 0.731839
O O3 0.285566 0.583962 0.770278
O O4 0.927270 0.697294 0.594815
O O5 0.324031 0.315305 0.720888
O O6 0.821933 0.217432 0.607453
O O7 0.579702 0.252792 0.914252
O O8 0.405041 0.264913 0.456012
O O9 0.000000 0.500000 0.500000
O O10 0.878578 0.406901 0.704739
O O11 0.294289 0.099423 0.371726
O O12 0.454564 0.170917 0.155491
O O13 0.662698 0.048422 0.420670
O O14 0.968594 0.112468 0.381641
O O15 0.553590 0.349554 0.233040
O O16 0.769037 0.158442 0.172889
O O17 0.500000 0.500000 0.000000
O O18 0.000000 0.000000 0.000000
#
# Coordination Sequence:
#
# PCOD8016735 Si02
#       8
#     2   2   2   2   2   2   2   2
#     4  12  23  40  70 102 131 173 226 271 329 400
#     4  11  23  43  67  98 136 172 218 284 331 397
#     4   9  21  40  64  92 131 175 217 262 334 397
#     4  11  24  41  73  96 132 176 226 267 340 396
#     4  10  21  47  70  95 131 178 228 270 325 411
#     4  10  22  44  67  93 132 179 223 278 325 404
#     4  11  23  40  60 101 140 170 211 278 337 395
#     4  12  27  45  65  98 138 176 226 282 343 394
#
# _framework density 21.59111
#
# number of rings (size 3 to 8) (size 9 to 14) (size 15 to 20)
#    0.000    1.250    3.750    2.250    7.000    1.000 
#    0.000    0.625    0.000    0.000    0.000    0.000 
#    0.000    0.000    0.000    0.000    0.000    0.000 
#
# Total GULP energy -198314.573587 kJ/mol
# GULP energy per Si atom -12394.660849 kJ/mol
# Density = 2.154197 g / cm^3
# Si number density = 21.591110 Si / 1000 Ang^3
#
#
#
# Elastic Constant Matrix: (Units=GPa)
#
#
# Indices 1 2 3 4 5 6 
#
# 1 91.2001 32.0540 39.8080 1.5113 16.2587 -9.6199
# 2 32.0540 130.1768 27.1601 -2.0386 13.9532 -3.0039
# 3 39.8080 27.1601 113.6554 1.2831 14.7948 -0.8335
# 4 1.5113 -2.0386 1.2831 33.1464 -1.0521 0.7007
# 5 16.2587 13.9532 14.7948 -1.0521 41.1493 0.1882
# 6 -9.6199 -3.0039 -0.8335 0.7007 0.1882 36.6215
#
#
#
# Elastic Compliance Matrix: (Units=1/GPa)
#
#
# Indices 1 2 3 4 5 6 
#
# 1 0.014566 -0.002289 -0.004056 -0.000837 -0.003558 0.003580
# 2 -0.002289 0.008653 -0.001060 0.000624 -0.001633 0.000081
# 3 -0.004056 -0.001060 0.010716 -0.000336 -0.001896 -0.000892
# 4 -0.000837 0.000624 -0.000336 0.030307 0.001018 -0.000761
# 5 -0.003558 -0.001633 -0.001896 0.001018 0.026975 -0.001270
# 6 0.003580 0.000081 -0.000892 -0.000761 -0.001270 0.028254
#
#
# Mechanical properties :
#
#
# Convention : Reuss Voigt Hill
#
# Bulk Modulus (GPa) = 52.28641 59.23073 55.75857
# Shear Modulus (GPa) = 35.54749 37.91746 36.73247
#
# Velocity S-wave (km/s) = 4.06198 4.19520 4.12913
# Velocity P-wave (km/s) = 6.80212 7.13854 6.97236
#
# Compressibility (1/GPa) = 0.01912543
#
# Stress axis : x y z
#
# Youngs Moduli (GPa) = 68.65424 115.56134 93.31556
#
# Poissons Ratio (x) = 0.26458 0.37846
# Poissons Ratio (y) = 0.15718 0.09890
# Poissons Ratio (z) = 0.27844 0.12248
#
# Static dielectric constant tensor:
#      x y z
#    x 8.909380 -4.780050 1.602540 
#    y -4.780050 7.956420 -1.582500 
#    z 1.602540 -1.582500 4.649110 
# 
# 
# High freq. dielectric constant tensor:
#      x y z
#    x 1.851350 -0.011860 -0.002820 
#    y -0.011860 1.852850 -0.006490 
#    z -0.002820 -0.006490 1.846870 
# 
# From -- ./inp_files/223394.got.cif
#   From: 2010.06.25/outbox.cif.g09.slc.cpg/sg2_112_cif.got.tgz:223394.got - 2010.06.27 13:26:56.
