data_PCOD8016407
_publ_section_title
;
Structure prediction by ZEFSAII (Michael W. Deem and Ramdas Pophale) SiO2 
 PCOD8016407
Probable space group: P -1
;
_chemical_formula_sum "Si O2"
_cell_formula_units_Z 16
_cell_length_a 7.151853
_cell_length_b 8.680346
_cell_length_c 12.997838
_cell_angle_alpha 85.054237
_cell_angle_beta 80.080957
_cell_angle_gamma 59.981892
_cell_volume 688.235875
_symmetry_space_group_name_H-M "P -1"
_symmetry_group_IT_number 2
_symmetry_cell_setting 'triclinic'
loop_
_space_group_symop_operation_xyz
x,y,z
-x,-y,-z
loop_
_atom_site_type_symbol
_atom_site_label
_atom_site_fract_x
_atom_site_fract_y
_atom_site_fract_z
Si Si1 0.756686 0.234295 0.625929
Si Si2 0.421230 0.011494 0.394394
Si Si3 0.669324 0.100976 0.216960
Si Si4 0.656446 0.836438 0.925150
Si Si5 0.013869 0.647889 0.560141
Si Si6 0.567418 0.603223 0.067557
Si Si7 0.343755 0.564927 0.714967
Si Si8 0.136166 0.943774 0.163237
O O1 0.918882 0.236529 0.525726
O O2 0.592860 0.436286 0.664231
O O3 0.888462 0.102392 0.714053
O O4 0.615490 0.155100 0.596604
O O5 0.613764 0.972186 0.297243
O O6 0.218462 0.208257 0.378851
O O7 0.500000 0.000000 0.500000
O O8 0.477387 0.198948 0.148136
O O9 0.688514 0.239003 0.283994
O O10 0.898607 0.991111 0.138072
O O11 0.839804 0.877322 0.857567
O O12 0.737630 0.659788 0.998294
O O13 0.500000 0.000000 0.000000
O O14 0.178644 0.559636 0.646130
O O15 0.000000 0.500000 0.500000
O O16 0.688265 0.497271 0.165126
O O17 0.336633 0.779243 0.101016
O O18 0.500000 0.500000 0.000000
#
# Coordination Sequence:
#
# PCOD8016407 Si02
#       8
#     2   2   2   2   2   2   2   2
#     4  11  22  44  65  99 138 171 231 281 334 416
#     4  12  24  41  69  99 135 179 227 280 341 408
#     4  12  23  43  69  99 138 179 226 281 343 408
#     4  10  22  43  69  94 136 173 230 281 340 396
#     4  12  25  44  68 102 141 181 225 281 346 407
#     4  10  21  44  69  98 135 176 228 287 333 404
#     4  11  24  41  69  98 138 182 227 279 344 406
#     4  10  23  42  71  99 133 179 228 276 348 405
#
# _framework density 23.247843
#
# number of rings (size 3 to 8) (size 9 to 14) (size 15 to 20)
#    0.000    1.000    2.500    4.500    0.000    2.000 
#    0.000    1.875    2.750    0.000    0.000    0.000 
#    0.000    0.000    0.000    0.000    0.000    0.000 
#
# Total GULP energy -198315.554274 kJ/mol
# GULP energy per Si atom -12394.722142 kJ/mol
# Density = 2.319493 g / cm^3
# Si number density = 23.247843 Si / 1000 Ang^3
#
#
#
# Elastic Constant Matrix: (Units=GPa)
#
#
# Indices 1 2 3 4 5 6 
#
# 1 115.7782 30.5701 52.2685 -12.3893 -15.1216 17.4646
# 2 30.5701 79.2908 24.5493 -8.0995 -12.9808 20.9774
# 3 52.2685 24.5493 129.3576 -27.3029 -0.8599 15.4343
# 4 -12.3893 -8.0995 -27.3029 38.1203 11.2329 -1.6005
# 5 -15.1216 -12.9808 -0.8599 11.2329 41.2800 2.2693
# 6 17.4646 20.9774 15.4343 -1.6005 2.2693 42.2681
#
#
#
# Elastic Compliance Matrix: (Units=1/GPa)
#
#
# Indices 1 2 3 4 5 6 
#
# 1 0.011931 -0.002010 -0.004296 -0.000929 0.004045 -0.002616
# 2 -0.002010 0.016496 -0.001412 0.000136 0.004774 -0.007092
# 3 -0.004296 -0.001412 0.011451 0.007566 -0.003771 -0.001217
# 4 -0.000929 0.000136 0.007566 0.034118 -0.009388 -0.000650
# 5 0.004045 0.004774 -0.003771 -0.009388 0.029938 -0.004627
# 6 -0.002616 -0.007092 -0.001217 -0.000650 -0.004627 0.028927
#
#
# Mechanical properties :
#
#
# Convention : Reuss Voigt Hill
#
# Bulk Modulus (GPa) = 40.91432 59.91138 50.41285
# Shear Modulus (GPa) = 31.96008 38.80292 35.38150
#
# Velocity S-wave (km/s) = 3.71179 4.08989 3.90542
# Velocity P-wave (km/s) = 6.00060 6.93755 6.48602
#
# Compressibility (1/GPa) = 0.02444132
#
# Stress axis : x y z
#
# Youngs Moduli (GPa) = 83.81376 60.62220 87.32562
#
# Poissons Ratio (x) = 0.12187 0.37519
# Poissons Ratio (y) = 0.16850 0.12327
# Poissons Ratio (z) = 0.36010 0.08558
#
# Static dielectric constant tensor:
#      x y z
#    x 4.252400 0.203440 -0.082800 
#    y 0.203440 3.694540 -0.079130 
#    z -0.082800 -0.079130 4.552160 
# 
# 
# High freq. dielectric constant tensor:
#      x y z
#    x 1.914220 0.012320 -0.002060 
#    y 0.012320 1.915730 -0.005410 
#    z -0.002060 -0.005410 1.936760 
# 
# From -- ./inp_files/54986.got.cif
#   From: 2010.06.25/outbox.cif.g09.slc.cpg/sg2_28_cif.got.tgz:54986.got - 2010.06.27 13:26:56.
