data_PCOD8016907
_publ_section_title
;
Structure prediction by ZEFSAII (Michael W. Deem and Ramdas Pophale) SiO2 
 PCOD8016907
Probable space group: P -1
;
_chemical_formula_sum "Si O2"
_cell_formula_units_Z 12
_cell_length_a 15.914094
_cell_length_b 9.499115
_cell_length_c 13.440218
_cell_angle_alpha 135.134843
_cell_angle_beta 26.058564
_cell_angle_gamma 124.178317
_cell_volume 610.934151
_symmetry_space_group_name_H-M "P -1"
_symmetry_group_IT_number 2
_symmetry_cell_setting 'triclinic'
loop_
_space_group_symop_operation_xyz
x,y,z
-x,-y,-z
loop_
_atom_site_type_symbol
_atom_site_label
_atom_site_fract_x
_atom_site_fract_y
_atom_site_fract_z
Si Si1 0.168110 0.112575 0.275147
Si Si2 0.864647 0.128238 0.460717
Si Si3 0.601014 0.685896 0.206103
Si Si4 0.743228 0.225655 0.843400
Si Si5 0.211665 0.000211 0.731868
Si Si6 0.299734 0.429197 0.170647
O O1 0.285807 0.281288 0.203913
O O2 0.083718 0.026068 0.220336
O O3 0.978048 0.221049 0.599722
O O4 0.309795 0.927864 0.094021
O O5 0.706496 0.151436 0.732465
O O6 0.800102 0.001527 0.376725
O O7 0.874143 0.360927 0.533851
O O8 0.370518 0.801980 0.505112
O O9 0.721381 0.795166 0.208350
O O10 0.613964 0.455253 0.116030
O O11 0.701420 0.686201 0.991231
O O12 0.000000 0.000000 0.000000
O O13 0.500000 0.500000 0.000000
#
# Coordination Sequence:
#
# PCOD8016907 Si02
#       6
#     2   2   2   2   2   2
#     4   9  18  34  61  88 114 144 185 242 284 339
#     4   9  18  34  57  84 107 148 191 232 282 328
#     4  10  22  37  56  87 117 144 193 243 276 341
#     4   8  19  36  61  83 115 148 188 234 290 329
#     4  11  22  35  58  85 114 153 194 236 285 331
#     4  11  19  32  60  87 110 143 190 239 286 326
#
# _framework density 19.642052
#
# number of rings (size 3 to 8) (size 9 to 14) (size 15 to 20)
#    1.000    1.333    1.667    1.500    2.333    0.000 
#    0.000    4.167    3.667    9.000    0.000    0.000 
#    0.000    0.000    0.000    0.000    0.000    0.000 
#
# Total GULP energy -148665.331120 kJ/mol
# GULP energy per Si atom -12388.777593 kJ/mol
# Density = 1.959735 g / cm^3
# Si number density = 19.642052 Si / 1000 Ang^3
#
#
#
# Elastic Constant Matrix: (Units=GPa)
#
#
# Indices 1 2 3 4 5 6 
#
# 1 135.5217 69.6397 43.6124 14.5150 16.9131 -0.5966
# 2 69.6397 118.1884 33.3881 6.9826 5.4359 -34.2144
# 3 43.6124 33.3881 78.6889 10.8794 3.3541 -2.6504
# 4 14.5150 6.9826 10.8794 22.7305 6.4903 -7.2941
# 5 16.9131 5.4359 3.3541 6.4903 26.9665 8.7540
# 6 -0.5966 -34.2144 -2.6504 -7.2941 8.7540 37.7409
#
#
#
# Elastic Compliance Matrix: (Units=1/GPa)
#
#
# Indices 1 2 3 4 5 6 
#
# 1 0.014533 -0.010210 -0.002953 -0.007631 -0.001489 -0.010363
# 2 -0.010210 0.022275 -0.004260 0.011698 -0.008124 0.023879
# 3 -0.002953 -0.004260 0.016870 -0.007729 0.004155 -0.005181
# 4 -0.007631 0.011698 -0.007729 0.063546 -0.020676 0.027019
# 5 -0.001489 -0.008124 0.004155 -0.020676 0.051601 -0.023062
# 6 -0.010363 0.023879 -0.005181 0.027019 -0.023062 0.058187
#
#
# Mechanical properties :
#
#
# Convention : Reuss Voigt Hill
#
# Bulk Modulus (GPa) = 53.09945 69.51994 61.30969
# Shear Modulus (GPa) = 18.64733 29.87149 24.25941
#
# Velocity S-wave (km/s) = 3.08451 3.90397 3.51818
# Velocity P-wave (km/s) = 6.30697 7.46937 6.91265
#
# Compressibility (1/GPa) = 0.01883259
#
# Stress axis : x y z
#
# Youngs Moduli (GPa) = 68.80810 44.89263 59.27827
#
# Poissons Ratio (x) = 0.45833 0.17507
# Poissons Ratio (y) = 0.70250 0.25251
# Poissons Ratio (z) = 0.20322 0.19123
#
# Static dielectric constant tensor:
#      x y z
#    x 3.761210 -0.113260 -0.083920 
#    y -0.113260 3.312110 0.125860 
#    z -0.083920 0.125860 3.581450 
# 
# 
# High freq. dielectric constant tensor:
#      x y z
#    x 1.768850 -0.001890 -0.015850 
#    y -0.001890 1.738580 0.001460 
#    z -0.015850 0.001460 1.744040 
# 
# From -- ./inp_files/536819.got.cif
#   From: 2010.06.25/outbox.cif.g09.slc.cpg/sg2_269_cif.got.tgz:536819.got - 2010.06.27 13:26:56.
