data_PCOD8016058
_publ_section_title
;
Structure prediction by ZEFSAII (Michael W. Deem and Ramdas Pophale) SiO2 
 PCOD8016058
Probable space group: P -1
;
_chemical_formula_sum "Si O2"
_cell_formula_units_Z 16
_cell_length_a 10.277615
_cell_length_b 9.859464
_cell_length_c 13.859771
_cell_angle_alpha 67.093469
_cell_angle_beta 30.799536
_cell_angle_gamma 66.725334
_cell_volume 656.884338
_symmetry_space_group_name_H-M "P -1"
_symmetry_group_IT_number 2
_symmetry_cell_setting 'triclinic'
loop_
_space_group_symop_operation_xyz
x,y,z
-x,-y,-z
loop_
_atom_site_type_symbol
_atom_site_label
_atom_site_fract_x
_atom_site_fract_y
_atom_site_fract_z
Si Si1 0.131822 0.909817 0.232754
Si Si2 0.311566 0.170075 0.131856
Si Si3 0.680355 0.958749 0.631803
Si Si4 0.734756 0.459084 0.224125
Si Si5 0.448945 0.714174 0.448721
Si Si6 0.235971 0.449560 0.213081
Si Si7 0.429688 0.704868 0.804519
Si Si8 0.042146 0.275480 0.762177
O O1 0.989168 0.876214 0.233237
O O2 0.959458 0.878539 0.442958
O O3 0.173270 0.085522 0.159631
O O4 0.404482 0.804972 0.092793
O O5 0.351801 0.057421 0.229054
O O6 0.159238 0.326590 0.218579
O O7 0.463163 0.880479 0.734238
O O8 0.671705 0.130259 0.561063
O O9 0.551810 0.611053 0.321773
O O10 0.762554 0.362466 0.332835
O O11 0.589756 0.362384 0.269525
O O12 0.000000 0.500000 0.000000
O O13 0.679733 0.738468 0.366480
O O14 0.305026 0.373460 0.293599
O O15 0.006423 0.585844 0.321625
O O16 0.500000 0.500000 0.000000
O O17 0.168970 0.685902 0.031389
#
# Coordination Sequence:
#
# PCOD8016058 Si02
#       8
#     2   2   2   2   2   2   2   2
#     4  11  22  39  67  95 133 176 213 274 331 383
#     4  10  22  42  65 100 132 170 221 274 331 388
#     4  11  24  45  64 100 139 173 223 266 329 400
#     4  11  24  47  67  94 133 173 224 273 327 391
#     4  11  27  44  68  98 134 176 222 272 324 400
#     4   9  18  39  68  93 129 168 215 276 323 386
#     4  10  21  43  69  96 131 172 219 275 331 390
#     4  11  21  43  67  97 132 175 222 268 329 393
#
# _framework density 24.357408
#
# number of rings (size 3 to 8) (size 9 to 14) (size 15 to 20)
#    0.000    1.500    5.000    1.125    0.000    6.500 
#    2.250    5.625    0.000    0.000    0.000    0.000 
#    0.000    0.000    0.000    0.000    0.000    0.000 
#
# Total GULP energy -198271.400545 kJ/mol
# GULP energy per Si atom -12391.962534 kJ/mol
# Density = 2.430197 g / cm^3
# Si number density = 24.357408 Si / 1000 Ang^3
#
#
#
# Elastic Constant Matrix: (Units=GPa)
#
#
# Indices 1 2 3 4 5 6 
#
# 1 57.3962 48.0767 11.9628 11.9645 7.5070 19.2638
# 2 48.0767 125.9227 31.3462 -8.9073 20.9538 18.8664
# 3 11.9628 31.3462 124.3752 3.1830 12.7586 -11.3395
# 4 11.9645 -8.9073 3.1830 31.0645 6.0835 5.0199
# 5 7.5070 20.9538 12.7586 6.0835 23.8087 1.0403
# 6 19.2638 18.8664 -11.3395 5.0199 1.0403 50.0796
#
#
#
# Elastic Compliance Matrix: (Units=1/GPa)
#
#
# Indices 1 2 3 4 5 6 
#
# 1 0.034675 -0.014601 -0.000493 -0.017846 0.007017 -0.006306
# 2 -0.014601 0.017665 -0.002300 0.013934 -0.013154 -0.002682
# 3 -0.000493 -0.002300 0.009273 -0.001460 -0.002564 0.003355
# 4 -0.017846 0.013934 -0.001460 0.047188 -0.017777 -0.003076
# 5 0.007017 -0.013154 -0.002564 -0.017777 0.057182 0.002270
# 6 -0.006306 -0.002682 0.003355 -0.003076 0.002270 0.024425
#
#
# Mechanical properties :
#
#
# Convention : Reuss Voigt Hill
#
# Bulk Modulus (GPa) = 37.27836 54.49617 45.88727
# Shear Modulus (GPa) = 21.35496 35.41112 28.38304
#
# Velocity S-wave (km/s) = 2.96418 3.81703 3.41731
# Velocity P-wave (km/s) = 5.20126 6.46903 5.86948
#
# Compressibility (1/GPa) = 0.02682521
#
# Stress axis : x y z
#
# Youngs Moduli (GPa) = 28.83949 56.60992 107.83478
#
# Poissons Ratio (x) = 0.82657 0.05319
# Poissons Ratio (y) = 0.42109 0.24797
# Poissons Ratio (z) = 0.01422 0.13017
#
# Static dielectric constant tensor:
#      x y z
#    x 4.262310 0.219640 -0.006130 
#    y 0.219640 4.704220 -0.159930 
#    z -0.006130 -0.159930 4.454750 
# 
# 
# High freq. dielectric constant tensor:
#      x y z
#    x 1.943880 0.038440 -0.006730 
#    y 0.038440 1.969310 -0.005230 
#    z -0.006730 -0.005230 1.975360 
# 
# From -- ./inp_files/515282.got.cif
#   From: 2010.06.25/outbox.cif.g09.slc.cpg/sg2_258_cif.got.tgz:515282.got - 2010.06.27 13:26:56.
