data_PCOD8016812
_publ_section_title
;
Structure prediction by ZEFSAII (Michael W. Deem and Ramdas Pophale) SiO2 
 PCOD8016812
Probable space group: P -1
;
_chemical_formula_sum "Si O2"
_cell_formula_units_Z 16
_cell_length_a 26.590364
_cell_length_b 10.712750
_cell_length_c 19.211353
_cell_angle_alpha 34.389216
_cell_angle_beta 23.869765
_cell_angle_gamma 21.791755
_cell_volume 811.621829
_symmetry_space_group_name_H-M "P -1"
_symmetry_group_IT_number 2
_symmetry_cell_setting 'triclinic'
loop_
_space_group_symop_operation_xyz
x,y,z
-x,-y,-z
loop_
_atom_site_type_symbol
_atom_site_label
_atom_site_fract_x
_atom_site_fract_y
_atom_site_fract_z
Si Si1 0.180427 0.702100 0.693143
Si Si2 0.838676 0.854951 0.223096
Si Si3 0.498430 0.264257 0.384561
Si Si4 0.886966 0.084277 0.768071
Si Si5 0.283012 0.872862 0.602837
Si Si6 0.769900 0.442847 0.523059
Si Si7 0.657446 0.707519 0.688658
Si Si8 0.229574 0.251341 0.937712
O O1 0.365756 0.522222 0.497823
O O2 0.157553 0.894310 0.699580
O O3 0.211444 0.407787 0.815838
O O4 0.993623 0.979242 0.754198
O O5 0.752842 0.728994 0.404103
O O6 0.705027 0.103312 0.210855
O O7 0.804098 0.049130 0.245848
O O8 0.061137 0.562023 0.058724
O O9 0.401180 0.462706 0.342663
O O10 0.500000 0.000000 0.500000
O O11 0.726166 0.490214 0.772004
O O12 0.030008 0.904527 0.603489
O O13 0.784489 0.987957 0.948815
O O14 0.500000 0.500000 0.500000
O O15 0.259230 0.158472 0.478098
O O16 0.743648 0.439205 0.640095
O O17 0.428178 0.033843 0.824944
#
# Coordination Sequence:
#
# PCOD8016812 Si02
#       8
#     2   2   2   2   2   2   2   2
#     4  11  21  36  57  82 110 145 183 226 269 319
#     4   9  18  31  52  82 108 138 181 225 269 320
#     4   9  15  29  51  79 109 135 178 230 268 311
#     4  10  22  36  56  85 113 141 181 227 279 323
#     4  11  20  38  59  80 106 145 191 225 262 320
#     4   8  17  32  54  78 105 142 182 225 271 317
#     4  11  21  37  58  80 113 149 179 224 272 326
#     4  11  21  35  55  83 113 144 178 224 277 330
#
# _framework density 19.713615999999998
#
# number of rings (size 3 to 8) (size 9 to 14) (size 15 to 20)
#    0.000    2.000    2.500    3.375    0.000    2.000 
#    0.000    0.000    0.000    0.750    0.000    0.000 
#    0.000    0.000    0.000    0.000    0.000    0.000 
#
# Total GULP energy -198283.179229 kJ/mol
# GULP energy per Si atom -12392.698702 kJ/mol
# Density = 1.966875 g / cm^3
# Si number density = 19.713616 Si / 1000 Ang^3
#
#
#
# Elastic Constant Matrix: (Units=GPa)
#
#
# Indices 1 2 3 4 5 6 
#
# 1 93.5559 46.3261 20.9009 -2.6948 -5.6941 -7.5100
# 2 46.3261 79.6730 24.7450 -8.7902 0.7400 -23.8765
# 3 20.9009 24.7450 51.1778 0.3803 -7.4434 -9.2856
# 4 -2.6948 -8.7902 0.3803 24.3390 0.7221 1.0383
# 5 -5.6941 0.7400 -7.4434 0.7221 19.8247 2.6561
# 6 -7.5100 -23.8765 -9.2856 1.0383 2.6561 36.7200
#
#
#
# Elastic Compliance Matrix: (Units=1/GPa)
#
#
# Indices 1 2 3 4 5 6 
#
# 1 0.016095 -0.010380 -0.001561 -0.001915 0.005052 -0.004163
# 2 -0.010380 0.025708 -0.007117 0.007941 -0.008670 0.013197
# 3 -0.001561 -0.007117 0.025144 -0.003447 0.009271 0.000838
# 4 -0.001915 0.007941 -0.003447 0.043792 -0.004132 0.002961
# 5 0.005052 -0.008670 0.009271 -0.004132 0.056685 -0.006244
# 6 -0.004163 0.013197 0.000838 0.002961 -0.006244 0.035542
#
#
# Mechanical properties :
#
#
# Convention : Reuss Voigt Hill
#
# Bulk Modulus (GPa) = 34.68257 45.37229 40.02743
# Shear Modulus (GPa) = 19.94462 25.00572 22.47517
#
# Velocity S-wave (km/s) = 3.18420 3.56539 3.38018
# Velocity P-wave (km/s) = 5.58124 6.32574 5.96512
#
# Compressibility (1/GPa) = 0.02883293
#
# Stress axis : x y z
#
# Youngs Moduli (GPa) = 62.12961 38.89782 39.77016
#
# Poissons Ratio (x) = 0.40375 0.06208
# Poissons Ratio (y) = 0.64489 0.28304
# Poissons Ratio (z) = 0.09699 0.27683
#
# Static dielectric constant tensor:
#      x y z
#    x 3.927720 -0.103800 -0.073740 
#    y -0.103800 3.434720 0.154750 
#    z -0.073740 0.154750 3.419260 
# 
# 
# High freq. dielectric constant tensor:
#      x y z
#    x 1.773360 -0.009600 -0.002510 
#    y -0.009600 1.749530 0.021150 
#    z -0.002510 0.021150 1.744260 
# 
# From -- ./inp_files/260196.got.cif
#   From: 2010.06.25/outbox.cif.g09.slc.cpg/sg2_131_cif.got.tgz:260196.got - 2010.06.27 13:26:56.
