data_PCOD8016006
_publ_section_title
;
Structure prediction by ZEFSAII (Michael W. Deem and Ramdas Pophale) SiO2 
 PCOD8016006
Probable space group: P -1
;
_chemical_formula_sum "Si O2"
_cell_formula_units_Z 16
_cell_length_a 8.915369
_cell_length_b 8.842319
_cell_length_c 12.013765
_cell_angle_alpha 94.523841
_cell_angle_beta 102.506200
_cell_angle_gamma 54.297433
_cell_volume 749.482716
_symmetry_space_group_name_H-M "P -1"
_symmetry_group_IT_number 2
_symmetry_cell_setting 'triclinic'
loop_
_space_group_symop_operation_xyz
x,y,z
-x,-y,-z
loop_
_atom_site_type_symbol
_atom_site_label
_atom_site_fract_x
_atom_site_fract_y
_atom_site_fract_z
Si Si1 0.455843 0.380602 0.413174
Si Si2 0.857805 0.150346 0.395986
Si Si3 0.678755 0.419824 0.816385
Si Si4 0.215980 0.378374 0.000314
Si Si5 0.195956 0.461293 0.558383
Si Si6 0.242905 0.030403 0.058736
Si Si7 0.023485 0.989077 0.844280
Si Si8 0.601164 0.676230 0.197433
O O1 0.500000 0.500000 0.500000
O O2 0.651014 0.194900 0.388345
O O3 0.316344 0.508714 0.299686
O O4 0.337349 0.338376 0.472155
O O5 0.842117 0.339213 0.417008
O O6 0.925452 0.069424 0.278335
O O7 0.000000 0.000000 0.500000
O O8 0.480714 0.445745 0.803577
O O9 0.862562 0.209763 0.844943
O O10 0.673784 0.556617 0.911931
O O11 0.242018 0.404224 0.877277
O O12 0.291139 0.170139 0.033045
O O13 0.000000 0.500000 0.000000
O O14 0.292544 0.330699 0.674535
O O15 0.000000 0.500000 0.500000
O O16 0.427219 0.882455 0.149597
O O17 0.206824 0.942055 0.940032
O O18 0.060783 0.115723 0.117213
#
# Coordination Sequence:
#
# PCOD8016006 Si02
#       8
#     2   2   2   2   2   2   2   2
#     4  10  21  43  68  97 126 171 226 267 332 396
#     4  11  24  41  73 100 131 174 227 273 332 412
#     4  11  22  43  73  93 136 179 221 276 324 416
#     4  12  26  41  66 103 134 171 227 276 339 382
#     4  11  26  46  70  98 135 175 224 284 336 393
#     4  10  24  43  65  98 140 174 219 280 326 406
#     4  10  22  41  69  99 135 177 221 268 339 393
#     4  11  25  44  68  94 134 180 219 275 340 408
#
# _framework density 21.348058000000002
#
# number of rings (size 3 to 8) (size 9 to 14) (size 15 to 20)
#    0.000    1.250    3.750    2.250    7.000    1.000 
#    2.250    0.625    0.000    0.000    0.000    0.000 
#    0.000    0.000    0.000    0.000    0.000    0.000 
#
# Total GULP energy -198355.253303 kJ/mol
# GULP energy per Si atom -12397.203331 kJ/mol
# Density = 2.129947 g / cm^3
# Si number density = 21.348058 Si / 1000 Ang^3
#
#
#
# Elastic Constant Matrix: (Units=GPa)
#
#
# Indices 1 2 3 4 5 6 
#
# 1 132.7496 34.0566 79.5376 6.9356 -9.3772 -18.0186
# 2 34.0566 65.5778 45.5964 -8.0846 -1.1115 -6.2973
# 3 79.5376 45.5964 174.3252 -18.8208 -26.6459 -4.8549
# 4 6.9356 -8.0846 -18.8208 35.9873 -12.6285 3.6604
# 5 -9.3772 -1.1115 -26.6459 -12.6285 41.9273 1.4453
# 6 -18.0186 -6.2973 -4.8549 3.6604 1.4453 27.4744
#
#
#
# Elastic Compliance Matrix: (Units=1/GPa)
#
#
# Indices 1 2 3 4 5 6 
#
# 1 0.013820 -0.002649 -0.007107 -0.009496 -0.004656 0.008711
# 2 -0.002649 0.019820 -0.004041 0.001904 -0.002129 0.001950
# 3 -0.007107 -0.004041 0.012575 0.011021 0.009799 -0.005349
# 4 -0.009496 0.001904 0.011021 0.043323 0.018344 -0.010580
# 5 -0.004656 -0.002129 0.009799 0.018344 0.034715 -0.006080
# 6 0.008711 0.001950 -0.005349 -0.010580 -0.006080 0.043342
#
#
# Mechanical properties :
#
#
# Convention : Reuss Voigt Hill
#
# Bulk Modulus (GPa) = 53.70195 76.78154 65.24175
# Shear Modulus (GPa) = 24.82663 35.30860 30.06761
#
# Velocity S-wave (km/s) = 3.41390 4.07129 3.75700
# Velocity P-wave (km/s) = 6.38354 7.62530 7.03188
#
# Compressibility (1/GPa) = 0.01862130
#
# Stress axis : x y z
#
# Youngs Moduli (GPa) = 72.35699 50.45295 79.52409
#
# Poissons Ratio (x) = 0.13364 0.56519
# Poissons Ratio (y) = 0.19166 0.32137
# Poissons Ratio (z) = 0.51425 0.20389
#
# Static dielectric constant tensor:
#      x y z
#    x 4.258060 -0.392700 -0.443210 
#    y -0.392700 3.645560 -0.187540 
#    z -0.443210 -0.187540 4.153410 
# 
# 
# High freq. dielectric constant tensor:
#      x y z
#    x 1.844530 -0.013780 -0.010950 
#    y -0.013780 1.823300 -0.017350 
#    z -0.010950 -0.017350 1.853490 
# 
# From -- ./inp_files/245604.got.cif
#   From: 2010.06.25/outbox.cif.g09.slc.cpg/sg2_123_cif.got.tgz:245604.got - 2010.06.27 13:26:56.
