data_PCOD8016418
_publ_section_title
;
Structure prediction by ZEFSAII (Michael W. Deem and Ramdas Pophale) SiO2 
 PCOD8016418
Probable space group: P -1
;
_chemical_formula_sum "Si O2"
_cell_formula_units_Z 12
_cell_length_a 10.989022
_cell_length_b 8.981538
_cell_length_c 9.772754
_cell_angle_alpha 44.927621
_cell_angle_beta 54.834835
_cell_angle_gamma 83.800692
_cell_volume 475.907817
_symmetry_space_group_name_H-M "P -1"
_symmetry_group_IT_number 2
_symmetry_cell_setting 'triclinic'
loop_
_space_group_symop_operation_xyz
x,y,z
-x,-y,-z
loop_
_atom_site_type_symbol
_atom_site_label
_atom_site_fract_x
_atom_site_fract_y
_atom_site_fract_z
Si Si1 0.457972 0.734494 0.747270
Si Si2 0.583432 0.781583 0.220343
Si Si3 0.486703 0.150462 0.058568
Si Si4 0.869248 0.488656 0.484297
Si Si5 0.225495 0.119194 0.711022
Si Si6 0.085300 0.591172 0.031384
O O1 0.582244 0.675398 0.612767
O O2 0.249831 0.552771 0.976029
O O3 0.500000 0.000000 0.500000
O O4 0.513215 0.731871 0.872297
O O5 0.500000 0.500000 0.500000
O O6 0.634805 0.827154 0.994022
O O7 0.749192 0.940498 0.109266
O O8 0.445133 0.869735 0.286940
O O9 0.676742 0.280638 0.781275
O O10 0.892767 0.760449 0.286633
O O11 0.000000 0.500000 0.500000
O O12 0.928531 0.426728 0.343677
O O13 0.144507 0.877394 0.827176
O O14 0.000000 0.500000 0.000000
#
# Coordination Sequence:
#
# PCOD8016418 Si02
#       6
#     2   2   2   2   2   2
#     4  10  21  44  70 102 146 183 245 300 358 422
#     4  11  22  41  69 110 138 187 240 299 359 430
#     4  11  23  40  71 107 143 184 239 305 357 432
#     4  12  24  46  70 102 149 191 244 300 362 432
#     4  11  24  46  73 105 146 193 246 296 363 433
#     4  11  25  44  72 102 148 194 234 297 371 429
#
# _framework density 25.214969
#
# number of rings (size 3 to 8) (size 9 to 14) (size 15 to 20)
#    0.000    1.000    6.667    0.500    2.333    2.000 
#    0.000    0.833    0.000    0.000    0.000    0.000 
#    0.000    0.000    0.000    0.000    0.000    0.000 
#
# Total GULP energy -148685.580206 kJ/mol
# GULP energy per Si atom -12390.465017 kJ/mol
# Density = 2.515758 g / cm^3
# Si number density = 25.214969 Si / 1000 Ang^3
#
#
#
# Elastic Constant Matrix: (Units=GPa)
#
#
# Indices 1 2 3 4 5 6 
#
# 1 163.3752 81.6478 35.8294 29.2223 33.4157 29.2545
# 2 81.6478 112.0289 27.3470 19.8883 17.5585 31.5231
# 3 35.8294 27.3470 86.8211 25.0631 9.1904 9.4061
# 4 29.2223 19.8883 25.0631 54.3301 -2.4899 12.8308
# 5 33.4157 17.5585 9.1904 -2.4899 51.8933 12.6392
# 6 29.2545 31.5231 9.4061 12.8308 12.6392 53.5535
#
#
#
# Elastic Compliance Matrix: (Units=1/GPa)
#
#
# Indices 1 2 3 4 5 6 
#
# 1 0.011267 -0.006531 -0.001078 -0.003368 -0.004983 -0.000139
# 2 -0.006531 0.015539 -0.001638 -0.000122 0.000545 -0.005391
# 3 -0.001078 -0.001638 0.014204 -0.005647 -0.001738 0.000821
# 4 -0.003368 -0.000122 -0.005647 0.024090 0.005373 -0.004137
# 5 -0.004983 0.000545 -0.001738 0.005373 0.023888 -0.004219
# 6 -0.000139 -0.005391 0.000821 -0.004137 -0.004219 0.023764
#
#
# Mechanical properties :
#
#
# Convention : Reuss Voigt Hill
#
# Bulk Modulus (GPa) = 44.41133 72.43039 58.42086
# Shear Modulus (GPa) = 36.03573 46.44878 41.24226
#
# Velocity S-wave (km/s) = 3.78450 4.29664 4.04867
# Velocity P-wave (km/s) = 6.06200 7.30769 6.71380
#
# Compressibility (1/GPa) = 0.02251678
#
# Stress axis : x y z
#
# Youngs Moduli (GPa) = 88.75089 64.35451 70.40391
#
# Poissons Ratio (x) = 0.42029 0.07590
# Poissons Ratio (y) = 0.57962 0.11531
# Poissons Ratio (z) = 0.09568 0.10540
#
# Static dielectric constant tensor:
#      x y z
#    x 5.758510 0.243690 -0.032910 
#    y 0.243690 5.058700 0.305080 
#    z -0.032910 0.305080 4.951850 
# 
# 
# High freq. dielectric constant tensor:
#      x y z
#    x 2.010460 0.012580 0.018020 
#    y 0.012580 2.006050 0.003770 
#    z 0.018020 0.003770 2.000690 
# 
# From -- ./inp_files/236503.got.cif
#   From: 2010.06.25/outbox.cif.g09.slc.cpg/sg2_119_cif.got.tgz:236503.got - 2010.06.27 13:26:56.
