data_PCOD8016823
_publ_section_title
;
Structure prediction by ZEFSAII (Michael W. Deem and Ramdas Pophale) SiO2 
 PCOD8016823
Probable space group: P -1
;
_chemical_formula_sum "Si O2"
_cell_formula_units_Z 16
_cell_length_a 16.831247
_cell_length_b 9.087934
_cell_length_c 12.237196
_cell_angle_alpha 37.889727
_cell_angle_beta 100.187705
_cell_angle_gamma 74.178652
_cell_volume 827.509080
_symmetry_space_group_name_H-M "P -1"
_symmetry_group_IT_number 2
_symmetry_cell_setting 'triclinic'
loop_
_space_group_symop_operation_xyz
x,y,z
-x,-y,-z
loop_
_atom_site_type_symbol
_atom_site_label
_atom_site_fract_x
_atom_site_fract_y
_atom_site_fract_z
Si Si1 0.476404 0.886114 0.958533
Si Si2 0.126202 0.819340 0.136847
Si Si3 0.238576 0.476511 0.574781
Si Si4 0.724220 0.811024 0.601000
Si Si5 0.126188 0.198913 0.732571
Si Si6 0.714280 0.394408 0.256482
Si Si7 0.515840 0.618051 0.824251
Si Si8 0.255431 0.582222 0.982239
O O1 0.584458 0.710669 0.012874
O O2 0.470426 0.608306 0.137978
O O3 0.500000 0.000000 0.000000
O O4 0.356983 0.214923 0.694357
O O5 0.161487 0.782099 0.294125
O O6 0.200597 0.455665 0.318736
O O7 0.143243 0.030846 0.951194
O O8 0.000000 0.000000 0.000000
O O9 0.191958 0.311172 0.687472
O O10 0.245080 0.593145 0.624776
O O11 0.740788 0.060134 0.456554
O O12 0.595356 0.001296 0.441365
O O13 0.761406 0.633324 0.832144
O O14 0.000000 0.500000 0.500000
O O15 0.170557 0.948603 0.791747
O O16 0.773880 0.396830 0.165524
O O17 0.500000 0.500000 0.000000
O O18 0.620305 0.577610 0.875261
#
# Coordination Sequence:
#
# PCOD8016823 Si02
#       8
#     2   2   2   2   2   2   2   2
#     4   9  18  33  57  87 119 156 188 225 291 351
#     4  11  23  39  64  85 110 154 201 248 291 340
#     4  11  21  40  62  86 122 154 195 242 290 346
#     4  10  22  36  58  87 119 147 199 242 290 346
#     4  11  23  39  64  86 111 151 204 249 289 343
#     4  10  22  38  60  88 124 161 182 236 299 352
#     4  11  17  32  58  85 113 157 188 241 290 340
#     4  11  21  36  59  87 118 150 199 239 292 348
#
# _framework density 19.335134
#
# number of rings (size 3 to 8) (size 9 to 14) (size 15 to 20)
#    0.000    1.500    5.000    1.875    0.000    1.000 
#    0.000    1.250    0.000    6.000    0.000    0.000 
#    0.000    0.000    0.000    0.000    0.000    0.000 
#
# Total GULP energy -198234.678526 kJ/mol
# GULP energy per Si atom -12389.667408 kJ/mol
# Density = 1.929113 g / cm^3
# Si number density = 19.335134 Si / 1000 Ang^3
#
#
#
# Elastic Constant Matrix: (Units=GPa)
#
#
# Indices 1 2 3 4 5 6 
#
# 1 53.8355 32.0273 41.4354 8.1006 2.5490 -7.2552
# 2 32.0273 111.5503 60.5215 10.4142 2.3479 -8.0273
# 3 41.4354 60.5215 118.3254 4.6220 10.6936 -5.8813
# 4 8.1006 10.4142 4.6220 35.4235 -7.7379 -1.8504
# 5 2.5490 2.3479 10.6936 -7.7379 36.9412 0.8208
# 6 -7.2552 -8.0273 -5.8813 -1.8504 0.8208 23.0154
#
#
#
# Elastic Compliance Matrix: (Units=1/GPa)
#
#
# Indices 1 2 3 4 5 6 
#
# 1 0.027650 -0.002974 -0.007680 -0.004277 -0.000511 0.005391
# 2 -0.002974 0.013178 -0.005550 -0.002264 0.000455 0.002042
# 3 -0.007680 -0.005550 0.014194 0.000844 -0.003037 -0.000554
# 4 -0.004277 -0.002264 0.000844 0.031252 0.006733 0.000350
# 5 -0.000511 0.000455 -0.003037 0.006733 0.029395 -0.001286
# 6 0.005391 0.002042 -0.000554 0.000350 -0.001286 0.045793
#
#
# Mechanical properties :
#
#
# Convention : Reuss Voigt Hill
#
# Bulk Modulus (GPa) = 44.22199 61.29773 52.75986
# Shear Modulus (GPa) = 24.82522 29.05782 26.94152
#
# Velocity S-wave (km/s) = 3.58710 3.88087 3.73687
# Velocity P-wave (km/s) = 6.33067 7.20091 6.77977
#
# Compressibility (1/GPa) = 0.02261318
#
# Stress axis : x y z
#
# Youngs Moduli (GPa) = 36.16697 75.88133 70.45406
#
# Poissons Ratio (x) = 0.22565 0.54110
# Poissons Ratio (y) = 0.10755 0.39105
# Poissons Ratio (z) = 0.27777 0.42117
#
# Static dielectric constant tensor:
#      x y z
#    x 3.699600 -0.235490 0.278630 
#    y -0.235490 4.344010 -0.588290 
#    z 0.278630 -0.588290 4.226790 
# 
# 
# High freq. dielectric constant tensor:
#      x y z
#    x 1.738950 -0.010420 0.006710 
#    y -0.010420 1.756200 -0.009200 
#    z 0.006710 -0.009200 1.754990 
# 
# From -- ./inp_files/273342.got.cif
#   From: 2010.06.25/outbox.cif.g09.slc.cpg/sg2_137_cif.got.tgz:273342.got - 2010.06.27 13:26:56.
