data_PCOD8016695
_publ_section_title
;
Structure prediction by ZEFSAII (Michael W. Deem and Ramdas Pophale) SiO2 
 PCOD8016695
Probable space group: P -1
;
_chemical_formula_sum "Si O2"
_cell_formula_units_Z 16
_cell_length_a 11.391974
_cell_length_b 13.979327
_cell_length_c 14.443259
_cell_angle_alpha 30.936847
_cell_angle_beta 136.222271
_cell_angle_gamma 135.240069
_cell_volume 791.031122
_symmetry_space_group_name_H-M "P -1"
_symmetry_group_IT_number 2
_symmetry_cell_setting 'triclinic'
loop_
_space_group_symop_operation_xyz
x,y,z
-x,-y,-z
loop_
_atom_site_type_symbol
_atom_site_label
_atom_site_fract_x
_atom_site_fract_y
_atom_site_fract_z
Si Si1 0.623586 0.668847 0.489821
Si Si2 0.297504 0.989755 0.883937
Si Si3 0.682576 0.386285 0.521776
Si Si4 0.959218 0.520531 0.246708
Si Si5 0.143648 0.765742 0.421092
Si Si6 0.756574 0.775453 0.176678
Si Si7 0.897712 0.450872 0.888353
Si Si8 0.835331 0.870925 0.955929
O O1 0.500000 0.500000 0.500000
O O2 0.727500 0.851728 0.336601
O O3 0.495531 0.745315 0.425040
O O4 0.762023 0.582405 0.695178
O O5 0.221613 0.039121 0.898933
O O6 0.500000 0.000000 0.000000
O O7 0.193297 0.776731 0.973985
O O8 0.734200 0.310273 0.517433
O O9 0.629209 0.589012 0.305682
O O10 0.838304 0.412667 0.662761
O O11 0.850058 0.323939 0.398717
O O12 0.960754 0.490191 0.163026
O O13 0.862694 0.684284 0.077745
O O14 0.939132 0.708756 0.321514
O O15 0.215673 0.998748 0.263272
O O16 0.690376 0.814849 0.002879
O O17 0.000000 0.500000 0.000000
O O18 0.000000 0.000000 0.000000
#
# Coordination Sequence:
#
# PCOD8016695 Si02
#       8
#     2   2   2   2   2   2   2   2
#     4  12  22  39  62  92 126 165 210 263 312 371
#     4  12  23  39  65  96 127 167 209 263 316 366
#     4  11  17  32  55  87 127 152 194 258 320 356
#     4  11  18  35  54  83 123 159 197 257 306 365
#     4  10  19  28  50  84 121 157 189 253 318 357
#     4  10  17  29  50  86 128 153 194 255 317 363
#     4  12  27  44  63  91 129 173 213 256 311 376
#     4  10  17  25  46  83 119 149 189 244 313 358
#
# _framework density 20.226765
#
# number of rings (size 3 to 8) (size 9 to 14) (size 15 to 20)
#    0.000    1.000    7.500    3.000    1.750    0.500 
#    0.000    0.000    0.000    0.750    0.000    4.375 
#    0.000    0.000    0.000    0.000    0.000    0.000 
#
# Total GULP energy -198251.565289 kJ/mol
# GULP energy per Si atom -12390.722831 kJ/mol
# Density = 2.018073 g / cm^3
# Si number density = 20.226765 Si / 1000 Ang^3
#
#
#
# Elastic Constant Matrix: (Units=GPa)
#
#
# Indices 1 2 3 4 5 6 
#
# 1 158.9419 40.0276 60.5664 -0.8825 -16.7197 -18.4801
# 2 40.0276 52.0899 54.0353 -3.7042 -7.0731 -12.1888
# 3 60.5664 54.0353 153.1415 -20.9341 -20.0295 -11.1669
# 4 -0.8825 -3.7042 -20.9341 29.9690 1.3509 -3.4587
# 5 -16.7197 -7.0731 -20.0295 1.3509 38.9130 -1.1361
# 6 -18.4801 -12.1888 -11.1669 -3.4587 -1.1361 17.0227
#
#
#
# Elastic Compliance Matrix: (Units=1/GPa)
#
#
# Indices 1 2 3 4 5 6 
#
# 1 0.008699 -0.003328 -0.001589 -0.000681 0.002515 0.006048
# 2 -0.003328 0.036077 -0.010442 -0.001196 0.000237 0.015143
# 3 -0.001589 -0.010442 0.012329 0.007183 0.003533 0.000581
# 4 -0.000681 -0.001196 0.007183 0.039421 0.002148 0.011269
# 5 0.002515 0.000237 0.003533 0.002148 0.028787 0.007575
# 6 0.006048 0.015143 0.000581 0.011269 0.007575 0.079330
#
#
# Mechanical properties :
#
#
# Convention : Reuss Voigt Hill
#
# Bulk Modulus (GPa) = 37.89681 74.82579 56.36130
# Shear Modulus (GPa) = 20.47859 31.15051 25.81455
#
# Velocity S-wave (km/s) = 3.18535 3.92862 3.57635
# Velocity P-wave (km/s) = 5.68377 7.59293 6.70663
#
# Compressibility (1/GPa) = 0.02638745
#
# Stress axis : x y z
#
# Youngs Moduli (GPa) = 114.95122 27.71855 81.10862
#
# Poissons Ratio (x) = 0.09224 0.12892
# Poissons Ratio (y) = 0.38252 0.84692
# Poissons Ratio (z) = 0.18271 0.28943
#
# Static dielectric constant tensor:
#      x y z
#    x 4.582530 0.129250 -0.593880 
#    y 0.129250 3.056460 -0.639450 
#    z -0.593880 -0.639450 4.569680 
# 
# 
# High freq. dielectric constant tensor:
#      x y z
#    x 1.818250 -0.005810 -0.015950 
#    y -0.005810 1.699210 -0.046100 
#    z -0.015950 -0.046100 1.807100 
# 
# From -- ./inp_files/521376.got.cif
#   From: 2010.06.25/outbox.cif.g09.slc.cpg/sg2_261_cif.got.tgz:521376.got - 2010.06.27 13:26:56.
