data_PCOD8016267
_publ_section_title
;
Structure prediction by ZEFSAII (Michael W. Deem and Ramdas Pophale) SiO2 
 PCOD8016267
Probable space group: P -1
;
_chemical_formula_sum "Si O2"
_cell_formula_units_Z 14
_cell_length_a 15.378012
_cell_length_b 12.815677
_cell_length_c 8.192704
_cell_angle_alpha 120.011510
_cell_angle_beta 62.042730
_cell_angle_gamma 153.100007
_cell_volume 631.496616
_symmetry_space_group_name_H-M "P -1"
_symmetry_group_IT_number 2
_symmetry_cell_setting 'triclinic'
loop_
_space_group_symop_operation_xyz
x,y,z
-x,-y,-z
loop_
_atom_site_type_symbol
_atom_site_label
_atom_site_fract_x
_atom_site_fract_y
_atom_site_fract_z
Si Si1 0.639989 0.162568 0.262191
Si Si2 0.587816 0.637639 0.362424
Si Si3 0.028993 0.920321 0.785406
Si Si4 0.880375 0.187979 0.132780
Si Si5 0.527553 0.716464 0.958961
Si Si6 0.630055 0.395572 0.638680
Si Si7 0.297660 0.677561 0.013972
O O1 0.764473 0.190293 0.263925
O O2 0.643128 0.271473 0.476225
O O3 0.423278 0.895123 0.193610
O O4 0.742149 0.307928 0.116448
O O5 0.500000 0.500000 0.500000
O O6 0.507437 0.684578 0.433131
O O7 0.820265 0.883062 0.336193
O O8 0.512187 0.466567 0.156225
O O9 0.113510 0.889807 0.773919
O O10 0.832731 0.678517 0.679803
O O11 0.000000 0.000000 0.000000
O O12 0.094090 0.439697 0.087640
O O13 0.756416 0.982981 0.945513
O O14 0.461583 0.699891 0.177351
O O15 0.409205 0.666613 0.886777
#
# Coordination Sequence:
#
# PCOD8016267 Si02
#       7
#     2   2   2   2   2   2   2
#     4  10  25  40  64  98 133 169 218 266 328 384
#     4  12  26  44  68  98 132 170 218 275 333 386
#     4  12  24  43  69  98 130 175 219 271 328 387
#     4  11  22  40  68  93 128 176 215 264 326 387
#     4  11  22  42  67  95 125 172 216 271 322 386
#     4  12  24  42  67  97 130 171 222 268 322 392
#     4  10  21  44  65  93 134 171 210 274 326 380
#
# _framework density 22.169556
#
# number of rings (size 3 to 8) (size 9 to 14) (size 15 to 20)
#    0.000    0.857    4.286    2.571    0.000    5.714 
#    0.000    0.000    0.000    0.000    0.000    0.000 
#    0.000    0.000    0.000    0.000    0.000    0.000 
#
# Total GULP energy -173553.195499 kJ/mol
# GULP energy per Si atom -12396.656821 kJ/mol
# Density = 2.211910 g / cm^3
# Si number density = 22.169556 Si / 1000 Ang^3
#
#
#
# Elastic Constant Matrix: (Units=GPa)
#
#
# Indices 1 2 3 4 5 6 
#
# 1 88.8455 22.0115 22.8407 -9.2582 -5.9767 -7.3799
# 2 22.0115 150.8321 29.3966 -12.5937 -0.5038 11.5515
# 3 22.8407 29.3966 82.4784 -2.0367 -1.5875 -4.6521
# 4 -9.2582 -12.5937 -2.0367 33.9748 -10.1548 3.4744
# 5 -5.9767 -0.5038 -1.5875 -10.1548 22.9451 0.5127
# 6 -7.3799 11.5515 -4.6521 3.4744 0.5127 40.2712
#
#
#
# Elastic Compliance Matrix: (Units=1/GPa)
#
#
# Indices 1 2 3 4 5 6 
#
# 1 0.013253 -0.001131 -0.002951 0.004338 0.005099 0.001973
# 2 -0.001131 0.007779 -0.002532 0.003068 0.001126 -0.003010
# 3 -0.002951 -0.002532 0.013912 -0.001238 -0.000452 0.001905
# 4 0.004338 0.003068 -0.001238 0.037352 0.017725 -0.003676
# 5 0.005099 0.001126 -0.000452 0.017725 0.052785 -0.001642
# 6 0.001973 -0.003010 0.001905 -0.003676 -0.001642 0.026615
#
#
# Mechanical properties :
#
#
# Convention : Reuss Voigt Hill
#
# Bulk Modulus (GPa) = 46.04561 52.29484 49.17023
# Shear Modulus (GPa) = 29.04255 35.96538 32.50396
#
# Velocity S-wave (km/s) = 3.62335 4.03213 3.83319
# Velocity P-wave (km/s) = 6.19029 6.73181 6.46672
#
# Compressibility (1/GPa) = 0.02171760
#
# Stress axis : x y z
#
# Youngs Moduli (GPa) = 75.45394 128.55518 71.88052
#
# Poissons Ratio (x) = 0.14539 0.21209
# Poissons Ratio (y) = 0.08533 0.18197
# Poissons Ratio (z) = 0.22263 0.32545
#
# Static dielectric constant tensor:
#      x y z
#    x 4.407020 -0.110700 -0.181820 
#    y -0.110700 4.384730 0.162880 
#    z -0.181820 0.162880 3.732740 
# 
# 
# High freq. dielectric constant tensor:
#      x y z
#    x 1.886340 -0.008360 -0.010270 
#    y -0.008360 1.897870 0.007260 
#    z -0.010270 0.007260 1.842170 
# 
# From -- ./inp_files/305660.got.cif
#   From: 2010.06.25/outbox.cif.g09.slc.cpg/sg2_153_cif.got.tgz:305660.got - 2010.06.27 13:26:56.
