data_PCOD8016810
_publ_section_title
;
Structure prediction by ZEFSAII (Michael W. Deem and Ramdas Pophale) SiO2 
 PCOD8016810
Probable space group: P -1
;
_chemical_formula_sum "Si O2"
_cell_formula_units_Z 16
_cell_length_a 9.824252
_cell_length_b 11.768192
_cell_length_c 17.306294
_cell_angle_alpha 31.029955
_cell_angle_beta 131.918175
_cell_angle_gamma 118.892665
_cell_volume 746.383259
_symmetry_space_group_name_H-M "P -1"
_symmetry_group_IT_number 2
_symmetry_cell_setting 'triclinic'
loop_
_space_group_symop_operation_xyz
x,y,z
-x,-y,-z
loop_
_atom_site_type_symbol
_atom_site_label
_atom_site_fract_x
_atom_site_fract_y
_atom_site_fract_z
Si Si1 0.220687 0.452248 0.061631
Si Si2 0.645420 0.193199 0.395012
Si Si3 0.292250 0.910739 0.808249
Si Si4 0.632265 0.636210 0.184859
Si Si5 0.251835 0.999999 0.289976
Si Si6 0.279249 0.566870 0.179822
Si Si7 0.645972 0.875572 0.448136
Si Si8 0.870905 0.932936 0.183704
O O1 0.435472 0.310132 0.222546
O O2 0.156052 0.498963 0.100162
O O3 0.131465 0.269203 0.087684
O O4 0.206575 0.696731 0.873687
O O5 0.746408 0.406594 0.318285
O O6 0.653928 0.051867 0.559590
O O7 0.733000 0.021755 0.458902
O O8 0.284018 0.080439 0.635621
O O9 0.167976 0.045166 0.752066
O O10 0.506529 0.819554 0.972557
O O11 0.493174 0.544173 0.244379
O O12 0.779054 0.743448 0.223374
O O13 0.417421 0.940064 0.324705
O O14 0.095504 0.855790 0.299395
O O15 0.277611 0.392374 0.350236
O O16 0.207716 0.825734 0.029296
#
# Coordination Sequence:
#
# PCOD8016810 Si02
#       8
#     2   2   2   2   2   2   2   2
#     4   8  15  31  54  78 104 138 177 217 267 322
#     4   9  17  31  57  82 106 139 181 229 259 325
#     4   9  20  34  58  83 108 139 181 230 272 323
#     4   9  18  37  56  76 108 153 188 210 257 337
#     4  11  18  32  58  85 106 141 188 224 263 326
#     4   9  16  33  58  75 106 145 180 218 265 331
#     4  11  18  35  61  87 103 135 186 232 279 313
#     4  10  22  36  55  80 111 150 184 215 266 327
#
# _framework density 21.436706999999998
#
# number of rings (size 3 to 8) (size 9 to 14) (size 15 to 20)
#    0.000    3.000    3.750    2.250    0.000    7.000 
#    0.000    3.750    5.500    0.000    0.000    0.000 
#    0.000    0.000    0.000    0.000    0.000    0.000 
#
# Total GULP energy -198211.095710 kJ/mol
# GULP energy per Si atom -12388.193482 kJ/mol
# Density = 2.138792 g / cm^3
# Si number density = 21.436707 Si / 1000 Ang^3
#
#
#
# Elastic Constant Matrix: (Units=GPa)
#
#
# Indices 1 2 3 4 5 6 
#
# 1 50.0952 3.7483 34.8601 -0.0392 -21.8377 -10.4865
# 2 3.7483 64.5586 8.0453 -22.8213 -13.5023 3.4349
# 3 34.8601 8.0453 81.0169 -11.3652 -38.6599 -15.6581
# 4 -0.0392 -22.8213 -11.3652 24.6030 -3.1157 -1.9623
# 5 -21.8377 -13.5023 -38.6599 -3.1157 36.5336 1.2660
# 6 -10.4865 3.4349 -15.6581 -1.9623 1.2660 14.6643
#
#
#
# Elastic Compliance Matrix: (Units=1/GPa)
#
#
# Indices 1 2 3 4 5 6 
#
# 1 0.035183 0.013041 0.016070 0.028268 0.043906 0.039256
# 2 0.013041 0.084011 0.104656 0.155084 0.159061 0.108418
# 3 0.016070 0.104656 0.197860 0.239311 0.270901 0.206884
# 4 0.028268 0.155084 0.239311 0.359849 0.349222 0.257423
# 5 0.043906 0.159061 0.270901 0.349222 0.418667 0.293988
# 6 0.039256 0.108418 0.206884 0.257423 0.293988 0.300841
#
#
# Mechanical properties :
#
#
# Convention : Reuss Voigt Hill
#
# Bulk Modulus (GPa) = 1.71060 32.10868 16.90964
# Shear Modulus (GPa) = 3.77718 25.09465 14.43591
#
# Velocity S-wave (km/s) = 1.32885 3.42517 2.59785
# Velocity P-wave (km/s) = 1.77600 5.53654 4.11141
#
# Compressibility (1/GPa) = 0.58458957
#
# Stress axis : x y z
#
# Youngs Moduli (GPa) = 28.42300 11.90321 5.05407
#
# Poissons Ratio (x) = -0.15523 -0.08122
# Poissons Ratio (y) = -0.37067 -0.52894
# Poissons Ratio (z) = -0.45676 -1.24575
#
# Static dielectric constant tensor:
#      x y z
#    x 3.406100 0.272710 0.013980 
#    y 0.272710 3.962950 -0.432060 
#    z 0.013980 -0.432060 3.977240 
# 
# 
# High freq. dielectric constant tensor:
#      x y z
#    x 1.799700 0.027090 0.007880 
#    y 0.027090 1.819250 -0.023680 
#    z 0.007880 -0.023680 1.844870 
# 
# From -- ./inp_files/403137.got.cif
#   From: 2010.06.25/outbox.cif.g09.slc.cpg/sg2_202_cif.got.tgz:403137.got - 2010.06.27 13:26:56.
