data_PCOD8016381
_publ_section_title
;
Structure prediction by ZEFSAII (Michael W. Deem and Ramdas Pophale) SiO2 
 PCOD8016381
Probable space group: P -1
;
_chemical_formula_sum "Si O2"
_cell_formula_units_Z 16
_cell_length_a 13.839288
_cell_length_b 9.261401
_cell_length_c 7.956466
_cell_angle_alpha 132.383093
_cell_angle_beta 77.967765
_cell_angle_gamma 112.046498
_cell_volume 696.712006
_symmetry_space_group_name_H-M "P -1"
_symmetry_group_IT_number 2
_symmetry_cell_setting 'triclinic'
loop_
_space_group_symop_operation_xyz
x,y,z
-x,-y,-z
loop_
_atom_site_type_symbol
_atom_site_label
_atom_site_fract_x
_atom_site_fract_y
_atom_site_fract_z
Si Si1 0.738217 0.609911 0.153370
Si Si2 0.080800 0.601228 0.409976
Si Si3 0.941999 0.761008 0.389273
Si Si4 0.396479 0.553667 0.604733
Si Si5 0.437653 0.925783 0.696328
Si Si6 0.231856 0.020456 0.786890
Si Si7 0.196265 0.329327 0.296454
Si Si8 0.440224 0.667378 0.173087
O O1 0.857039 0.633104 0.180680
O O2 0.655554 0.536344 0.273879
O O3 0.736688 0.832398 0.270666
O O4 0.685664 0.443118 0.893868
O O5 0.156471 0.460103 0.270044
O O6 0.000000 0.500000 0.500000
O O7 0.022700 0.629172 0.278675
O O8 0.130924 0.834164 0.633698
O O9 0.880933 0.751152 0.580301
O O10 0.000000 0.000000 0.500000
O O11 0.500000 0.500000 0.500000
O O12 0.433831 0.805015 0.778939
O O13 0.312419 0.464911 0.416595
O O14 0.466411 0.782579 0.431373
O O15 0.322617 0.929498 0.715684
O O16 0.519563 0.156785 0.848665
O O17 0.204274 0.127592 0.044751
O O18 0.500000 0.500000 0.000000
#
# Coordination Sequence:
#
# PCOD8016381 Si02
#       8
#     2   2   2   2   2   2   2   2
#     4  11  24  41  67 100 141 173 224 290 338 397
#     4  10  22  43  72  91 132 173 229 275 339 405
#     4  10  21  44  69 101 136 170 219 294 345 392
#     4  11  24  43  64 100 143 176 220 287 340 398
#     4  11  25  42  70  96 135 187 230 277 337 411
#     4  12  23  43  71  97 130 182 233 271 337 420
#     4  10  24  44  70  97 133 177 228 277 332 418
#     4  11  23  43  70  99 132 182 240 275 333 411
#
# _framework density 22.965012000000002
#
# number of rings (size 3 to 8) (size 9 to 14) (size 15 to 20)
#    0.000    1.250    3.750    1.500    3.500    2.500 
#    0.000    1.875    2.750    0.000    0.000    0.000 
#    0.000    0.000    0.000    0.000    0.000    0.000 
#
# Total GULP energy -198247.340618 kJ/mol
# GULP energy per Si atom -12390.458789 kJ/mol
# Density = 2.291274 g / cm^3
# Si number density = 22.965012 Si / 1000 Ang^3
#
#
#
# Elastic Constant Matrix: (Units=GPa)
#
#
# Indices 1 2 3 4 5 6 
#
# 1 139.4569 45.5324 24.4993 19.7191 2.9561 -9.5821
# 2 45.5324 160.1049 22.6155 39.0083 -1.1133 -2.5177
# 3 24.4993 22.6155 74.3894 24.4502 -3.6164 2.1560
# 4 19.7191 39.0083 24.4502 34.7122 7.9416 4.4523
# 5 2.9561 -1.1133 -3.6164 7.9416 37.4007 10.3459
# 6 -9.5821 -2.5177 2.1560 4.4523 10.3459 42.3848
#
#
#
# Elastic Compliance Matrix: (Units=1/GPa)
#
#
# Indices 1 2 3 4 5 6 
#
# 1 0.008478 -0.001735 -0.001878 -0.001567 -0.001227 0.002373
# 2 -0.001735 0.009295 0.001574 -0.011283 0.002801 0.000581
# 3 -0.001878 0.001574 0.018845 -0.015103 0.005515 -0.001049
# 4 -0.001567 -0.011283 -0.015103 0.056333 -0.012790 -0.003052
# 5 -0.001227 0.002801 0.005515 -0.012790 0.032069 -0.006876
# 6 0.002373 0.000581 -0.001049 -0.003052 -0.006876 0.026217
#
#
# Mechanical properties :
#
#
# Convention : Reuss Voigt Hill
#
# Bulk Modulus (GPa) = 30.73265 62.13842 46.43553
# Shear Modulus (GPa) = 30.09109 41.65312 35.87210
#
# Velocity S-wave (km/s) = 3.62374 4.26345 3.95654
# Velocity P-wave (km/s) = 5.56058 7.16607 6.41376
#
# Compressibility (1/GPa) = 0.03253869
#
# Stress axis : x y z
#
# Youngs Moduli (GPa) = 117.95580 107.58745 53.06374
#
# Poissons Ratio (x) = 0.18668 0.09965
# Poissons Ratio (y) = 0.20467 -0.08350
# Poissons Ratio (z) = 0.22151 -0.16929
#
# Static dielectric constant tensor:
#      x y z
#    x 4.705770 -0.198840 0.182250 
#    y -0.198840 4.727820 0.205620 
#    z 0.182250 0.205620 4.017360 
# 
# 
# High freq. dielectric constant tensor:
#      x y z
#    x 1.924270 0.004130 0.009430 
#    y 0.004130 1.935820 0.014280 
#    z 0.009430 0.014280 1.882390 
# 
# From -- ./inp_files/299836.got.cif
#   From: 2010.06.25/outbox.cif.g09.slc.cpg/sg2_150_cif.got.tgz:299836.got - 2010.06.27 13:26:56.
