data_PCOD8016159
_publ_section_title
;
Structure prediction by ZEFSAII (Michael W. Deem and Ramdas Pophale) SiO2 
 PCOD8016159
Probable space group: P -1
;
_chemical_formula_sum "Si O2"
_cell_formula_units_Z 16
_cell_length_a 17.642871
_cell_length_b 8.826001
_cell_length_c 11.555629
_cell_angle_alpha 78.620057
_cell_angle_beta 130.795715
_cell_angle_gamma 139.029198
_cell_volume 716.984120
_symmetry_space_group_name_H-M "P -1"
_symmetry_group_IT_number 2
_symmetry_cell_setting 'triclinic'
loop_
_space_group_symop_operation_xyz
x,y,z
-x,-y,-z
loop_
_atom_site_type_symbol
_atom_site_label
_atom_site_fract_x
_atom_site_fract_y
_atom_site_fract_z
Si Si1 0.601867 0.844415 0.881461
Si Si2 0.694661 0.665615 0.674018
Si Si3 0.368747 0.715738 0.481515
Si Si4 0.172763 0.931305 0.424087
Si Si5 0.997185 0.607334 0.733923
Si Si6 0.986808 0.805586 0.483906
Si Si7 0.410148 0.722302 0.920488
Si Si8 0.578149 0.473028 0.825656
O O1 0.483250 0.810097 0.693077
O O2 0.550877 0.804457 0.971157
O O3 0.544675 0.598083 0.826079
O O4 0.823253 0.163261 0.036432
O O5 0.500000 0.500000 0.500000
O O6 0.690673 0.503058 0.624247
O O7 0.734793 0.684214 0.847470
O O8 0.844574 0.976364 0.717931
O O9 0.181205 0.559921 0.352640
O O10 0.500000 0.000000 0.500000
O O11 0.043515 0.616247 0.320266
O O12 0.107284 0.936562 0.470829
O O13 0.386305 0.158535 0.626073
O O14 0.063293 0.802164 0.665343
O O15 0.774330 0.479214 0.304061
O O16 0.000000 0.000000 0.500000
O O17 0.351736 0.552238 0.002615
O O18 0.500000 0.000000 0.000000
#
# Coordination Sequence:
#
# PCOD8016159 Si02
#       8
#     2   2   2   2   2   2   2   2
#     4  12  25  47  71 103 139 181 235 283 348 417
#     4  10  21  43  71  96 135 188 225 280 352 410
#     4  12  25  46  74 101 143 184 230 288 346 416
#     4  11  22  43  67  97 140 180 232 289 342 416
#     4  12  26  44  71 105 137 184 234 285 352 408
#     4  12  23  42  69 101 139 179 234 288 348 411
#     4  12  25  42  69 105 138 177 233 291 347 408
#     4  11  23  44  71  95 141 187 229 283 352 414
#
# _framework density 22.315695999999999
#
# number of rings (size 3 to 8) (size 9 to 14) (size 15 to 20)
#    0.000    0.500    3.750    6.750    1.750    0.500 
#    0.000    1.250    0.000    0.000    0.000    0.000 
#    0.000    0.000    0.000    0.000    0.000    0.000 
#
# Total GULP energy -198468.310654 kJ/mol
# GULP energy per Si atom -12404.269416 kJ/mol
# Density = 2.226490 g / cm^3
# Si number density = 22.315696 Si / 1000 Ang^3
#
#
#
# Elastic Constant Matrix: (Units=GPa)
#
#
# Indices 1 2 3 4 5 6 
#
# 1 126.3511 46.4420 12.6177 -13.2924 -13.8804 15.8784
# 2 46.4420 131.3846 2.9247 -13.8845 -17.3669 6.4713
# 3 12.6177 2.9247 71.1473 5.0018 -1.7018 4.6513
# 4 -13.2924 -13.8845 5.0018 34.3061 1.3459 -8.0650
# 5 -13.8804 -17.3669 -1.7018 1.3459 31.7621 8.5419
# 6 15.8784 6.4713 4.6513 -8.0650 8.5419 44.7894
#
#
#
# Elastic Compliance Matrix: (Units=1/GPa)
#
#
# Indices 1 2 3 4 5 6 
#
# 1 0.010094 -0.002656 -0.001522 0.002124 0.003690 -0.003358
# 2 -0.002656 0.009381 0.000063 0.002419 0.004074 -0.000761
# 3 -0.001522 0.000063 0.014672 -0.003132 0.000745 -0.001699
# 4 0.002124 0.002419 -0.003132 0.032668 -0.000711 0.005241
# 5 0.003690 0.004074 0.000745 -0.000711 0.037903 -0.009331
# 6 -0.003358 -0.000761 -0.001699 0.005241 -0.009331 0.026527
#
#
# Mechanical properties :
#
#
# Convention : Reuss Voigt Hill
#
# Bulk Modulus (GPa) = 38.58979 50.31687 44.45333
# Shear Modulus (GPa) = 33.75773 39.96478 36.86125
#
# Velocity S-wave (km/s) = 3.89361 4.23647 4.06865
# Velocity P-wave (km/s) = 6.12730 6.82107 6.48347
#
# Compressibility (1/GPa) = 0.02591359
#
# Stress axis : x y z
#
# Youngs Moduli (GPa) = 99.07234 106.60399 68.15772
#
# Poissons Ratio (x) = 0.28319 0.10376
# Poissons Ratio (y) = 0.26318 -0.00427
# Poissons Ratio (z) = 0.15083 -0.00668
#
# Static dielectric constant tensor:
#      x y z
#    x 3.983950 0.116550 0.014520 
#    y 0.116550 4.251000 -0.048710 
#    z 0.014520 -0.048710 3.873460 
# 
# 
# High freq. dielectric constant tensor:
#      x y z
#    x 1.893010 0.002510 -0.006600 
#    y 0.002510 1.893890 -0.000650 
#    z -0.006600 -0.000650 1.869020 
# 
# From -- ./inp_files/462148.got.cif
#   From: 2010.06.25/outbox.cif.g09.slc.cpg/sg2_232_cif.got.tgz:462148.got - 2010.06.27 13:26:56.
