data_PCOD8016111
_publ_section_title
;
Structure prediction by ZEFSAII (Michael W. Deem and Ramdas Pophale) SiO2 
 PCOD8016111
Probable space group: P -1
;
_chemical_formula_sum "Si O2"
_cell_formula_units_Z 14
_cell_length_a 11.166513
_cell_length_b 16.736033
_cell_length_c 8.815516
_cell_angle_alpha 55.917698
_cell_angle_beta 41.678864
_cell_angle_gamma 35.804804
_cell_volume 636.522294
_symmetry_space_group_name_H-M "P -1"
_symmetry_group_IT_number 2
_symmetry_cell_setting 'triclinic'
loop_
_space_group_symop_operation_xyz
x,y,z
-x,-y,-z
loop_
_atom_site_type_symbol
_atom_site_label
_atom_site_fract_x
_atom_site_fract_y
_atom_site_fract_z
Si Si1 0.793988 0.525298 0.766975
Si Si2 0.947372 0.993575 0.383927
Si Si3 0.958124 0.194369 0.012393
Si Si4 0.576669 0.530441 0.684859
Si Si5 0.275773 0.732904 0.158020
Si Si6 0.571664 0.893943 0.169803
Si Si7 0.149468 0.400430 0.823583
O O1 0.688596 0.481498 0.804027
O O2 0.000000 0.500000 0.500000
O O3 0.941264 0.431879 0.874567
O O4 0.536698 0.682301 0.894513
O O5 0.173823 0.838127 0.276845
O O6 0.945138 0.088326 0.183364
O O7 0.680690 0.038104 0.569380
O O8 0.000000 0.000000 0.500000
O O9 0.728535 0.338526 0.160424
O O10 0.936011 0.202727 0.841542
O O11 0.225414 0.140745 0.865843
O O12 0.642865 0.399504 0.696500
O O13 0.697918 0.570051 0.429955
O O14 0.667380 0.759318 0.137245
O O15 0.500000 0.000000 0.000000
O O16 0.000000 0.500000 0.000000
#
# Coordination Sequence:
#
# PCOD8016111 Si02
#       7
#     2   2   2   2   2   2   2
#     4   9  20  41  67 100 134 168 219 289 338 391
#     4  12  27  47  67  99 145 184 225 278 337 408
#     4  11  23  48  71  98 135 178 231 283 338 403
#     4  10  21  43  70  97 136 169 224 293 337 392
#     4  11  24  43  72 103 132 181 228 279 345 404
#     4  12  26  45  68  95 140 185 222 280 342 401
#     4  11  24  39  67 102 132 176 231 275 336 408
#
# _framework density 21.994513999999999
#
# number of rings (size 3 to 8) (size 9 to 14) (size 15 to 20)
#    0.000    1.143    2.857    3.857    4.000    0.571 
#    2.571    2.143    0.000    0.000    0.000    0.000 
#    0.000    0.000    0.000    0.000    0.000    0.000 
#
# Total GULP energy -173506.067733 kJ/mol
# GULP energy per Si atom -12393.290552 kJ/mol
# Density = 2.194445 g / cm^3
# Si number density = 21.994514 Si / 1000 Ang^3
#
#
#
# Elastic Constant Matrix: (Units=GPa)
#
#
# Indices 1 2 3 4 5 6 
#
# 1 93.8859 56.7425 66.9875 8.6617 -8.6481 -4.0236
# 2 56.7425 167.1066 65.8691 -0.1845 2.4315 28.2032
# 3 66.9875 65.8691 123.6907 18.9136 -20.1707 14.5979
# 4 8.6617 -0.1845 18.9136 41.8354 0.0147 -3.9204
# 5 -8.6481 2.4315 -20.1707 0.0147 43.0459 8.4153
# 6 -4.0236 28.2032 14.5979 -3.9204 8.4153 38.9188
#
#
#
# Elastic Compliance Matrix: (Units=1/GPa)
#
#
# Indices 1 2 3 4 5 6 
#
# 1 0.021356 -0.004640 -0.010981 0.001499 -0.002628 0.010409
# 2 -0.004640 0.009502 -0.002274 0.001462 -0.001347 -0.006074
# 3 -0.010981 -0.002274 0.018785 -0.007083 0.008503 -0.009086
# 4 0.001499 0.001462 -0.007083 0.027310 -0.004166 0.005404
# 5 -0.002628 -0.001347 0.008503 -0.004166 0.028539 -0.009075
# 6 0.010409 -0.006074 -0.009086 0.005404 -0.009075 0.037087
#
#
# Mechanical properties :
#
#
# Convention : Reuss Voigt Hill
#
# Bulk Modulus (GPa) = 72.18464 84.87570 78.53017
# Shear Modulus (GPa) = 27.32432 37.76564 32.54498
#
# Velocity S-wave (km/s) = 3.52849 4.14822 3.85084
# Velocity P-wave (km/s) = 7.03498 7.84965 7.45345
#
# Compressibility (1/GPa) = 0.01385336
#
# Stress axis : x y z
#
# Youngs Moduli (GPa) = 46.82451 105.23611 53.23477
#
# Poissons Ratio (x) = 0.48830 0.58458
# Poissons Ratio (y) = 0.21727 0.12105
# Poissons Ratio (z) = 0.51419 0.23929
#
# Static dielectric constant tensor:
#      x y z
#    x 5.502980 -0.791110 -0.682360 
#    y -0.791110 4.428500 0.262770 
#    z -0.682360 0.262770 4.435920 
# 
# 
# High freq. dielectric constant tensor:
#      x y z
#    x 1.864660 -0.008270 -0.017340 
#    y -0.008270 1.874220 -0.000710 
#    z -0.017340 -0.000710 1.870470 
# 
# From -- ./inp_files/278928.got.cif
#   From: 2010.06.25/outbox.cif.g09.slc.cpg/sg2_140_cif.got.tgz:278928.got - 2010.06.27 13:26:56.
