data_PCOD8016563
_publ_section_title
;
Structure prediction by ZEFSAII (Michael W. Deem and Ramdas Pophale) SiO2 
 PCOD8016563
Probable space group: P -1
;
_chemical_formula_sum "Si O2"
_cell_formula_units_Z 14
_cell_length_a 13.634672
_cell_length_b 6.329767
_cell_length_c 16.127300
_cell_angle_alpha 105.707280
_cell_angle_beta 30.176449
_cell_angle_gamma 121.902614
_cell_volume 534.474233
_symmetry_space_group_name_H-M "P -1"
_symmetry_group_IT_number 2
_symmetry_cell_setting 'triclinic'
loop_
_space_group_symop_operation_xyz
x,y,z
-x,-y,-z
loop_
_atom_site_type_symbol
_atom_site_label
_atom_site_fract_x
_atom_site_fract_y
_atom_site_fract_z
Si Si1 0.699027 0.539844 0.530936
Si Si2 0.056899 0.192712 0.325550
Si Si3 0.067873 0.712147 0.745859
Si Si4 0.293721 0.717593 0.337287
Si Si5 0.445537 0.166602 0.000211
Si Si6 0.808208 0.227948 0.993068
Si Si7 0.831260 0.810421 0.177039
O O1 0.880540 0.863620 0.418621
O O2 0.752372 0.368859 0.413413
O O3 0.713479 0.478345 0.610178
O O4 0.430072 0.445400 0.693763
O O5 0.342050 0.302556 0.143537
O O6 0.074297 0.328943 0.239080
O O7 0.946701 0.285864 0.486233
O O8 0.870499 0.510796 0.940460
O O9 0.210748 0.023267 0.707781
O O10 0.320727 0.638509 0.213775
O O11 0.536861 0.034529 0.213958
O O12 0.209923 0.949455 0.091091
O O13 0.500000 0.000000 0.000000
O O14 0.032796 0.306980 0.895240
O O15 0.000000 0.000000 0.000000
#
# Coordination Sequence:
#
# PCOD8016563 Si02
#       7
#     2   2   2   2   2   2   2
#     4  11  22  40  61  90 127 164 208 248 299 367
#     4  11  23  41  67  89 128 163 201 258 309 362
#     4  11  22  40  61  87 130 161 209 248 308 357
#     4   9  22  39  64  92 124 162 202 253 305 365
#     4  10  21  45  67  90 123 158 205 259 312 370
#     4  10  22  42  59  92 126 159 209 255 297 369
#     4  12  23  36  61  91 126 169 205 246 305 359
#
# _framework density 26.193964000000001
#
# number of rings (size 3 to 8) (size 9 to 14) (size 15 to 20)
#    0.857    0.571    4.286    0.429    2.000    5.714 
#    0.000    1.429    0.000    0.000    0.000    0.000 
#    0.000    0.000    0.000    0.000    0.000    0.000 
#
# Total GULP energy -173519.110622 kJ/mol
# GULP energy per Si atom -12394.222187 kJ/mol
# Density = 2.613435 g / cm^3
# Si number density = 26.193964 Si / 1000 Ang^3
#
#
#
# Elastic Constant Matrix: (Units=GPa)
#
#
# Indices 1 2 3 4 5 6 
#
# 1 132.1437 39.5023 73.6090 4.9393 -2.2085 -29.3370
# 2 39.5023 119.8723 82.5698 6.1485 6.8822 -12.8782
# 3 73.6090 82.5698 198.5029 2.4818 -20.7488 -18.8436
# 4 4.9393 6.1485 2.4818 54.2897 -3.7764 8.2196
# 5 -2.2085 6.8822 -20.7488 -3.7764 45.2207 -2.5768
# 6 -29.3370 -12.8782 -18.8436 8.2196 -2.5768 42.4310
#
#
#
# Elastic Compliance Matrix: (Units=1/GPa)
#
#
# Indices 1 2 3 4 5 6 
#
# 1 0.011030 -0.000542 -0.003317 -0.001791 -0.000692 0.006294
# 2 -0.000542 0.012734 -0.005444 -0.001628 -0.004535 0.001112
# 3 -0.003317 -0.005444 0.009055 0.000813 0.004901 0.000216
# 4 -0.001791 -0.001628 0.000813 0.019627 0.001884 -0.005059
# 5 -0.000692 -0.004535 0.004901 0.001884 0.025261 0.001491
# 6 0.006294 0.001112 0.000216 -0.005059 0.001491 0.029423
#
#
# Mechanical properties :
#
#
# Convention : Reuss Voigt Hill
#
# Bulk Modulus (GPa) = 70.36049 93.54233 81.95141
# Shear Modulus (GPa) = 38.32175 45.37748 41.84961
#
# Velocity S-wave (km/s) = 3.82907 4.16668 4.00144
# Velocity P-wave (km/s) = 6.81679 7.67706 7.25968
#
# Compressibility (1/GPa) = 0.01421252
#
# Stress axis : x y z
#
# Youngs Moduli (GPa) = 90.66231 78.52936 110.43785
#
# Poissons Ratio (x) = 0.04258 0.36633
# Poissons Ratio (y) = 0.04916 0.60122
# Poissons Ratio (z) = 0.30073 0.42751
#
# Static dielectric constant tensor:
#      x y z
#    x 5.095730 -0.055330 -0.172160 
#    y -0.055330 4.947830 -0.009490 
#    z -0.172160 -0.009490 5.217210 
# 
# 
# High freq. dielectric constant tensor:
#      x y z
#    x 2.041050 0.003360 -0.001230 
#    y 0.003360 2.069980 -0.009170 
#    z -0.001230 -0.009170 2.075330 
# 
# From -- ./inp_files/225637.got.cif
#   From: 2010.06.25/outbox.cif.g09.slc.cpg/sg2_113_cif.got.tgz:225637.got - 2010.06.27 13:26:56.
