data_PCOD8016414
_publ_section_title
;
Structure prediction by ZEFSAII (Michael W. Deem and Ramdas Pophale) SiO2 
 PCOD8016414
Probable space group: P -1
;
_chemical_formula_sum "Si O2"
_cell_formula_units_Z 14
_cell_length_a 14.201684
_cell_length_b 5.207414
_cell_length_c 9.431473
_cell_angle_alpha 69.339629
_cell_angle_beta 77.417360
_cell_angle_gamma 68.918514
_cell_volume 605.644950
_symmetry_space_group_name_H-M "P -1"
_symmetry_group_IT_number 2
_symmetry_cell_setting 'triclinic'
loop_
_space_group_symop_operation_xyz
x,y,z
-x,-y,-z
loop_
_atom_site_type_symbol
_atom_site_label
_atom_site_fract_x
_atom_site_fract_y
_atom_site_fract_z
Si Si1 0.328928 0.740223 0.240012
Si Si2 0.667331 0.878744 0.107353
Si Si3 0.175508 0.179570 0.721993
Si Si4 0.229031 0.242011 0.378776
Si Si5 0.962320 0.581567 0.775049
Si Si6 0.076208 0.782834 0.914146
Si Si7 0.543661 0.448618 0.151886
O O1 0.259910 0.530156 0.283471
O O2 0.444794 0.538608 0.267967
O O3 0.302495 0.949802 0.343543
O O4 0.312452 0.943870 0.067851
O O5 0.606678 0.108664 0.204449
O O6 0.771132 0.697834 0.190467
O O7 0.609516 0.659111 0.121303
O O8 0.231002 0.192822 0.555222
O O9 0.054082 0.328694 0.724018
O O10 0.180843 0.853487 0.831448
O O11 0.116943 0.279404 0.348500
O O12 0.018461 0.795656 0.780158
O O13 0.899686 0.512002 0.944861
O O14 0.000000 0.000000 0.000000
O O15 0.500000 0.500000 0.000000
#
# Coordination Sequence:
#
# PCOD8016414 Si02
#       7
#     2   2   2   2   2   2   2
#     4  11  24  44  67  97 129 166 223 267 326 389
#     4  11  23  41  75  96 127 169 219 273 324 378
#     4  11  26  41  62  98 135 172 218 262 324 391
#     4  12  27  41  65  97 137 179 210 263 328 390
#     4  10  23  41  66  90 134 175 222 265 318 376
#     4   9  21  40  64  92 126 164 231 269 312 365
#     4  10  21  44  70 101 124 163 219 280 324 378
#
# _framework density 23.115853999999999
#
# number of rings (size 3 to 8) (size 9 to 14) (size 15 to 20)
#    0.000    1.429    0.000    5.571   14.000    0.571 
#    0.000    4.286    0.000    0.000    0.000    0.000 
#    0.000    0.000    0.000    0.000    0.000    0.000 
#
# Total GULP energy -173469.112913 kJ/mol
# GULP energy per Si atom -12390.650922 kJ/mol
# Density = 2.306324 g / cm^3
# Si number density = 23.115854 Si / 1000 Ang^3
#
#
#
# Elastic Constant Matrix: (Units=GPa)
#
#
# Indices 1 2 3 4 5 6 
#
# 1 106.6451 29.9599 44.7308 -3.4383 -0.9948 30.5138
# 2 29.9599 103.0560 23.1208 16.7625 -7.8368 28.7771
# 3 44.7308 23.1208 100.2823 17.4397 -2.3773 10.2015
# 4 -3.4383 16.7625 17.4397 21.2223 -3.6640 6.5992
# 5 -0.9948 -7.8368 -2.3773 -3.6640 25.9335 11.7339
# 6 30.5138 28.7771 10.2015 6.5992 11.7339 39.6549
#
#
#
# Elastic Compliance Matrix: (Units=1/GPa)
#
#
# Indices 1 2 3 4 5 6 
#
# 1 0.019803 -0.000678 -0.009926 0.019577 0.010855 -0.018663
# 2 -0.000678 0.015047 -0.000669 -0.006222 0.008935 -0.011834
# 3 -0.009926 -0.000669 0.016767 -0.018454 -0.005503 0.008509
# 4 0.019577 -0.006222 -0.018454 0.081757 0.020218 -0.025390
# 5 0.010855 0.008935 -0.005503 0.020218 0.059604 -0.034422
# 6 -0.018663 -0.011834 0.008509 -0.025390 -0.034422 0.060388
#
#
# Mechanical properties :
#
#
# Convention : Reuss Voigt Hill
#
# Bulk Modulus (GPa) = 34.39831 56.17847 45.28839
# Shear Modulus (GPa) = 17.50704 31.50694 24.50699
#
# Velocity S-wave (km/s) = 2.75500 3.69589 3.25957
# Velocity P-wave (km/s) = 5.00332 6.52446 5.81385
#
# Compressibility (1/GPa) = 0.02907120
#
# Stress axis : x y z
#
# Youngs Moduli (GPa) = 50.49808 66.46042 59.64257
#
# Poissons Ratio (x) = 0.04504 0.59198
# Poissons Ratio (y) = 0.03422 0.03991
# Poissons Ratio (z) = 0.50122 0.04447
#
# Static dielectric constant tensor:
#      x y z
#    x 4.569260 -0.169920 -0.321440 
#    y -0.169920 4.950380 0.068990 
#    z -0.321440 0.068990 4.184430 
# 
# 
# High freq. dielectric constant tensor:
#      x y z
#    x 1.921990 0.010050 -0.006200 
#    y 0.010050 1.925650 0.020460 
#    z -0.006200 0.020460 1.887580 
# 
# From -- ./inp_files/229545.got.cif
#   From: 2010.06.25/outbox.cif.g09.slc.cpg/sg2_115_cif.got.tgz:229545.got - 2010.06.27 13:26:56.
