data_PCOD8016985
_publ_section_title
;
Structure prediction by ZEFSAII (Michael W. Deem and Ramdas Pophale) SiO2 
 PCOD8016985
Probable space group: P -1
;
_chemical_formula_sum "Si O2"
_cell_formula_units_Z 16
_cell_length_a 6.144713
_cell_length_b 15.293848
_cell_length_c 16.345412
_cell_angle_alpha 143.412065
_cell_angle_beta 53.173146
_cell_angle_gamma 123.666174
_cell_volume 724.238796
_symmetry_space_group_name_H-M "P -1"
_symmetry_group_IT_number 2
_symmetry_cell_setting 'triclinic'
loop_
_space_group_symop_operation_xyz
x,y,z
-x,-y,-z
loop_
_atom_site_type_symbol
_atom_site_label
_atom_site_fract_x
_atom_site_fract_y
_atom_site_fract_z
Si Si1 0.026363 0.936365 0.855464
Si Si2 0.370716 0.101624 0.366135
Si Si3 0.993814 0.092967 0.820475
Si Si4 0.786885 0.613577 0.614928
Si Si5 0.272989 0.618833 0.223715
Si Si6 0.417215 0.928438 0.377820
Si Si7 0.140655 0.393467 0.944298
Si Si8 0.751545 0.596599 0.421270
O O1 0.341897 0.931073 0.759162
O O2 0.863114 0.768325 0.762430
O O3 0.904383 0.044773 0.898100
O O4 0.000000 0.000000 0.000000
O O5 0.366965 0.275628 0.506006
O O6 0.131616 0.036386 0.309075
O O7 0.292195 0.038251 0.426989
O O8 0.321165 0.112721 0.759845
O O9 0.926351 0.250661 0.918466
O O10 0.783919 0.646184 0.544456
O O11 0.470521 0.547703 0.657891
O O12 0.000000 0.500000 0.500000
O O13 0.203688 0.775317 0.320655
O O14 0.597911 0.649730 0.198913
O O15 0.057971 0.570488 0.308163
O O16 0.245784 0.482496 0.067192
O O17 0.500000 0.000000 0.500000
O O18 0.000000 0.500000 0.000000
#
# Coordination Sequence:
#
# PCOD8016985 Si02
#       8
#     2   2   2   2   2   2   2   2
#     4  11  25  44  68  96 136 184 230 293 353 401
#     4  11  22  41  66  97 132 173 227 282 336 415
#     4  10  22  41  63  93 132 172 224 278 336 414
#     4  11  24  45  66  97 137 174 237 293 338 408
#     4  10  23  40  63  95 131 173 221 270 338 410
#     4  10  22  37  62  97 133 166 211 273 338 410
#     4  10  22  42  64  94 137 175 221 273 335 422
#     4  11  24  41  70  95 130 180 228 284 345 399
#
# _framework density 22.09216
#
# number of rings (size 3 to 8) (size 9 to 14) (size 15 to 20)
#    0.000    1.500    2.500    1.500    1.750    8.500 
#    0.000    0.000    0.000    0.000    0.000    0.000 
#    0.000    0.000    0.000    0.000    0.000    0.000 
#
# Total GULP energy -198277.778710 kJ/mol
# GULP energy per Si atom -12392.361169 kJ/mol
# Density = 2.204188 g / cm^3
# Si number density = 22.092160 Si / 1000 Ang^3
#
#
#
# Elastic Constant Matrix: (Units=GPa)
#
#
# Indices 1 2 3 4 5 6 
#
# 1 75.7455 54.1807 24.6456 -3.3626 2.3362 -10.4353
# 2 54.1807 158.4942 65.7572 7.6014 1.4138 -5.9878
# 3 24.6456 65.7572 98.7107 4.3928 10.5893 2.2371
# 4 -3.3626 7.6014 4.3928 38.6205 2.0501 -2.0720
# 5 2.3362 1.4138 10.5893 2.0501 36.9030 3.0926
# 6 -10.4353 -5.9878 2.2371 -2.0720 3.0926 46.6523
#
#
#
# Elastic Compliance Matrix: (Units=1/GPa)
#
#
# Indices 1 2 3 4 5 6 
#
# 1 0.018392 -0.006008 -0.000680 0.003118 -0.001214 0.003594
# 2 -0.006008 0.010876 -0.005843 -0.002085 0.001746 0.000124
# 3 -0.000680 -0.005843 0.014651 -0.000448 -0.003797 -0.001373
# 4 0.003118 -0.002085 -0.000448 0.026806 -0.001625 0.001750
# 5 -0.001214 0.001746 -0.003797 -0.001625 0.028441 -0.001823
# 6 0.003594 0.000124 -0.001373 0.001750 -0.001823 0.022519
#
#
# Mechanical properties :
#
#
# Convention : Reuss Voigt Hill
#
# Bulk Modulus (GPa) = 53.02709 69.12413 61.07561
# Shear Modulus (GPa) = 32.67286 36.99296 34.83291
#
# Velocity S-wave (km/s) = 3.84986 4.09648 3.97509
# Velocity P-wave (km/s) = 6.61942 7.33020 6.98386
#
# Compressibility (1/GPa) = 0.01885828
#
# Stress axis : x y z
#
# Youngs Moduli (GPa) = 54.37155 91.94215 68.25567
#
# Poissons Ratio (x) = 0.55241 0.04639
# Poissons Ratio (y) = 0.32668 0.39879
# Poissons Ratio (z) = 0.03695 0.53718
#
# Static dielectric constant tensor:
#      x y z
#    x 3.983870 -0.014920 -0.144470 
#    y -0.014920 4.501440 0.066240 
#    z -0.144470 0.066240 3.617170 
# 
# 
# High freq. dielectric constant tensor:
#      x y z
#    x 1.864560 0.001720 0.000050 
#    y 0.001720 1.891500 0.010940 
#    z 0.000050 0.010940 1.853240 
# 
# From -- ./inp_files/69199.got.cif
#   From: 2010.06.25/outbox.cif.g09.slc.cpg/sg2_35_cif.got.tgz:69199.got - 2010.06.27 13:26:56.
