data_PCOD8016286
_publ_section_title
;
Structure prediction by ZEFSAII (Michael W. Deem and Ramdas Pophale) SiO2 
 PCOD8016286
Probable space group: P -1
;
_chemical_formula_sum "Si O2"
_cell_formula_units_Z 12
_cell_length_a 18.455736
_cell_length_b 7.527016
_cell_length_c 11.718709
_cell_angle_alpha 123.271082
_cell_angle_beta 35.350802
_cell_angle_gamma 143.501096
_cell_volume 532.444761
_symmetry_space_group_name_H-M "P -1"
_symmetry_group_IT_number 2
_symmetry_cell_setting 'triclinic'
loop_
_space_group_symop_operation_xyz
x,y,z
-x,-y,-z
loop_
_atom_site_type_symbol
_atom_site_label
_atom_site_fract_x
_atom_site_fract_y
_atom_site_fract_z
Si Si1 0.822921 0.904417 0.459117
Si Si2 0.330201 0.137817 0.574867
Si Si3 0.378263 0.725243 0.367364
Si Si4 0.803943 0.208717 0.002519
Si Si5 0.038618 0.861769 0.027250
Si Si6 0.027326 0.278420 0.538569
O O1 0.701928 0.911470 0.538713
O O2 0.705462 0.562214 0.544103
O O3 0.930092 0.193905 0.511642
O O4 0.973142 0.000313 0.212452
O O5 0.500000 0.500000 0.500000
O O6 0.364240 0.945227 0.517827
O O7 0.163993 0.051474 0.822120
O O8 0.250954 0.585311 0.366878
O O9 0.590477 0.939396 0.140148
O O10 0.860588 0.502558 0.089763
O O11 0.933979 0.315217 0.765251
O O12 0.832821 0.075304 0.017192
O O13 0.000000 0.000000 0.500000
#
# Coordination Sequence:
#
# PCOD8016286 Si02
#       6
#     2   2   2   2   2   2
#     4  11  24  43  69  97 135 174 217 273 325 389
#     4  12  25  42  66 102 132 171 225 270 329 390
#     4  11  23  44  68  97 134 173 217 272 322 391
#     4  11  21  40  73  96 129 178 217 267 333 385
#     4  11  21  41  66  98 131 172 220 273 327 383
#     4  10  21  44  65  99 132 175 218 265 331 386
#
# _framework density 22.53755
#
# number of rings (size 3 to 8) (size 9 to 14) (size 15 to 20)
#    0.000    1.000    5.000    3.500    0.000    5.333 
#    3.000    0.833    0.000    0.000    0.000    0.000 
#    0.000    0.000    0.000    0.000    0.000    0.000 
#
# Total GULP energy -148674.419796 kJ/mol
# GULP energy per Si atom -12389.534983 kJ/mol
# Density = 2.248625 g / cm^3
# Si number density = 22.537550 Si / 1000 Ang^3
#
#
#
# Elastic Constant Matrix: (Units=GPa)
#
#
# Indices 1 2 3 4 5 6 
#
# 1 117.2736 43.7607 37.0077 -16.6802 9.3184 30.9754
# 2 43.7607 88.2234 35.5273 -4.7037 -12.1028 21.2393
# 3 37.0077 35.5273 85.1035 -7.8074 -13.0283 22.2170
# 4 -16.6802 -4.7037 -7.8074 38.9676 15.0068 -4.5153
# 5 9.3184 -12.1028 -13.0283 15.0068 27.2230 -4.0052
# 6 30.9754 21.2393 22.2170 -4.5153 -4.0052 51.8080
#
#
#
# Elastic Compliance Matrix: (Units=1/GPa)
#
#
# Indices 1 2 3 4 5 6 
#
# 1 0.017719 -0.007401 -0.004917 0.012528 -0.019477 -0.005865
# 2 -0.007401 0.017721 -0.002490 -0.006550 0.012630 -0.001367
# 3 -0.004917 -0.002490 0.016896 -0.003201 0.010016 -0.002790
# 4 0.012528 -0.006550 -0.003201 0.041666 -0.032036 -0.002278
# 5 -0.019477 0.012630 0.010016 -0.032036 0.072199 0.004962
# 6 -0.005865 -0.001367 -0.002790 -0.002278 0.004962 0.024750
#
#
# Mechanical properties :
#
#
# Convention : Reuss Voigt Hill
#
# Bulk Modulus (GPa) = 44.01409 58.13243 51.07326
# Shear Modulus (GPa) = 21.91624 35.22003 28.56814
#
# Velocity S-wave (km/s) = 3.12177 3.95742 3.56417
# Velocity P-wave (km/s) = 5.70662 6.83602 6.29669
#
# Compressibility (1/GPa) = 0.02272000
#
# Stress axis : x y z
#
# Youngs Moduli (GPa) = 56.43634 56.42985 59.18563
#
# Poissons Ratio (x) = 0.41764 0.29101
# Poissons Ratio (y) = 0.41769 0.14738
# Poissons Ratio (z) = 0.27749 0.14052
#
# Static dielectric constant tensor:
#      x y z
#    x 24.448450 8.981230 2.647740 
#    y 8.981230 8.156270 1.169620 
#    z 2.647740 1.169620 3.935850 
# 
# 
# High freq. dielectric constant tensor:
#      x y z
#    x 1.900000 0.008660 -0.010620 
#    y 0.008660 1.896080 -0.001090 
#    z -0.010620 -0.001090 1.865290 
# 
# From -- ./inp_files/189713.got.cif
#   From: 2010.06.25/outbox.cif.g09.slc.cpg/sg2_95_cif.got.tgz:189713.got - 2010.06.27 13:26:56.
