data_PCOD8016916
_publ_section_title
;
Structure prediction by ZEFSAII (Michael W. Deem and Ramdas Pophale) SiO2 
 PCOD8016916
Probable space group: P -1
;
_chemical_formula_sum "Si O2"
_cell_formula_units_Z 16
_cell_length_a 13.742238
_cell_length_b 8.642028
_cell_length_c 7.847938
_cell_angle_alpha 128.002395
_cell_angle_beta 95.536408
_cell_angle_gamma 90.402812
_cell_volume 728.370762
_symmetry_space_group_name_H-M "P -1"
_symmetry_group_IT_number 2
_symmetry_cell_setting 'triclinic'
loop_
_space_group_symop_operation_xyz
x,y,z
-x,-y,-z
loop_
_atom_site_type_symbol
_atom_site_label
_atom_site_fract_x
_atom_site_fract_y
_atom_site_fract_z
Si Si1 0.114704 0.530527 0.021472
Si Si2 0.593534 0.950905 0.761144
Si Si3 0.557646 0.781986 0.004774
Si Si4 0.531837 0.381523 0.586804
Si Si5 0.701220 0.099027 0.394290
Si Si6 0.128705 0.616156 0.455376
Si Si7 0.098033 0.319274 0.546670
Si Si8 0.206453 0.947828 0.264109
O O1 0.158688 0.516337 0.210822
O O2 0.145375 0.740967 0.082366
O O3 0.144765 0.373341 0.778416
O O4 0.000000 0.500000 0.000000
O O5 0.550554 0.846300 0.852246
O O6 0.557159 0.788010 0.497859
O O7 0.710731 0.999402 0.829594
O O8 0.537452 0.150153 0.862637
O O9 0.554766 0.542410 0.851839
O O10 0.658559 0.891129 0.167915
O O11 0.500000 0.500000 0.500000
O O12 0.627553 0.269383 0.486008
O O13 0.799819 0.185340 0.370007
O O14 0.726209 0.053120 0.559985
O O15 0.143594 0.467957 0.511101
O O16 0.019090 0.682117 0.472375
O O17 0.125514 0.103389 0.358836
#
# Coordination Sequence:
#
# PCOD8016916 Si02
#       8
#     2   2   2   2   2   2   2   2
#     4   9  21  42  62  89 128 163 204 256 306 366
#     4   9  20  37  57  87 120 153 205 254 292 372
#     4   9  19  37  61  85 115 164 198 244 317 360
#     4   9  19  36  58  84 117 158 198 247 310 362
#     4  10  22  37  58  90 121 154 206 256 302 368
#     4   9  21  41  64  90 127 161 211 258 298 382
#     4  10  22  42  63  91 125 169 203 255 320 353
#     4  11  24  39  60  95 124 159 208 259 301 371
#
# _framework density 21.966833999999999
#
# number of rings (size 3 to 8) (size 9 to 14) (size 15 to 20)
#    0.000    2.500    0.000    0.750    5.250    9.500 
#    0.000    8.125    0.000    0.000    0.000    0.000 
#    0.000    0.000    0.000    0.000    0.000    0.000 
#
# Total GULP energy -198231.326151 kJ/mol
# GULP energy per Si atom -12389.457884 kJ/mol
# Density = 2.191684 g / cm^3
# Si number density = 21.966834 Si / 1000 Ang^3
#
#
#
# Elastic Constant Matrix: (Units=GPa)
#
#
# Indices 1 2 3 4 5 6 
#
# 1 85.8736 26.8025 36.9243 16.9994 5.5205 18.1490
# 2 26.8025 46.2535 16.3619 5.0419 -6.9445 2.7414
# 3 36.9243 16.3619 99.8225 28.0480 10.1088 14.0005
# 4 16.9994 5.0419 28.0480 35.5625 4.2230 10.0898
# 5 5.5205 -6.9445 10.1088 4.2230 29.8868 2.2439
# 6 18.1490 2.7414 14.0005 10.0898 2.2439 34.8337
#
#
#
# Elastic Compliance Matrix: (Units=1/GPa)
#
#
# Indices 1 2 3 4 5 6 
#
# 1 0.017946 -0.009152 -0.003168 -0.002550 -0.003530 -0.006391
# 2 -0.009152 0.029073 -0.002883 0.000630 0.009116 0.002869
# 3 -0.003168 -0.002883 0.014707 -0.008889 -0.003711 -0.001220
# 4 -0.002550 0.000630 -0.008889 0.038150 -0.001307 -0.006114
# 5 -0.003530 0.009116 -0.003711 -0.001307 0.037627 0.000568
# 6 -0.006391 0.002869 -0.001220 -0.006114 0.000568 0.034036
#
#
# Mechanical properties :
#
#
# Convention : Reuss Voigt Hill
#
# Bulk Modulus (GPa) = 31.92740 43.56967 37.74854
# Shear Modulus (GPa) = 23.54226 30.18067 26.86147
#
# Velocity S-wave (km/s) = 3.27726 3.71066 3.50068
# Velocity P-wave (km/s) = 5.37462 6.18353 5.79321
#
# Compressibility (1/GPa) = 0.03132106
#
# Stress axis : x y z
#
# Youngs Moduli (GPa) = 55.72306 34.39631 67.99618
#
# Poissons Ratio (x) = 0.31478 0.21540
# Poissons Ratio (y) = 0.50996 0.19601
# Poissons Ratio (z) = 0.17652 0.09915
#
# Static dielectric constant tensor:
#      x y z
#    x 3.872490 0.156050 0.163900 
#    y 0.156050 3.939640 0.166970 
#    z 0.163900 0.166970 4.679800 
# 
# 
# High freq. dielectric constant tensor:
#      x y z
#    x 1.859910 0.013430 0.015710 
#    y 0.013430 1.852520 0.006090 
#    z 0.015710 0.006090 1.866290 
# 
# From -- ./inp_files/245967.got.cif
#   From: 2010.06.25/outbox.cif.g09.slc.cpg/sg2_123_cif.got.tgz:245967.got - 2010.06.27 13:26:56.
