data_PCOD8016110
_publ_section_title
;
Structure prediction by ZEFSAII (Michael W. Deem and Ramdas Pophale) SiO2 
 PCOD8016110
Probable space group: P -1
;
_chemical_formula_sum "Si O2"
_cell_formula_units_Z 16
_cell_length_a 15.035104
_cell_length_b 8.340458
_cell_length_c 12.203138
_cell_angle_alpha 108.518890
_cell_angle_beta 122.074293
_cell_angle_gamma 120.072547
_cell_volume 679.223977
_symmetry_space_group_name_H-M "P -1"
_symmetry_group_IT_number 2
_symmetry_cell_setting 'triclinic'
loop_
_space_group_symop_operation_xyz
x,y,z
-x,-y,-z
loop_
_atom_site_type_symbol
_atom_site_label
_atom_site_fract_x
_atom_site_fract_y
_atom_site_fract_z
Si Si1 0.105600 0.759344 0.815323
Si Si2 0.086783 0.346059 0.988983
Si Si3 0.270233 0.930746 0.564383
Si Si4 0.027335 0.996875 0.698836
Si Si5 0.755123 0.073608 0.831959
Si Si6 0.724431 0.684924 0.271318
Si Si7 0.529458 0.233441 0.591465
Si Si8 0.385346 0.004825 0.884973
O O1 0.928468 0.419699 0.679380
O O2 0.037296 0.851305 0.754045
O O3 0.187857 0.762603 0.768023
O O4 0.266699 0.990870 0.066315
O O5 0.009523 0.145321 0.788432
O O6 0.909902 0.145826 0.907971
O O7 0.182503 0.649689 0.083208
O O8 0.244096 0.435859 0.171737
O O9 0.237238 0.072075 0.619462
O O10 0.415731 0.133899 0.603957
O O11 0.348544 0.924042 0.714954
O O12 0.212866 0.260464 0.801253
O O13 0.844107 0.728025 0.442312
O O14 0.556087 0.777829 0.571406
O O15 0.504377 0.336960 0.056477
O O16 0.500000 0.000000 0.500000
O O17 0.500000 0.000000 0.000000
#
# Coordination Sequence:
#
# PCOD8016110 Si02
#       8
#     2   2   2   2   2   2   2   2
#     4  12  26  43  66 101 140 173 220 285 344 395
#     4  10  21  43  70  97 130 184 233 276 334 404
#     4  12  24  45  72  96 136 179 227 277 334 410
#     4  11  24  42  69  94 136 177 226 278 340 401
#     4  10  22  43  66 101 134 179 229 282 337 402
#     4  11  25  44  68  98 131 180 228 271 337 415
#     4  10  22  39  71 100 126 179 234 273 329 402
#     4  12  28  42  66 104 138 174 222 282 342 400
#
# _framework density 23.556296
#
# number of rings (size 3 to 8) (size 9 to 14) (size 15 to 20)
#    0.000    1.000    1.250    6.000   10.500    0.500 
#    2.250    0.625    0.000    0.000    0.000    0.000 
#    0.000    0.000    0.000    0.000    0.000    0.000 
#
# Total GULP energy -198436.292992 kJ/mol
# GULP energy per Si atom -12402.268312 kJ/mol
# Density = 2.350268 g / cm^3
# Si number density = 23.556296 Si / 1000 Ang^3
#
#
#
# Elastic Constant Matrix: (Units=GPa)
#
#
# Indices 1 2 3 4 5 6 
#
# 1 103.1404 15.5152 23.1368 -1.6653 -8.7613 -2.3646
# 2 15.5152 59.3805 30.6337 -24.0741 -0.5720 -6.3206
# 3 23.1368 30.6337 120.7045 -26.9605 8.0493 8.6166
# 4 -1.6653 -24.0741 -26.9605 43.8759 3.7518 -1.8387
# 5 -8.7613 -0.5720 8.0493 3.7518 39.7853 -4.7993
# 6 -2.3646 -6.3206 8.6166 -1.8387 -4.7993 19.1502
#
#
#
# Elastic Compliance Matrix: (Units=1/GPa)
#
#
# Indices 1 2 3 4 5 6 
#
# 1 0.010898 -0.002352 -0.002456 -0.002580 0.003381 0.002274
# 2 -0.002352 0.025686 -0.004337 0.011736 0.001012 0.011519
# 3 -0.002456 -0.004337 0.011768 0.004811 -0.004362 -0.007661
# 4 -0.002580 0.011736 0.004811 0.032580 -0.004021 0.003511
# 5 0.003381 0.001012 -0.004362 -0.004021 0.028292 0.009418
# 6 0.002274 0.011519 -0.007661 0.003511 0.009418 0.062446
#
#
# Mechanical properties :
#
#
# Convention : Reuss Voigt Hill
#
# Bulk Modulus (GPa) = 33.26268 46.86630 40.06449
# Shear Modulus (GPa) = 25.00263 34.82493 29.91378
#
# Velocity S-wave (km/s) = 3.26145 3.84913 3.56741
# Velocity P-wave (km/s) = 5.32296 6.30024 5.83210
#
# Compressibility (1/GPa) = 0.03006373
#
# Stress axis : x y z
#
# Youngs Moduli (GPa) = 91.76105 38.93183 84.97406
#
# Poissons Ratio (x) = 0.09155 0.20870
# Poissons Ratio (y) = 0.21579 0.36849
# Poissons Ratio (z) = 0.22537 0.16883
#
# Static dielectric constant tensor:
#      x y z
#    x 4.072790 -0.062170 0.099870 
#    y -0.062170 3.962240 -0.392950 
#    z 0.099870 -0.392950 4.907310 
# 
# 
# High freq. dielectric constant tensor:
#      x y z
#    x 1.938420 -0.004840 -0.000090 
#    y -0.004840 1.910290 -0.023700 
#    z -0.000090 -0.023700 1.949210 
# 
# From -- ./inp_files/447872.got.cif
#   From: 2010.06.25/outbox.cif.g09.slc.cpg/sg2_224_cif.got.tgz:447872.got - 2010.06.27 13:26:56.
