data_PCOD8016767
_publ_section_title
;
Structure prediction by ZEFSAII (Michael W. Deem and Ramdas Pophale) SiO2 
 PCOD8016767
Probable space group: P -1
;
_chemical_formula_sum "Si O2"
_cell_formula_units_Z 14
_cell_length_a 14.962095
_cell_length_b 8.912615
_cell_length_c 15.005167
_cell_angle_alpha 55.686963
_cell_angle_beta 28.558918
_cell_angle_gamma 74.793129
_cell_volume 638.156852
_symmetry_space_group_name_H-M "P -1"
_symmetry_group_IT_number 2
_symmetry_cell_setting 'triclinic'
loop_
_space_group_symop_operation_xyz
x,y,z
-x,-y,-z
loop_
_atom_site_type_symbol
_atom_site_label
_atom_site_fract_x
_atom_site_fract_y
_atom_site_fract_z
Si Si1 0.359701 0.839145 0.758790
Si Si2 0.866463 0.683577 0.521641
Si Si3 0.263566 0.358723 0.701753
Si Si4 0.014428 0.111438 0.843542
Si Si5 0.975185 0.426686 0.147998
Si Si6 0.647853 0.172626 0.892679
Si Si7 0.651687 0.930698 0.642373
O O1 0.518256 0.847411 0.693992
O O2 0.500000 0.000000 0.500000
O O3 0.193086 0.898440 0.923767
O O4 0.219026 0.585069 0.930956
O O5 0.696672 0.413991 0.756368
O O6 0.729217 0.772745 0.656788
O O7 0.931384 0.769302 0.336426
O O8 0.103002 0.783873 0.335469
O O9 0.500000 0.500000 0.500000
O O10 0.206605 0.532296 0.668173
O O11 0.245616 0.244778 0.659648
O O12 0.074762 0.148723 0.001675
O O13 0.883211 0.176202 0.336636
O O14 0.000000 0.500000 0.000000
O O15 0.503210 0.066418 0.146112
O O16 0.500000 0.000000 0.000000
#
# Coordination Sequence:
#
# PCOD8016767 Si02
#       7
#     2   2   2   2   2   2   2
#     4  11  23  40  64  96 145 188 220 272 339 403
#     4  11  26  47  72 102 134 175 238 286 349 415
#     4  10  22  34  59  91 134 177 219 262 326 394
#     4  10  22  40  61  95 137 180 225 274 330 410
#     4  11  23  37  60  99 138 176 227 267 323 414
#     4  11  28  49  74 100 132 176 234 300 354 401
#     4  12  25  45  72 101 141 182 226 282 350 405
#
# _framework density 21.938181
#
# number of rings (size 3 to 8) (size 9 to 14) (size 15 to 20)
#    0.000    1.143    2.857    2.143    8.000    1.714 
#    0.000    0.000    0.000    0.000    0.000    0.000 
#    0.000    0.000    0.000    0.000    0.000    0.000 
#
# Total GULP energy -173505.784213 kJ/mol
# GULP energy per Si atom -12393.270301 kJ/mol
# Density = 2.188825 g / cm^3
# Si number density = 21.938181 Si / 1000 Ang^3
#
#
#
# Elastic Constant Matrix: (Units=GPa)
#
#
# Indices 1 2 3 4 5 6 
#
# 1 123.2039 39.1353 50.8376 -25.5434 -17.5649 14.0318
# 2 39.1353 89.1295 40.4632 -21.8453 -17.4334 -4.2647
# 3 50.8376 40.4632 96.5596 -25.6778 -13.1236 15.7420
# 4 -25.5434 -21.8453 -25.6778 45.8589 8.5866 -2.7356
# 5 -17.5649 -17.4334 -13.1236 8.5866 52.4117 -4.7173
# 6 14.0318 -4.2647 15.7420 -2.7356 -4.7173 40.2523
#
#
#
# Elastic Compliance Matrix: (Units=1/GPa)
#
#
# Indices 1 2 3 4 5 6 
#
# 1 0.011487 -0.002563 -0.003652 0.002719 0.001413 -0.002497
# 2 -0.002563 0.016300 -0.005029 0.003224 0.003242 0.005186
# 3 -0.003652 -0.005029 0.016452 0.004459 0.000007 -0.005390
# 4 0.002719 0.003224 0.004459 0.027592 -0.001478 -0.000648
# 5 0.001413 0.003242 0.000007 -0.001478 0.021075 0.002218
# 6 -0.002497 0.005186 -0.005390 -0.000648 0.002218 0.028587
#
#
# Mechanical properties :
#
#
# Convention : Reuss Voigt Hill
#
# Bulk Modulus (GPa) = 45.97115 63.30725 54.63920
# Shear Modulus (GPa) = 33.06207 39.60170 36.33189
#
# Velocity S-wave (km/s) = 3.88629 4.25331 4.07394
# Velocity P-wave (km/s) = 6.41390 7.28290 6.86217
#
# Compressibility (1/GPa) = 0.02175277
#
# Stress axis : x y z
#
# Youngs Moduli (GPa) = 87.05450 61.34806 60.78355
#
# Poissons Ratio (x) = 0.15722 0.22196
# Poissons Ratio (y) = 0.22309 0.30568
# Poissons Ratio (z) = 0.31789 0.30852
#
# Static dielectric constant tensor:
#      x y z
#    x 4.032130 -0.042720 -0.124150 
#    y -0.042720 3.787920 0.068860 
#    z -0.124150 0.068860 3.944220 
# 
# 
# High freq. dielectric constant tensor:
#      x y z
#    x 1.864740 0.000870 -0.006030 
#    y 0.000870 1.870130 -0.009780 
#    z -0.006030 -0.009780 1.865180 
# 
# From -- ./inp_files/528221.got.cif
#   From: 2010.06.25/outbox.cif.g09.slc.cpg/sg2_265_cif.got.tgz:528221.got - 2010.06.27 13:26:56.
