data_PCOD8016374
_publ_section_title
;
Structure prediction by ZEFSAII (Michael W. Deem and Ramdas Pophale) SiO2 
 PCOD8016374
Probable space group: P -1
;
_chemical_formula_sum "Si O2"
_cell_formula_units_Z 16
_cell_length_a 9.292689
_cell_length_b 26.623066
_cell_length_c 14.123747
_cell_angle_alpha 158.420796
_cell_angle_beta 49.052585
_cell_angle_gamma 142.142778
_cell_volume 739.002543
_symmetry_space_group_name_H-M "P -1"
_symmetry_group_IT_number 2
_symmetry_cell_setting 'triclinic'
loop_
_space_group_symop_operation_xyz
x,y,z
-x,-y,-z
loop_
_atom_site_type_symbol
_atom_site_label
_atom_site_fract_x
_atom_site_fract_y
_atom_site_fract_z
Si Si1 0.319820 0.027104 0.175594
Si Si2 0.426241 0.596643 0.342974
Si Si3 0.768262 0.989354 0.600931
Si Si4 0.156697 0.689678 0.940131
Si Si5 0.975040 0.160037 0.198721
Si Si6 0.593390 0.787868 0.801826
Si Si7 0.352543 0.584031 0.037446
Si Si8 0.899658 0.495769 0.182622
O O1 0.445687 0.236344 0.491725
O O2 0.238681 0.953986 0.189238
O O3 0.500000 0.000000 0.000000
O O4 0.071088 0.906485 0.006734
O O5 0.532719 0.676953 0.540333
O O6 0.130212 0.475806 0.251318
O O7 0.509367 0.479232 0.082360
O O8 0.514138 0.795005 0.346259
O O9 0.794663 0.126274 0.756639
O O10 0.000000 0.000000 0.500000
O O11 0.328721 0.702321 0.809144
O O12 0.236350 0.662739 0.959265
O O13 0.251104 0.235425 0.235502
O O14 0.962575 0.316762 0.493312
O O15 0.759815 0.998859 0.077270
O O16 0.095623 0.486350 0.031975
O O17 0.295096 0.534893 0.864323
#
# Coordination Sequence:
#
# PCOD8016374 Si02
#       8
#     2   2   2   2   2   2   2   2
#     4  11  24  43  71  99 131 179 226 272 330 399
#     4  11  22  42  70  98 131 176 221 270 328 400
#     4  12  26  44  64  97 139 174 219 279 335 390
#     4  12  25  41  66  97 134 173 223 276 329 388
#     4  10  21  44  68  98 132 173 222 270 330 392
#     4  10  22  40  68 101 133 169 216 276 334 390
#     4  11  24  46  67  93 138 175 222 266 333 405
#     4  11  25  43  70  98 129 179 220 273 328 401
#
# _framework density 21.650805999999999
#
# number of rings (size 3 to 8) (size 9 to 14) (size 15 to 20)
#    0.000    1.000    2.500    4.875    1.750    4.000 
#    0.000    0.000    0.000    0.000    0.000    0.000 
#    0.000    0.000    0.000    0.000    0.000    0.000 
#
# Total GULP energy -198439.670425 kJ/mol
# GULP energy per Si atom -12402.479402 kJ/mol
# Density = 2.160153 g / cm^3
# Si number density = 21.650806 Si / 1000 Ang^3
#
#
#
# Elastic Constant Matrix: (Units=GPa)
#
#
# Indices 1 2 3 4 5 6 
#
# 1 86.0472 28.1102 31.1253 8.2402 -12.2619 1.6953
# 2 28.1102 74.5533 22.7345 -4.7985 -7.3203 -6.1015
# 3 31.1253 22.7345 101.0068 5.3222 -13.2679 -19.6521
# 4 8.2402 -4.7985 5.3222 24.0520 1.4562 -8.3373
# 5 -12.2619 -7.3203 -13.2679 1.4562 41.1819 5.7366
# 6 1.6953 -6.1015 -19.6521 -8.3373 5.7366 31.0760
#
#
#
# Elastic Compliance Matrix: (Units=1/GPa)
#
#
# Indices 1 2 3 4 5 6 
#
# 1 0.016666 -0.005778 -0.004393 -0.008878 0.003939 -0.007931
# 2 -0.005778 0.016894 -0.001516 0.007306 -0.000113 0.004654
# 3 -0.004393 -0.001516 0.013374 0.001064 0.001523 0.008404
# 4 -0.008878 0.007306 0.001064 0.052259 -0.005300 0.017590
# 5 0.003939 -0.000113 0.001523 -0.005300 0.026902 -0.005662
# 6 -0.007931 0.004654 0.008404 0.017590 -0.005662 0.044605
#
#
# Mechanical properties :
#
#
# Convention : Reuss Voigt Hill
#
# Bulk Modulus (GPa) = 42.44453 47.28304 44.86379
# Shear Modulus (GPa) = 24.76138 31.23779 27.99959
#
# Velocity S-wave (km/s) = 3.38549 3.80254 3.60006
# Velocity P-wave (km/s) = 5.91005 6.41603 6.16823
#
# Compressibility (1/GPa) = 0.02356016
#
# Stress axis : x y z
#
# Youngs Moduli (GPa) = 60.00317 59.19186 74.76976
#
# Poissons Ratio (x) = 0.34201 0.32846
# Poissons Ratio (y) = 0.34669 0.11337
# Poissons Ratio (z) = 0.26359 0.08975
#
# Static dielectric constant tensor:
#      x y z
#    x 4.223030 -0.092690 -0.049640 
#    y -0.092690 3.779800 0.099730 
#    z -0.049640 0.099730 3.995860 
# 
# 
# High freq. dielectric constant tensor:
#      x y z
#    x 1.866850 0.000640 -0.005730 
#    y 0.000640 1.837950 0.001080 
#    z -0.005730 0.001080 1.856350 
# 
# From -- ./inp_files/243540.got.cif
#   From: 2010.06.25/outbox.cif.g09.slc.cpg/sg2_122_cif.got.tgz:243540.got - 2010.06.27 13:26:56.
