data_PCOD8016780
_publ_section_title
;
Structure prediction by ZEFSAII (Michael W. Deem and Ramdas Pophale) SiO2 
 PCOD8016780
Probable space group: P -1
;
_chemical_formula_sum "Si O2"
_cell_formula_units_Z 16
_cell_length_a 5.510931
_cell_length_b 12.824668
_cell_length_c 19.454116
_cell_angle_alpha 132.367520
_cell_angle_beta 45.964026
_cell_angle_gamma 111.983947
_cell_volume 718.755125
_symmetry_space_group_name_H-M "P -1"
_symmetry_group_IT_number 2
_symmetry_cell_setting 'triclinic'
loop_
_space_group_symop_operation_xyz
x,y,z
-x,-y,-z
loop_
_atom_site_type_symbol
_atom_site_label
_atom_site_fract_x
_atom_site_fract_y
_atom_site_fract_z
Si Si1 0.484454 0.123793 0.978203
Si Si2 0.248245 0.894360 0.486298
Si Si3 0.381286 0.423253 0.374627
Si Si4 0.300733 0.193275 0.187851
Si Si5 0.434046 0.814203 0.655541
Si Si6 0.732388 0.873264 0.129449
Si Si7 0.625236 0.705890 0.428586
Si Si8 0.768520 0.172691 0.686619
O O1 0.330296 0.181289 0.960001
O O2 0.875447 0.145617 0.929292
O O3 0.438806 0.956996 0.918119
O O4 0.248022 0.211567 0.123391
O O5 0.266555 0.779316 0.494453
O O6 0.378408 0.808597 0.353224
O O7 0.500000 0.000000 0.500000
O O8 0.883231 0.000250 0.599209
O O9 0.432483 0.330597 0.253410
O O10 0.497251 0.323404 0.371359
O O11 0.628052 0.539968 0.369030
O O12 0.000000 0.500000 0.500000
O O13 0.954933 0.179283 0.290596
O O14 0.673874 0.786421 0.527558
O O15 0.456024 0.960346 0.756227
O O16 0.531858 0.778005 0.176857
O O17 0.929640 0.731209 0.327675
#
# Coordination Sequence:
#
# PCOD8016780 Si02
#       8
#     2   2   2   2   2   2   2   2
#     4  10  24  41  67  97 124 168 217 274 326 370
#     4   9  19  35  54  83 121 164 207 250 321 368
#     4  12  25  39  61  91 131 172 212 258 320 396
#     4  10  23  41  63  90 128 167 212 268 321 383
#     4  11  23  38  60  92 132 169 208 264 321 393
#     4  11  23  39  68  96 127 164 217 273 324 374
#     4  11  24  36  58  88 130 172 207 253 321 395
#     4  10  22  35  58  86 126 164 208 268 311 389
#
# _framework density 22.260712000000002
#
# number of rings (size 3 to 8) (size 9 to 14) (size 15 to 20)
#    0.000    1.500    2.500    2.625   12.250    1.500 
#    0.000    0.000    0.000    1.500    0.000    0.000 
#    0.000    0.000    0.000    0.000    0.000    0.000 
#
# Total GULP energy -198244.563909 kJ/mol
# GULP energy per Si atom -12390.285244 kJ/mol
# Density = 2.221005 g / cm^3
# Si number density = 22.260712 Si / 1000 Ang^3
#
#
#
# Elastic Constant Matrix: (Units=GPa)
#
#
# Indices 1 2 3 4 5 6 
#
# 1 81.8433 22.4042 22.2383 -4.0809 25.2359 -5.7711
# 2 22.4042 94.4279 23.5644 -12.6158 2.5576 7.1473
# 3 22.2383 23.5644 80.1205 -13.5618 24.5158 5.1333
# 4 -4.0809 -12.6158 -13.5618 33.2632 -3.7961 0.8376
# 5 25.2359 2.5576 24.5158 -3.7961 34.8922 -6.8121
# 6 -5.7711 7.1473 5.1333 0.8376 -6.8121 36.5485
#
#
#
# Elastic Compliance Matrix: (Units=1/GPa)
#
#
# Indices 1 2 3 4 5 6 
#
# 1 0.016992 -0.003870 -0.000232 -0.000843 -0.011678 0.001315
# 2 -0.003870 0.012832 -0.003229 0.003597 0.004132 -0.001979
# 3 -0.000232 -0.003229 0.018613 0.004964 -0.013023 -0.004561
# 4 -0.000843 0.003597 0.004964 0.033411 0.000046 -0.002291
# 5 -0.011678 0.004132 -0.013023 0.000046 0.047527 0.008035
# 6 0.001315 -0.001979 -0.004561 -0.002291 0.008035 0.030146
#
#
# Mechanical properties :
#
#
# Convention : Reuss Voigt Hill
#
# Bulk Modulus (GPa) = 29.60593 43.64506 36.62549
# Shear Modulus (GPa) = 26.96270 33.48643 30.22457
#
# Velocity S-wave (km/s) = 3.48404 3.88272 3.68877
# Velocity P-wave (km/s) = 5.43261 6.30472 5.88484
#
# Compressibility (1/GPa) = 0.03377702
#
# Stress axis : x y z
#
# Youngs Moduli (GPa) = 58.84981 77.92751 53.72705
#
# Poissons Ratio (x) = 0.30156 0.01246
# Poissons Ratio (y) = 0.22773 0.17346
# Poissons Ratio (z) = 0.01365 0.25159
#
# Static dielectric constant tensor:
#      x y z
#    x 5.253060 -0.220560 -0.212620 
#    y -0.220560 4.115290 -0.103300 
#    z -0.212620 -0.103300 4.214160 
# 
# 
# High freq. dielectric constant tensor:
#      x y z
#    x 1.884240 0.008130 0.013650 
#    y 0.008130 1.864600 -0.028220 
#    z 0.013650 -0.028220 1.847980 
# 
# From -- ./inp_files/77022.got.cif
#   From: 2010.06.25/outbox.cif.g09.slc.cpg/sg2_39_cif.got.tgz:77022.got - 2010.06.27 13:26:56.
