data_PCOD8016194
_publ_section_title
;
Structure prediction by ZEFSAII (Michael W. Deem and Ramdas Pophale) SiO2 
 PCOD8016194
Probable space group: P -1
;
_chemical_formula_sum "Si O2"
_cell_formula_units_Z 16
_cell_length_a 11.843642
_cell_length_b 8.950418
_cell_length_c 20.491818
_cell_angle_alpha 29.046565
_cell_angle_beta 42.335806
_cell_angle_gamma 53.197389
_cell_volume 702.861700
_symmetry_space_group_name_H-M "P -1"
_symmetry_group_IT_number 2
_symmetry_cell_setting 'triclinic'
loop_
_space_group_symop_operation_xyz
x,y,z
-x,-y,-z
loop_
_atom_site_type_symbol
_atom_site_label
_atom_site_fract_x
_atom_site_fract_y
_atom_site_fract_z
Si Si1 0.463732 0.634114 0.160893
Si Si2 0.400149 0.367745 0.156803
Si Si3 0.885802 0.061965 0.085428
Si Si4 0.969629 0.465237 0.724001
Si Si5 0.928418 0.340465 0.256087
Si Si6 0.081375 0.353555 0.461949
Si Si7 0.570804 0.360551 0.344481
Si Si8 0.489527 0.261281 0.654717
O O1 0.507443 0.481379 0.132233
O O2 0.272800 0.512500 0.310681
O O3 0.584608 0.530119 0.204363
O O4 0.500000 0.000000 0.000000
O O5 0.225056 0.514738 0.180253
O O6 0.375981 0.988375 0.311241
O O7 0.500000 0.500000 0.000000
O O8 0.692285 0.951278 0.192396
O O9 0.969594 0.878668 0.178143
O O10 0.919531 0.439749 0.931300
O O11 0.000000 0.000000 0.000000
O O12 0.014814 0.631458 0.571922
O O13 0.083044 0.626245 0.672964
O O14 0.754879 0.419526 0.272721
O O15 0.942326 0.990647 0.369079
O O16 0.000000 0.500000 0.500000
O O17 0.466613 0.539269 0.373533
O O18 0.500000 0.000000 0.500000
O O19 0.500000 0.500000 0.500000
#
# Coordination Sequence:
#
# PCOD8016194 Si02
#       8
#     2   2   2   2   2   2   2   2
#     4  11  26  45  71 101 146 193 231 293 375 428
#     4  11  24  44  72 109 139 183 246 301 355 427
#     4  10  21  43  73 101 133 183 240 288 352 418
#     4  10  23  44  75 100 141 186 238 297 358 419
#     4  11  23  44  75 101 135 189 245 288 356 429
#     4  11  26  46  68 104 144 189 238 293 361 432
#     4  12  24  46  71  99 147 191 234 295 368 433
#     4  12  26  42  73 109 143 183 246 299 353 432
#
# _framework density 22.764081000000001
#
# number of rings (size 3 to 8) (size 9 to 14) (size 15 to 20)
#    0.000    1.000    3.750    3.375    5.250    5.000 
#    2.250    0.625    0.000    0.000    0.000    0.000 
#    0.000    0.000    0.000    0.000    0.000    0.000 
#
# Total GULP energy -198238.710833 kJ/mol
# GULP energy per Si atom -12389.919427 kJ/mol
# Density = 2.271227 g / cm^3
# Si number density = 22.764081 Si / 1000 Ang^3
#
#
#
# Elastic Constant Matrix: (Units=GPa)
#
#
# Indices 1 2 3 4 5 6 
#
# 1 140.4868 47.1732 28.1297 1.3591 15.0735 17.4028
# 2 47.1732 123.6349 56.3582 -13.7142 11.5946 27.9910
# 3 28.1297 56.3582 135.3696 -26.1026 0.5338 0.6727
# 4 1.3591 -13.7142 -26.1026 47.6021 -0.0071 4.3448
# 5 15.0735 11.5946 0.5338 -0.0071 44.8105 -0.4217
# 6 17.4028 27.9910 0.6727 4.3448 -0.4217 35.4305
#
#
#
# Elastic Compliance Matrix: (Units=1/GPa)
#
#
# Indices 1 2 3 4 5 6 
#
# 1 0.008627 -0.002165 -0.001114 -0.001264 -0.002351 -0.002379
# 2 -0.002165 0.013972 -0.004850 0.002359 -0.002925 -0.010207
# 3 -0.001114 -0.004850 0.010383 0.003989 0.001542 0.003711
# 4 -0.001264 0.002359 0.003989 0.024303 -0.000269 -0.004302
# 5 -0.002351 -0.002925 0.001542 -0.000269 0.023881 0.003754
# 6 -0.002379 -0.010207 0.003711 -0.004302 0.003754 0.037958
#
#
# Mechanical properties :
#
#
# Convention : Reuss Voigt Hill
#
# Bulk Modulus (GPa) = 59.79505 73.64594 66.72050
# Shear Modulus (GPa) = 35.47179 43.42397 39.44788
#
# Velocity S-wave (km/s) = 3.95173 4.37231 4.16733
# Velocity P-wave (km/s) = 6.86629 7.60996 7.24767
#
# Compressibility (1/GPa) = 0.01672379
#
# Stress axis : x y z
#
# Youngs Moduli (GPa) = 115.91017 71.57150 96.31518
#
# Poissons Ratio (x) = 0.15496 0.10730
# Poissons Ratio (y) = 0.25096 0.46712
# Poissons Ratio (z) = 0.12913 0.34712
#
# Static dielectric constant tensor:
#      x y z
#    x 5.114510 -0.381870 2.762160 
#    y -0.381870 4.582860 -2.073770 
#    z 2.762160 -2.073770 13.994600 
# 
# 
# High freq. dielectric constant tensor:
#      x y z
#    x 1.910690 -0.003080 0.015430 
#    y -0.003080 1.888140 -0.015740 
#    z 0.015430 -0.015740 1.909960 
# 
# From -- ./inp_files/593345.got.cif
#   From: 2010.06.25/outbox.cif.g09.slc.cpg/sg2_297_cif.got.tgz:593345.got - 2010.06.27 13:26:56.
