data_PCOD8016717
_publ_section_title
;
Structure prediction by ZEFSAII (Michael W. Deem and Ramdas Pophale) SiO2 
 PCOD8016717
Probable space group: P -1
;
_chemical_formula_sum "Si O2"
_cell_formula_units_Z 10
_cell_length_a 5.398930
_cell_length_b 14.968619
_cell_length_c 13.722256
_cell_angle_alpha 160.635299
_cell_angle_beta 87.896998
_cell_angle_gamma 90.364013
_cell_volume 366.120982
_symmetry_space_group_name_H-M "P -1"
_symmetry_group_IT_number 2
_symmetry_cell_setting 'triclinic'
loop_
_space_group_symop_operation_xyz
x,y,z
-x,-y,-z
loop_
_atom_site_type_symbol
_atom_site_label
_atom_site_fract_x
_atom_site_fract_y
_atom_site_fract_z
Si Si1 0.765393 0.329786 0.817844
Si Si2 0.046620 0.473373 0.312650
Si Si3 0.673897 0.730276 0.720625
Si Si4 0.402243 0.765629 0.478619
Si Si5 0.272266 0.776613 0.086987
O O1 0.776855 0.180820 0.558813
O O2 0.784960 0.117343 0.691478
O O3 0.500000 0.500000 0.000000
O O4 0.000000 0.500000 0.000000
O O5 0.134713 0.280362 0.202896
O O6 0.247002 0.671321 0.475781
O O7 0.815503 0.679723 0.563541
O O8 0.972945 0.255868 0.008345
O O9 0.500000 0.500000 0.500000
O O10 0.500000 0.000000 0.000000
O O11 0.534799 0.041022 0.782334
O O12 0.616713 0.530194 0.213293
#
# Coordination Sequence:
#
# PCOD8016717 Si02
#       5
#     2   2   2   2   2
#     4  10  21  46  74 113 163 213 262 323 389 470
#     4  11  26  49  80 110 152 207 258 331 402 480
#     4  11  28  51  77 110 151 195 260 331 411 484
#     4  11  25  45  73 113 155 204 260 318 384 473
#     4  11  25  45  73 113 155 204 260 318 384 473
#
# _framework density 27.313375000000001
#
# number of rings (size 3 to 8) (size 9 to 14) (size 15 to 20)
#    0.000    1.200    2.000    1.800    0.000   14.400 
#    0.000    7.000    0.000    0.000    0.000    1.400 
#    0.000    0.000    0.000    0.000    0.000    0.000 
#
# Total GULP energy -123989.853364 kJ/mol
# GULP energy per Si atom -12398.985336 kJ/mol
# Density = 2.725121 g / cm^3
# Si number density = 27.313375 Si / 1000 Ang^3
#
#
#
# Elastic Constant Matrix: (Units=GPa)
#
#
# Indices 1 2 3 4 5 6 
#
# 1 109.3009 14.7093 27.9712 14.0699 31.4376 8.6818
# 2 14.7093 140.0975 27.6409 -6.1464 9.9374 6.5968
# 3 27.9712 27.6409 110.8187 15.7632 20.9112 -11.4090
# 4 14.0699 -6.1464 15.7632 35.2720 4.2510 6.7947
# 5 31.4376 9.9374 20.9112 4.2510 49.8675 4.0588
# 6 8.6818 6.5968 -11.4090 6.7947 4.0588 54.3970
#
#
#
# Elastic Compliance Matrix: (Units=1/GPa)
#
#
# Indices 1 2 3 4 5 6 
#
# 1 0.011949 -0.000626 -0.001293 -0.003283 -0.006488 -0.001208
# 2 -0.000626 0.007907 -0.002366 0.003053 -0.000309 -0.001713
# 3 -0.001293 -0.002366 0.011786 -0.005495 -0.003506 0.003913
# 4 -0.003283 0.003053 -0.005495 0.033505 0.001340 -0.005284
# 5 -0.006488 -0.000309 -0.003506 0.001340 0.025703 -0.001748
# 6 -0.001208 -0.001713 0.003913 -0.005284 -0.001748 0.020395
#
#
# Mechanical properties :
#
#
# Convention : Reuss Voigt Hill
#
# Bulk Modulus (GPa) = 43.34454 55.65111 49.49783
# Shear Modulus (GPa) = 39.21354 47.23369 43.22362
#
# Velocity S-wave (km/s) = 3.79316 4.16303 3.98239
# Velocity P-wave (km/s) = 5.92350 6.59750 6.26956
#
# Compressibility (1/GPa) = 0.02307095
#
# Stress axis : x y z
#
# Youngs Moduli (GPa) = 83.69046 126.46891 84.84327
#
# Poissons Ratio (x) = 0.07922 0.10969
# Poissons Ratio (y) = 0.05243 0.20077
# Poissons Ratio (z) = 0.10820 0.29927
#
# Static dielectric constant tensor:
#      x y z
#    x 5.123700 -0.335150 0.006400 
#    y -0.335150 11.538670 -0.156800 
#    z 0.006400 -0.156800 4.553330 
# 
# 
# High freq. dielectric constant tensor:
#      x y z
#    x 2.115440 -0.007820 0.002560 
#    y -0.007820 2.127540 -0.004850 
#    z 0.002560 -0.004850 2.077880 
# 
# From -- ./inp_files/85523.got.cif
#   From: 2010.06.25/outbox.cif.g09.slc.cpg/sg2_43_cif.got.tgz:85523.got - 2010.06.27 13:26:56.
