data_PCOD8016675
_publ_section_title
;
Structure prediction by ZEFSAII (Michael W. Deem and Ramdas Pophale) SiO2 
 PCOD8016675
Probable space group: P -1
;
_chemical_formula_sum "Si O2"
_cell_formula_units_Z 14
_cell_length_a 11.731224
_cell_length_b 10.200367
_cell_length_c 11.033573
_cell_angle_alpha 142.875791
_cell_angle_beta 51.694209
_cell_angle_gamma 126.996293
_cell_volume 608.980193
_symmetry_space_group_name_H-M "P -1"
_symmetry_group_IT_number 2
_symmetry_cell_setting 'triclinic'
loop_
_space_group_symop_operation_xyz
x,y,z
-x,-y,-z
loop_
_atom_site_type_symbol
_atom_site_label
_atom_site_fract_x
_atom_site_fract_y
_atom_site_fract_z
Si Si1 0.906124 0.525249 0.463385
Si Si2 0.154075 0.034471 0.245106
Si Si3 0.698536 0.919992 0.350047
Si Si4 0.602238 0.238654 0.463303
Si Si5 0.442115 0.035131 0.933152
Si Si6 0.749828 0.178250 0.749282
Si Si7 0.943578 0.659983 0.976827
O O1 0.939419 0.772558 0.563218
O O2 0.729920 0.460448 0.563231
O O3 0.000000 0.500000 0.500000
O O4 0.948325 0.346613 0.212408
O O5 0.215718 0.015275 0.326518
O O6 0.285765 0.105308 0.109901
O O7 0.047015 0.791637 0.111728
O O8 0.557956 0.736810 0.362393
O O9 0.646921 0.032332 0.349326
O O10 0.765401 0.103540 0.545019
O O11 0.819796 0.796312 0.126987
O O12 0.589395 0.190249 0.292285
O O13 0.579008 0.207596 0.903235
O O14 0.500000 0.000000 0.000000
O O15 0.862076 0.408748 0.879743
#
# Coordination Sequence:
#
# PCOD8016675 Si02
#       7
#     2   2   2   2   2   2   2
#     4  12  27  42  66 102 136 175 226 268 333 402
#     4  11  24  42  67  97 137 178 218 279 329 388
#     4  10  24  43  68  98 133 175 222 279 324 396
#     4  10  21  46  67  95 137 176 222 272 334 391
#     4   9  20  42  67  97 130 171 224 272 324 396
#     4  10  23  44  64  99 135 171 230 272 325 401
#     4  12  24  41  67  98 132 179 220 275 334 384
#
# _framework density 22.989253000000001
#
# number of rings (size 3 to 8) (size 9 to 14) (size 15 to 20)
#    0.000    1.429    1.429    3.000    4.000    4.571 
#    0.000    5.000    0.000    0.000    0.000    0.000 
#    0.000    0.000    0.000    0.000    0.000    0.000 
#
# Total GULP energy -173487.259839 kJ/mol
# GULP energy per Si atom -12391.947131 kJ/mol
# Density = 2.293693 g / cm^3
# Si number density = 22.989253 Si / 1000 Ang^3
#
#
#
# Elastic Constant Matrix: (Units=GPa)
#
#
# Indices 1 2 3 4 5 6 
#
# 1 98.1550 27.9997 29.3978 13.1521 11.6798 11.9482
# 2 27.9997 86.3335 28.1171 11.2219 4.2116 24.5905
# 3 29.3978 28.1171 90.0291 6.3626 -2.3999 7.1973
# 4 13.1521 11.2219 6.3626 25.5777 5.0108 -1.0937
# 5 11.6798 4.2116 -2.3999 5.0108 38.9700 -2.6205
# 6 11.9482 24.5905 7.1973 -1.0937 -2.6205 43.1354
#
#
#
# Elastic Compliance Matrix: (Units=1/GPa)
#
#
# Indices 1 2 3 4 5 6 
#
# 1 0.012970 -0.001692 -0.003287 -0.004529 -0.003486 -0.002406
# 2 -0.001692 0.016532 -0.003565 -0.005598 -0.001357 -0.008585
# 3 -0.003287 -0.003565 0.013322 -0.000476 0.002309 0.000848
# 4 -0.004529 -0.005598 -0.000476 0.044914 -0.003475 0.005453
# 5 -0.003486 -0.001357 0.002309 -0.003475 0.027639 0.002945
# 6 -0.002406 -0.008585 0.000848 0.005453 0.002945 0.028919
#
#
# Mechanical properties :
#
#
# Convention : Reuss Voigt Hill
#
# Bulk Modulus (GPa) = 38.85658 49.50520 44.18089
# Shear Modulus (GPa) = 29.41841 34.13681 31.77761
#
# Velocity S-wave (km/s) = 3.58111 3.85762 3.72194
# Velocity P-wave (km/s) = 5.83420 6.43603 6.14249
#
# Compressibility (1/GPa) = 0.02573567
#
# Stress axis : x y z
#
# Youngs Moduli (GPa) = 77.10294 60.48938 75.06584
#
# Poissons Ratio (x) = 0.10232 0.24676
# Poissons Ratio (y) = 0.13042 0.26760
# Poissons Ratio (z) = 0.25346 0.21564
#
# Static dielectric constant tensor:
#      x y z
#    x 4.194320 0.511510 -0.030560 
#    y 0.511510 4.493130 -0.649990 
#    z -0.030560 -0.649990 4.447690 
# 
# 
# High freq. dielectric constant tensor:
#      x y z
#    x 1.916600 0.029330 0.006640 
#    y 0.029330 1.909760 -0.023180 
#    z 0.006640 -0.023180 1.892710 
# 
# From -- ./inp_files/363743.got.cif
#   From: 2010.06.25/outbox.cif.g09.slc.cpg/sg2_182_cif.got.tgz:363743.got - 2010.06.27 13:26:56.
