data_PCOD8016052
_publ_section_title
;
Structure prediction by ZEFSAII (Michael W. Deem and Ramdas Pophale) SiO2 
 PCOD8016052
Probable space group: P -1
;
_chemical_formula_sum "Si O2"
_cell_formula_units_Z 16
_cell_length_a 12.004124
_cell_length_b 8.124073
_cell_length_c 11.814188
_cell_angle_alpha 53.148420
_cell_angle_beta 83.921278
_cell_angle_gamma 117.027023
_cell_volume 695.963086
_symmetry_space_group_name_H-M "P -1"
_symmetry_group_IT_number 2
_symmetry_cell_setting 'triclinic'
loop_
_space_group_symop_operation_xyz
x,y,z
-x,-y,-z
loop_
_atom_site_type_symbol
_atom_site_label
_atom_site_fract_x
_atom_site_fract_y
_atom_site_fract_z
Si Si1 0.951610 0.625156 0.738473
Si Si2 0.379597 0.183848 0.157951
Si Si3 0.444260 0.764351 0.687183
Si Si4 0.354557 0.955196 0.016221
Si Si5 0.079309 0.149774 0.774729
Si Si6 0.070468 0.929763 0.383499
Si Si7 0.599315 0.623767 0.325103
Si Si8 0.897972 0.585314 0.112251
O O1 0.781095 0.357217 0.864819
O O2 0.968885 0.881053 0.665307
O O3 0.044776 0.582092 0.827599
O O4 0.025094 0.706954 0.572909
O O5 0.454963 0.104523 0.264843
O O6 0.242755 0.117620 0.264540
O O7 0.325116 0.041880 0.100090
O O8 0.500000 0.500000 0.000000
O O9 0.465973 0.578043 0.692359
O O10 0.276794 0.609487 0.806671
O O11 0.500000 0.000000 0.500000
O O12 0.500000 0.000000 0.000000
O O13 0.373891 0.117443 0.834828
O O14 0.249424 0.297604 0.684524
O O15 0.045398 0.243729 0.849318
O O16 0.032035 0.246161 0.640040
O O17 0.978379 0.821215 0.911712
O O18 0.500000 0.500000 0.500000
#
# Coordination Sequence:
#
# PCOD8016052 Si02
#       8
#     2   2   2   2   2   2   2   2
#     4  11  25  46  67 104 139 177 230 278 346 408
#     4  12  24  46  72 102 141 183 232 283 343 409
#     4  11  25  42  70 105 134 183 223 282 344 409
#     4  12  27  46  72 101 138 186 233 285 348 413
#     4  10  22  42  69  97 127 178 223 277 342 398
#     4  11  26  42  70 102 140 179 222 288 337 410
#     4  11  26  46  69  99 141 180 228 289 342 411
#     4  10  21  43  69  95 132 172 229 274 334 410
#
# _framework density 22.989722
#
# number of rings (size 3 to 8) (size 9 to 14) (size 15 to 20)
#    0.000    1.000    2.500    3.000    5.250    5.500 
#    0.000    0.000    0.000    0.000    0.000    0.000 
#    0.000    0.000    0.000    0.000    0.000    0.000 
#
# Total GULP energy -198378.028209 kJ/mol
# GULP energy per Si atom -12398.626763 kJ/mol
# Density = 2.293740 g / cm^3
# Si number density = 22.989722 Si / 1000 Ang^3
#
#
#
# Elastic Constant Matrix: (Units=GPa)
#
#
# Indices 1 2 3 4 5 6 
#
# 1 96.7982 3.0466 15.0751 5.7736 -5.5571 11.1811
# 2 3.0466 33.9809 6.2804 3.1390 2.3584 14.6571
# 3 15.0751 6.2804 123.3778 8.8362 -3.0848 7.4339
# 4 5.7736 3.1390 8.8362 30.5509 3.9351 11.1452
# 5 -5.5571 2.3584 -3.0848 3.9351 40.0147 2.4087
# 6 11.1811 14.6571 7.4339 11.1452 2.4087 35.0462
#
#
#
# Elastic Compliance Matrix: (Units=1/GPa)
#
#
# Indices 1 2 3 4 5 6 
#
# 1 0.011018 0.000640 -0.001073 -0.000811 0.001695 -0.003414
# 2 0.000640 0.036281 -0.001183 0.002444 -0.001429 -0.015805
# 3 -0.001073 -0.001183 0.008488 -0.002107 0.000803 -0.000348
# 4 -0.000811 0.002444 -0.002107 0.038140 -0.003435 -0.012210
# 5 0.001695 -0.001429 0.000803 -0.003435 0.025758 -0.000791
# 6 -0.003414 -0.015805 -0.000348 -0.012210 -0.000791 0.040244
#
#
# Mechanical properties :
#
#
# Convention : Reuss Voigt Hill
#
# Bulk Modulus (GPa) = 19.02769 33.66234 26.34502
# Shear Modulus (GPa) = 27.67336 36.43935 32.05635
#
# Velocity S-wave (km/s) = 3.47324 3.98556 3.73819
# Velocity P-wave (km/s) = 4.93752 5.98780 5.48784
#
# Compressibility (1/GPa) = 0.05255498
#
# Stress axis : x y z
#
# Youngs Moduli (GPa) = 90.76328 27.56297 117.80659
#
# Poissons Ratio (x) = -0.01765 0.12637
# Poissons Ratio (y) = -0.05811 0.13942
# Poissons Ratio (z) = 0.09736 0.03262
#
# Static dielectric constant tensor:
#      x y z
#    x 4.091090 -0.072180 0.159430 
#    y -0.072180 4.478440 0.321040 
#    z 0.159430 0.321040 4.592070 
# 
# 
# High freq. dielectric constant tensor:
#      x y z
#    x 1.915600 0.007330 0.002840 
#    y 0.007330 1.904960 0.006360 
#    z 0.002840 0.006360 1.926640 
# 
# From -- ./inp_files/343569.got.cif
#   From: 2010.06.25/outbox.cif.g09.slc.cpg/sg2_172_cif.got.tgz:343569.got - 2010.06.27 13:26:56.
