data_PCOD8016589
_publ_section_title
;
Structure prediction by ZEFSAII (Michael W. Deem and Ramdas Pophale) SiO2 
 PCOD8016589
Probable space group: P -1
;
_chemical_formula_sum "Si O2"
_cell_formula_units_Z 14
_cell_length_a 12.205620
_cell_length_b 8.606140
_cell_length_c 12.876706
_cell_angle_alpha 46.262433
_cell_angle_beta 136.596690
_cell_angle_gamma 107.802809
_cell_volume 616.648828
_symmetry_space_group_name_H-M "P -1"
_symmetry_group_IT_number 2
_symmetry_cell_setting 'triclinic'
loop_
_space_group_symop_operation_xyz
x,y,z
-x,-y,-z
loop_
_atom_site_type_symbol
_atom_site_label
_atom_site_fract_x
_atom_site_fract_y
_atom_site_fract_z
Si Si1 0.724873 0.822564 0.914258
Si Si2 0.464750 0.324579 0.812336
Si Si3 0.948395 0.992506 0.619606
Si Si4 0.167925 0.289211 0.184163
Si Si5 0.250936 0.670424 0.846252
Si Si6 0.243914 0.112986 0.865666
Si Si7 0.502519 0.652571 0.531780
O O1 0.843589 0.765813 0.919848
O O2 0.575112 0.074406 0.673537
O O3 0.663462 0.608987 0.982840
O O4 0.817544 0.825362 0.085764
O O5 0.289849 0.306876 0.743822
O O6 0.408025 0.571514 0.597770
O O7 0.595692 0.277078 0.020757
O O8 0.577701 0.121600 0.902355
O O9 0.800273 0.187636 0.360958
O O10 0.076542 0.102524 0.702159
O O11 0.830284 0.935560 0.648951
O O12 0.072041 0.758259 0.750479
O O13 0.313107 0.384244 0.274319
O O14 0.000000 0.500000 0.000000
O O15 0.500000 0.500000 0.500000
#
# Coordination Sequence:
#
# PCOD8016589 Si02
#       7
#     2   2   2   2   2   2   2
#     4  12  25  43  72 108 138 179 237 285 341 415
#     4  10  21  45  68  95 139 185 222 287 341 403
#     4  10  23  45  69  99 139 189 222 281 350 403
#     4  12  25  47  72 101 143 186 226 285 351 413
#     4  10  22  42  71  99 134 183 239 275 337 415
#     4  10  23  42  69 101 137 179 233 283 334 408
#     4  12  26  46  73 105 137 182 232 287 352 407
#
# _framework density 22.703361999999998
#
# number of rings (size 3 to 8) (size 9 to 14) (size 15 to 20)
#    0.000    1.143    4.286    1.286    2.000    5.143 
#    0.000    0.000    0.000    0.000    0.000    0.000 
#    0.000    0.000    0.000    0.000    0.000    0.000 
#
# Total GULP energy -173447.838643 kJ/mol
# GULP energy per Si atom -12389.131332 kJ/mol
# Density = 2.265169 g / cm^3
# Si number density = 22.703362 Si / 1000 Ang^3
#
#
#
# Elastic Constant Matrix: (Units=GPa)
#
#
# Indices 1 2 3 4 5 6 
#
# 1 113.8551 64.9515 43.6360 14.1135 -39.0053 1.2215
# 2 64.9515 128.0526 67.2403 0.6003 -16.4780 -4.4426
# 3 43.6360 67.2403 102.2707 -6.8089 -27.4995 -2.9132
# 4 14.1135 0.6003 -6.8089 41.4984 -5.8463 -6.6003
# 5 -39.0053 -16.4780 -27.4995 -5.8463 35.3849 -3.0095
# 6 1.2215 -4.4426 -2.9132 -6.6003 -3.0095 45.3532
#
#
#
# Elastic Compliance Matrix: (Units=1/GPa)
#
#
# Indices 1 2 3 4 5 6 
#
# 1 0.019896 -0.008754 0.002052 -0.003746 0.018783 -0.000560
# 2 -0.008754 0.015909 -0.009224 0.000008 -0.009359 0.000582
# 3 0.002052 -0.009224 0.019022 0.004784 0.013699 0.001868
# 4 -0.003746 0.000008 0.004784 0.027547 0.004544 0.004719
# 5 0.018783 -0.009359 0.013699 0.004544 0.056331 0.003857
# 6 -0.000560 0.000582 0.001868 0.004719 0.003857 0.023184
#
#
# Mechanical properties :
#
#
# Convention : Reuss Voigt Hill
#
# Bulk Modulus (GPa) = 43.52697 77.31489 60.42093
# Shear Modulus (GPa) = 24.82620 35.67068 30.24844
#
# Velocity S-wave (km/s) = 3.31040 3.96809 3.65407
# Velocity P-wave (km/s) = 5.81596 7.42446 6.66888
#
# Compressibility (1/GPa) = 0.02297426
#
# Stress axis : x y z
#
# Youngs Moduli (GPa) = 50.26197 62.85820 52.56984
#
# Poissons Ratio (x) = 0.55025 -0.10785
# Poissons Ratio (y) = 0.43998 0.48491
# Poissons Ratio (z) = -0.10311 0.57981
#
# Static dielectric constant tensor:
#      x y z
#    x -0.733970 -5.522440 1.257650 
#    y -5.522440 -2.263360 1.711540 
#    z 1.257650 1.711540 3.468100 
# 
# 
# High freq. dielectric constant tensor:
#      x y z
#    x 1.889360 -0.002070 -0.030420 
#    y -0.002070 1.904420 -0.004890 
#    z -0.030420 -0.004890 1.895060 
# 
# From -- ./inp_files/243304.got.cif
#   From: 2010.06.25/outbox.cif.g09.slc.cpg/sg2_122_cif.got.tgz:243304.got - 2010.06.27 13:26:56.
