data_PCOD8016037
_publ_section_title
;
Structure prediction by ZEFSAII (Michael W. Deem and Ramdas Pophale) SiO2 
 PCOD8016037
Probable space group: P -1
;
_chemical_formula_sum "Si O2"
_cell_formula_units_Z 16
_cell_length_a 9.732070
_cell_length_b 11.363597
_cell_length_c 6.431822
_cell_angle_alpha 59.663414
_cell_angle_beta 88.595864
_cell_angle_gamma 90.605632
_cell_volume 613.505738
_symmetry_space_group_name_H-M "P -1"
_symmetry_group_IT_number 2
_symmetry_cell_setting 'triclinic'
loop_
_space_group_symop_operation_xyz
x,y,z
-x,-y,-z
loop_
_atom_site_type_symbol
_atom_site_label
_atom_site_fract_x
_atom_site_fract_y
_atom_site_fract_z
Si Si1 0.223450 0.012191 0.416973
Si Si2 0.235275 0.575736 0.718583
Si Si3 0.032873 0.166039 0.559318
Si Si4 0.880354 0.538990 0.783164
Si Si5 0.885898 0.282829 0.784608
Si Si6 0.581170 0.870392 0.026041
Si Si7 0.349282 0.781898 0.828619
Si Si8 0.365722 0.403947 0.552742
O O1 0.178214 0.112136 0.519315
O O2 0.278177 0.086200 0.139092
O O3 0.347451 0.923009 0.575275
O O4 0.091822 0.916090 0.466016
O O5 0.198094 0.690644 0.448878
O O6 0.350621 0.651771 0.791816
O O7 0.280484 0.437332 0.732424
O O8 0.117657 0.518493 0.930628
O O9 0.027032 0.324268 0.349275
O O10 0.006149 0.176407 0.804352
O O11 0.951874 0.425347 0.736717
O O12 0.722948 0.557785 0.683678
O O13 0.785163 0.216722 0.018390
O O14 0.488600 0.781072 0.951145
O O15 0.611635 0.760146 0.305203
O O16 0.500000 0.000000 0.000000
O O17 0.500000 0.500000 0.500000
#
# Coordination Sequence:
#
# PCOD8016037 Si02
#       8
#     2   2   2   2   2   2   2   2
#     4  11  26  45  67 102 137 195 232 283 358 410
#     4  10  21  43  71  98 144 172 238 289 345 421
#     4  11  23  45  67  98 148 177 239 288 338 435
#     4  10  23  41  69 102 135 184 226 287 361 409
#     4  10  21  43  69 107 135 181 233 288 353 408
#     4  12  27  46  73 104 145 182 240 295 343 430
#     4  11  24  45  73 101 136 192 233 290 358 410
#     4  11  25  44  70 107 139 179 237 292 352 414
#
# _framework density 26.079622000000001
#
# number of rings (size 3 to 8) (size 9 to 14) (size 15 to 20)
#    0.000    1.250    1.250    4.500    3.500    4.000 
#    9.000    0.000    0.000    0.000    0.000    0.000 
#    0.000    0.000    0.000    0.000    0.000    0.000 
#
# Total GULP energy -198234.289702 kJ/mol
# GULP energy per Si atom -12389.643106 kJ/mol
# Density = 2.602026 g / cm^3
# Si number density = 26.079622 Si / 1000 Ang^3
#
#
#
# Elastic Constant Matrix: (Units=GPa)
#
#
# Indices 1 2 3 4 5 6 
#
# 1 71.4852 24.9562 20.4678 -5.1849 -15.5740 2.3673
# 2 24.9562 138.6365 24.9438 4.4712 -4.0663 -10.5900
# 3 20.4678 24.9438 92.9828 -0.8921 -1.1406 5.6009
# 4 -5.1849 4.4712 -0.8921 30.3318 -3.8587 -10.4073
# 5 -15.5740 -4.0663 -1.1406 -3.8587 31.9541 -7.8363
# 6 2.3673 -10.5900 5.6009 -10.4073 -7.8363 44.7685
#
#
#
# Elastic Compliance Matrix: (Units=1/GPa)
#
#
# Indices 1 2 3 4 5 6 
#
# 1 0.018160 -0.002435 -0.003283 0.005167 0.009473 0.001734
# 2 -0.002435 0.008169 -0.001789 -0.000927 0.000193 0.002103
# 3 -0.003283 -0.001789 0.012064 -0.001021 -0.002100 -0.002364
# 4 0.005167 -0.000927 -0.001021 0.038713 0.009567 0.010309
# 5 0.009473 0.000193 -0.002100 0.009567 0.039198 0.008893
# 6 0.001734 0.002103 -0.002364 0.010309 0.008893 0.026992
#
#
# Mechanical properties :
#
#
# Convention : Reuss Voigt Hill
#
# Bulk Modulus (GPa) = 42.77069 49.31558 46.04314
# Shear Modulus (GPa) = 30.10190 36.92666 33.51428
#
# Velocity S-wave (km/s) = 3.40108 3.76695 3.58868
# Velocity P-wave (km/s) = 5.64436 6.15391 5.90463
#
# Compressibility (1/GPa) = 0.02338050
#
# Stress axis : x y z
#
# Youngs Moduli (GPa) = 55.06593 122.40714 82.89087
#
# Poissons Ratio (x) = 0.29802 0.27213
# Poissons Ratio (y) = 0.13407 0.14828
# Poissons Ratio (z) = 0.18078 0.21897
#
# Static dielectric constant tensor:
#      x y z
#    x 4.744240 -0.299540 -0.142080 
#    y -0.299540 5.304250 0.177570 
#    z -0.142080 0.177570 4.717240 
# 
# 
# High freq. dielectric constant tensor:
#      x y z
#    x 2.035440 0.005140 -0.010020 
#    y 0.005140 2.061430 0.003700 
#    z -0.010020 0.003700 2.044980 
# 
# From -- ./inp_files/68460.got.cif
#   From: 2010.06.25/outbox.cif.g09.slc.cpg/sg2_35_cif.got.tgz:68460.got - 2010.06.27 13:26:56.
