data_PCOD8016586
_publ_section_title
;
Structure prediction by ZEFSAII (Michael W. Deem and Ramdas Pophale) SiO2 
 PCOD8016586
Probable space group: P -1
;
_chemical_formula_sum "Si O2"
_cell_formula_units_Z 14
_cell_length_a 10.393570
_cell_length_b 9.628343
_cell_length_c 12.631472
_cell_angle_alpha 44.291787
_cell_angle_beta 56.898088
_cell_angle_gamma 85.005931
_cell_volume 631.863163
_symmetry_space_group_name_H-M "P -1"
_symmetry_group_IT_number 2
_symmetry_cell_setting 'triclinic'
loop_
_space_group_symop_operation_xyz
x,y,z
-x,-y,-z
loop_
_atom_site_type_symbol
_atom_site_label
_atom_site_fract_x
_atom_site_fract_y
_atom_site_fract_z
Si Si1 0.270028 0.389251 0.862822
Si Si2 0.505547 0.193116 0.815593
Si Si3 0.023749 0.911143 0.701702
Si Si4 0.300318 0.814689 0.719274
Si Si5 0.228932 0.819936 0.988880
Si Si6 0.840504 0.485206 0.368109
Si Si7 0.102352 0.327917 0.320054
O O1 0.433963 0.344560 0.821039
O O2 0.281065 0.564757 0.853493
O O3 0.266755 0.491927 0.694207
O O4 0.087751 0.148240 0.106087
O O5 0.706488 0.383687 0.583724
O O6 0.500000 0.000000 0.000000
O O7 0.376272 0.055829 0.849430
O O8 0.169251 0.833549 0.684738
O O9 0.884926 0.779742 0.738290
O O10 0.119989 0.187831 0.486703
O O11 0.500000 0.000000 0.500000
O O12 0.246700 0.860925 0.833000
O O13 0.257215 0.600719 0.117404
O O14 0.025143 0.739386 0.164307
O O15 0.905638 0.302944 0.418547
#
# Coordination Sequence:
#
# PCOD8016586 Si02
#       7
#     2   2   2   2   2   2   2
#     4  12  22  44  67  97 134 175 216 272 333 387
#     4  12  28  45  66  98 136 175 223 274 333 392
#     4  11  19  40  68  97 132 174 210 274 337 380
#     4  12  23  41  68 102 130 171 223 273 322 396
#     4  10  23  46  68  96 131 174 224 268 328 395
#     4  10  21  45  68  93 136 173 220 270 324 400
#     4   9  20  38  69  97 129 173 215 265 336 385
#
# _framework density 22.156694000000002
#
# number of rings (size 3 to 8) (size 9 to 14) (size 15 to 20)
#    0.857    0.286    4.286    2.571    0.000    2.286 
#    2.571    1.429    0.000    0.000    0.000    0.000 
#    0.000    0.000    0.000    0.000    0.000    0.000 
#
# Total GULP energy -173473.605007 kJ/mol
# GULP energy per Si atom -12390.971786 kJ/mol
# Density = 2.210626 g / cm^3
# Si number density = 22.156694 Si / 1000 Ang^3
#
#
#
# Elastic Constant Matrix: (Units=GPa)
#
#
# Indices 1 2 3 4 5 6 
#
# 1 84.2022 38.2476 39.7487 8.6286 15.2205 -19.4403
# 2 38.2476 49.1838 15.9732 3.3606 1.4583 -10.6404
# 3 39.7487 15.9732 143.0689 19.1216 5.6627 -7.6495
# 4 8.6286 3.3606 19.1216 30.2898 -1.5724 -1.2108
# 5 15.2205 1.4583 5.6627 -1.5724 38.1471 -6.2420
# 6 -19.4403 -10.6404 -7.6495 -1.2108 -6.2420 35.1551
#
#
#
# Elastic Compliance Matrix: (Units=1/GPa)
#
#
# Indices 1 2 3 4 5 6 
#
# 1 0.023814 -0.015502 -0.003892 -0.002744 -0.007427 0.006217
# 2 -0.015502 0.032524 0.000475 0.000876 0.005291 0.002344
# 3 -0.003892 0.000475 0.008586 -0.004374 0.000033 -0.000285
# 4 -0.002744 0.000876 -0.004374 0.036609 0.003157 -0.000382
# 5 -0.007427 0.005291 0.000033 0.003157 0.029569 0.002860
# 6 0.006217 0.002344 -0.000285 -0.000382 0.002860 0.033025
#
#
# Mechanical properties :
#
#
# Convention : Reuss Voigt Hill
#
# Bulk Modulus (GPa) = 36.92280 51.59933 44.26106
# Shear Modulus (GPa) = 23.69725 32.88408 28.29067
#
# Velocity S-wave (km/s) = 3.27391 3.85666 3.57717
# Velocity P-wave (km/s) = 5.56704 6.57044 6.08944
#
# Compressibility (1/GPa) = 0.02708354
#
# Stress axis : x y z
#
# Youngs Moduli (GPa) = 41.99139 30.74697 116.46753
#
# Poissons Ratio (x) = 0.47665 0.45335
# Poissons Ratio (y) = 0.65097 -0.05528
# Poissons Ratio (z) = 0.16345 -0.01459
#
# Static dielectric constant tensor:
#      x y z
#    x 3.397070 0.059790 -0.402090 
#    y 0.059790 3.608600 0.318970 
#    z -0.402090 0.318970 3.262220 
# 
# 
# High freq. dielectric constant tensor:
#      x y z
#    x 1.854820 -0.012020 0.017480 
#    y -0.012020 1.851590 0.004060 
#    z 0.017480 0.004060 1.883690 
# 
# From -- ./inp_files/377583.got.cif
#   From: 2010.06.25/outbox.cif.g09.slc.cpg/sg2_189_cif.got.tgz:377583.got - 2010.06.27 13:26:56.
