data_PCOD8016168
_publ_section_title
;
Structure prediction by ZEFSAII (Michael W. Deem and Ramdas Pophale) SiO2 
 PCOD8016168
Probable space group: P -1
;
_chemical_formula_sum "Si O2"
_cell_formula_units_Z 14
_cell_length_a 10.017562
_cell_length_b 9.146850
_cell_length_c 21.667397
_cell_angle_alpha 28.223936
_cell_angle_beta 42.166018
_cell_angle_gamma 49.988943
_cell_volume 629.955182
_symmetry_space_group_name_H-M "P -1"
_symmetry_group_IT_number 2
_symmetry_cell_setting 'triclinic'
loop_
_space_group_symop_operation_xyz
x,y,z
-x,-y,-z
loop_
_atom_site_type_symbol
_atom_site_label
_atom_site_fract_x
_atom_site_fract_y
_atom_site_fract_z
Si Si1 0.536978 0.251834 0.290422
Si Si2 0.850546 0.817330 0.162470
Si Si3 0.903849 0.387999 0.513065
Si Si4 0.084896 0.031465 0.779461
Si Si5 0.469771 0.722882 0.250983
Si Si6 0.652098 0.822565 0.972476
Si Si7 0.883305 0.100534 0.442506
O O1 0.513881 0.452723 0.286517
O O2 0.742367 0.066351 0.291326
O O3 0.347797 0.020104 0.431762
O O4 0.569259 0.468999 0.137704
O O5 0.840049 0.990684 0.167489
O O6 0.657831 0.847663 0.176318
O O7 0.899859 0.463343 0.289871
O O8 0.000000 0.000000 0.000000
O O9 0.963506 0.612600 0.352022
O O10 0.668542 0.393550 0.602128
O O11 0.000000 0.500000 0.500000
O O12 0.995820 0.054532 0.596000
O O13 0.879545 0.831613 0.915962
O O14 0.362477 0.020647 0.147708
O O15 0.500000 0.000000 0.000000
O O16 0.000000 0.000000 0.500000
#
# Coordination Sequence:
#
# PCOD8016168 Si02
#       7
#     2   2   2   2   2   2   2
#     4  11  25  43  72 104 141 185 244 290 353 420
#     4  12  29  48  69 106 147 182 235 299 360 419
#     4  12  23  45  74 104 138 184 246 287 346 426
#     4  12  25  45  71 104 145 188 231 297 359 418
#     4  11  25  43  72 104 141 189 238 295 347 423
#     4  10  21  43  71  98 140 188 236 287 348 418
#     4  12  27  46  74 103 143 194 235 292 359 419
#
# _framework density 22.223804000000001
#
# number of rings (size 3 to 8) (size 9 to 14) (size 15 to 20)
#    0.000    0.571    4.286    3.857    6.000    3.429 
#    0.000    1.429    0.000    0.000    0.000    0.000 
#    0.000    0.000    0.000    0.000    0.000    0.000 
#
# Total GULP energy -173484.650200 kJ/mol
# GULP energy per Si atom -12391.760729 kJ/mol
# Density = 2.217322 g / cm^3
# Si number density = 22.223804 Si / 1000 Ang^3
#
#
#
# Elastic Constant Matrix: (Units=GPa)
#
#
# Indices 1 2 3 4 5 6 
#
# 1 145.7011 34.9103 44.4996 8.2165 -18.9763 -0.8396
# 2 34.9103 115.7778 37.3046 14.2400 -13.2120 -13.0560
# 3 44.4996 37.3046 151.0720 8.1738 -9.9933 -8.4341
# 4 8.2165 14.2400 8.1738 34.9773 -12.7809 0.2560
# 5 -18.9763 -13.2120 -9.9933 -12.7809 38.7898 11.2849
# 6 -0.8396 -13.0560 -8.4341 0.2560 11.2849 34.6122
#
#
#
# Elastic Compliance Matrix: (Units=1/GPa)
#
#
# Indices 1 2 3 4 5 6 
#
# 1 0.008324 -0.001781 -0.001916 0.000627 0.003814 -0.002185
# 2 -0.001781 0.010555 -0.001690 -0.003464 0.000126 0.003511
# 3 -0.001916 -0.001690 0.007701 -0.000716 -0.000125 0.001239
# 4 0.000627 -0.003464 -0.000716 0.034414 0.011912 -0.005604
# 5 0.003814 0.000126 -0.000125 0.011912 0.034884 -0.011352
# 6 -0.002185 0.003511 0.001239 -0.005604 -0.011352 0.034207
#
#
# Mechanical properties :
#
#
# Convention : Reuss Voigt Hill
#
# Bulk Modulus (GPa) = 63.26615 71.77554 67.52084
# Shear Modulus (GPa) = 34.21672 41.39829 37.80750
#
# Velocity S-wave (km/s) = 3.92809 4.32069 4.12906
# Velocity P-wave (km/s) = 7.00733 7.56690 7.29248
#
# Compressibility (1/GPa) = 0.01580624
#
# Stress axis : x y z
#
# Youngs Moduli (GPa) = 120.13448 94.74119 129.85987
#
# Poissons Ratio (x) = 0.16873 0.24878
# Poissons Ratio (y) = 0.21395 0.21947
# Poissons Ratio (z) = 0.23015 0.16012
#
# Static dielectric constant tensor:
#      x y z
#    x 3.969200 -0.209400 0.237680 
#    y -0.209400 4.000180 -0.215120 
#    z 0.237680 -0.215120 4.342410 
# 
# 
# High freq. dielectric constant tensor:
#      x y z
#    x 1.878170 -0.012960 0.001180 
#    y -0.012960 1.874800 0.007020 
#    z 0.001180 0.007020 1.892600 
# 
# From -- ./inp_files/343790.got.cif
#   From: 2010.06.25/outbox.cif.g09.slc.cpg/sg2_172_cif.got.tgz:343790.got - 2010.06.27 13:26:56.
