data_PCOD8016415
_publ_section_title
;
Structure prediction by ZEFSAII (Michael W. Deem and Ramdas Pophale) SiO2 
 PCOD8016415
Probable space group: P -1
;
_chemical_formula_sum "Si O2"
_cell_formula_units_Z 14
_cell_length_a 7.898529
_cell_length_b 15.283479
_cell_length_c 7.979060
_cell_angle_alpha 90.686710
_cell_angle_beta 127.883440
_cell_angle_gamma 120.302901
_cell_volume 578.543605
_symmetry_space_group_name_H-M "P -1"
_symmetry_group_IT_number 2
_symmetry_cell_setting 'triclinic'
loop_
_space_group_symop_operation_xyz
x,y,z
-x,-y,-z
loop_
_atom_site_type_symbol
_atom_site_label
_atom_site_fract_x
_atom_site_fract_y
_atom_site_fract_z
Si Si1 0.243105 0.630721 0.948816
Si Si2 0.705669 0.726626 0.767758
Si Si3 0.802943 0.193402 0.169434
Si Si4 0.333269 0.373844 0.951559
Si Si5 0.117886 0.955969 0.189457
Si Si6 0.361060 0.984760 0.669835
Si Si7 0.153230 0.638419 0.280834
O O1 0.558921 0.676549 0.105385
O O2 0.202058 0.655957 0.111559
O O3 0.201922 0.703024 0.799304
O O4 0.010591 0.493855 0.769467
O O5 0.461158 0.724092 0.551303
O O6 0.902122 0.748436 0.738359
O O7 0.575041 0.613571 0.795992
O O8 0.889755 0.819259 0.030410
O O9 0.813691 0.135382 0.338693
O O10 0.520511 0.095011 0.890246
O O11 0.001689 0.314269 0.745895
O O12 0.500000 0.500000 0.000000
O O13 0.157317 0.984337 0.414714
O O14 0.418779 0.011593 0.302614
O O15 0.000000 0.000000 0.000000
#
# Coordination Sequence:
#
# PCOD8016415 Si02
#       7
#     2   2   2   2   2   2   2
#     4  10  22  42  71  99 133 186 227 278 351 405
#     4  11  24  42  66 100 138 182 221 285 355 400
#     4  10  21  44  70 101 134 181 230 286 351 406
#     4  10  23  45  65  97 138 179 235 279 334 413
#     4  10  23  41  67  99 129 181 229 280 347 413
#     4   9  22  44  66  96 138 172 230 289 337 415
#     4  10  23  45  65  98 143 176 228 288 333 416
#
# _framework density 24.198692999999999
#
# number of rings (size 3 to 8) (size 9 to 14) (size 15 to 20)
#    0.000    2.000    1.429    0.000    4.000    5.143 
#    5.143    2.143    0.000    0.000    0.000    0.000 
#    0.000    0.000    0.000    0.000    0.000    0.000 
#
# Total GULP energy -173433.807240 kJ/mol
# GULP energy per Si atom -12388.129089 kJ/mol
# Density = 2.414362 g / cm^3
# Si number density = 24.198693 Si / 1000 Ang^3
#
#
#
# Elastic Constant Matrix: (Units=GPa)
#
#
# Indices 1 2 3 4 5 6 
#
# 1 124.1283 44.9893 49.6157 0.4910 29.5013 8.4123
# 2 44.9893 113.2468 35.2909 -34.9664 1.8817 12.1877
# 3 49.6157 35.2909 118.3297 -33.4821 11.0206 5.1974
# 4 0.4910 -34.9664 -33.4821 31.6399 1.3558 -0.3112
# 5 29.5013 1.8817 11.0206 1.3558 39.1482 -8.8883
# 6 8.4123 12.1877 5.1974 -0.3112 -8.8883 36.5491
#
#
#
# Elastic Compliance Matrix: (Units=1/GPa)
#
#
# Indices 1 2 3 4 5 6 
#
# 1 0.018554 -0.010756 -0.009761 -0.022078 -0.010410 -0.002015
# 2 -0.010756 0.020666 0.006705 0.029920 0.003205 -0.004335
# 3 -0.009761 0.006705 0.018162 0.026738 0.000489 -0.002225
# 4 -0.022078 0.029920 0.026738 0.093117 0.002808 -0.007222
# 5 -0.010410 0.003205 0.000489 0.002808 0.035237 0.009851
# 6 -0.002015 -0.004335 -0.002225 -0.007222 0.009851 0.031920
#
#
# Mechanical properties :
#
#
# Convention : Reuss Voigt Hill
#
# Bulk Modulus (GPa) = 33.60539 68.38850 50.99695
# Shear Modulus (GPa) = 19.59248 36.52139 28.05694
#
# Velocity S-wave (km/s) = 2.84852 3.88910 3.40875
# Velocity P-wave (km/s) = 4.97355 6.96343 6.05085
#
# Compressibility (1/GPa) = 0.02975713
#
# Stress axis : x y z
#
# Youngs Moduli (GPa) = 53.89541 48.38975 55.06058
#
# Poissons Ratio (x) = 0.52049 0.53744
# Poissons Ratio (y) = 0.57972 -0.36918
# Poissons Ratio (z) = 0.52607 -0.32445
#
# Static dielectric constant tensor:
#      x y z
#    x 5.194980 0.151190 0.286640 
#    y 0.151190 4.570310 -0.420980 
#    z 0.286640 -0.420980 5.244610 
# 
# 
# High freq. dielectric constant tensor:
#      x y z
#    x 1.961260 0.022600 0.012510 
#    y 0.022600 1.975830 -0.020100 
#    z 0.012510 -0.020100 1.944610 
# 
# From -- ./inp_files/207249.got.cif
#   From: 2010.06.25/outbox.cif.g09.slc.cpg/sg2_104_cif.got.tgz:207249.got - 2010.06.27 13:26:56.
