data_PCOD8016009
_publ_section_title
;
Structure prediction by ZEFSAII (Michael W. Deem and Ramdas Pophale) SiO2 
 PCOD8016009
Probable space group: P -1
;
_chemical_formula_sum "Si O2"
_cell_formula_units_Z 16
_cell_length_a 11.640281
_cell_length_b 18.833247
_cell_length_c 21.912904
_cell_angle_alpha 161.393783
_cell_angle_beta 39.025500
_cell_angle_gamma 149.577443
_cell_volume 751.500447
_symmetry_space_group_name_H-M "P -1"
_symmetry_group_IT_number 2
_symmetry_cell_setting 'triclinic'
loop_
_space_group_symop_operation_xyz
x,y,z
-x,-y,-z
loop_
_atom_site_type_symbol
_atom_site_label
_atom_site_fract_x
_atom_site_fract_y
_atom_site_fract_z
Si Si1 0.181194 0.833377 0.442518
Si Si2 0.255574 0.634638 0.979651
Si Si3 0.724471 0.614124 0.960418
Si Si4 0.235236 0.655366 0.491659
Si Si5 0.019962 0.815271 0.625785
Si Si6 0.138076 0.275076 0.624207
Si Si7 0.450400 0.516997 0.202480
Si Si8 0.528008 0.247771 0.409463
O O1 0.233535 0.614378 0.247722
O O2 0.044142 0.818280 0.545842
O O3 0.027718 0.749856 0.378158
O O4 0.420460 0.153058 0.598354
O O5 0.238411 0.551813 0.848967
O O6 0.360457 0.517181 0.881580
O O7 0.000000 0.500000 0.000000
O O8 0.429003 0.976813 0.187277
O O9 0.685068 0.677226 0.959278
O O10 0.500000 0.500000 0.000000
O O11 0.951105 0.908832 0.137283
O O12 0.262953 0.436787 0.267796
O O13 0.447882 0.833293 0.597554
O O14 0.000000 0.500000 0.500000
O O15 0.233296 0.845983 0.596369
O O16 0.772234 0.521594 0.506070
O O17 0.351230 0.317102 0.537202
O O18 0.000000 0.000000 0.500000
#
# Coordination Sequence:
#
# PCOD8016009 Si02
#       8
#     2   2   2   2   2   2   2   2
#     4  12  25  43  68  99 138 172 228 281 333 408
#     4  12  25  41  71 102 129 177 231 280 335 394
#     4  12  25  40  69 101 134 181 221 269 342 404
#     4  10  21  43  68  97 140 175 216 283 336 397
#     4  11  25  46  65 101 140 177 219 277 341 409
#     4  12  24  45  68  98 131 172 231 283 328 401
#     4  12  22  43  71 102 137 177 229 282 339 403
#     4  11  24  46  69  96 139 177 220 283 341 395
#
# _framework density 21.290738000000001
#
# number of rings (size 3 to 8) (size 9 to 14) (size 15 to 20)
#    0.000    0.500    6.250    1.875    1.750    2.500 
#    0.000    3.750    0.000    0.000    0.000    0.000 
#    0.000    0.000    0.000    0.000    0.000    0.000 
#
# Total GULP energy -198402.365451 kJ/mol
# GULP energy per Si atom -12400.147841 kJ/mol
# Density = 2.124228 g / cm^3
# Si number density = 21.290738 Si / 1000 Ang^3
#
#
#
# Elastic Constant Matrix: (Units=GPa)
#
#
# Indices 1 2 3 4 5 6 
#
# 1 112.4805 34.2037 34.2938 -12.9778 15.2229 -10.3078
# 2 34.2037 108.1043 57.2831 -10.9438 8.1433 1.5325
# 3 34.2938 57.2831 159.7393 -6.0297 26.7942 -0.1180
# 4 -12.9778 -10.9438 -6.0297 40.0245 1.6822 3.9753
# 5 15.2229 8.1433 26.7942 1.6822 39.8684 -11.5163
# 6 -10.3078 1.5325 -0.1180 3.9753 -11.5163 30.8746
#
#
#
# Elastic Compliance Matrix: (Units=1/GPa)
#
#
# Indices 1 2 3 4 5 6 
#
# 1 0.010779 -0.002529 -0.000914 0.002515 -0.002365 0.002515
# 2 -0.002529 0.012299 -0.003878 0.002090 0.000526 -0.001542
# 3 -0.000914 -0.003878 0.008764 0.000402 -0.005384 -0.002139
# 4 0.002515 0.002090 0.000402 0.027023 -0.004023 -0.004242
# 5 -0.002365 0.000526 -0.005384 -0.004023 0.033145 0.012045
# 6 0.002515 -0.001542 -0.002139 -0.004242 0.012045 0.038336
#
#
# Mechanical properties :
#
#
# Convention : Reuss Voigt Hill
#
# Bulk Modulus (GPa) = 58.13940 70.20950 64.17445
# Shear Modulus (GPa) = 33.17391 39.12307 36.14849
#
# Velocity S-wave (km/s) = 3.95161 4.29133 4.12497
# Velocity P-wave (km/s) = 6.94168 7.58961 7.27286
#
# Compressibility (1/GPa) = 0.01720004
#
# Stress axis : x y z
#
# Youngs Moduli (GPa) = 92.77501 81.30558 114.10712
#
# Poissons Ratio (x) = 0.20563 0.10425
# Poissons Ratio (y) = 0.23464 0.44252
# Poissons Ratio (z) = 0.08476 0.31531
#
# Static dielectric constant tensor:
#      x y z
#    x 4.251410 -0.219310 0.298330 
#    y -0.219310 3.554290 -0.133480 
#    z 0.298330 -0.133480 4.070000 
# 
# 
# High freq. dielectric constant tensor:
#      x y z
#    x 1.845500 0.001700 0.009920 
#    y 0.001700 1.829400 -0.020750 
#    z 0.009920 -0.020750 1.841400 
# 
# From -- ./inp_files/429226.got.cif
#   From: 2010.06.25/outbox.cif.g09.slc.cpg/sg2_215_cif.got.tgz:429226.got - 2010.06.27 13:26:56.
