data_PCOD8016246
_publ_section_title
;
Structure prediction by ZEFSAII (Michael W. Deem and Ramdas Pophale) SiO2 
 PCOD8016246
Probable space group: P -1
;
_chemical_formula_sum "Si O2"
_cell_formula_units_Z 16
_cell_length_a 30.352262
_cell_length_b 5.677555
_cell_length_c 9.110030
_cell_angle_alpha 51.217611
_cell_angle_beta 38.595915
_cell_angle_gamma 49.591944
_cell_volume 721.638087
_symmetry_space_group_name_H-M "P -1"
_symmetry_group_IT_number 2
_symmetry_cell_setting 'triclinic'
loop_
_space_group_symop_operation_xyz
x,y,z
-x,-y,-z
loop_
_atom_site_type_symbol
_atom_site_label
_atom_site_fract_x
_atom_site_fract_y
_atom_site_fract_z
Si Si1 0.967922 0.701691 0.363924
Si Si2 0.582179 0.398119 0.461469
Si Si3 0.219637 0.452294 0.453381
Si Si4 0.194312 0.203408 0.302864
Si Si5 0.422508 0.681496 0.821863
Si Si6 0.310256 0.360989 0.766478
Si Si7 0.354372 0.287574 0.358888
Si Si8 0.060940 0.606067 0.880354
O O1 0.895520 0.623258 0.521974
O O2 0.000000 0.500000 0.500000
O O3 0.939317 0.075332 0.328678
O O4 0.037340 0.642669 0.096443
O O5 0.510087 0.641760 0.637337
O O6 0.579240 0.496182 0.259339
O O7 0.663303 0.376428 0.321324
O O8 0.581118 0.039239 0.635843
O O9 0.227290 0.317570 0.319196
O O10 0.293754 0.231747 0.426239
O O11 0.146751 0.378369 0.736836
O O12 0.215929 0.822715 0.356225
O O13 0.227593 0.361297 0.022973
O O14 0.371445 0.042500 0.795190
O O15 0.393121 0.525501 0.094672
O O16 0.310369 0.431621 0.566382
O O17 0.000000 0.500000 0.000000
#
# Coordination Sequence:
#
# PCOD8016246 Si02
#       8
#     2   2   2   2   2   2   2   2
#     4  10  23  42  67  97 131 174 222 274 327 390
#     4  10  23  40  66  94 124 171 220 276 324 402
#     4  11  24  44  71  93 139 181 216 275 336 389
#     4  11  24  45  68  96 138 181 216 272 337 394
#     4  10  21  44  64  88 132 169 214 276 337 386
#     4  11  24  39  62  96 129 170 225 266 334 394
#     4  11  24  39  63  98 127 173 222 270 329 395
#     4  10  21  44  65  96 131 173 223 270 329 391
#
# _framework density 22.171776999999999
#
# number of rings (size 3 to 8) (size 9 to 14) (size 15 to 20)
#    0.000    1.500    2.500    1.500    5.250    2.000 
#    2.250    0.000    0.000    0.000    0.000    0.000 
#    0.000    0.000    0.000    0.000    0.000    0.000 
#
# Total GULP energy -198210.552210 kJ/mol
# GULP energy per Si atom -12388.159513 kJ/mol
# Density = 2.212131 g / cm^3
# Si number density = 22.171777 Si / 1000 Ang^3
#
#
#
# Elastic Constant Matrix: (Units=GPa)
#
#
# Indices 1 2 3 4 5 6 
#
# 1 96.9370 12.5488 33.4983 -10.1981 5.3270 7.5697
# 2 12.5488 47.0838 19.8077 -0.3513 14.2975 2.7509
# 3 33.4983 19.8077 139.1861 -1.2907 10.4213 -3.2503
# 4 -10.1981 -0.3513 -1.2907 29.3985 -6.2196 2.3442
# 5 5.3270 14.2975 10.4213 -6.2196 41.7756 -0.5981
# 6 7.5697 2.7509 -3.2503 2.3442 -0.5981 34.9962
#
#
#
# Elastic Compliance Matrix: (Units=1/GPa)
#
#
# Indices 1 2 3 4 5 6 
#
# 1 0.012191 -0.002032 -0.002707 0.004418 0.000431 -0.003017
# 2 -0.002032 0.025426 -0.002582 -0.002092 -0.008136 -0.001798
# 3 -0.002707 -0.002582 0.008304 -0.000936 -0.000959 0.001606
# 4 0.004418 -0.002092 -0.000936 0.036978 0.005845 -0.003255
# 5 0.000431 -0.008136 -0.000959 0.005845 0.027784 0.000541
# 6 -0.003017 -0.001798 0.001606 -0.003255 0.000541 0.029745
#
#
# Mechanical properties :
#
#
# Convention : Reuss Voigt Hill
#
# Bulk Modulus (GPa) = 31.96826 46.10183 39.03505
# Shear Modulus (GPa) = 30.21223 35.72420 32.96821
#
# Velocity S-wave (km/s) = 3.69540 4.01839 3.86028
# Velocity P-wave (km/s) = 5.71470 6.50908 6.12478
#
# Compressibility (1/GPa) = 0.03128103
#
# Stress axis : x y z
#
# Youngs Moduli (GPa) = 82.02754 39.32921 120.42293
#
# Poissons Ratio (x) = 0.07992 0.32594
# Poissons Ratio (y) = 0.16668 0.31089
# Poissons Ratio (z) = 0.22202 0.10153
#
# Static dielectric constant tensor:
#      x y z
#    x 4.068940 -0.088340 -0.332000 
#    y -0.088340 4.192650 0.622860 
#    z -0.332000 0.622860 4.947140 
# 
# 
# High freq. dielectric constant tensor:
#      x y z
#    x 1.872150 -0.001170 -0.009160 
#    y -0.001170 1.858120 0.008880 
#    z -0.009160 0.008880 1.885390 
# 
# From -- ./inp_files/10553.got.cif
#   From: 2010.06.25/outbox.cif.g09.slc.cpg/sg2_6_cif.got.tgz:10553.got - 2010.06.27 13:26:56.
