data_PCOD8016746
_publ_section_title
;
Structure prediction by ZEFSAII (Michael W. Deem and Ramdas Pophale) SiO2 
 PCOD8016746
Probable space group: P -1
;
_chemical_formula_sum "Si O2"
_cell_formula_units_Z 16
_cell_length_a 22.052462
_cell_length_b 8.789403
_cell_length_c 15.808161
_cell_angle_alpha 68.229279
_cell_angle_beta 161.372646
_cell_angle_gamma 122.157331
_cell_volume 720.591495
_symmetry_space_group_name_H-M "P -1"
_symmetry_group_IT_number 2
_symmetry_cell_setting 'triclinic'
loop_
_space_group_symop_operation_xyz
x,y,z
-x,-y,-z
loop_
_atom_site_type_symbol
_atom_site_label
_atom_site_fract_x
_atom_site_fract_y
_atom_site_fract_z
Si Si1 0.545932 0.650039 0.855734
Si Si2 0.502233 0.433994 0.379831
Si Si3 0.596411 0.175355 0.660523
Si Si4 0.756899 0.904788 0.648850
Si Si5 0.173902 0.948051 0.765044
Si Si6 0.967530 0.252886 0.725413
Si Si7 0.977107 0.300629 0.533269
Si Si8 0.044691 0.383774 0.313015
O O1 0.502177 0.658520 0.697217
O O2 0.304220 0.448280 0.617987
O O3 0.763306 0.639148 0.158087
O O4 0.597094 0.853521 0.926084
O O5 0.620238 0.371002 0.614663
O O6 0.653556 0.679279 0.525556
O O7 0.236561 0.334505 0.080237
O O8 0.426248 0.092952 0.534368
O O9 0.500000 0.000000 0.500000
O O10 0.857872 0.249126 0.018292
O O11 0.792703 0.033900 0.586120
O O12 0.000000 0.000000 0.000000
O O13 0.229524 0.884854 0.762802
O O14 0.038476 0.745977 0.685277
O O15 0.000000 0.000000 0.500000
O O16 0.902314 0.224375 0.545940
O O17 0.937566 0.413773 0.693033
O O18 0.000000 0.500000 0.500000
#
# Coordination Sequence:
#
# PCOD8016746 Si02
#       8
#     2   2   2   2   2   2   2   2
#     4  10  26  42  73 103 141 185 234 279 368 414
#     4  11  24  48  67 103 145 187 231 294 342 419
#     4  12  27  45  72 104 147 186 236 292 353 418
#     4  12  25  44  72  99 138 188 239 282 350 416
#     4  10  23  46  72  97 142 179 232 293 355 416
#     4  11  24  44  74 103 139 184 238 287 353 415
#     4  10  21  47  75 102 139 184 234 298 350 416
#     4  12  25  44  69 103 145 182 235 296 349 422
#
# _framework density 22.203983000000001
#
# number of rings (size 3 to 8) (size 9 to 14) (size 15 to 20)
#    0.000    1.000    3.750    1.875    5.250    5.500 
#    0.000    1.875    0.000    0.000    0.000    0.000 
#    0.000    0.000    0.000    0.000    0.000    0.000 
#
# Total GULP energy -198423.677045 kJ/mol
# GULP energy per Si atom -12401.479815 kJ/mol
# Density = 2.215345 g / cm^3
# Si number density = 22.203983 Si / 1000 Ang^3
#
#
#
# Elastic Constant Matrix: (Units=GPa)
#
#
# Indices 1 2 3 4 5 6 
#
# 1 135.2806 66.4224 62.1712 16.0935 -27.2056 0.4181
# 2 66.4224 143.6059 32.4119 13.0168 -18.6459 15.0004
# 3 62.1712 32.4119 86.2259 18.9474 -6.7431 2.6822
# 4 16.0935 13.0168 18.9474 34.8018 -0.0074 -9.1552
# 5 -27.2056 -18.6459 -6.7431 -0.0074 30.8255 3.2138
# 6 0.4181 15.0004 2.6822 -9.1552 3.2138 45.7395
#
#
#
# Elastic Compliance Matrix: (Units=1/GPa)
#
#
# Indices 1 2 3 4 5 6 
#
# 1 0.015194 -0.003939 -0.008665 -0.000594 0.009036 0.000907
# 2 -0.003939 0.009816 0.000159 -0.002986 0.002911 -0.003995
# 3 -0.008665 0.000159 0.019172 -0.007096 -0.003120 -0.002298
# 4 -0.000594 -0.002986 -0.007096 0.036360 -0.004814 0.009017
# 5 0.009036 0.002911 -0.003120 -0.004814 0.041990 -0.004768
# 6 0.000907 -0.003995 -0.002298 0.009017 -0.004768 0.025439
#
#
# Mechanical properties :
#
#
# Convention : Reuss Voigt Hill
#
# Bulk Modulus (GPa) = 51.83976 76.34704 64.09340
# Shear Modulus (GPa) = 27.88729 35.88051 31.88390
#
# Velocity S-wave (km/s) = 3.54780 4.02425 3.79351
# Velocity P-wave (km/s) = 6.33879 7.48678 6.93657
#
# Compressibility (1/GPa) = 0.01929021
#
# Stress axis : x y z
#
# Youngs Moduli (GPa) = 65.81651 101.87766 52.15852
#
# Poissons Ratio (x) = 0.40135 0.45197
# Poissons Ratio (y) = 0.25928 -0.00829
# Poissons Ratio (z) = 0.57032 -0.01619
#
# Static dielectric constant tensor:
#      x y z
#    x 4.398010 -0.306170 -0.217190 
#    y -0.306170 4.219060 0.197730 
#    z -0.217190 0.197730 4.262750 
# 
# 
# High freq. dielectric constant tensor:
#      x y z
#    x 1.884200 -0.003580 -0.016010 
#    y -0.003580 1.883160 -0.002700 
#    z -0.016010 -0.002700 1.873750 
# 
# From -- ./inp_files/89875.got.cif
#   From: 2010.06.25/outbox.cif.g09.slc.cpg/sg2_45_cif.got.tgz:89875.got - 2010.06.27 13:26:56.
