data_PCOD8016986
_publ_section_title
;
Structure prediction by ZEFSAII (Michael W. Deem and Ramdas Pophale) SiO2 
 PCOD8016986
Probable space group: P -1
;
_chemical_formula_sum "Si O2"
_cell_formula_units_Z 16
_cell_length_a 23.894307
_cell_length_b 12.748593
_cell_length_c 5.102911
_cell_angle_alpha 56.054723
_cell_angle_beta 57.146533
_cell_angle_gamma 30.386542
_cell_volume 645.397204
_symmetry_space_group_name_H-M "P -1"
_symmetry_group_IT_number 2
_symmetry_cell_setting 'triclinic'
loop_
_space_group_symop_operation_xyz
x,y,z
-x,-y,-z
loop_
_atom_site_type_symbol
_atom_site_label
_atom_site_fract_x
_atom_site_fract_y
_atom_site_fract_z
Si Si1 0.052135 0.072673 0.544596
Si Si2 0.805536 0.419119 0.785107
Si Si3 0.250211 0.714116 0.225774
Si Si4 0.816129 0.957583 0.365312
Si Si5 0.618163 0.094154 0.840592
Si Si6 0.509974 0.630955 0.724823
Si Si7 0.990271 0.411852 0.920898
Si Si8 0.232952 0.359718 0.929196
O O1 0.938532 0.182130 0.788590
O O2 0.138970 0.844158 0.497049
O O3 0.121447 0.027258 0.664240
O O4 0.016280 0.233208 0.207240
O O5 0.744161 0.382358 0.913775
O O6 0.765844 0.530631 0.012101
O O7 0.773562 0.573707 0.437801
O O8 0.361242 0.521773 0.381193
O O9 0.246567 0.870344 0.948747
O O10 0.726243 0.021141 0.678823
O O11 0.911906 0.710499 0.372039
O O12 0.532049 0.274739 0.590647
O O13 0.654718 0.894422 0.968239
O O14 0.561857 0.180517 0.146906
O O15 0.500000 0.500000 0.000000
O O16 0.869137 0.584151 0.853234
O O17 0.000000 0.500000 0.000000
#
# Coordination Sequence:
#
# PCOD8016986 Si02
#       8
#     2   2   2   2   2   2   2   2
#     4  10  22  40  63 103 137 176 222 278 343 409
#     4  11  25  46  69 102 139 184 223 272 341 422
#     4  11  26  43  71  97 136 179 232 286 338 401
#     4  11  23  39  69 103 136 178 222 285 348 403
#     4  12  27  44  72 100 138 175 231 288 337 398
#     4  12  26  48  69 104 132 178 231 288 345 391
#     4  10  22  37  63 101 142 180 222 270 344 419
#     4  11  25  46  67 101 143 182 222 278 339 403
#
# _framework density 24.790935999999999
#
# number of rings (size 3 to 8) (size 9 to 14) (size 15 to 20)
#    0.000    1.000    2.500    3.000   10.500    1.500 
#    0.000    3.750    0.000    0.000    0.000    0.000 
#    0.000    0.000    0.000    0.000    0.000    0.000 
#
# Total GULP energy -198417.449015 kJ/mol
# GULP energy per Si atom -12401.090563 kJ/mol
# Density = 2.473451 g / cm^3
# Si number density = 24.790936 Si / 1000 Ang^3
#
#
#
# Elastic Constant Matrix: (Units=GPa)
#
#
# Indices 1 2 3 4 5 6 
#
# 1 101.6397 25.7500 -19.3020 2.4743 11.6475 12.7658
# 2 25.7500 119.4681 -0.3984 -2.5457 -2.6194 8.1956
# 3 -19.3020 -0.3984 21.1137 -1.0981 9.1642 -1.3568
# 4 2.4743 -2.5457 -1.0981 33.3238 4.0425 5.3386
# 5 11.6475 -2.6194 9.1642 4.0425 33.1823 5.3039
# 6 12.7658 8.1956 -1.3568 5.3386 5.3039 43.3707
#
#
#
# Elastic Compliance Matrix: (Units=1/GPa)
#
#
# Indices 1 2 3 4 5 6 
#
# 1 0.015800 -0.003410 0.018974 0.000855 -0.010808 -0.002196
# 2 -0.003410 0.009270 -0.004427 0.000635 0.003293 -0.001367
# 3 0.018974 -0.004427 0.077493 0.004216 -0.029038 0.000708
# 4 0.000855 0.000635 0.004216 0.031261 -0.004660 -0.003518
# 5 -0.010808 0.003293 -0.029038 -0.004660 0.043268 -0.003067
# 6 -0.002196 -0.001367 0.000708 -0.003518 -0.003067 0.024792
#
#
# Mechanical properties :
#
#
# Convention : Reuss Voigt Hill
#
# Bulk Modulus (GPa) = 8.01041 28.25784 18.13412
# Shear Modulus (GPa) = 22.60165 37.72017 30.16091
#
# Velocity S-wave (km/s) = 3.02270 3.90491 3.49178
# Velocity P-wave (km/s) = 3.92689 5.63510 4.85668
#
# Compressibility (1/GPa) = 0.12483754
#
# Stress axis : x y z
#
# Youngs Moduli (GPa) = 63.29302 107.87204 12.90432
#
# Poissons Ratio (x) = 0.36787 -0.24485
# Poissons Ratio (y) = 0.21585 0.05712
# Poissons Ratio (z) = -1.20093 0.47751
#
# Static dielectric constant tensor:
#      x y z
#    x 4.267460 -0.158670 0.139910 
#    y -0.158670 4.861780 -0.025500 
#    z 0.139910 -0.025500 4.375430 
# 
# 
# High freq. dielectric constant tensor:
#      x y z
#    x 1.977760 0.002500 0.009520 
#    y 0.002500 1.999820 -0.013960 
#    z 0.009520 -0.013960 1.988020 
# 
# From -- ./inp_files/81120.got.cif
#   From: 2010.06.25/outbox.cif.g09.slc.cpg/sg2_41_cif.got.tgz:81120.got - 2010.06.27 13:26:56.
