data_PCOD8016376
_publ_section_title
;
Structure prediction by ZEFSAII (Michael W. Deem and Ramdas Pophale) SiO2 
 PCOD8016376
Probable space group: P -1
;
_chemical_formula_sum "Si O2"
_cell_formula_units_Z 16
_cell_length_a 20.063735
_cell_length_b 8.479118
_cell_length_c 8.126560
_cell_angle_alpha 112.208810
_cell_angle_beta 146.224005
_cell_angle_gamma 62.715551
_cell_volume 683.077808
_symmetry_space_group_name_H-M "P -1"
_symmetry_group_IT_number 2
_symmetry_cell_setting 'triclinic'
loop_
_space_group_symop_operation_xyz
x,y,z
-x,-y,-z
loop_
_atom_site_type_symbol
_atom_site_label
_atom_site_fract_x
_atom_site_fract_y
_atom_site_fract_z
Si Si1 0.317940 0.937851 0.137917
Si Si2 0.722705 0.683711 0.225588
Si Si3 0.584686 0.741888 0.638569
Si Si4 0.701016 0.082669 0.260123
Si Si5 0.999631 0.500361 0.689914
Si Si6 0.077398 0.809172 0.142998
Si Si7 0.937413 0.878823 0.214094
Si Si8 0.557504 0.660561 0.188531
O O1 0.376317 0.079720 0.226208
O O2 0.435036 0.784496 0.389855
O O3 0.207968 0.006852 0.074706
O O4 0.255515 0.883477 0.824016
O O5 0.857321 0.546536 0.476607
O O6 0.655158 0.655170 0.242869
O O7 0.738656 0.880733 0.322426
O O8 0.656521 0.634852 0.903610
O O9 0.617421 0.648530 0.490314
O O10 0.776946 0.194000 0.563679
O O11 0.551592 0.158399 0.995973
O O12 0.000000 0.500000 0.500000
O O13 0.077879 0.298490 0.803316
O O14 0.068196 0.642168 0.951635
O O15 0.019977 0.797366 0.197388
O O16 0.000000 0.000000 0.000000
O O17 0.000000 0.000000 0.500000
O O18 0.500000 0.500000 0.000000
#
# Coordination Sequence:
#
# PCOD8016376 Si02
#       8
#     2   2   2   2   2   2   2   2
#     4   9  19  40  69  98 132 177 234 287 353 424
#     4  11  24  46  72 100 140 187 238 293 360 427
#     4   9  21  41  69  97 134 182 230 292 356 416
#     4  10  21  44  68  98 141 178 234 294 354 427
#     4  12  27  47  69 105 147 190 242 294 359 436
#     4  12  25  44  69 105 139 187 237 296 359 427
#     4  12  25  43  72 102 143 189 234 294 363 424
#     4  11  26  41  68 103 138 182 238 298 356 424
#
# _framework density 23.423392
#
# number of rings (size 3 to 8) (size 9 to 14) (size 15 to 20)
#    0.000    1.250    2.500    3.750    3.500    3.500 
#    0.000    0.000    0.000    0.000    0.000    0.000 
#    0.000    0.000    0.000    0.000    0.000    0.000 
#
# Total GULP energy -198218.136380 kJ/mol
# GULP energy per Si atom -12388.633524 kJ/mol
# Density = 2.337008 g / cm^3
# Si number density = 23.423392 Si / 1000 Ang^3
#
#
#
# Elastic Constant Matrix: (Units=GPa)
#
#
# Indices 1 2 3 4 5 6 
#
# 1 119.2544 8.2532 46.1055 12.3820 -2.8657 -17.4730
# 2 8.2532 74.4282 34.8122 22.6963 -6.1446 -3.4259
# 3 46.1055 34.8122 133.8542 18.2562 -7.4010 -9.1961
# 4 12.3820 22.6963 18.2562 37.5495 -13.8562 1.3676
# 5 -2.8657 -6.1446 -7.4010 -13.8562 40.4823 -2.5456
# 6 -17.4730 -3.4259 -9.1961 1.3676 -2.5456 29.0856
#
#
#
# Elastic Compliance Matrix: (Units=1/GPa)
#
#
# Indices 1 2 3 4 5 6 
#
# 1 0.010707 0.001562 -0.003284 -0.003214 -0.000347 0.005699
# 2 0.001562 0.018133 -0.003779 -0.010148 -0.001160 0.002255
# 3 -0.003284 -0.003779 0.009840 -0.001215 0.000628 0.000806
# 4 -0.003214 -0.010148 -0.001215 0.038617 0.010953 -0.004368
# 5 -0.000347 -0.001160 0.000628 0.010953 0.028480 0.001831
# 6 0.005699 0.002255 0.000806 -0.004368 0.001831 0.038691
#
#
# Mechanical properties :
#
#
# Convention : Reuss Voigt Hill
#
# Bulk Modulus (GPa) = 36.12774 56.20873 46.16823
# Shear Modulus (GPa) = 30.35899 37.31455 33.83677
#
# Velocity S-wave (km/s) = 3.60404 3.99563 3.80488
# Velocity P-wave (km/s) = 5.72504 6.73318 6.24947
#
# Compressibility (1/GPa) = 0.02767956
#
# Stress axis : x y z
#
# Youngs Moduli (GPa) = 93.39507 55.14886 101.62101
#
# Poissons Ratio (x) = -0.08616 0.33369
# Poissons Ratio (y) = -0.14592 0.38404
# Poissons Ratio (z) = 0.30668 0.20842
#
# Static dielectric constant tensor:
#      x y z
#    x -2.063510 3.040590 -1.961270 
#    y 3.040590 2.375610 0.933400 
#    z -1.961270 0.933400 4.311280 
# 
# 
# High freq. dielectric constant tensor:
#      x y z
#    x 1.922830 -0.011780 0.002040 
#    y -0.011780 1.915790 0.000320 
#    z 0.002040 0.000320 1.943960 
# 
# From -- ./inp_files/343822.got.cif
#   From: 2010.06.25/outbox.cif.g09.slc.cpg/sg2_172_cif.got.tgz:343822.got - 2010.06.27 13:26:56.
