data_PCOD8016141
_publ_section_title
;
Structure prediction by ZEFSAII (Michael W. Deem and Ramdas Pophale) SiO2 
 PCOD8016141
Probable space group: P -1
;
_chemical_formula_sum "Si O2"
_cell_formula_units_Z 14
_cell_length_a 16.072339
_cell_length_b 22.185217
_cell_length_c 12.004917
_cell_angle_alpha 28.901084
_cell_angle_beta 27.981082
_cell_angle_gamma 16.633855
_cell_volume 561.047183
_symmetry_space_group_name_H-M "P -1"
_symmetry_group_IT_number 2
_symmetry_cell_setting 'triclinic'
loop_
_space_group_symop_operation_xyz
x,y,z
-x,-y,-z
loop_
_atom_site_type_symbol
_atom_site_label
_atom_site_fract_x
_atom_site_fract_y
_atom_site_fract_z
Si Si1 0.255924 0.689650 0.892927
Si Si2 0.866912 0.830364 0.581657
Si Si3 0.775607 0.685521 0.734487
Si Si4 0.338987 0.765090 0.454788
Si Si5 0.273028 0.228840 0.952204
Si Si6 0.776514 0.159345 0.772870
Si Si7 0.197462 0.266945 0.619394
O O1 0.429918 0.616002 0.687648
O O2 0.500000 0.500000 0.000000
O O3 0.096979 0.905867 0.776406
O O4 0.987612 0.744974 0.098140
O O5 0.899763 0.715741 0.626785
O O6 0.127554 0.788641 0.335419
O O7 0.525698 0.083695 0.588046
O O8 0.939078 0.715946 0.795102
O O9 0.728042 0.787382 0.511950
O O10 0.036494 0.429199 0.820997
O O11 0.458001 0.803575 0.954989
O O12 0.541874 0.771448 0.202788
O O13 0.357638 0.701936 0.407956
O O14 0.000000 0.000000 0.500000
O O15 0.500000 0.000000 0.000000
O O16 0.000000 0.500000 0.500000
#
# Coordination Sequence:
#
# PCOD8016141 Si02
#       7
#     2   2   2   2   2   2   2
#     4  11  22  44  73 109 147 189 244 300 352 435
#     4  12  25  47  73 107 146 191 242 299 370 432
#     4  12  27  50  71 107 150 185 245 311 361 433
#     4  10  21  43  71 106 148 184 241 301 356 435
#     4  12  24  46  75 105 145 190 241 300 365 434
#     4  11  25  46  73 106 146 191 241 297 369 428
#     4  12  26  48  74 104 148 197 243 298 368 436
#
# _framework density 24.953339
#
# number of rings (size 3 to 8) (size 9 to 14) (size 15 to 20)
#    0.000    0.571    2.857    6.000    0.000    2.286 
#    7.714    0.000    0.000    0.000    0.000    0.000 
#    0.000    0.000    0.000    0.000    0.000    0.000 
#
# Total GULP energy -173586.231620 kJ/mol
# GULP energy per Si atom -12399.016544 kJ/mol
# Density = 2.489654 g / cm^3
# Si number density = 24.953339 Si / 1000 Ang^3
#
#
#
# Elastic Constant Matrix: (Units=GPa)
#
#
# Indices 1 2 3 4 5 6 
#
# 1 116.6718 12.8212 70.1557 4.8000 -17.2063 -3.5692
# 2 12.8212 95.7710 9.5103 -8.6600 -10.4604 -0.4915
# 3 70.1557 9.5103 130.6328 1.9779 -13.8508 5.9187
# 4 4.8000 -8.6600 1.9779 29.0228 -12.3552 7.9061
# 5 -17.2063 -10.4604 -13.8508 -12.3552 49.7660 1.6258
# 6 -3.5692 -0.4915 5.9187 7.9061 1.6258 32.2909
#
#
#
# Elastic Compliance Matrix: (Units=1/GPa)
#
#
# Indices 1 2 3 4 5 6 
#
# 1 0.013360 -0.001073 -0.007017 -0.002151 0.001803 0.003183
# 2 -0.001073 0.011440 0.000095 0.005461 0.003464 -0.001473
# 3 -0.007017 0.000095 0.011698 0.001953 0.001448 -0.003469
# 4 -0.002151 0.005461 0.001953 0.044938 0.012501 -0.012144
# 5 0.001803 0.003464 0.001448 0.012501 0.025093 -0.004337
# 6 0.003183 -0.001473 -0.003469 -0.012144 -0.004337 0.035126
#
#
# Mechanical properties :
#
#
# Convention : Reuss Voigt Hill
#
# Bulk Modulus (GPa) = 48.76370 58.67220 53.71795
# Shear Modulus (GPa) = 30.39838 38.92185 34.66012
#
# Velocity S-wave (km/s) = 3.49407 3.95370 3.73097
# Velocity P-wave (km/s) = 5.98852 6.66379 6.33516
#
# Compressibility (1/GPa) = 0.02050706
#
# Stress axis : x y z
#
# Youngs Moduli (GPa) = 74.84841 87.40992 85.48495
#
# Poissons Ratio (x) = 0.09379 0.59989
# Poissons Ratio (y) = 0.08032 -0.00810
# Poissons Ratio (z) = 0.52525 -0.00828
#
# Static dielectric constant tensor:
#      x y z
#    x 4.854020 0.084980 0.204690 
#    y 0.084980 4.838720 -0.302900 
#    z 0.204690 -0.302900 5.280610 
# 
# 
# High freq. dielectric constant tensor:
#      x y z
#    x 1.991150 -0.009040 0.003750 
#    y -0.009040 2.003960 0.001440 
#    z 0.003750 0.001440 2.004010 
# 
# From -- ./inp_files/457592.got.cif
#   From: 2010.06.25/outbox.cif.g09.slc.cpg/sg2_229_cif.got.tgz:457592.got - 2010.06.27 13:26:56.
