data_PCOD8016030
_publ_section_title
;
Structure prediction by ZEFSAII (Michael W. Deem and Ramdas Pophale) SiO2 
 PCOD8016030
Probable space group: P -1
;
_chemical_formula_sum "Si O2"
_cell_formula_units_Z 16
_cell_length_a 21.864277
_cell_length_b 5.109908
_cell_length_c 15.822943
_cell_angle_alpha 87.590689
_cell_angle_beta 18.929548
_cell_angle_gamma 82.773340
_cell_volume 552.427293
_symmetry_space_group_name_H-M "P -1"
_symmetry_group_IT_number 2
_symmetry_cell_setting 'triclinic'
loop_
_space_group_symop_operation_xyz
x,y,z
-x,-y,-z
loop_
_atom_site_type_symbol
_atom_site_label
_atom_site_fract_x
_atom_site_fract_y
_atom_site_fract_z
Si Si1 0.323398 0.613775 0.288509
Si Si2 0.139463 0.039398 0.392092
Si Si3 0.836605 0.476610 0.867081
Si Si4 0.344521 0.780607 0.620084
Si Si5 0.412785 0.814999 0.716200
Si Si6 0.871297 0.985013 0.255101
Si Si7 0.021696 0.538866 0.788475
Si Si8 0.530439 0.876885 0.146442
O O1 0.155953 0.836976 0.453071
O O2 0.209160 0.408930 0.482549
O O3 0.500000 0.500000 0.000000
O O4 0.416282 0.700012 0.248507
O O5 0.361736 0.979384 0.065799
O O6 0.000000 0.000000 0.500000
O O7 0.045058 0.343118 0.549549
O O8 0.707782 0.704087 0.972961
O O9 0.845683 0.604285 0.948195
O O10 0.729343 0.230696 0.022030
O O11 0.296411 0.858570 0.778993
O O12 0.408240 0.459821 0.522784
O O13 0.145463 0.919431 0.824486
O O14 0.510192 0.922722 0.368908
O O15 0.947479 0.194439 0.210844
O O16 0.009460 0.681214 0.099323
O O17 0.650206 0.949805 0.562884
#
# Coordination Sequence:
#
# PCOD8016030 Si02
#       8
#     2   2   2   2   2   2   2   2
#     4  11  22  41  62  89 129 181 236 277 325 394
#     4  12  25  39  63  99 142 181 224 288 346 404
#     4  12  24  43  63 100 141 178 227 279 358 403
#     4  10  21  43  69 103 134 169 236 278 340 396
#     4  10  23  40  71 103 134 178 218 292 335 410
#     4  11  23  43  69  96 134 178 233 278 334 398
#     4  11  25  41  64  98 136 179 217 287 341 404
#     4  11  23  38  63  94 123 184 226 277 323 401
#
# _framework density 28.963086000000001
#
# number of rings (size 3 to 8) (size 9 to 14) (size 15 to 20)
#    0.000    1.000    1.250    6.000    3.500    2.000 
#    0.000    1.250    0.000    0.000    0.000    0.000 
#    0.000    0.000    0.000    0.000    0.000    0.000 
#
# Total GULP energy -198252.677971 kJ/mol
# GULP energy per Si atom -12390.792373 kJ/mol
# Density = 2.889717 g / cm^3
# Si number density = 28.963086 Si / 1000 Ang^3
#
#
#
# Elastic Constant Matrix: (Units=GPa)
#
#
# Indices 1 2 3 4 5 6 
#
# 1 153.4814 33.0967 8.7621 18.0886 -9.9195 -34.6816
# 2 33.0967 94.7646 11.0086 -10.1342 -9.3208 -23.7895
# 3 8.7621 11.0086 94.4649 2.4829 -2.1124 -18.5501
# 4 18.0886 -10.1342 2.4829 48.5734 -14.5329 5.2379
# 5 -9.9195 -9.3208 -2.1124 -14.5329 43.9302 2.8859
# 6 -34.6816 -23.7895 -18.5501 5.2379 2.8859 45.7275
#
#
#
# Elastic Compliance Matrix: (Units=1/GPa)
#
#
# Indices 1 2 3 4 5 6 
#
# 1 0.008924 -0.002092 0.000818 -0.004613 -0.000347 0.006562
# 2 -0.002092 0.013217 -0.000515 0.004098 0.003374 0.004398
# 3 0.000818 -0.000515 0.011645 -0.001654 -0.000259 0.005283
# 4 -0.004613 0.004098 -0.001654 0.026512 0.008889 -0.005636
# 5 -0.000347 0.003374 -0.000259 0.008889 0.026415 -0.001298
# 6 0.006562 0.004398 0.005283 -0.005636 -0.001298 0.032004
#
#
# Mechanical properties :
#
#
# Convention : Reuss Voigt Hill
#
# Bulk Modulus (GPa) = 33.10244 49.82731 41.46487
# Shear Modulus (GPa) = 37.77471 46.96912 42.37191
#
# Velocity S-wave (km/s) = 3.61534 4.03139 3.82902
# Velocity P-wave (km/s) = 5.37416 6.23783 5.82203
#
# Compressibility (1/GPa) = 0.03020926
#
# Stress axis : x y z
#
# Youngs Moduli (GPa) = 112.05889 75.65961 85.87313
#
# Poissons Ratio (x) = 0.15826 -0.07026
# Poissons Ratio (y) = 0.23440 0.04421
# Poissons Ratio (z) = -0.09168 0.03895
#
# Static dielectric constant tensor:
#      x y z
#    x 5.576850 -0.475250 -0.271310 
#    y -0.475250 5.208310 -0.126720 
#    z -0.271310 -0.126720 5.881960 
# 
# 
# High freq. dielectric constant tensor:
#      x y z
#    x 2.203720 -0.026270 -0.003520 
#    y -0.026270 2.153170 -0.005620 
#    z -0.003520 -0.005620 2.220400 
# 
# From -- ./inp_files/578633.got.cif
#   From: 2010.06.25/outbox.cif.g09.slc.cpg/sg2_290_cif.got.tgz:578633.got - 2010.06.27 13:26:56.
