data_PCOD8016816
_publ_section_title
;
Structure prediction by ZEFSAII (Michael W. Deem and Ramdas Pophale) SiO2 
 PCOD8016816
Probable space group: P -1
;
_chemical_formula_sum "Si O2"
_cell_formula_units_Z 14
_cell_length_a 12.980665
_cell_length_b 10.853971
_cell_length_c 8.148772
_cell_angle_alpha 42.371866
_cell_angle_beta 119.104343
_cell_angle_gamma 99.618720
_cell_volume 639.001170
_symmetry_space_group_name_H-M "P -1"
_symmetry_group_IT_number 2
_symmetry_cell_setting 'triclinic'
loop_
_space_group_symop_operation_xyz
x,y,z
-x,-y,-z
loop_
_atom_site_type_symbol
_atom_site_label
_atom_site_fract_x
_atom_site_fract_y
_atom_site_fract_z
Si Si1 0.178930 0.662371 0.861015
Si Si2 0.030090 0.649661 0.057934
Si Si3 0.635869 0.252418 0.473067
Si Si4 0.641466 0.624271 0.941186
Si Si5 0.212015 0.866200 0.984259
Si Si6 0.047178 0.244954 0.599192
Si Si7 0.189285 0.127009 0.146427
O O1 0.091597 0.767381 0.536360
O O2 0.076160 0.598285 0.954247
O O3 0.292274 0.479226 0.072067
O O4 0.238832 0.797220 0.882364
O O5 0.116330 0.766809 0.085451
O O6 0.050969 0.460340 0.369277
O O7 0.885039 0.793212 0.819713
O O8 0.498009 0.245320 0.341076
O O9 0.666555 0.196305 0.743178
O O10 0.641126 0.465948 0.233597
O O11 0.731841 0.101588 0.570541
O O12 0.713400 0.761777 0.932866
O O13 0.149659 0.097526 0.705916
O O14 0.079804 0.178475 0.875819
#
# Coordination Sequence:
#
# PCOD8016816 Si02
#       7
#     2   2   2   2   2   2   2
#     4  10  23  36  58  88 121 150 185 234 293 348
#     4  10  22  36  56  93 119 147 181 239 297 341
#     4  10  24  42  61  81 114 158 199 236 277 328
#     4  11  23  42  60  83 116 155 198 236 276 344
#     4   9  23  37  57  89 117 148 192 233 285 352
#     4  11  20  36  58  87 122 148 183 236 292 341
#     4  11  23  36  65  87 115 149 193 241 285 343
#
# _framework density 21.909192999999998
#
# number of rings (size 3 to 8) (size 9 to 14) (size 15 to 20)
#    0.857    0.857    1.429    2.571    4.000    1.714 
#    0.000    0.000    0.000    1.714    0.000    0.000 
#    0.000    0.000    0.000    0.000    0.000    0.000 
#
# Total GULP energy -173510.025710 kJ/mol
# GULP energy per Si atom -12393.573265 kJ/mol
# Density = 2.185933 g / cm^3
# Si number density = 21.909193 Si / 1000 Ang^3
#
#
#
# Elastic Constant Matrix: (Units=GPa)
#
#
# Indices 1 2 3 4 5 6 
#
# 1 72.3698 17.6006 28.9172 15.2557 27.0426 -10.8172
# 2 17.6006 77.3331 31.2970 0.6516 14.2679 -3.0949
# 3 28.9172 31.2970 95.4131 -1.3239 38.9840 -1.4980
# 4 15.2557 0.6516 -1.3239 27.5996 0.4787 3.1049
# 5 27.0426 14.2679 38.9840 0.4787 25.3310 -3.2124
# 6 -10.8172 -3.0949 -1.4980 3.1049 -3.2124 27.0398
#
#
#
# Elastic Compliance Matrix: (Units=1/GPa)
#
#
# Indices 1 2 3 4 5 6 
#
# 1 0.034361 -0.002345 0.010857 -0.018694 -0.050419 0.010236
# 2 -0.002345 0.015176 -0.004869 0.000606 0.001519 0.000640
# 3 0.010857 -0.004869 0.033345 -0.003110 -0.060254 -0.001168
# 4 -0.018694 0.000606 -0.003110 0.047183 0.022196 -0.010362
# 5 -0.050419 0.001519 -0.060254 0.022196 0.184251 -0.003993
# 6 0.010236 0.000640 -0.001168 -0.010362 -0.003993 0.041801
#
#
# Mechanical properties :
#
#
# Convention : Reuss Voigt Hill
#
# Bulk Modulus (GPa) = 11.09061 44.52731 27.80896
# Shear Modulus (GPa) = 13.19656 27.14749 20.17203
#
# Velocity S-wave (km/s) = 2.45690 3.52389 3.03761
# Velocity P-wave (km/s) = 3.62237 6.07658 5.00232
#
# Compressibility (1/GPa) = 0.09016633
#
# Stress axis : x y z
#
# Youngs Moduli (GPa) = 29.10286 65.89502 29.98976
#
# Poissons Ratio (x) = 0.15451 -0.32559
# Poissons Ratio (y) = 0.06824 0.14603
# Poissons Ratio (z) = -0.31596 0.32087
#
# Static dielectric constant tensor:
#      x y z
#    x 3.706480 -0.021420 0.225170 
#    y -0.021420 4.056150 -0.109870 
#    z 0.225170 -0.109870 3.736920 
# 
# 
# High freq. dielectric constant tensor:
#      x y z
#    x 1.835810 0.000290 0.009320 
#    y 0.000290 1.874090 -0.009880 
#    z 0.009320 -0.009880 1.851390 
# 
# From -- ./inp_files/302146.got.cif
#   From: 2010.06.25/outbox.cif.g09.slc.cpg/sg2_152_cif.got.tgz:302146.got - 2010.06.27 13:26:56.
