data_PCOD8016016
_publ_section_title
;
Structure prediction by ZEFSAII (Michael W. Deem and Ramdas Pophale) SiO2 
 PCOD8016016
Probable space group: P -1
;
_chemical_formula_sum "Si O2"
_cell_formula_units_Z 16
_cell_length_a 14.659558
_cell_length_b 14.152553
_cell_length_c 8.629329
_cell_angle_alpha 79.395904
_cell_angle_beta 97.982298
_cell_angle_gamma 30.307005
_cell_volume 710.249186
_symmetry_space_group_name_H-M "P -1"
_symmetry_group_IT_number 2
_symmetry_cell_setting 'triclinic'
loop_
_space_group_symop_operation_xyz
x,y,z
-x,-y,-z
loop_
_atom_site_type_symbol
_atom_site_label
_atom_site_fract_x
_atom_site_fract_y
_atom_site_fract_z
Si Si1 0.045450 0.541830 0.881287
Si Si2 0.661295 0.562009 0.980995
Si Si3 0.024767 0.063140 0.205654
Si Si4 0.957523 0.159544 0.805879
Si Si5 0.768696 0.731009 0.289919
Si Si6 0.280008 0.014110 0.927699
Si Si7 0.511958 0.308901 0.426921
Si Si8 0.599104 0.041225 0.698661
O O1 0.205138 0.354677 0.835636
O O2 0.172175 0.509328 0.004090
O O3 0.790206 0.819019 0.690563
O O4 0.000000 0.500000 0.000000
O O5 0.495703 0.698587 0.757107
O O6 0.509255 0.735054 0.039477
O O7 0.809631 0.328066 0.136549
O O8 0.977722 0.993932 0.238546
O O9 0.246160 0.880924 0.409098
O O10 0.058488 0.049463 0.035343
O O11 0.686651 0.427764 0.655110
O O12 0.070656 0.149978 0.774149
O O13 0.711667 0.895550 0.194079
O O14 0.569654 0.880162 0.305483
O O15 0.000000 0.500000 0.500000
O O16 0.259320 0.053156 0.093415
O O17 0.461311 0.255892 0.515544
#
# Coordination Sequence:
#
# PCOD8016016 Si02
#       8
#     2   2   2   2   2   2   2   2
#     4  12  24  43  67  92 137 182 220 275 335 394
#     4  11  25  42  68  98 139 172 224 281 331 403
#     4  10  21  43  68  99 129 174 226 272 340 400
#     4  10  22  41  70  97 132 174 220 280 336 398
#     4  12  28  42  65 103 136 177 234 273 328 407
#     4  12  23  46  63  96 140 176 221 281 335 396
#     4  11  22  42  70 100 129 175 227 275 335 400
#     4  12  23  43  68  94 133 184 220 273 336 393
#
# _framework density 22.527304999999998
#
# number of rings (size 3 to 8) (size 9 to 14) (size 15 to 20)
#    0.000    0.750    5.000    3.000    3.500    1.000 
#    2.250    0.625    0.000    0.000    0.000    0.000 
#    0.000    0.000    0.000    0.000    0.000    0.000 
#
# Total GULP energy -198399.161451 kJ/mol
# GULP energy per Si atom -12399.947591 kJ/mol
# Density = 2.247603 g / cm^3
# Si number density = 22.527305 Si / 1000 Ang^3
#
#
#
# Elastic Constant Matrix: (Units=GPa)
#
#
# Indices 1 2 3 4 5 6 
#
# 1 110.5025 28.5813 29.5430 -9.7704 13.1119 19.5299
# 2 28.5813 92.8006 9.2751 -23.9615 9.6185 12.5172
# 3 29.5430 9.2751 104.6828 -25.3483 15.7846 7.6505
# 4 -9.7704 -23.9615 -25.3483 24.2603 -2.3816 -3.5723
# 5 13.1119 9.6185 15.7846 -2.3816 30.7439 -7.5769
# 6 19.5299 12.5172 7.6505 -3.5723 -7.5769 34.9610
#
#
#
# Elastic Compliance Matrix: (Units=1/GPa)
#
#
# Indices 1 2 3 4 5 6 
#
# 1 0.011876 -0.002423 -0.002278 -0.001417 -0.004840 -0.006462
# 2 -0.002423 0.017955 0.005749 0.021201 -0.007311 -0.005751
# 3 -0.002278 0.005749 0.016176 0.020213 -0.008582 -0.004120
# 4 -0.001417 0.021201 0.020213 0.080776 -0.011495 -0.005460
# 5 -0.004840 -0.007311 -0.008582 -0.011495 0.044242 0.015613
# 6 -0.006462 -0.005751 -0.004120 -0.005460 0.015613 0.038000
#
#
# Mechanical properties :
#
#
# Convention : Reuss Voigt Hill
#
# Bulk Modulus (GPa) = 20.78815 49.19827 34.99321
# Shear Modulus (GPa) = 22.42537 34.03214 28.22875
#
# Velocity S-wave (km/s) = 3.15854 3.89100 3.54374
# Velocity P-wave (km/s) = 4.74867 6.48639 5.68433
#
# Compressibility (1/GPa) = 0.04810434
#
# Stress axis : x y z
#
# Youngs Moduli (GPa) = 84.20110 55.69504 61.82101
#
# Poissons Ratio (x) = 0.13492 0.14083
# Poissons Ratio (y) = 0.20398 -0.35542
# Poissons Ratio (z) = 0.19181 -0.32020
#
# Static dielectric constant tensor:
#      x y z
#    x 4.141100 0.104390 0.007650 
#    y 0.104390 4.108100 -0.140420 
#    z 0.007650 -0.140420 3.975920 
# 
# 
# High freq. dielectric constant tensor:
#      x y z
#    x 1.893880 0.015790 0.009110 
#    y 0.015790 1.890680 -0.020770 
#    z 0.009110 -0.020770 1.878230 
# 
# From -- ./inp_files/315103.got.cif
#   From: 2010.06.25/outbox.cif.g09.slc.cpg/sg2_158_cif.got.tgz:315103.got - 2010.06.27 13:26:56.
