data_PCOD8016477
_publ_section_title
;
Structure prediction by ZEFSAII (Michael W. Deem and Ramdas Pophale) SiO2 
 PCOD8016477
Probable space group: P -1
;
_chemical_formula_sum "Si O2"
_cell_formula_units_Z 16
_cell_length_a 8.980755
_cell_length_b 17.708405
_cell_length_c 16.394984
_cell_angle_alpha 149.287768
_cell_angle_beta 32.228343
_cell_angle_gamma 137.802303
_cell_volume 709.285309
_symmetry_space_group_name_H-M "P -1"
_symmetry_group_IT_number 2
_symmetry_cell_setting 'triclinic'
loop_
_space_group_symop_operation_xyz
x,y,z
-x,-y,-z
loop_
_atom_site_type_symbol
_atom_site_label
_atom_site_fract_x
_atom_site_fract_y
_atom_site_fract_z
Si Si1 0.716895 0.551401 0.217772
Si Si2 0.470272 0.859548 0.824611
Si Si3 0.062083 0.338138 0.613281
Si Si4 0.669102 0.996602 0.145492
Si Si5 0.760242 0.678999 0.806195
Si Si6 0.439963 0.826027 0.350795
Si Si7 0.320541 0.756996 0.517554
Si Si8 0.928758 0.650991 0.887950
O O1 0.464023 0.430134 0.234613
O O2 0.596192 0.668243 0.320786
O O3 0.773102 0.621287 0.343869
O O4 0.000000 0.500000 0.000000
O O5 0.730030 0.757411 0.625482
O O6 0.201533 0.755334 0.870775
O O7 0.454565 0.918623 0.794678
O O8 0.500000 0.000000 0.000000
O O9 0.794319 0.225983 0.655849
O O10 0.969258 0.487456 0.751208
O O11 0.582309 0.077684 0.343643
O O12 0.578657 0.824811 0.028583
O O13 0.000000 0.000000 0.000000
O O14 0.838598 0.631465 0.817294
O O15 0.044036 0.690982 0.631726
O O16 0.274812 0.760377 0.445908
O O17 0.500000 0.000000 0.500000
O O18 0.711227 0.738065 0.123729
#
# Coordination Sequence:
#
# PCOD8016477 Si02
#       8
#     2   2   2   2   2   2   2   2
#     4  12  25  45  68 108 148 186 229 296 365 416
#     4  12  26  44  72 108 144 181 240 306 363 411
#     4  12  27  46  68 109 147 182 238 304 362 427
#     4  10  21  44  71  99 136 182 248 286 339 428
#     4  11  24  44  77  98 137 194 245 282 346 433
#     4  12  27  46  74 103 145 193 244 289 363 432
#     4  11  23  46  71 101 136 190 244 285 344 438
#     4  12  24  48  72 107 144 196 237 295 353 438
#
# _framework density 22.557919999999999
#
# number of rings (size 3 to 8) (size 9 to 14) (size 15 to 20)
#    0.000    0.500    3.750    4.875    7.000    1.000 
#    2.250    1.250    0.000    0.000    0.000    0.000 
#    0.000    0.000    0.000    0.000    0.000    0.000 
#
# Total GULP energy -198290.604618 kJ/mol
# GULP energy per Si atom -12393.162789 kJ/mol
# Density = 2.250658 g / cm^3
# Si number density = 22.557920 Si / 1000 Ang^3
#
#
#
# Elastic Constant Matrix: (Units=GPa)
#
#
# Indices 1 2 3 4 5 6 
#
# 1 76.8589 53.6406 33.9800 6.1490 -7.0762 14.9173
# 2 53.6406 113.0647 53.1160 9.4488 -7.9712 29.3254
# 3 33.9800 53.1160 169.3445 5.4065 -12.6126 15.8145
# 4 6.1490 9.4488 5.4065 39.4595 -0.0417 7.4537
# 5 -7.0762 -7.9712 -12.6126 -0.0417 34.4068 -0.6353
# 6 14.9173 29.3254 15.8145 7.4537 -0.6353 44.8111
#
#
#
# Elastic Compliance Matrix: (Units=1/GPa)
#
#
# Indices 1 2 3 4 5 6 
#
# 1 0.019779 -0.008576 -0.001089 -0.000796 0.001673 -0.000432
# 2 -0.008576 0.015950 -0.002581 -0.000899 0.000864 -0.006511
# 3 -0.001089 -0.002581 0.007107 -0.000106 0.001776 -0.000414
# 4 -0.000796 -0.000899 -0.000106 0.026357 -0.000443 -0.003500
# 5 0.001673 0.000864 0.001776 -0.000443 0.030236 -0.001247
# 6 -0.000432 -0.006511 -0.000414 -0.003500 -0.001247 0.027431
#
#
# Mechanical properties :
#
#
# Convention : Reuss Voigt Hill
#
# Bulk Modulus (GPa) = 54.50829 71.19347 62.85088
# Shear Modulus (GPa) = 31.75294 38.30423 35.02859
#
# Velocity S-wave (km/s) = 3.75589 4.12520 3.94487
# Velocity P-wave (km/s) = 6.55936 7.37011 6.97652
#
# Compressibility (1/GPa) = 0.01834583
#
# Stress axis : x y z
#
# Youngs Moduli (GPa) = 50.55955 62.69502 140.69781
#
# Poissons Ratio (x) = 0.53765 0.15316
# Poissons Ratio (y) = 0.43358 0.36315
# Poissons Ratio (z) = 0.05504 0.16182
#
# Static dielectric constant tensor:
#      x y z
#    x 4.204300 0.286350 0.293280 
#    y 0.286350 4.006880 0.036070 
#    z 0.293280 0.036070 4.322750 
# 
# 
# High freq. dielectric constant tensor:
#      x y z
#    x 1.899350 0.015080 0.003300 
#    y 0.015080 1.887820 0.016220 
#    z 0.003300 0.016220 1.914170 
# 
# From -- ./inp_files/562083.got.cif
#   From: 2010.06.25/outbox.cif.g09.slc.cpg/sg2_282_cif.got.tgz:562083.got - 2010.06.27 13:26:56.
