data_PCOD8016437
_publ_section_title
;
Structure prediction by ZEFSAII (Michael W. Deem and Ramdas Pophale) SiO2 
 PCOD8016437
Probable space group: P -1
;
_chemical_formula_sum "Si O2"
_cell_formula_units_Z 16
_cell_length_a 8.194955
_cell_length_b 18.548954
_cell_length_c 11.088147
_cell_angle_alpha 147.475729
_cell_angle_beta 78.655528
_cell_angle_gamma 81.654873
_cell_volume 717.418075
_symmetry_space_group_name_H-M "P -1"
_symmetry_group_IT_number 2
_symmetry_cell_setting 'triclinic'
loop_
_space_group_symop_operation_xyz
x,y,z
-x,-y,-z
loop_
_atom_site_type_symbol
_atom_site_label
_atom_site_fract_x
_atom_site_fract_y
_atom_site_fract_z
Si Si1 0.995907 0.992733 0.847307
Si Si2 0.022233 0.259227 0.653247
Si Si3 0.436496 0.384310 0.218183
Si Si4 0.449490 0.681225 0.632504
Si Si5 0.061839 0.418704 0.245925
Si Si6 0.207470 0.413488 0.711381
Si Si7 0.265028 0.065210 0.763300
Si Si8 0.339683 0.961150 0.342819
O O1 0.176372 0.002841 0.785229
O O2 0.044593 0.818305 0.547316
O O3 0.765687 0.146521 0.057915
O O4 0.000000 0.000000 0.000000
O O5 0.178986 0.292472 0.620931
O O6 0.132615 0.126334 0.556946
O O7 0.833891 0.433818 0.985416
O O8 0.425320 0.540219 0.393702
O O9 0.389299 0.400066 0.392155
O O10 0.289124 0.372998 0.133055
O O11 0.654729 0.200764 0.918596
O O12 0.557198 0.702358 0.533103
O O13 0.000000 0.500000 0.500000
O O14 0.936524 0.524358 0.297462
O O15 0.075157 0.251964 0.017109
O O16 0.461769 0.056902 0.772459
O O17 0.345157 0.954730 0.476869
#
# Coordination Sequence:
#
# PCOD8016437 Si02
#       8
#     2   2   2   2   2   2   2   2
#     4  12  29  46  67 102 137 179 223 285 340 401
#     4  11  26  46  66  97 136 182 227 275 341 401
#     4  10  22  37  66 103 132 165 225 277 333 393
#     4  11  24  43  64 100 135 176 224 276 342 397
#     4  11  20  38  66  95 130 174 216 276 328 391
#     4  11  26  44  67  97 138 184 224 273 336 412
#     4  10  24  41  68  99 133 169 229 276 335 396
#     4  10  21  44  70  99 129 179 222 277 333 404
#
# _framework density 22.302197
#
# number of rings (size 3 to 8) (size 9 to 14) (size 15 to 20)
#    0.000    1.250    3.750    0.750    8.750    1.000 
#    0.000    0.625    0.000    0.000    0.000    0.000 
#    0.000    0.000    0.000    0.000    0.000    0.000 
#
# Total GULP energy -198254.744342 kJ/mol
# GULP energy per Si atom -12390.921521 kJ/mol
# Density = 2.225144 g / cm^3
# Si number density = 22.302197 Si / 1000 Ang^3
#
#
#
# Elastic Constant Matrix: (Units=GPa)
#
#
# Indices 1 2 3 4 5 6 
#
# 1 58.3464 17.5385 26.5194 -12.3657 8.3502 6.6205
# 2 17.5385 70.2280 16.9830 -13.1146 3.4776 2.4090
# 3 26.5194 16.9830 109.6050 -5.2808 19.3435 10.5466
# 4 -12.3657 -13.1146 -5.2808 36.3674 5.7480 -1.8661
# 5 8.3502 3.4776 19.3435 5.7480 39.0187 -6.3367
# 6 6.6205 2.4090 10.5466 -1.8661 -6.3367 35.9187
#
#
#
# Elastic Compliance Matrix: (Units=1/GPa)
#
#
# Indices 1 2 3 4 5 6 
#
# 1 0.021965 -0.003148 -0.003481 0.006318 -0.004148 -0.003219
# 2 -0.003148 0.016284 -0.001397 0.004722 -0.000780 0.000006
# 3 -0.003481 -0.001397 0.011537 0.000678 -0.005534 -0.003593
# 4 0.006318 0.004722 0.000678 0.032505 -0.007100 -0.001244
# 5 -0.004148 -0.000780 -0.005534 -0.007100 0.031618 0.007651
# 6 -0.003219 0.000006 -0.003593 -0.001244 0.007651 0.030774
#
#
# Mechanical properties :
#
#
# Convention : Reuss Voigt Hill
#
# Bulk Modulus (GPa) = 29.64255 40.02902 34.83578
# Shear Modulus (GPa) = 29.07329 34.07019 31.57174
#
# Velocity S-wave (km/s) = 3.61447 3.91277 3.76657
# Velocity P-wave (km/s) = 5.54431 6.19681 5.87962
#
# Compressibility (1/GPa) = 0.03373529
#
# Stress axis : x y z
#
# Youngs Moduli (GPa) = 45.52639 61.41146 86.67526
#
# Poissons Ratio (x) = 0.19333 0.30168
# Poissons Ratio (y) = 0.14332 0.12107
# Poissons Ratio (z) = 0.15846 0.08578
#
# Static dielectric constant tensor:
#      x y z
#    x 2.400210 1.186490 0.622680 
#    y 1.186490 2.976760 -0.426540 
#    z 0.622680 -0.426540 4.078110 
# 
# 
# High freq. dielectric constant tensor:
#      x y z
#    x 1.863670 0.001470 0.010920 
#    y 0.001470 1.866740 -0.005520 
#    z 0.010920 -0.005520 1.895990 
# 
# From -- ./inp_files/405700.got.cif
#   From: 2010.06.25/outbox.cif.g09.slc.cpg/sg2_203_cif.got.tgz:405700.got - 2010.06.27 13:26:56.
