data_PCOD8016740
_publ_section_title
;
Structure prediction by ZEFSAII (Michael W. Deem and Ramdas Pophale) SiO2 
 PCOD8016740
Probable space group: P -1
;
_chemical_formula_sum "Si O2"
_cell_formula_units_Z 16
_cell_length_a 12.013594
_cell_length_b 7.070710
_cell_length_c 10.881410
_cell_angle_alpha 45.500960
_cell_angle_beta 108.229553
_cell_angle_gamma 106.371714
_cell_volume 623.512034
_symmetry_space_group_name_H-M "P -1"
_symmetry_group_IT_number 2
_symmetry_cell_setting 'triclinic'
loop_
_space_group_symop_operation_xyz
x,y,z
-x,-y,-z
loop_
_atom_site_type_symbol
_atom_site_label
_atom_site_fract_x
_atom_site_fract_y
_atom_site_fract_z
Si Si1 0.912938 0.090000 0.527824
Si Si2 0.301921 0.264607 0.035513
Si Si3 0.892148 0.051498 0.025229
Si Si4 0.125771 0.367825 0.577344
Si Si5 0.450580 0.871454 0.393056
Si Si6 0.692274 0.290649 0.357907
Si Si7 0.680357 0.643728 0.542069
Si Si8 0.823695 0.585522 0.846641
O O1 0.901970 0.868002 0.733154
O O2 0.781657 0.096633 0.413415
O O3 0.000000 0.000000 0.500000
O O4 0.986791 0.368001 0.480044
O O5 0.225763 0.434616 0.022733
O O6 0.224723 0.008867 0.070561
O O7 0.409847 0.144684 0.197704
O O8 0.346791 0.470237 0.848439
O O9 0.904249 0.352134 0.943672
O O10 0.876897 0.863866 0.220542
O O11 0.000000 0.000000 0.000000
O O12 0.202886 0.627369 0.540052
O O13 0.199935 0.279446 0.525982
O O14 0.419737 0.840894 0.543903
O O15 0.592198 0.886585 0.409149
O O16 0.393046 0.609123 0.427526
O O17 0.711028 0.570013 0.725131
#
# Coordination Sequence:
#
# PCOD8016740 Si02
#       8
#     2   2   2   2   2   2   2   2
#     4  12  24  38  64  97 134 175 223 276 336 414
#     4  11  24  44  69 102 137 177 231 279 337 410
#     4  11  26  43  66 101 141 181 228 276 340 410
#     4  10  23  42  67  96 133 183 221 281 338 407
#     4  10  21  47  71  97 137 180 229 285 337 400
#     4  10  24  44  67  99 136 178 229 278 341 404
#     4  10  22  43  72  97 133 183 226 281 344 400
#     4  12  25  42  69  99 142 180 221 286 343 398
#
# _framework density 25.661090000000002
#
# number of rings (size 3 to 8) (size 9 to 14) (size 15 to 20)
#    0.000    1.250    3.750    1.125    5.250    1.500 
#    2.250    3.125    0.000    0.000    0.000    0.000 
#    0.000    0.000    0.000    0.000    0.000    0.000 
#
# Total GULP energy -198310.849019 kJ/mol
# GULP energy per Si atom -12394.428064 kJ/mol
# Density = 2.560268 g / cm^3
# Si number density = 25.661090 Si / 1000 Ang^3
#
#
#
# Elastic Constant Matrix: (Units=GPa)
#
#
# Indices 1 2 3 4 5 6 
#
# 1 188.6483 28.6768 56.2658 -4.3682 -13.0905 -5.6002
# 2 28.6768 88.1092 17.1281 -5.9592 -13.5480 -17.8420
# 3 56.2658 17.1281 127.8114 -3.5904 -4.3855 -12.9616
# 4 -4.3682 -5.9592 -3.5904 36.4765 -8.4788 3.0527
# 5 -13.0905 -13.5480 -4.3855 -8.4788 33.8622 -9.3560
# 6 -5.6002 -17.8420 -12.9616 3.0527 -9.3560 23.9549
#
#
#
# Elastic Compliance Matrix: (Units=1/GPa)
#
#
# Indices 1 2 3 4 5 6 
#
# 1 0.006402 -0.001340 -0.002595 0.000713 0.001688 -0.000337
# 2 -0.001340 0.017312 0.000543 0.004134 0.012248 0.017132
# 3 -0.002595 0.000543 0.009575 0.000758 0.002234 0.005755
# 4 0.000713 0.004134 0.000758 0.030415 0.010742 0.003976
# 5 0.001688 0.012248 0.002234 0.010742 0.045566 0.027153
# 6 -0.000337 0.017132 0.005755 0.003976 0.027153 0.067639
#
#
# Mechanical properties :
#
#
# Convention : Reuss Voigt Hill
#
# Bulk Modulus (GPa) = 37.72588 67.63449 52.68019
# Shear Modulus (GPa) = 25.97046 39.02527 32.49787
#
# Velocity S-wave (km/s) = 3.18473 3.90397 3.56255
# Velocity P-wave (km/s) = 5.31572 6.83633 6.12341
#
# Compressibility (1/GPa) = 0.02650700
#
# Stress axis : x y z
#
# Youngs Moduli (GPa) = 156.19693 57.76383 104.43642
#
# Poissons Ratio (x) = 0.07738 0.27102
# Poissons Ratio (y) = 0.20923 -0.05676
# Poissons Ratio (z) = 0.40534 -0.03139
#
# Static dielectric constant tensor:
#      x y z
#    x 5.354440 0.510110 -0.045950 
#    y 0.510110 5.774720 -0.139490 
#    z -0.045950 -0.139490 4.374470 
# 
# 
# High freq. dielectric constant tensor:
#      x y z
#    x 2.051580 0.006470 0.003610 
#    y 0.006470 2.084140 0.002430 
#    z 0.003610 0.002430 1.997140 
# 
# From -- ./inp_files/416114.got.cif
#   From: 2010.06.25/outbox.cif.g09.slc.cpg/sg2_209_cif.got.tgz:416114.got - 2010.06.27 13:26:56.
