data_PCOD8016642
_publ_section_title
;
Structure prediction by ZEFSAII (Michael W. Deem and Ramdas Pophale) SiO2 
 PCOD8016642
Probable space group: P -1
;
_chemical_formula_sum "Si O2"
_cell_formula_units_Z 16
_cell_length_a 11.554197
_cell_length_b 8.605765
_cell_length_c 15.004101
_cell_angle_alpha 68.087780
_cell_angle_beta 45.707763
_cell_angle_gamma 103.421168
_cell_volume 664.246334
_symmetry_space_group_name_H-M "P -1"
_symmetry_group_IT_number 2
_symmetry_cell_setting 'triclinic'
loop_
_space_group_symop_operation_xyz
x,y,z
-x,-y,-z
loop_
_atom_site_type_symbol
_atom_site_label
_atom_site_fract_x
_atom_site_fract_y
_atom_site_fract_z
Si Si1 0.091158 0.431564 0.631442
Si Si2 0.155936 0.479768 0.337221
Si Si3 0.566809 0.932981 0.311996
Si Si4 0.332288 0.061032 0.948934
Si Si5 0.866970 0.828514 0.457920
Si Si6 0.383328 0.640293 0.808870
Si Si7 0.971044 0.879534 0.950334
Si Si8 0.261574 0.404765 0.114485
O O1 0.196613 0.337891 0.556929
O O2 0.035018 0.510727 0.559001
O O3 0.294751 0.664024 0.538374
O O4 0.835979 0.217014 0.864916
O O5 0.422686 0.733357 0.172035
O O6 0.046547 0.231426 0.497012
O O7 0.160716 0.447881 0.235711
O O8 0.597271 0.150598 0.270619
O O9 0.760737 0.973616 0.256665
O O10 0.607664 0.928670 0.187095
O O11 0.174955 0.109868 0.039444
O O12 0.637331 0.749629 0.632691
O O13 0.072979 0.113176 0.257029
O O14 0.188046 0.411901 0.894136
O O15 0.303217 0.548112 0.973495
O O16 0.000000 0.000000 0.000000
O O17 0.500000 0.500000 0.000000
#
# Coordination Sequence:
#
# PCOD8016642 Si02
#       8
#     2   2   2   2   2   2   2   2
#     4  12  25  40  67  99 134 173 219 266 325 392
#     4  12  23  44  63  99 138 174 217 265 325 393
#     4  11  25  42  69  97 130 173 218 276 324 381
#     4  11  23  46  67  97 132 174 221 269 324 386
#     4  12  24  41  64  94 136 177 216 262 321 392
#     4  12  24  45  66  97 135 168 220 269 330 387
#     4  10  21  45  72  94 126 171 222 271 327 382
#     4  12  25  40  65  96 134 178 214 265 325 392
#
# _framework density 24.087451999999999
#
# number of rings (size 3 to 8) (size 9 to 14) (size 15 to 20)
#    0.000    0.500    3.750    5.250    1.750    0.500 
#    0.000    2.500    0.000    8.250    0.000    0.000 
#    0.000    0.000    0.000    0.000    0.000    0.000 
#
# Total GULP energy -198377.174837 kJ/mol
# GULP energy per Si atom -12398.573427 kJ/mol
# Density = 2.403263 g / cm^3
# Si number density = 24.087452 Si / 1000 Ang^3
#
#
#
# Elastic Constant Matrix: (Units=GPa)
#
#
# Indices 1 2 3 4 5 6 
#
# 1 74.1461 18.7008 17.3551 -15.9944 -37.8706 -17.7957
# 2 18.7008 112.7417 15.1252 -28.7972 -10.9579 -4.3075
# 3 17.3551 15.1252 89.5239 -28.2213 -12.5963 0.7877
# 4 -15.9944 -28.7972 -28.2213 41.3048 9.2500 -0.4424
# 5 -37.8706 -10.9579 -12.5963 9.2500 37.1315 2.8788
# 6 -17.7957 -4.3075 0.7877 -0.4424 2.8788 36.1676
#
#
#
# Elastic Compliance Matrix: (Units=1/GPa)
#
#
# Indices 1 2 3 4 5 6 
#
# 1 0.035616 -0.000554 -0.000411 0.005798 0.033424 0.014878
# 2 -0.000554 0.010975 0.000838 0.007812 0.000931 0.001037
# 3 -0.000411 0.000838 0.014542 0.009829 0.002350 -0.000486
# 4 0.005798 0.007812 0.009829 0.038275 0.001716 0.003901
# 5 0.033424 0.000931 0.002350 0.001716 0.060759 0.011690
# 6 0.014878 0.001037 -0.000486 0.003901 0.011690 0.034221
#
#
# Mechanical properties :
#
#
# Convention : Reuss Voigt Hill
#
# Bulk Modulus (GPa) = 16.42648 42.08600 29.25624
# Shear Modulus (GPa) = 23.26279 37.93613 30.59946
#
# Velocity S-wave (km/s) = 3.11105 3.97285 3.56806
# Velocity P-wave (km/s) = 4.44287 6.20925 5.39879
#
# Compressibility (1/GPa) = 0.06087732
#
# Stress axis : x y z
#
# Youngs Moduli (GPa) = 28.07714 91.11701 68.76740
#
# Poissons Ratio (x) = 0.05052 0.02826
# Poissons Ratio (y) = 0.01557 -0.05761
# Poissons Ratio (z) = 0.01154 -0.07633
#
# Static dielectric constant tensor:
#      x y z
#    x 4.557810 -0.228000 -0.266940 
#    y -0.228000 4.784430 -0.163650 
#    z -0.266940 -0.163650 4.599520 
# 
# 
# High freq. dielectric constant tensor:
#      x y z
#    x 1.947500 -0.012920 -0.014310 
#    y -0.012920 1.973720 -0.005430 
#    z -0.014310 -0.005430 1.957740 
# 
# From -- ./inp_files/515341.got.cif
#   From: 2010.06.25/outbox.cif.g09.slc.cpg/sg2_258_cif.got.tgz:515341.got - 2010.06.27 13:26:56.
