data_PCOD8016609
_publ_section_title
;
Structure prediction by ZEFSAII (Michael W. Deem and Ramdas Pophale) SiO2 
 PCOD8016609
Probable space group: P -1
;
_chemical_formula_sum "Si O2"
_cell_formula_units_Z 14
_cell_length_a 16.850991
_cell_length_b 10.058361
_cell_length_c 7.788120
_cell_angle_alpha 55.654638
_cell_angle_beta 76.038409
_cell_angle_gamma 33.430738
_cell_volume 518.373285
_symmetry_space_group_name_H-M "P -1"
_symmetry_group_IT_number 2
_symmetry_cell_setting 'triclinic'
loop_
_space_group_symop_operation_xyz
x,y,z
-x,-y,-z
loop_
_atom_site_type_symbol
_atom_site_label
_atom_site_fract_x
_atom_site_fract_y
_atom_site_fract_z
Si Si1 0.166303 0.566418 0.156941
Si Si2 0.671070 0.722044 0.376812
Si Si3 0.196967 0.931448 0.030424
Si Si4 0.367426 0.476526 0.970420
Si Si5 0.764410 0.874909 0.700738
Si Si6 0.405057 0.481039 0.567265
Si Si7 0.914690 0.531555 0.223134
O O1 0.265554 0.469734 0.340317
O O2 0.251258 0.243136 0.339962
O O3 0.220654 0.592481 0.955361
O O4 0.966435 0.900738 0.036954
O O5 0.583340 0.732657 0.303484
O O6 0.841897 0.495900 0.370028
O O7 0.543842 0.087522 0.196601
O O8 0.260443 0.799431 0.289415
O O9 0.333766 0.659129 0.011230
O O10 0.151746 0.195872 0.842445
O O11 0.373755 0.565467 0.724321
O O12 0.882193 0.817839 0.610309
O O13 0.585285 0.250333 0.584371
O O14 0.866297 0.611729 0.990851
#
# Coordination Sequence:
#
# PCOD8016609 Si02
#       7
#     2   2   2   2   2   2   2
#     4  11  23  44  72 102 142 180 235 293 338 408
#     4  12  23  44  74 105 131 185 244 283 336 414
#     4  11  27  46  64 105 152 178 223 291 358 413
#     4  12  23  43  71 106 136 181 233 293 337 414
#     4  10  21  45  69  98 135 184 232 283 332 422
#     4  12  24  45  77 102 135 186 237 285 346 408
#     4  10  24  46  69 101 143 180 230 288 350 412
#
# _framework density 27.007565
#
# number of rings (size 3 to 8) (size 9 to 14) (size 15 to 20)
#    0.000    0.857    4.286    3.000    0.000    4.000 
#   10.286    0.000    0.000    0.000    0.000    0.000 
#    0.000    0.000    0.000    0.000    0.000    0.000 
#
# Total GULP energy -173656.701203 kJ/mol
# GULP energy per Si atom -12404.050086 kJ/mol
# Density = 2.694609 g / cm^3
# Si number density = 27.007565 Si / 1000 Ang^3
#
#
#
# Elastic Constant Matrix: (Units=GPa)
#
#
# Indices 1 2 3 4 5 6 
#
# 1 89.8763 39.8884 14.9896 6.6591 5.9455 -24.7792
# 2 39.8884 159.5121 55.0701 1.9321 -4.1989 -20.5777
# 3 14.9896 55.0701 108.8930 -2.0930 13.7087 0.5804
# 4 6.6591 1.9321 -2.0930 40.3591 1.9254 -1.8709
# 5 5.9455 -4.1989 13.7087 1.9254 31.9724 2.5116
# 6 -24.7792 -20.5777 0.5804 -1.8709 2.5116 53.4425
#
#
#
# Elastic Compliance Matrix: (Units=1/GPa)
#
#
# Indices 1 2 3 4 5 6 
#
# 1 0.014333 -0.002861 -0.000176 -0.001818 -0.003299 0.005637
# 2 -0.002861 0.008915 -0.004574 -0.000268 0.003525 0.001981
# 3 -0.000176 -0.004574 0.012276 0.001082 -0.005766 -0.001667
# 4 -0.001818 -0.000268 0.001082 0.025227 -0.001681 0.000004
# 5 -0.003299 0.003525 -0.005766 -0.001681 0.035069 -0.001817
# 6 0.005637 0.001981 -0.001667 0.000004 -0.001817 0.022192
#
#
# Mechanical properties :
#
#
# Convention : Reuss Voigt Hill
#
# Bulk Modulus (GPa) = 49.25563 64.24193 56.74878
# Shear Modulus (GPa) = 35.71369 41.71037 38.71203
#
# Velocity S-wave (km/s) = 3.64037 3.93414 3.79010
# Velocity P-wave (km/s) = 5.99558 6.66895 6.34121
#
# Compressibility (1/GPa) = 0.02030225
#
# Stress axis : x y z
#
# Youngs Moduli (GPa) = 69.77096 112.16561 81.45652
#
# Poissons Ratio (x) = 0.32091 0.01432
# Poissons Ratio (y) = 0.19962 0.37261
# Poissons Ratio (z) = 0.01226 0.51309
#
# Static dielectric constant tensor:
#      x y z
#    x 5.072870 -0.104850 0.073930 
#    y -0.104850 5.084950 0.000080 
#    z 0.073930 0.000080 4.400470 
# 
# 
# High freq. dielectric constant tensor:
#      x y z
#    x 2.112740 0.001530 -0.006020 
#    y 0.001530 2.097250 -0.009240 
#    z -0.006020 -0.009240 2.069240 
# 
# From -- ./inp_files/266997.got.cif
#   From: 2010.06.25/outbox.cif.g09.slc.cpg/sg2_134_cif.got.tgz:266997.got - 2010.06.27 13:26:56.
