data_PCOD8016322
_publ_section_title
;
Structure prediction by ZEFSAII (Michael W. Deem and Ramdas Pophale) SiO2 
 PCOD8016322
Probable space group: P -1
;
_chemical_formula_sum "Si O2"
_cell_formula_units_Z 16
_cell_length_a 7.196092
_cell_length_b 11.183527
_cell_length_c 13.440544
_cell_angle_alpha 61.019603
_cell_angle_beta 78.845097
_cell_angle_gamma 48.460905
_cell_volume 694.623542
_symmetry_space_group_name_H-M "P -1"
_symmetry_group_IT_number 2
_symmetry_cell_setting 'triclinic'
loop_
_space_group_symop_operation_xyz
x,y,z
-x,-y,-z
loop_
_atom_site_type_symbol
_atom_site_label
_atom_site_fract_x
_atom_site_fract_y
_atom_site_fract_z
Si Si1 0.233781 0.423372 0.182488
Si Si2 0.713342 0.711137 0.054004
Si Si3 0.412093 0.299427 0.584732
Si Si4 0.360299 0.646610 0.042772
Si Si5 0.415997 0.070310 0.824095
Si Si6 0.219545 0.919337 0.807497
Si Si7 0.046202 0.893033 0.439333
Si Si8 0.078793 0.348640 0.424076
O O1 0.256334 0.573897 0.153456
O O2 0.481090 0.248079 0.173544
O O3 0.005539 0.526681 0.083743
O O4 0.172667 0.351583 0.306839
O O5 0.536616 0.662230 0.082911
O O6 0.694743 0.779609 0.139968
O O7 0.640444 0.865880 0.922625
O O8 0.518356 0.115944 0.705736
O O9 0.654636 0.274905 0.540523
O O10 0.216554 0.474110 0.604045
O O11 0.264385 0.331680 0.488057
O O12 0.500000 0.500000 0.000000
O O13 0.141147 0.843125 0.930262
O O14 0.191377 0.082889 0.794691
O O15 0.063509 0.977517 0.698950
O O16 0.893714 0.826549 0.496715
O O17 0.000000 0.000000 0.500000
#
# Coordination Sequence:
#
# PCOD8016322 Si02
#       8
#     2   2   2   2   2   2   2   2
#     4  11  23  42  71  99 139 177 219 283 332 406
#     4  10  22  42  68 101 137 175 228 270 338 402
#     4  11  24  46  70  94 135 182 222 281 335 403
#     4   9  22  42  63 101 135 175 217 271 332 395
#     4  10  21  44  66  99 134 178 222 275 334 395
#     4  10  23  44  67  98 141 175 225 277 337 399
#     4  12  27  44  69 103 133 178 228 280 335 402
#     4  11  25  46  68  99 134 177 228 277 340 396
#
# _framework density 23.034058999999999
#
# number of rings (size 3 to 8) (size 9 to 14) (size 15 to 20)
#    0.000    1.500    2.500    1.125    3.500    8.500 
#    6.750    1.875    0.000    0.000    0.000    0.000 
#    0.000    0.000    0.000    0.000    0.000    0.000 
#
# Total GULP energy -198308.620155 kJ/mol
# GULP energy per Si atom -12394.288760 kJ/mol
# Density = 2.298163 g / cm^3
# Si number density = 23.034059 Si / 1000 Ang^3
#
#
#
# Elastic Constant Matrix: (Units=GPa)
#
#
# Indices 1 2 3 4 5 6 
#
# 1 92.0949 16.0074 23.7553 -8.0813 0.2454 9.0620
# 2 16.0074 53.6221 14.1413 2.4246 10.9198 7.3092
# 3 23.7553 14.1413 89.7986 -11.2965 8.5800 -2.3743
# 4 -8.0813 2.4246 -11.2965 28.9073 4.4219 5.9112
# 5 0.2454 10.9198 8.5800 4.4219 44.4120 -1.3659
# 6 9.0620 7.3092 -2.3743 5.9112 -1.3659 40.9686
#
#
#
# Elastic Compliance Matrix: (Units=1/GPa)
#
#
# Indices 1 2 3 4 5 6 
#
# 1 0.012612 -0.002990 -0.002608 0.003223 0.000761 -0.002847
# 2 -0.002990 0.021709 -0.002550 -0.002283 -0.004699 -0.003187
# 3 -0.002608 -0.002550 0.013073 0.004739 -0.002324 0.001028
# 4 0.003223 -0.002283 0.004739 0.039423 -0.004478 -0.005869
# 5 0.000761 -0.004699 -0.002324 -0.004478 0.024624 0.002002
# 6 -0.002847 -0.003187 0.001028 -0.005869 0.002002 0.026580
#
#
# Mechanical properties :
#
#
# Convention : Reuss Voigt Hill
#
# Bulk Modulus (GPa) = 32.15684 38.14708 35.15196
# Shear Modulus (GPa) = 30.36158 34.96503 32.66331
#
# Velocity S-wave (km/s) = 3.63453 3.90034 3.76978
# Velocity P-wave (km/s) = 5.62174 6.07295 5.85169
#
# Compressibility (1/GPa) = 0.03109758
#
# Stress axis : x y z
#
# Youngs Moduli (GPa) = 79.29161 46.06473 76.49387
#
# Poissons Ratio (x) = 0.13772 0.19949
# Poissons Ratio (y) = 0.23706 0.19507
# Poissons Ratio (z) = 0.20679 0.11747
#
# Static dielectric constant tensor:
#      x y z
#    x 4.499820 0.197570 -0.270690 
#    y 0.197570 4.067350 -0.119290 
#    z -0.270690 -0.119290 4.446640 
# 
# 
# High freq. dielectric constant tensor:
#      x y z
#    x 1.908930 0.014600 -0.001760 
#    y 0.014600 1.898360 -0.005200 
#    z -0.001760 -0.005200 1.924450 
# 
# From -- ./inp_files/482727.got.cif
#   From: 2010.06.25/outbox.cif.g09.slc.cpg/sg2_242_cif.got.tgz:482727.got - 2010.06.27 13:26:56.
