data_PCOD8016279
_publ_section_title
;
Structure prediction by ZEFSAII (Michael W. Deem and Ramdas Pophale) SiO2 
 PCOD8016279
Probable space group: P -1
;
_chemical_formula_sum "Si O2"
_cell_formula_units_Z 16
_cell_length_a 14.406168
_cell_length_b 15.112117
_cell_length_c 9.195674
_cell_angle_alpha 92.813678
_cell_angle_beta 51.224819
_cell_angle_gamma 136.328202
_cell_volume 712.543692
_symmetry_space_group_name_H-M "P -1"
_symmetry_group_IT_number 2
_symmetry_cell_setting 'triclinic'
loop_
_space_group_symop_operation_xyz
x,y,z
-x,-y,-z
loop_
_atom_site_type_symbol
_atom_site_label
_atom_site_fract_x
_atom_site_fract_y
_atom_site_fract_z
Si Si1 0.870963 0.671943 0.531434
Si Si2 0.994041 0.631101 0.162040
Si Si3 0.496777 0.877774 0.577571
Si Si4 0.382801 0.228885 0.023946
Si Si5 0.631755 0.400376 0.240017
Si Si6 0.347163 0.742697 0.401570
Si Si7 0.085868 0.748765 0.620403
Si Si8 0.821703 0.838625 0.492606
O O1 0.041029 0.738566 0.243131
O O2 0.830529 0.747475 0.545767
O O3 0.035338 0.769625 0.524983
O O4 0.585631 0.438858 0.797760
O O5 0.771339 0.519395 0.262392
O O6 0.899447 0.477378 0.317307
O O7 0.259752 0.790293 0.826084
O O8 0.427714 0.742684 0.717354
O O9 0.531385 0.886427 0.371277
O O10 0.762472 0.090805 0.399616
O O11 0.309868 0.182359 0.261788
O O12 0.495578 0.206782 0.871434
O O13 0.112817 0.064283 0.185676
O O14 0.360692 0.276067 0.480632
O O15 0.807386 0.539361 0.940735
O O16 0.244617 0.764351 0.429153
#
# Coordination Sequence:
#
# PCOD8016279 Si02
#       8
#     2   2   2   2   2   2   2   2
#     4  11  26  42  63 101 131 165 219 267 309 383
#     4  10  22  44  66  95 137 164 207 272 323 376
#     4  11  23  40  67  98 134 162 213 264 324 387
#     4  10  24  42  68  88 130 172 211 268 317 365
#     4  11  23  43  68  93 127 177 212 257 328 376
#     4  10  21  44  65  97 131 165 211 272 319 381
#     4  12  24  37  71  98 127 172 209 263 329 377
#     4  11  25  44  66  90 132 175 217 260 315 380
#
# _framework density 22.454763
#
# number of rings (size 3 to 8) (size 9 to 14) (size 15 to 20)
#    0.000    1.250    3.750    1.500    5.250    4.000 
#    0.000    5.625    0.000    0.000    0.000    0.000 
#    0.000    0.000    0.000    0.000    0.000    0.000 
#
# Total GULP energy -198443.229822 kJ/mol
# GULP energy per Si atom -12402.701864 kJ/mol
# Density = 2.240365 g / cm^3
# Si number density = 22.454763 Si / 1000 Ang^3
#
#
#
# Elastic Constant Matrix: (Units=GPa)
#
#
# Indices 1 2 3 4 5 6 
#
# 1 132.1202 48.0034 13.4570 -4.6989 -13.2956 17.2033
# 2 48.0034 107.4974 24.5758 -4.2704 -11.8495 1.8415
# 3 13.4570 24.5758 62.1284 -1.9027 -13.5471 -2.0346
# 4 -4.6989 -4.2704 -1.9027 32.3814 8.8105 -13.0506
# 5 -13.2956 -11.8495 -13.5471 8.8105 23.1083 -5.1938
# 6 17.2033 1.8415 -2.0346 -13.0506 -5.1938 19.6885
#
#
#
# Elastic Compliance Matrix: (Units=1/GPa)
#
#
# Indices 1 2 3 4 5 6 
#
# 1 0.010797 -0.004379 -0.000493 -0.004315 0.002806 -0.011195
# 2 -0.004379 0.012231 -0.003247 0.001899 0.002057 0.004148
# 3 -0.000493 -0.003247 0.020102 -0.000043 0.011138 0.005722
# 4 -0.004315 0.001899 -0.000043 0.046361 -0.012222 0.031095
# 5 0.002806 0.002057 0.011138 -0.012222 0.058442 0.005822
# 6 -0.011195 0.004148 0.005722 0.031095 0.005822 0.082924
#
#
# Mechanical properties :
#
#
# Convention : Reuss Voigt Hill
#
# Bulk Modulus (GPa) = 37.18700 52.64647 44.91674
# Shear Modulus (GPa) = 19.52671 29.41632 24.47151
#
# Velocity S-wave (km/s) = 2.95210 3.62335 3.30481
# Velocity P-wave (km/s) = 5.31194 6.40323 5.88294
#
# Compressibility (1/GPa) = 0.02689112
#
# Stress axis : x y z
#
# Youngs Moduli (GPa) = 92.62018 81.75630 49.74683
#
# Poissons Ratio (x) = 0.35800 0.02454
# Poissons Ratio (y) = 0.40557 0.16154
# Poissons Ratio (z) = 0.04569 0.26549
#
# Static dielectric constant tensor:
#      x y z
#    x 3.905160 0.042270 -0.141540 
#    y 0.042270 4.220070 -0.112210 
#    z -0.141540 -0.112210 4.060380 
# 
# 
# High freq. dielectric constant tensor:
#      x y z
#    x 1.876340 0.001510 -0.004360 
#    y 0.001510 1.894290 -0.012050 
#    z -0.004360 -0.012050 1.879380 
# 
# From -- ./inp_files/315385.got.cif
#   From: 2010.06.25/outbox.cif.g09.slc.cpg/sg2_158_cif.got.tgz:315385.got - 2010.06.27 13:26:56.
