data_PCOD8016324
_publ_section_title
;
Structure prediction by ZEFSAII (Michael W. Deem and Ramdas Pophale) SiO2 
 PCOD8016324
Probable space group: P -1
;
_chemical_formula_sum "Si O2"
_cell_formula_units_Z 16
_cell_length_a 8.636664
_cell_length_b 10.990874
_cell_length_c 13.579703
_cell_angle_alpha 60.156670
_cell_angle_beta 84.903544
_cell_angle_gamma 44.836982
_cell_volume 711.107365
_symmetry_space_group_name_H-M "P -1"
_symmetry_group_IT_number 2
_symmetry_cell_setting 'triclinic'
loop_
_space_group_symop_operation_xyz
x,y,z
-x,-y,-z
loop_
_atom_site_type_symbol
_atom_site_label
_atom_site_fract_x
_atom_site_fract_y
_atom_site_fract_z
Si Si1 0.846989 0.953924 0.360264
Si Si2 0.115264 0.864433 0.205281
Si Si3 0.548807 0.132174 0.734404
Si Si4 0.238032 0.678093 0.067415
Si Si5 0.232859 0.673915 0.781482
Si Si6 0.402169 0.091826 0.360450
Si Si7 0.963194 0.685191 0.952096
Si Si8 0.903950 0.414172 0.343797
O O1 0.564504 0.104038 0.299460
O O2 0.990344 0.839471 0.295328
O O3 0.978563 0.763708 0.507559
O O4 0.857528 0.108483 0.330836
O O5 0.315431 0.813998 0.275331
O O6 0.231389 0.696067 0.178265
O O7 0.902549 0.106952 0.072974
O O8 0.565239 0.070500 0.643977
O O9 0.265028 0.347254 0.695002
O O10 0.674942 0.924087 0.880926
O O11 0.522350 0.488863 0.101603
O O12 0.117230 0.613114 0.070243
O O13 0.037047 0.735179 0.837364
O O14 0.268842 0.561196 0.725048
O O15 0.500000 0.000000 0.500000
O O16 0.116904 0.330761 0.294753
O O17 0.000000 0.500000 0.000000
#
# Coordination Sequence:
#
# PCOD8016324 Si02
#       8
#     2   2   2   2   2   2   2   2
#     4  11  24  42  69 103 137 189 232 286 351 421
#     4  10  21  44  67 102 138 177 234 297 339 417
#     4  11  22  46  70  98 144 180 234 286 352 417
#     4  10  22  41  68  99 138 180 233 288 354 403
#     4  12  22  43  71  99 141 184 235 292 349 418
#     4  10  24  45  68  96 144 188 232 281 344 413
#     4  11  25  44  71 102 140 185 233 295 355 420
#     4  11  24  46  71 102 143 186 234 287 355 417
#
# _framework density 22.500118000000001
#
# number of rings (size 3 to 8) (size 9 to 14) (size 15 to 20)
#    0.000    1.250    5.000    0.750    1.750    3.500 
#    9.000    0.625    0.000    0.000    0.000    0.000 
#    0.000    0.000    0.000    0.000    0.000    0.000 
#
# Total GULP energy -198287.301436 kJ/mol
# GULP energy per Si atom -12392.956340 kJ/mol
# Density = 2.244891 g / cm^3
# Si number density = 22.500118 Si / 1000 Ang^3
#
#
#
# Elastic Constant Matrix: (Units=GPa)
#
#
# Indices 1 2 3 4 5 6 
#
# 1 132.6042 63.8878 51.1895 3.5921 7.0596 8.8526
# 2 63.8878 142.9353 42.9142 -9.5167 7.8595 1.4051
# 3 51.1895 42.9142 62.1258 3.0735 15.9328 2.0463
# 4 3.5921 -9.5167 3.0735 43.9225 2.8428 8.8200
# 5 7.0596 7.8595 15.9328 2.8428 42.5158 6.4020
# 6 8.8526 1.4051 2.0463 8.8200 6.4020 38.7062
#
#
#
# Elastic Compliance Matrix: (Units=1/GPa)
#
#
# Indices 1 2 3 4 5 6 
#
# 1 0.012394 -0.003139 -0.008469 -0.000745 0.002115 -0.002453
# 2 -0.003139 0.009901 -0.004431 0.002711 0.000178 -0.000055
# 3 -0.008469 -0.004431 0.028377 -0.002201 -0.008643 0.002529
# 4 -0.000745 0.002711 -0.002201 0.024673 -0.000394 -0.005369
# 5 0.002115 0.000178 -0.008643 -0.000394 0.027067 -0.004421
# 6 -0.002453 -0.000055 0.002529 -0.005369 -0.004421 0.028220
#
#
# Mechanical properties :
#
#
# Convention : Reuss Voigt Hill
#
# Bulk Modulus (GPa) = 53.77820 72.62759 63.20290
# Shear Modulus (GPa) = 29.60197 37.00715 33.30456
#
# Velocity S-wave (km/s) = 3.63110 4.05996 3.85150
# Velocity P-wave (km/s) = 6.44462 7.37065 6.92313
#
# Compressibility (1/GPa) = 0.01859490
#
# Stress axis : x y z
#
# Youngs Moduli (GPa) = 80.68289 101.00270 35.23969
#
# Poissons Ratio (x) = 0.31705 0.29844
# Poissons Ratio (y) = 0.25326 0.15614
# Poissons Ratio (z) = 0.68329 0.44751
#
# Static dielectric constant tensor:
#      x y z
#    x 4.496020 -0.034450 0.403290 
#    y -0.034450 4.456570 0.102790 
#    z 0.403290 0.102790 3.837940 
# 
# 
# High freq. dielectric constant tensor:
#      x y z
#    x 1.885770 -0.000810 0.029740 
#    y -0.000810 1.898550 0.002600 
#    z 0.029740 0.002600 1.873190 
# 
# From -- ./inp_files/498950.got.cif
#   From: 2010.06.25/outbox.cif.g09.slc.cpg/sg2_250_cif.got.tgz:498950.got - 2010.06.27 13:26:56.
