data_PCOD8016342
_publ_section_title
;
Structure prediction by ZEFSAII (Michael W. Deem and Ramdas Pophale) SiO2 
 PCOD8016342
Probable space group: P -1
;
_chemical_formula_sum "Si O2"
_cell_formula_units_Z 16
_cell_length_a 8.732759
_cell_length_b 8.754654
_cell_length_c 15.108024
_cell_angle_alpha 77.352377
_cell_angle_beta 74.702302
_cell_angle_gamma 127.861447
_cell_volume 761.668353
_symmetry_space_group_name_H-M "P -1"
_symmetry_group_IT_number 2
_symmetry_cell_setting 'triclinic'
loop_
_space_group_symop_operation_xyz
x,y,z
-x,-y,-z
loop_
_atom_site_type_symbol
_atom_site_label
_atom_site_fract_x
_atom_site_fract_y
_atom_site_fract_z
Si Si1 0.049388 0.525426 0.715921
Si Si2 0.532187 0.377100 0.075158
Si Si3 0.551890 0.891037 0.567282
Si Si4 0.141762 0.628111 0.049305
Si Si5 0.943935 0.109216 0.757676
Si Si6 0.735633 0.721437 0.470384
Si Si7 0.931413 0.791575 0.081003
Si Si8 0.017766 0.672971 0.524941
O O1 0.315857 0.665469 0.672732
O O2 0.917459 0.279183 0.730500
O O3 0.961698 0.519855 0.826001
O O4 0.019258 0.643203 0.634705
O O5 0.703149 0.552347 0.105690
O O6 0.500000 0.500000 0.000000
O O7 0.620958 0.290986 0.014888
O O8 0.293928 0.150076 0.177941
O O9 0.697728 0.862650 0.499368
O O10 0.500000 0.000000 0.500000
O O11 0.744109 0.088755 0.580285
O O12 0.143856 0.818505 0.036731
O O13 0.000000 0.500000 0.000000
O O14 0.084719 0.135450 0.653250
O O15 0.090638 0.183458 0.815220
O O16 0.500000 0.500000 0.500000
O O17 0.815150 0.649536 0.539488
O O18 0.000000 0.000000 0.000000
O O19 0.000000 0.500000 0.500000
#
# Coordination Sequence:
#
# PCOD8016342 Si02
#       8
#     2   2   2   2   2   2   2   2
#     4  10  21  44  68  97 134 177 222 271 349 396
#     4  11  23  43  69  98 135 173 227 284 334 404
#     4  10  22  42  69  95 133 176 221 281 330 406
#     4   9  22  42  68  96 132 169 221 275 337 403
#     4  11  23  42  71  95 139 176 225 280 343 404
#     4  12  23  44  67  97 137 178 227 277 340 400
#     4  10  21  44  67  97 134 173 223 281 339 403
#     4  11  22  42  66  99 136 172 228 281 329 412
#
# _framework density 21.006519000000001
#
# number of rings (size 3 to 8) (size 9 to 14) (size 15 to 20)
#    0.000    1.500    3.750    1.125    0.000    7.000 
#    4.500    0.000    0.000    0.000    0.000    0.000 
#    0.000    0.000    0.000    0.000    0.000    0.000 
#
# Total GULP energy -198213.316874 kJ/mol
# GULP energy per Si atom -12388.332305 kJ/mol
# Density = 2.095871 g / cm^3
# Si number density = 21.006519 Si / 1000 Ang^3
#
#
#
# Elastic Constant Matrix: (Units=GPa)
#
#
# Indices 1 2 3 4 5 6 
#
# 1 149.4562 46.4688 57.5305 -3.6223 1.8651 -6.6513
# 2 46.4688 129.8019 51.3670 -18.4145 -10.2294 7.8730
# 3 57.5305 51.3670 139.7137 -1.6524 -9.4112 2.8754
# 4 -3.6223 -18.4145 -1.6524 42.5153 1.7871 -3.5528
# 5 1.8651 -10.2294 -9.4112 1.7871 37.6006 -0.6917
# 6 -6.6513 7.8730 2.8754 -3.5528 -0.6917 38.0468
#
#
#
# Elastic Compliance Matrix: (Units=1/GPa)
#
#
# Indices 1 2 3 4 5 6 
#
# 1 0.008606 -0.002214 -0.002890 -0.000087 -0.001709 0.002142
# 2 -0.002214 0.010401 -0.002688 0.003965 0.002043 -0.001929
# 3 -0.002890 -0.002688 0.009460 -0.001181 0.001822 -0.000741
# 4 -0.000087 0.003965 -0.001181 0.025336 -0.000387 0.001612
# 5 -0.001709 0.002043 0.001822 -0.000387 0.027703 -0.000392
# 6 0.002142 -0.001929 -0.000741 0.001612 -0.000392 0.027256
#
#
# Mechanical properties :
#
#
# Convention : Reuss Voigt Hill
#
# Bulk Modulus (GPa) = 77.62514 81.07826 79.35170
# Shear Modulus (GPa) = 38.86767 41.20624 40.03695
#
# Velocity S-wave (km/s) = 4.30614 4.43379 4.37043
# Velocity P-wave (km/s) = 7.85855 8.05555 7.95766
#
# Compressibility (1/GPa) = 0.01288243
#
# Stress axis : x y z
#
# Youngs Moduli (GPa) = 116.19241 96.14480 105.71035
#
# Poissons Ratio (x) = 0.21290 0.30550
# Poissons Ratio (y) = 0.25730 0.28415
# Poissons Ratio (z) = 0.33580 0.25844
#
# Static dielectric constant tensor:
#      x y z
#    x 4.438350 0.123730 0.194380 
#    y 0.123730 4.117020 -0.088580 
#    z 0.194380 -0.088580 4.093410 
# 
# 
# High freq. dielectric constant tensor:
#      x y z
#    x 1.831090 0.000230 0.009260 
#    y 0.000230 1.835630 -0.000530 
#    z 0.009260 -0.000530 1.813480 
# 
# From -- ./inp_files/398229.got.cif
#   From: 2010.06.25/outbox.cif.g09.slc.cpg/sg2_200_cif.got.tgz:398229.got - 2010.06.27 13:26:56.
