data_PCOD8016993
_publ_section_title
;
Structure prediction by ZEFSAII (Michael W. Deem and Ramdas Pophale) SiO2 
 PCOD8016993
Probable space group: P -1
;
_chemical_formula_sum "Si O2"
_cell_formula_units_Z 14
_cell_length_a 14.228572
_cell_length_b 7.519613
_cell_length_c 7.031266
_cell_angle_alpha 101.583820
_cell_angle_beta 91.675914
_cell_angle_gamma 129.598885
_cell_volume 555.401700
_symmetry_space_group_name_H-M "P -1"
_symmetry_group_IT_number 2
_symmetry_cell_setting 'triclinic'
loop_
_space_group_symop_operation_xyz
x,y,z
-x,-y,-z
loop_
_atom_site_type_symbol
_atom_site_label
_atom_site_fract_x
_atom_site_fract_y
_atom_site_fract_z
Si Si1 0.601648 0.876837 0.588307
Si Si2 0.568815 0.245060 0.778059
Si Si3 0.989114 0.409173 0.269028
Si Si4 0.118875 0.912892 0.318262
Si Si5 0.827079 0.909553 0.250431
Si Si6 0.555717 0.452582 0.158956
Si Si7 0.839282 0.702602 0.856607
O O1 0.747191 0.016477 0.633670
O O2 0.545225 0.800400 0.353269
O O3 0.525605 0.648241 0.676833
O O4 0.573064 0.038788 0.701269
O O5 0.693909 0.497737 0.758503
O O6 0.500000 0.500000 0.000000
O O7 0.564007 0.267706 0.012455
O O8 0.092827 0.389574 0.229000
O O9 0.000000 0.500000 0.500000
O O10 0.018205 0.626628 0.189969
O O11 0.854124 0.134909 0.181020
O O12 0.085634 0.965384 0.530609
O O13 0.110812 0.054193 0.190100
O O14 0.687905 0.708326 0.277687
O O15 0.863168 0.779513 0.098077
#
# Coordination Sequence:
#
# PCOD8016993 Si02
#       7
#     2   2   2   2   2   2   2
#     4  11  21  39  63  95 128 169 210 261 320 376
#     4  10  22  37  63  93 130 166 212 262 316 384
#     4  10  23  44  66  92 129 164 216 267 310 381
#     4  11  23  41  68  94 128 169 211 260 318 379
#     4  10  23  40  63  94 128 164 211 263 310 376
#     4  11  22  38  61  94 129 166 211 259 318 384
#     4  11  22  43  66  94 127 168 212 263 321 373
#
# _framework density 25.206983000000001
#
# number of rings (size 3 to 8) (size 9 to 14) (size 15 to 20)
#    0.000    1.429    1.429    4.286    0.000    4.571 
#    0.000    2.857    0.000    0.000    0.000    0.000 
#    0.000    0.000    0.000    0.000    0.000    0.000 
#
# Total GULP energy -173443.097190 kJ/mol
# GULP energy per Si atom -12388.792656 kJ/mol
# Density = 2.514961 g / cm^3
# Si number density = 25.206983 Si / 1000 Ang^3
#
#
#
# Elastic Constant Matrix: (Units=GPa)
#
#
# Indices 1 2 3 4 5 6 
#
# 1 36.6487 1.3100 13.8847 4.3699 -12.4030 -3.3681
# 2 1.3100 113.1898 17.7833 1.9984 -8.1319 10.7309
# 3 13.8847 17.7833 108.0612 18.4774 -8.9183 1.1775
# 4 4.3699 1.9984 18.4774 38.2979 5.0357 0.7341
# 5 -12.4030 -8.1319 -8.9183 5.0357 24.1074 4.5162
# 6 -3.3681 10.7309 1.1775 0.7341 4.5162 41.5990
#
#
#
# Elastic Compliance Matrix: (Units=1/GPa)
#
#
# Indices 1 2 3 4 5 6 
#
# 1 0.035137 0.001330 -0.002263 -0.005459 0.018712 0.000631
# 2 0.001330 0.009585 -0.001296 -0.000508 0.004061 -0.002760
# 3 -0.002263 -0.001296 0.011002 -0.005459 0.003696 -0.000465
# 4 -0.005459 -0.000508 -0.005459 0.030904 -0.011559 0.000553
# 5 0.018712 0.004061 0.003696 -0.011559 0.057319 -0.005656
# 6 0.000631 -0.002760 -0.000465 0.000553 -0.005656 0.025420
#
#
# Mechanical properties :
#
#
# Convention : Reuss Voigt Hill
#
# Bulk Modulus (GPa) = 19.50618 35.98398 27.74508
# Shear Modulus (GPa) = 26.18981 35.79562 30.99271
#
# Velocity S-wave (km/s) = 3.22683 3.77247 3.51027
# Velocity P-wave (km/s) = 4.65172 5.76903 5.24024
#
# Compressibility (1/GPa) = 0.05126579
#
# Stress axis : x y z
#
# Youngs Moduli (GPa) = 28.45978 104.32543 90.89560
#
# Poissons Ratio (x) = -0.13872 0.20567
# Poissons Ratio (y) = -0.03784 0.11783
# Poissons Ratio (z) = 0.06440 0.13523
#
# Static dielectric constant tensor:
#      x y z
#    x 0.500210 -1.151450 2.919370 
#    y -1.151450 4.610040 1.726770 
#    z 2.919370 1.726770 3.035240 
# 
# 
# High freq. dielectric constant tensor:
#      x y z
#    x 1.975680 0.011710 -0.023370 
#    y 0.011710 2.025250 0.023600 
#    z -0.023370 0.023600 2.036010 
# 
# From -- ./inp_files/288518.got.cif
#   From: 2010.06.25/outbox.cif.g09.slc.cpg/sg2_145_cif.got.tgz:288518.got - 2010.06.27 13:26:56.
