data_PCOD8016521
_publ_section_title
;
Structure prediction by ZEFSAII (Michael W. Deem and Ramdas Pophale) SiO2 
 PCOD8016521
Probable space group: P -1
;
_chemical_formula_sum "Si O2"
_cell_formula_units_Z 14
_cell_length_a 9.024703
_cell_length_b 9.769339
_cell_length_c 7.852827
_cell_angle_alpha 101.803344
_cell_angle_beta 97.301698
_cell_angle_gamma 44.364631
_cell_volume 473.683177
_symmetry_space_group_name_H-M "P -1"
_symmetry_group_IT_number 2
_symmetry_cell_setting 'triclinic'
loop_
_space_group_symop_operation_xyz
x,y,z
-x,-y,-z
loop_
_atom_site_type_symbol
_atom_site_label
_atom_site_fract_x
_atom_site_fract_y
_atom_site_fract_z
Si Si1 0.308688 0.950462 0.350656
Si Si2 0.787321 0.700440 0.090953
Si Si3 0.257710 0.825757 0.630763
Si Si4 0.299549 0.539117 0.029034
Si Si5 0.255470 0.536197 0.402717
Si Si6 0.145714 0.068924 0.000052
Si Si7 0.765517 0.703507 0.459097
O O1 0.170333 0.967668 0.485368
O O2 0.238502 0.938808 0.153329
O O3 0.554376 0.760404 0.378292
O O4 0.277140 0.138652 0.383651
O O5 0.852234 0.704045 0.292310
O O6 0.628060 0.672325 0.044938
O O7 0.000000 0.500000 0.000000
O O8 0.714632 0.887695 0.025997
O O9 0.224224 0.682025 0.568673
O O10 0.509585 0.683484 0.639739
O O11 0.152207 0.947217 0.821825
O O12 0.203855 0.622369 0.227390
O O13 0.095650 0.723150 0.937205
O O14 0.500000 0.500000 0.000000
O O15 0.116009 0.499750 0.462126
#
# Coordination Sequence:
#
# PCOD8016521 Si02
#       7
#     2   2   2   2   2   2   2
#     4  10  22  42  77 115 147 196 255 323 376 454
#     4  10  23  45  75 113 145 194 266 312 373 453
#     4  10  23  45  73 112 150 199 256 308 385 453
#     4  11  27  48  74 110 156 206 256 310 390 459
#     4  10  24  45  72 106 156 204 245 312 381 463
#     4  11  24  49  78 115 151 198 261 325 374 449
#     4  10  21  44  77 112 151 198 256 312 390 450
#
# _framework density 29.555620000000001
#
# number of rings (size 3 to 8) (size 9 to 14) (size 15 to 20)
#    0.000    1.714    1.429    0.857    8.000    1.143 
#    5.143    8.571    0.000    0.857    0.000    0.000 
#    0.000    0.000    0.000    0.000    0.000    0.000 
#
# Total GULP energy -173523.960401 kJ/mol
# GULP energy per Si atom -12394.568600 kJ/mol
# Density = 2.948835 g / cm^3
# Si number density = 29.555620 Si / 1000 Ang^3
#
#
#
# Elastic Constant Matrix: (Units=GPa)
#
#
# Indices 1 2 3 4 5 6 
#
# 1 122.0160 29.7946 19.6654 -18.4692 -20.1954 33.7820
# 2 29.7946 71.4690 23.3033 -6.8103 11.5410 27.5989
# 3 19.6654 23.3033 180.3852 -17.7119 5.4020 14.0478
# 4 -18.4692 -6.8103 -17.7119 53.1786 3.3432 2.3835
# 5 -20.1954 11.5410 5.4020 3.3432 29.5488 -0.9704
# 6 33.7820 27.5989 14.0478 2.3835 -0.9704 52.7400
#
#
#
# Elastic Compliance Matrix: (Units=1/GPa)
#
#
# Indices 1 2 3 4 5 6 
#
# 1 0.013225 -0.004365 -0.000364 0.003543 0.010210 -0.006062
# 2 -0.004365 0.021522 -0.001099 0.001989 -0.011692 -0.008479
# 3 -0.000364 -0.001099 0.006011 0.001848 -0.001157 -0.000898
# 4 0.003543 0.001989 0.001848 0.021198 -0.001249 -0.004784
# 5 0.010210 -0.011692 -0.001157 -0.001249 0.045765 0.000785
# 6 -0.006062 -0.008479 -0.000898 -0.004784 0.000785 0.027751
#
#
# Mechanical properties :
#
#
# Convention : Reuss Voigt Hill
#
# Bulk Modulus (GPa) = 34.36002 57.71075 46.03539
# Shear Modulus (GPa) = 31.88212 47.16726 39.52469
#
# Velocity S-wave (km/s) = 3.28794 3.99918 3.66088
# Velocity P-wave (km/s) = 5.10538 6.39478 5.78611
#
# Compressibility (1/GPa) = 0.02910359
#
# Stress axis : x y z
#
# Youngs Moduli (GPa) = 75.61668 46.46444 166.35251
#
# Poissons Ratio (x) = 0.20280 0.06050
# Poissons Ratio (y) = 0.33005 0.18277
# Poissons Ratio (z) = 0.02750 0.05105
#
# Static dielectric constant tensor:
#      x y z
#    x 6.289900 0.806710 -0.640440 
#    y 0.806710 5.943460 -0.070510 
#    z -0.640440 -0.070510 4.544500 
# 
# 
# High freq. dielectric constant tensor:
#      x y z
#    x 2.231800 0.001400 -0.007120 
#    y 0.001400 2.208510 -0.011890 
#    z -0.007120 -0.011890 2.209060 
# 
# From -- ./inp_files/235190.got.cif
#   From: 2010.06.25/outbox.cif.g09.slc.cpg/sg2_118_cif.got.tgz:235190.got - 2010.06.27 13:26:56.
