data_PCOD8016175
_publ_section_title
;
Structure prediction by ZEFSAII (Michael W. Deem and Ramdas Pophale) SiO2 
 PCOD8016175
Probable space group: P -1
;
_chemical_formula_sum "Si O2"
_cell_formula_units_Z 16
_cell_length_a 8.959682
_cell_length_b 15.006965
_cell_length_c 13.548477
_cell_angle_alpha 33.110412
_cell_angle_beta 51.820977
_cell_angle_gamma 70.231058
_cell_volume 710.595292
_symmetry_space_group_name_H-M "P -1"
_symmetry_group_IT_number 2
_symmetry_cell_setting 'triclinic'
loop_
_space_group_symop_operation_xyz
x,y,z
-x,-y,-z
loop_
_atom_site_type_symbol
_atom_site_label
_atom_site_fract_x
_atom_site_fract_y
_atom_site_fract_z
Si Si1 0.296449 0.269499 0.725102
Si Si2 0.252974 0.230236 0.563005
Si Si3 0.244310 0.593443 0.543682
Si Si4 0.214278 0.029964 0.335687
Si Si5 0.209331 0.536741 0.064232
Si Si6 0.832632 0.086758 0.761561
Si Si7 0.430180 0.883143 0.540106
Si Si8 0.469321 0.394524 0.971403
O O1 0.178477 0.192974 0.741484
O O2 0.211062 0.415952 0.658892
O O3 0.546671 0.363085 0.518170
O O4 0.248568 0.101564 0.973327
O O5 0.350751 0.095696 0.614688
O O6 0.433603 0.428668 0.297502
O O7 0.069478 0.208226 0.583244
O O8 0.281112 0.777914 0.295567
O O9 0.039601 0.550457 0.734560
O O10 0.183849 0.950849 0.312674
O O11 0.319112 0.939079 0.448089
O O12 0.368354 0.239997 0.075162
O O13 0.000000 0.000000 0.500000
O O14 0.345282 0.627726 0.022073
O O15 0.261108 0.685955 0.820695
O O16 0.288941 0.389841 0.126506
O O17 0.500000 0.000000 0.500000
#
# Coordination Sequence:
#
# PCOD8016175 Si02
#       8
#     2   2   2   2   2   2   2   2
#     4  11  28  47  73 103 144 194 251 294 354 424
#     4  11  25  48  72 103 143 188 244 298 356 436
#     4  11  25  47  72 105 143 189 240 303 358 422
#     4  12  26  40  69 111 144 188 235 293 371 430
#     4  10  21  43  72 101 142 186 229 297 361 434
#     4  12  26  49  73 103 149 188 242 302 356 426
#     4  11  23  41  70 106 143 180 234 296 360 433
#     4  10  22  42  73 105 143 181 231 295 374 427
#
# _framework density 22.516331999999998
#
# number of rings (size 3 to 8) (size 9 to 14) (size 15 to 20)
#    0.000    1.000    2.500    3.000    8.750    0.500 
#    0.000    3.125    0.000    0.000    0.000    0.000 
#    0.000    0.000    0.000    0.000    0.000    0.000 
#
# Total GULP energy -198311.906027 kJ/mol
# GULP energy per Si atom -12394.494127 kJ/mol
# Density = 2.246508 g / cm^3
# Si number density = 22.516332 Si / 1000 Ang^3
#
#
#
# Elastic Constant Matrix: (Units=GPa)
#
#
# Indices 1 2 3 4 5 6 
#
# 1 134.7512 67.6901 41.0160 3.5597 11.8115 2.4646
# 2 67.6901 130.0591 60.3719 -10.9976 16.4501 1.0934
# 3 41.0160 60.3719 85.9487 -6.9005 8.8888 4.5328
# 4 3.5597 -10.9976 -6.9005 36.0689 -0.3575 3.0058
# 5 11.8115 16.4501 8.8888 -0.3575 41.3129 4.5592
# 6 2.4646 1.0934 4.5328 3.0058 4.5592 44.3645
#
#
#
# Elastic Compliance Matrix: (Units=1/GPa)
#
#
# Indices 1 2 3 4 5 6 
#
# 1 0.010513 -0.004777 -0.001813 -0.002847 -0.000737 -0.000012
# 2 -0.004777 0.014100 -0.007108 0.003325 -0.002768 0.000703
# 3 -0.001813 -0.007108 0.017730 0.001535 -0.000275 -0.001611
# 4 -0.002847 0.003325 0.001535 0.029480 -0.000360 -0.002041
# 5 -0.000737 -0.002768 -0.000275 -0.000360 0.025850 -0.002495
# 6 -0.000012 0.000703 -0.001611 -0.002041 -0.002495 0.023083
#
#
# Mechanical properties :
#
#
# Convention : Reuss Voigt Hill
#
# Bulk Modulus (GPa) = 66.91006 76.54611 71.72808
# Shear Modulus (GPa) = 32.65120 36.46134 34.55627
#
# Velocity S-wave (km/s) = 3.81216 4.02845 3.92180
# Velocity P-wave (km/s) = 7.01124 7.46375 7.24103
#
# Compressibility (1/GPa) = 0.01494544
#
# Stress axis : x y z
#
# Youngs Moduli (GPa) = 95.12255 70.92136 56.40288
#
# Poissons Ratio (x) = 0.33882 0.10225
# Poissons Ratio (y) = 0.45444 0.40093
# Poissons Ratio (z) = 0.17245 0.50413
#
# Static dielectric constant tensor:
#      x y z
#    x 4.134180 -0.157650 0.020590 
#    y -0.157650 4.189660 -0.254780 
#    z 0.020590 -0.254780 4.095260 
# 
# 
# High freq. dielectric constant tensor:
#      x y z
#    x 1.899210 -0.004600 0.001420 
#    y -0.004600 1.885320 -0.015510 
#    z 0.001420 -0.015510 1.891720 
# 
# From -- ./inp_files/396923.got.cif
#   From: 2010.06.25/outbox.cif.g09.slc.cpg/sg2_199_cif.got.tgz:396923.got - 2010.06.27 13:26:56.
