data_PCOD8016976
_publ_section_title
;
Structure prediction by ZEFSAII (Michael W. Deem and Ramdas Pophale) SiO2 
 PCOD8016976
Probable space group: P -1
;
_chemical_formula_sum "Si O2"
_cell_formula_units_Z 16
_cell_length_a 10.989562
_cell_length_b 10.103505
_cell_length_c 7.741652
_cell_angle_alpha 83.356149
_cell_angle_beta 111.873680
_cell_angle_gamma 107.443980
_cell_volume 761.002823
_symmetry_space_group_name_H-M "P -1"
_symmetry_group_IT_number 2
_symmetry_cell_setting 'triclinic'
loop_
_space_group_symop_operation_xyz
x,y,z
-x,-y,-z
loop_
_atom_site_type_symbol
_atom_site_label
_atom_site_fract_x
_atom_site_fract_y
_atom_site_fract_z
Si Si1 0.595135 0.396704 0.269366
Si Si2 0.468399 0.809228 0.417190
Si Si3 0.404829 0.595071 0.126213
Si Si4 0.278409 0.985757 0.342609
Si Si5 0.113531 0.427339 0.011807
Si Si6 0.111770 0.424045 0.606315
Si Si7 0.991593 0.874816 0.388059
Si Si8 0.122767 0.133718 0.019823
O O1 0.552295 0.268311 0.396771
O O2 0.481541 0.477381 0.194050
O O3 0.739789 0.495374 0.400523
O O4 0.605005 0.347936 0.082733
O O5 0.481882 0.716920 0.275094
O O6 0.611037 0.929565 0.474286
O O7 0.342117 0.873116 0.303365
O O8 0.255700 0.527060 0.139014
O O9 0.139119 0.899926 0.373490
O O10 0.255367 0.098143 0.174115
O O11 0.122151 0.412096 0.816290
O O12 0.094435 0.266978 0.085328
O O13 0.000000 0.500000 0.000000
O O14 0.000000 0.500000 0.500000
O O15 0.052704 0.271476 0.510608
O O16 0.868701 0.852942 0.185664
O O17 0.000000 0.000000 0.500000
O O18 0.000000 0.000000 0.000000
#
# Coordination Sequence:
#
# PCOD8016976 Si02
#       8
#     2   2   2   2   2   2   2   2
#     4  10  22  42  64  94 129 164 217 268 321 389
#     4  11  23  42  66  91 130 171 213 272 312 387
#     4  10  23  40  65  94 125 169 215 268 327 379
#     4  10  23  42  61  92 124 169 221 253 325 389
#     4  10  22  37  62  94 121 161 214 263 323 383
#     4  10  22  38  60  93 126 162 200 271 323 370
#     4  10  22  40  62  90 124 167 211 259 318 385
#     4   9  20  39  60  83 125 164 199 262 310 373
#
# _framework density 21.024889999999999
#
# number of rings (size 3 to 8) (size 9 to 14) (size 15 to 20)
#    0.000    2.000    0.000    1.875    8.750    3.000 
#    4.500    1.250    0.000    0.000    0.000    0.000 
#    0.000    0.000    0.000    0.000    0.000    0.000 
#
# Total GULP energy -198273.556952 kJ/mol
# GULP energy per Si atom -12392.097310 kJ/mol
# Density = 2.097704 g / cm^3
# Si number density = 21.024890 Si / 1000 Ang^3
#
#
#
# Elastic Constant Matrix: (Units=GPa)
#
#
# Indices 1 2 3 4 5 6 
#
# 1 76.3068 8.8435 21.7149 -3.2098 18.4992 -2.5349
# 2 8.8435 102.2914 31.0628 -4.1394 -2.1266 -10.1593
# 3 21.7149 31.0628 71.5215 0.8522 6.9177 -10.7678
# 4 -3.2098 -4.1394 0.8522 35.8722 -7.8550 6.1899
# 5 18.4992 -2.1266 6.9177 -7.8550 33.2993 0.3928
# 6 -2.5349 -10.1593 -10.7678 6.1899 0.3928 37.9352
#
#
#
# Elastic Compliance Matrix: (Units=1/GPa)
#
#
# Indices 1 2 3 4 5 6 
#
# 1 0.016283 -0.000389 -0.003967 -0.000315 -0.008321 -0.000005
# 2 -0.000389 0.011566 -0.004949 0.001700 0.002368 0.001365
# 3 -0.003967 -0.004949 0.018222 -0.002616 -0.002563 0.004035
# 4 -0.000315 0.001700 -0.002616 0.030830 0.008164 -0.005423
# 5 -0.008321 0.002368 -0.002563 0.008164 0.037291 -0.002367
# 6 -0.000005 0.001365 0.004035 -0.005423 -0.002367 0.028781
#
#
# Mechanical properties :
#
#
# Convention : Reuss Voigt Hill
#
# Bulk Modulus (GPa) = 36.41527 41.48469 38.94998
# Shear Modulus (GPa) = 29.28491 33.98791 31.63641
#
# Velocity S-wave (km/s) = 3.73616 4.02500 3.88327
# Velocity P-wave (km/s) = 5.99746 6.43233 6.21870
#
# Compressibility (1/GPa) = 0.02746101
#
# Stress axis : x y z
#
# Youngs Moduli (GPa) = 61.41457 86.45973 54.87826
#
# Poissons Ratio (x) = 0.03366 0.21769
# Poissons Ratio (y) = 0.02391 0.27159
# Poissons Ratio (z) = 0.24361 0.42788
#
# Static dielectric constant tensor:
#      x y z
#    x 3.807770 0.171870 0.075590 
#    y 0.171870 4.263310 -0.782980 
#    z 0.075590 -0.782980 7.141990 
# 
# 
# High freq. dielectric constant tensor:
#      x y z
#    x 1.813150 0.002880 0.020850 
#    y 0.002880 1.837640 0.001030 
#    z 0.020850 0.001030 1.823670 
# 
# From -- ./inp_files/239343.got.cif
#   From: 2010.06.25/outbox.cif.g09.slc.cpg/sg2_120_cif.got.tgz:239343.got - 2010.06.27 13:26:56.
