data_PCOD8016158
_publ_section_title
;
Structure prediction by ZEFSAII (Michael W. Deem and Ramdas Pophale) SiO2 
 PCOD8016158
Probable space group: P -1
;
_chemical_formula_sum "Si O2"
_cell_formula_units_Z 14
_cell_length_a 11.280540
_cell_length_b 7.914632
_cell_length_c 17.916445
_cell_angle_alpha 111.444951
_cell_angle_beta 135.144906
_cell_angle_gamma 36.008731
_cell_volume 573.962277
_symmetry_space_group_name_H-M "P -1"
_symmetry_group_IT_number 2
_symmetry_cell_setting 'triclinic'
loop_
_space_group_symop_operation_xyz
x,y,z
-x,-y,-z
loop_
_atom_site_type_symbol
_atom_site_label
_atom_site_fract_x
_atom_site_fract_y
_atom_site_fract_z
Si Si1 0.166487 0.421211 0.488436
Si Si2 0.892309 0.355278 0.275479
Si Si3 0.170624 0.602558 0.910363
Si Si4 0.897313 0.542158 0.879502
Si Si5 0.545881 0.314812 0.732868
Si Si6 0.276212 0.953645 0.699940
Si Si7 0.820511 0.026377 0.175028
O O1 0.493456 0.209097 0.627118
O O2 0.000000 0.500000 0.500000
O O3 0.168191 0.246208 0.404565
O O4 0.009109 0.739515 0.430533
O O5 0.612192 0.614633 0.250773
O O6 0.017678 0.033488 0.275245
O O7 0.755584 0.533002 0.162325
O O8 0.018271 0.574614 0.880002
O O9 0.914806 0.995975 0.857911
O O10 0.475917 0.396414 0.054664
O O11 0.530138 0.865666 0.769594
O O12 0.027985 0.228813 0.862889
O O13 0.000000 0.500000 0.000000
O O14 0.395457 0.640526 0.693667
O O15 0.196163 0.065262 0.768896
#
# Coordination Sequence:
#
# PCOD8016158 Si02
#       7
#     2   2   2   2   2   2   2
#     4  10  21  43  71  96 131 175 228 273 329 389
#     4  10  23  41  66  94 136 171 221 272 323 391
#     4  12  24  41  67  97 139 177 220 267 334 404
#     4  12  25  40  65  96 136 175 218 269 333 398
#     4  10  24  43  68 100 130 183 221 274 330 384
#     4  11  23  44  68  99 138 172 222 278 331 394
#     4  11  25  42  65 103 135 177 216 273 340 398
#
# _framework density 24.391846999999999
#
# number of rings (size 3 to 8) (size 9 to 14) (size 15 to 20)
#    0.000    1.143    1.429    4.714    4.000    2.857 
#    0.000    2.857    0.000   12.000    0.000    0.000 
#    0.000    0.000    0.000    0.000    0.000    0.000 
#
# Total GULP energy -173518.325607 kJ/mol
# GULP energy per Si atom -12394.166115 kJ/mol
# Density = 2.433633 g / cm^3
# Si number density = 24.391847 Si / 1000 Ang^3
#
#
#
# Elastic Constant Matrix: (Units=GPa)
#
#
# Indices 1 2 3 4 5 6 
#
# 1 109.9444 20.8399 31.3693 15.3014 -26.0083 15.3464
# 2 20.8399 105.8019 27.5147 18.1862 -14.3989 9.9755
# 3 31.3693 27.5147 98.4480 10.4732 -20.7671 4.3480
# 4 15.3014 18.1862 10.4732 37.5699 4.0630 -4.5239
# 5 -26.0083 -14.3989 -20.7671 4.0630 43.7064 4.9154
# 6 15.3464 9.9755 4.3480 -4.5239 4.9154 32.3255
#
#
#
# Elastic Compliance Matrix: (Units=1/GPa)
#
#
# Indices 1 2 3 4 5 6 
#
# 1 0.014091 0.001258 -0.001455 -0.008166 0.009940 -0.009537
# 2 0.001258 0.012159 -0.001647 -0.007230 0.005313 -0.005948
# 3 -0.001455 -0.001647 0.012506 -0.002832 0.004981 -0.001637
# 4 -0.008166 -0.007230 -0.002832 0.037364 -0.013611 0.013788
# 5 0.009940 0.005313 0.004981 -0.013611 0.035794 -0.014376
# 6 -0.009537 -0.005948 -0.001637 0.013788 -0.014376 0.041634
#
#
# Mechanical properties :
#
#
# Convention : Reuss Voigt Hill
#
# Bulk Modulus (GPa) = 28.51493 52.62689 40.57091
# Shear Modulus (GPa) = 29.59908 38.35172 33.97540
#
# Velocity S-wave (km/s) = 3.48729 3.96955 3.73621
# Velocity P-wave (km/s) = 5.28494 6.52933 5.93982
#
# Compressibility (1/GPa) = 0.03506934
#
# Stress axis : x y z
#
# Youngs Moduli (GPa) = 70.96651 82.24680 79.96254
#
# Poissons Ratio (x) = -0.10350 0.11634
# Poissons Ratio (y) = -0.08930 0.13166
# Poissons Ratio (z) = 0.10325 0.13542
#
# Static dielectric constant tensor:
#      x y z
#    x 4.410990 -0.105490 0.117480 
#    y -0.105490 4.395850 0.334310 
#    z 0.117480 0.334310 4.556240 
# 
# 
# High freq. dielectric constant tensor:
#      x y z
#    x 1.995140 0.000680 -0.008130 
#    y 0.000680 1.962440 0.020300 
#    z -0.008130 0.020300 1.961470 
# 
# From -- ./inp_files/566780.got.cif
#   From: 2010.06.25/outbox.cif.g09.slc.cpg/sg2_284_cif.got.tgz:566780.got - 2010.06.27 13:26:56.
