data_PCOD8016078
_publ_section_title
;
Structure prediction by ZEFSAII (Michael W. Deem and Ramdas Pophale) SiO2 
 PCOD8016078
Probable space group: P -1
;
_chemical_formula_sum "Si O2"
_cell_formula_units_Z 14
_cell_length_a 11.664768
_cell_length_b 7.403967
_cell_length_c 9.714352
_cell_angle_alpha 92.192698
_cell_angle_beta 120.207261
_cell_angle_gamma 114.497377
_cell_volume 626.434455
_symmetry_space_group_name_H-M "P -1"
_symmetry_group_IT_number 2
_symmetry_cell_setting 'triclinic'
loop_
_space_group_symop_operation_xyz
x,y,z
-x,-y,-z
loop_
_atom_site_type_symbol
_atom_site_label
_atom_site_fract_x
_atom_site_fract_y
_atom_site_fract_z
Si Si1 0.045964 0.823906 0.212377
Si Si2 0.791282 0.409373 0.981956
Si Si3 0.263676 0.245121 0.978711
Si Si4 0.860906 0.317450 0.491479
Si Si5 0.654594 0.791020 0.681421
Si Si6 0.679361 0.403288 0.614820
Si Si7 0.326783 0.936747 0.881365
O O1 0.072278 0.810003 0.390976
O O2 0.972764 0.589861 0.092869
O O3 0.922721 0.901940 0.116698
O O4 0.209241 0.972566 0.247710
O O5 0.705504 0.518187 0.016994
O O6 0.767479 0.212114 0.050680
O O7 0.723389 0.343912 0.785881
O O8 0.311742 0.145433 0.881144
O O9 0.364316 0.251132 0.169296
O O10 0.786914 0.403230 0.559361
O O11 0.731274 0.168217 0.303363
O O12 0.000000 0.500000 0.500000
O O13 0.700344 0.633841 0.632268
O O14 0.499010 0.767311 0.524934
O O15 0.500000 0.000000 0.000000
#
# Coordination Sequence:
#
# PCOD8016078 Si02
#       7
#     2   2   2   2   2   2   2
#     4  10  23  41  65  96 131 175 219 272 337 390
#     4   9  23  45  65 101 127 178 228 271 338 383
#     4   9  22  44  66  95 137 168 229 274 321 410
#     4  12  26  44  62 101 138 175 222 271 338 401
#     4  10  21  43  70 101 126 174 225 283 340 369
#     4  10  24  42  70  99 135 168 228 286 322 402
#     4  12  26  44  69  96 138 185 219 273 340 399
#
# _framework density 22.348707000000001
#
# number of rings (size 3 to 8) (size 9 to 14) (size 15 to 20)
#    0.857    0.857    1.429    1.286    6.000    2.286 
#    2.571    0.000    0.000    0.000    0.000    0.000 
#    0.000    0.000    0.000    0.000    0.000    0.000 
#
# Total GULP energy -173500.406357 kJ/mol
# GULP energy per Si atom -12392.886168 kJ/mol
# Density = 2.229784 g / cm^3
# Si number density = 22.348707 Si / 1000 Ang^3
#
#
#
# Elastic Constant Matrix: (Units=GPa)
#
#
# Indices 1 2 3 4 5 6 
#
# 1 102.2976 10.8957 43.7296 16.6960 -8.8147 -9.1070
# 2 10.8957 36.5869 17.6312 2.4017 -3.0516 -3.9431
# 3 43.7296 17.6312 166.5867 2.0082 14.6129 -0.7339
# 4 16.6960 2.4017 2.0082 33.5351 1.9885 3.6410
# 5 -8.8147 -3.0516 14.6129 1.9885 42.7082 9.6959
# 6 -9.1070 -3.9431 -0.7339 3.6410 9.6959 28.5846
#
#
#
# Elastic Compliance Matrix: (Units=1/GPa)
#
#
# Indices 1 2 3 4 5 6 
#
# 1 0.013129 -0.001088 -0.003524 -0.006845 0.003319 0.003688
# 2 -0.001088 0.029773 -0.003032 -0.001887 0.002316 0.003137
# 3 -0.003524 -0.003032 0.007534 0.001770 -0.003518 -0.000380
# 4 -0.006845 -0.001887 0.001770 0.034041 -0.002394 -0.005920
# 5 0.003319 0.002316 -0.003518 -0.002394 0.027323 -0.007677
# 6 0.003688 0.003137 -0.000380 -0.005920 -0.007677 0.039940
#
#
# Mechanical properties :
#
#
# Convention : Reuss Voigt Hill
#
# Bulk Modulus (GPa) = 28.45085 49.99823 39.22454
# Shear Modulus (GPa) = 27.97299 36.51322 32.24311
#
# Velocity S-wave (km/s) = 3.54172 4.04641 3.80245
# Velocity P-wave (km/s) = 5.42983 6.65219 6.07185
#
# Compressibility (1/GPa) = 0.03514834
#
# Stress axis : x y z
#
# Youngs Moduli (GPa) = 76.16705 33.58803 132.72568
#
# Poissons Ratio (x) = 0.03655 0.46768
# Poissons Ratio (y) = 0.08288 0.40242
# Poissons Ratio (z) = 0.26838 0.10184
#
# Static dielectric constant tensor:
#      x y z
#    x 3.853680 -0.211210 0.151800 
#    y -0.211210 3.899040 0.020270 
#    z 0.151800 0.020270 4.457950 
# 
# 
# High freq. dielectric constant tensor:
#      x y z
#    x 1.872680 -0.014380 0.014790 
#    y -0.014380 1.861150 0.008390 
#    z 0.014790 0.008390 1.900210 
# 
# From -- ./inp_files/153437.got.cif
#   From: 2010.06.25/outbox.cif.g09.slc.cpg/sg2_77_cif.got.tgz:153437.got - 2010.06.27 13:26:56.
