data_PCOD8016102
_publ_section_title
;
Structure prediction by ZEFSAII (Michael W. Deem and Ramdas Pophale) SiO2 
 PCOD8016102
Probable space group: P -1
;
_chemical_formula_sum "Si O2"
_cell_formula_units_Z 10
_cell_length_a 11.614300
_cell_length_b 7.816233
_cell_length_c 9.069551
_cell_angle_alpha 94.144339
_cell_angle_beta 142.554051
_cell_angle_gamma 67.755342
_cell_volume 423.508117
_symmetry_space_group_name_H-M "P -1"
_symmetry_group_IT_number 2
_symmetry_cell_setting 'triclinic'
loop_
_space_group_symop_operation_xyz
x,y,z
-x,-y,-z
loop_
_atom_site_type_symbol
_atom_site_label
_atom_site_fract_x
_atom_site_fract_y
_atom_site_fract_z
Si Si1 0.222148 0.285942 0.096594
Si Si2 0.786648 0.366968 0.737806
Si Si3 0.560221 0.925031 0.223505
Si Si4 0.575766 0.374808 0.813785
Si Si5 0.960862 0.402353 0.314312
O O1 0.288154 0.396341 0.291065
O O2 0.441001 0.105476 0.231278
O O3 0.055143 0.217760 0.984464
O O4 0.053532 0.461221 0.825989
O O5 0.718589 0.279424 0.801219
O O6 0.641169 0.404846 0.442335
O O7 0.489427 0.765426 0.176934
O O8 0.825470 0.823650 0.506380
O O9 0.500000 0.000000 0.000000
O O10 0.730653 0.404488 0.089659
O O11 0.000000 0.500000 0.500000
#
# Coordination Sequence:
#
# PCOD8016102 Si02
#       5
#     2   2   2   2   2
#     4  10  21  43  70  94 136 169 213 272 326 383
#     4   9  20  45  68  96 131 175 212 266 330 385
#     4  12  25  43  65 101 131 173 220 269 322 386
#     4  10  23  43  67  99 128 173 222 262 331 385
#     4  11  23  46  65  93 136 176 215 269 324 387
#
# _framework density 23.612300000000001
#
# number of rings (size 3 to 8) (size 9 to 14) (size 15 to 20)
#    0.000    1.600    4.000    0.000    0.000    3.200 
#   10.800    0.000    0.000    0.000    0.000    0.000 
#    0.000    0.000    0.000    0.000    0.000    0.000 
#
# Total GULP energy -123883.310343 kJ/mol
# GULP energy per Si atom -12388.331034 kJ/mol
# Density = 2.355856 g / cm^3
# Si number density = 23.612300 Si / 1000 Ang^3
#
#
#
# Elastic Constant Matrix: (Units=GPa)
#
#
# Indices 1 2 3 4 5 6 
#
# 1 92.4496 15.9035 20.6049 -3.0376 9.4512 12.7498
# 2 15.9035 54.3229 31.3978 -2.6351 5.2761 -17.0276
# 3 20.6049 31.3978 135.7125 8.6778 10.0318 -2.5909
# 4 -3.0376 -2.6351 8.6778 33.7711 -0.4235 7.9914
# 5 9.4512 5.2761 10.0318 -0.4235 39.0686 -14.8335
# 6 12.7498 -17.0276 -2.5909 7.9914 -14.8335 52.4158
#
#
#
# Elastic Compliance Matrix: (Units=1/GPa)
#
#
# Indices 1 2 3 4 5 6 
#
# 1 0.013341 -0.004921 -0.000818 0.002537 -0.004847 -0.006643
# 2 -0.004921 0.025797 -0.005280 0.000587 0.002882 0.010043
# 3 -0.000818 -0.005280 0.008992 -0.002531 -0.001889 -0.001221
# 4 0.002537 0.000587 -0.002531 0.031925 -0.001966 -0.005975
# 5 -0.004847 0.002882 -0.001889 -0.001966 0.031062 0.011112
# 6 -0.006643 0.010043 -0.001221 -0.005975 0.011112 0.027952
#
#
# Mechanical properties :
#
#
# Convention : Reuss Voigt Hill
#
# Bulk Modulus (GPa) = 38.32522 46.47749 42.40135
# Shear Modulus (GPa) = 29.44567 39.35635 34.40101
#
# Velocity S-wave (km/s) = 3.53519 4.08704 3.82109
# Velocity P-wave (km/s) = 5.73844 6.48060 6.12078
#
# Compressibility (1/GPa) = 0.02609248
#
# Stress axis : x y z
#
# Youngs Moduli (GPa) = 74.95968 38.76365 111.20514
#
# Poissons Ratio (x) = 0.19077 0.09092
# Poissons Ratio (y) = 0.36890 0.58716
# Poissons Ratio (z) = 0.06129 0.20467
#
# Static dielectric constant tensor:
#      x y z
#    x 4.497920 0.042370 0.279260 
#    y 0.042370 3.769420 -0.192820 
#    z 0.279260 -0.192820 4.201140 
# 
# 
# High freq. dielectric constant tensor:
#      x y z
#    x 1.949440 0.006820 0.010410 
#    y 0.006820 1.884210 0.005480 
#    z 0.010410 0.005480 1.956790 
# 
# From -- ./inp_files/166582.got.cif
#   From: 2010.06.25/outbox.cif.g09.slc.cpg/sg2_84_cif.got.tgz:166582.got - 2010.06.27 13:26:56.
