data_PCOD8016444
_publ_section_title
;
Structure prediction by ZEFSAII (Michael W. Deem and Ramdas Pophale) SiO2 
 PCOD8016444
Probable space group: P -1
;
_chemical_formula_sum "Si O2"
_cell_formula_units_Z 14
_cell_length_a 14.731070
_cell_length_b 14.050375
_cell_length_c 12.733559
_cell_angle_alpha 41.830187
_cell_angle_beta 29.777841
_cell_angle_gamma 28.575909
_cell_volume 624.460288
_symmetry_space_group_name_H-M "P -1"
_symmetry_group_IT_number 2
_symmetry_cell_setting 'triclinic'
loop_
_space_group_symop_operation_xyz
x,y,z
-x,-y,-z
loop_
_atom_site_type_symbol
_atom_site_label
_atom_site_fract_x
_atom_site_fract_y
_atom_site_fract_z
Si Si1 0.896577 0.308905 0.468110
Si Si2 0.513377 0.754441 0.540838
Si Si3 0.131738 0.718840 0.921380
Si Si4 0.535339 0.973971 0.795604
Si Si5 0.249738 0.911477 0.883540
Si Si6 0.982053 0.677314 0.887142
Si Si7 0.466231 0.686967 0.048263
O O1 0.774419 0.519867 0.466428
O O2 0.748096 0.249948 0.706296
O O3 0.190804 0.133839 0.346236
O O4 0.872163 0.325320 0.352899
O O5 0.280228 0.787407 0.701382
O O6 0.539468 0.883515 0.342958
O O7 0.466251 0.828073 0.648769
O O8 0.279838 0.545610 0.002353
O O9 0.121332 0.645296 0.881248
O O10 0.843548 0.904064 0.101586
O O11 0.542924 0.807205 0.890150
O O12 0.315394 0.114998 0.987666
O O13 0.359104 0.729948 0.001580
O O14 0.000000 0.000000 0.000000
O O15 0.000000 0.500000 0.000000
#
# Coordination Sequence:
#
# PCOD8016444 Si02
#       7
#     2   2   2   2   2   2   2
#     4  11  25  45  67 103 134 181 228 277 338 403
#     4  10  24  44  71  97 139 180 226 278 343 396
#     4  10  23  45  70 100 139 180 226 279 338 403
#     4  12  25  45  69 101 138 178 227 281 337 404
#     4  10  21  44  71 101 137 179 225 280 336 402
#     4  12  24  46  72  97 141 179 225 284 336 402
#     4  11  25  43  71 104 136 177 228 279 339 401
#
# _framework density 22.419360000000001
#
# number of rings (size 3 to 8) (size 9 to 14) (size 15 to 20)
#    0.000    1.143    2.857    3.000    0.000    9.714 
#    2.571    1.429    0.000    0.000    0.000    0.000 
#    0.000    0.000    0.000    0.000    0.000    0.000 
#
# Total GULP energy -173580.347881 kJ/mol
# GULP energy per Si atom -12398.596277 kJ/mol
# Density = 2.236833 g / cm^3
# Si number density = 22.419360 Si / 1000 Ang^3
#
#
#
# Elastic Constant Matrix: (Units=GPa)
#
#
# Indices 1 2 3 4 5 6 
#
# 1 97.7526 20.9936 33.6749 -6.6764 20.4318 -5.9456
# 2 20.9936 96.1108 35.5361 5.1069 9.9891 -15.6451
# 3 33.6749 35.5361 105.0768 -7.6318 20.2540 9.3956
# 4 -6.6764 5.1069 -7.6318 44.9114 6.2880 -0.1627
# 5 20.4318 9.9891 20.2540 6.2880 45.6161 -0.6820
# 6 -5.9456 -15.6451 9.3956 -0.1627 -0.6820 38.1497
#
#
#
# Elastic Compliance Matrix: (Units=1/GPa)
#
#
# Indices 1 2 3 4 5 6 
#
# 1 0.012647 -0.000977 -0.002916 0.002122 -0.004415 0.002219
# 2 -0.000977 0.013743 -0.005160 -0.002585 0.000176 0.006747
# 3 -0.002916 -0.005160 0.013764 0.003057 -0.004187 -0.006022
# 4 0.002122 -0.002585 0.003057 0.024102 -0.005086 -0.001470
# 5 -0.004415 0.000176 -0.004187 -0.005086 0.026434 0.000866
# 6 0.002219 0.006747 -0.006022 -0.001470 0.000866 0.030817
#
#
# Mechanical properties :
#
#
# Convention : Reuss Voigt Hill
#
# Bulk Modulus (GPa) = 45.35430 53.26105 49.30768
# Shear Modulus (GPa) = 34.02253 39.65114 36.83684
#
# Velocity S-wave (km/s) = 3.89980 4.21005 4.05789
# Velocity P-wave (km/s) = 6.36803 6.88774 6.63298
#
# Compressibility (1/GPa) = 0.02204863
#
# Stress axis : x y z
#
# Youngs Moduli (GPa) = 79.07033 72.76393 72.65474
#
# Poissons Ratio (x) = 0.07110 0.21185
# Poissons Ratio (y) = 0.07726 0.37487
# Poissons Ratio (z) = 0.23055 0.37544
#
# Static dielectric constant tensor:
#      x y z
#    x 4.170220 0.041530 0.383060 
#    y 0.041530 4.403810 0.171680 
#    z 0.383060 0.171680 4.290190 
# 
# 
# High freq. dielectric constant tensor:
#      x y z
#    x 1.879010 -0.005340 0.007750 
#    y -0.005340 1.899180 0.003480 
#    z 0.007750 0.003480 1.884650 
# 
# From -- ./inp_files/453585.got.cif
#   From: 2010.06.25/outbox.cif.g09.slc.cpg/sg2_227_cif.got.tgz:453585.got - 2010.06.27 13:26:56.
