data_PCOD8016182
_publ_section_title
;
Structure prediction by ZEFSAII (Michael W. Deem and Ramdas Pophale) SiO2 
 PCOD8016182
Probable space group: P -1
;
_chemical_formula_sum "Si O2"
_cell_formula_units_Z 16
_cell_length_a 9.950237
_cell_length_b 21.255791
_cell_length_c 9.321324
_cell_angle_alpha 27.303580
_cell_angle_beta 123.083382
_cell_angle_gamma 127.198075
_cell_volume 720.134272
_symmetry_space_group_name_H-M "P -1"
_symmetry_group_IT_number 2
_symmetry_cell_setting 'triclinic'
loop_
_space_group_symop_operation_xyz
x,y,z
-x,-y,-z
loop_
_atom_site_type_symbol
_atom_site_label
_atom_site_fract_x
_atom_site_fract_y
_atom_site_fract_z
Si Si1 0.573391 0.575943 0.742212
Si Si2 0.815959 0.227880 0.304662
Si Si3 0.701787 0.913929 0.850296
Si Si4 0.145039 0.138952 0.670241
Si Si5 0.833475 0.423988 0.147948
Si Si6 0.908491 0.358852 0.637874
Si Si7 0.971040 0.907503 0.813542
Si Si8 0.640770 0.307926 0.799382
O O1 0.674039 0.743345 0.498535
O O2 0.423295 0.563789 0.562871
O O3 0.500000 0.500000 0.000000
O O4 0.694415 0.502545 0.880234
O O5 0.772235 0.264085 0.367482
O O6 0.007692 0.225441 0.403443
O O7 0.686144 0.073321 0.501523
O O8 0.776678 0.345590 0.933527
O O9 0.779511 0.873657 0.830108
O O10 0.843191 0.920928 0.041444
O O11 0.520895 0.812532 0.991027
O O12 0.105598 0.004699 0.809391
O O13 0.862746 0.420588 0.339206
O O14 0.000000 0.500000 0.000000
O O15 0.738263 0.262435 0.814849
O O16 0.000000 0.500000 0.500000
O O17 0.014939 0.250713 0.887976
O O18 0.000000 0.000000 0.500000
#
# Coordination Sequence:
#
# PCOD8016182 Si02
#       8
#     2   2   2   2   2   2   2   2
#     4  11  24  45  63  97 140 179 217 279 341 393
#     4  11  21  41  70  99 129 177 223 276 328 409
#     4  10  22  45  69  97 137 171 220 279 340 392
#     4  10  21  43  72  92 134 178 226 269 333 402
#     4  12  24  42  70  97 130 177 234 269 335 405
#     4  12  26  45  69 100 135 179 231 276 332 409
#     4  11  24  41  70 102 130 176 228 274 332 401
#     4  11  25  44  65  97 139 173 215 282 340 394
#
# _framework density 22.218078999999999
#
# number of rings (size 3 to 8) (size 9 to 14) (size 15 to 20)
#    0.000    1.000    2.500    5.625    3.500    0.500 
#    6.750    1.875    0.000    0.000    0.000    0.000 
#    0.000    0.000    0.000    0.000    0.000    0.000 
#
# Total GULP energy -198270.585031 kJ/mol
# GULP energy per Si atom -12391.911564 kJ/mol
# Density = 2.216751 g / cm^3
# Si number density = 22.218079 Si / 1000 Ang^3
#
#
#
# Elastic Constant Matrix: (Units=GPa)
#
#
# Indices 1 2 3 4 5 6 
#
# 1 152.0202 49.1446 44.5584 -3.8323 -7.6212 -16.1687
# 2 49.1446 94.4811 47.0469 8.1846 12.9502 -25.0954
# 3 44.5584 47.0469 115.8899 20.5411 12.2970 -13.6387
# 4 -3.8323 8.1846 20.5411 49.9665 -6.4787 4.3818
# 5 -7.6212 12.9502 12.2970 -6.4787 46.6561 -0.5017
# 6 -16.1687 -25.0954 -13.6387 4.3818 -0.5017 33.5719
#
#
#
# Elastic Compliance Matrix: (Units=1/GPa)
#
#
# Indices 1 2 3 4 5 6 
#
# 1 0.008948 -0.004130 -0.002714 0.002981 0.003735 -0.000213
# 2 -0.004130 0.018283 -0.003397 -0.003530 -0.005230 0.010680
# 3 -0.002714 -0.003397 0.012630 -0.005477 -0.003569 0.001946
# 4 0.002981 -0.003530 -0.005477 0.024453 0.006236 -0.006526
# 5 0.003735 -0.005230 -0.003569 0.006236 0.025259 -0.003997
# 6 -0.000213 0.010680 0.001946 -0.006526 -0.003997 0.039251
#
#
# Mechanical properties :
#
#
# Convention : Reuss Voigt Hill
#
# Bulk Modulus (GPa) = 51.59942 71.54344 61.57143
# Shear Modulus (GPa) = 32.09960 40.81499 36.45729
#
# Velocity S-wave (km/s) = 3.80511 4.29069 4.05518
# Velocity P-wave (km/s) = 6.52531 7.53772 7.04971
#
# Compressibility (1/GPa) = 0.01938006
#
# Stress axis : x y z
#
# Youngs Moduli (GPa) = 111.75204 54.69463 79.17744
#
# Poissons Ratio (x) = 0.22590 0.21487
# Poissons Ratio (y) = 0.46155 0.26895
# Poissons Ratio (z) = 0.30327 0.18579
#
# Static dielectric constant tensor:
#      x y z
#    x 4.367940 -0.267200 0.097690 
#    y -0.267200 4.526710 0.067370 
#    z 0.097690 0.067370 4.411820 
# 
# 
# High freq. dielectric constant tensor:
#      x y z
#    x 1.883660 0.002030 -0.004480 
#    y 0.002030 1.861240 0.013630 
#    z -0.004480 0.013630 1.891900 
# 
# From -- ./inp_files/222884.got.cif
#   From: 2010.06.25/outbox.cif.g09.slc.cpg/sg2_112_cif.got.tgz:222884.got - 2010.06.27 13:26:56.
