data_PCOD8016753
_publ_section_title
;
Structure prediction by ZEFSAII (Michael W. Deem and Ramdas Pophale) SiO2 
 PCOD8016753
Probable space group: P -1
;
_chemical_formula_sum "Si O2"
_cell_formula_units_Z 16
_cell_length_a 11.134833
_cell_length_b 13.995169
_cell_length_c 17.812580
_cell_angle_alpha 27.786354
_cell_angle_beta 47.077892
_cell_angle_gamma 41.792707
_cell_volume 860.328152
_symmetry_space_group_name_H-M "P -1"
_symmetry_group_IT_number 2
_symmetry_cell_setting 'triclinic'
loop_
_space_group_symop_operation_xyz
x,y,z
-x,-y,-z
loop_
_atom_site_type_symbol
_atom_site_label
_atom_site_fract_x
_atom_site_fract_y
_atom_site_fract_z
Si Si1 0.413166 0.365008 0.428402
Si Si2 0.419032 0.968395 0.134259
Si Si3 0.185881 0.999135 0.896687
Si Si4 0.712547 0.160802 0.334954
Si Si5 0.507406 0.658007 0.084325
Si Si6 0.817949 0.865416 0.361083
Si Si7 0.684592 0.641214 0.359727
Si Si8 0.905921 0.151399 0.634073
O O1 0.589214 0.158772 0.460087
O O2 0.411286 0.603470 0.236691
O O3 0.234937 0.342847 0.487732
O O4 0.427338 0.347358 0.524283
O O5 0.549401 0.737257 0.280767
O O6 0.226200 0.964275 0.207206
O O7 0.500000 0.000000 0.000000
O O8 0.395870 0.180031 0.049231
O O9 0.195873 0.998176 0.803648
O O10 0.196029 0.218006 0.778182
O O11 0.353718 0.772398 0.008352
O O12 0.000000 0.000000 0.000000
O O13 0.659951 0.422157 0.152118
O O14 0.679271 0.034519 0.364044
O O15 0.925107 0.032638 0.356261
O O16 0.021899 0.777026 0.369241
O O17 0.810347 0.380631 0.467372
#
# Coordination Sequence:
#
# PCOD8016753 Si02
#       8
#     2   2   2   2   2   2   2   2
#     4   9  18  38  59  84 114 148 187 226 291 335
#     4  11  23  40  61  79 116 150 192 237 285 336
#     4  10  22  33  55  89 122 147 190 234 281 338
#     4   8  20  35  61  84 114 151 187 232 284 338
#     4   9  21  36  58  80 116 157 181 230 294 325
#     4   9  20  34  58  86 115 151 185 229 280 337
#     4  10  22  36  61  83 108 151 190 235 287 326
#     4  10  22  37  59  87 110 146 201 231 274 337
#
# _framework density 18.597555
#
# number of rings (size 3 to 8) (size 9 to 14) (size 15 to 20)
#    1.500    1.000    0.000    1.500    7.000    2.000 
#    0.000    0.625    8.250    0.000    0.000    0.000 
#    0.000    0.000    0.000    0.000    0.000    0.000 
#
# Total GULP energy -198254.645070 kJ/mol
# GULP energy per Si atom -12390.915317 kJ/mol
# Density = 1.855523 g / cm^3
# Si number density = 18.597555 Si / 1000 Ang^3
#
#
#
# Elastic Constant Matrix: (Units=GPa)
#
#
# Indices 1 2 3 4 5 6 
#
# 1 94.3534 27.4138 40.7637 2.8141 -1.2033 -18.9456
# 2 27.4138 64.0828 26.7121 -14.0215 -1.5030 -14.8240
# 3 40.7637 26.7121 100.2490 -3.1824 2.1905 -18.5113
# 4 2.8141 -14.0215 -3.1824 33.2989 -2.5787 -0.2943
# 5 -1.2033 -1.5030 2.1905 -2.5787 35.8451 4.5201
# 6 -18.9456 -14.8240 -18.5113 -0.2943 4.5201 19.3268
#
#
#
# Elastic Compliance Matrix: (Units=1/GPa)
#
#
# Indices 1 2 3 4 5 6 
#
# 1 0.015036 -0.003627 -0.003644 -0.003127 -0.000733 0.008590
# 2 -0.003627 0.023031 -0.002093 0.009924 0.000145 0.012222
# 3 -0.003644 -0.002093 0.013624 0.000644 -0.002051 0.008360
# 4 -0.003127 0.009924 0.000644 0.034745 0.002116 0.005197
# 5 -0.000733 0.000145 -0.002051 0.002116 0.029342 -0.009402
# 6 0.008590 0.012222 0.008360 0.005197 -0.009402 0.079822
#
#
# Mechanical properties :
#
#
# Convention : Reuss Voigt Hill
#
# Bulk Modulus (GPa) = 30.33917 49.82936 40.08427
# Shear Modulus (GPa) = 22.19101 28.61387 25.40244
#
# Velocity S-wave (km/s) = 3.45805 3.92673 3.69982
# Velocity P-wave (km/s) = 5.68270 6.88554 6.31283
#
# Compressibility (1/GPa) = 0.03296069
#
# Stress axis : x y z
#
# Youngs Moduli (GPa) = 66.50910 43.41985 73.40090
#
# Poissons Ratio (x) = 0.15749 0.26750
# Poissons Ratio (y) = 0.24124 0.15364
# Poissons Ratio (z) = 0.24239 0.09089
#
# Static dielectric constant tensor:
#      x y z
#    x 3.359530 -0.004420 -0.069910 
#    y -0.004420 3.222720 -0.071140 
#    z -0.069910 -0.071140 3.436550 
# 
# 
# High freq. dielectric constant tensor:
#      x y z
#    x 1.718200 -0.000760 -0.008730 
#    y -0.000760 1.704580 -0.006560 
#    z -0.008730 -0.006560 1.723650 
# 
# From -- ./inp_files/259884.got.cif
#   From: 2010.06.25/outbox.cif.g09.slc.cpg/sg2_130_cif.got.tgz:259884.got - 2010.06.27 13:26:56.
