data_PCOD8016074
_publ_section_title
;
Structure prediction by ZEFSAII (Michael W. Deem and Ramdas Pophale) SiO2 
 PCOD8016074
Probable space group: P -1
;
_chemical_formula_sum "Si O2"
_cell_formula_units_Z 16
_cell_length_a 8.913554
_cell_length_b 15.401229
_cell_length_c 9.053711
_cell_angle_alpha 140.825432
_cell_angle_beta 86.555959
_cell_angle_gamma 80.625782
_cell_volume 739.196953
_symmetry_space_group_name_H-M "P -1"
_symmetry_group_IT_number 2
_symmetry_cell_setting 'triclinic'
loop_
_space_group_symop_operation_xyz
x,y,z
-x,-y,-z
loop_
_atom_site_type_symbol
_atom_site_label
_atom_site_fract_x
_atom_site_fract_y
_atom_site_fract_z
Si Si1 0.145853 0.355429 0.330297
Si Si2 0.091987 0.074150 0.987531
Si Si3 0.366633 0.199205 0.869320
Si Si4 0.435274 0.429921 0.548548
Si Si5 0.401303 0.803973 0.559665
Si Si6 0.365791 0.056612 0.384758
Si Si7 0.885154 0.068730 0.729833
Si Si8 0.616803 0.316380 0.906896
O O1 0.282140 0.392735 0.458986
O O2 0.000000 0.500000 0.500000
O O3 0.102541 0.227305 0.252561
O O4 0.204977 0.288331 0.077662
O O5 0.266481 0.960436 0.792548
O O6 0.988014 0.122270 0.909857
O O7 0.000000 0.000000 0.000000
O O8 0.331974 0.095372 0.611190
O O9 0.439959 0.313196 0.942947
O O10 0.492457 0.097523 0.844360
O O11 0.500000 0.500000 0.500000
O O12 0.576845 0.286248 0.407595
O O13 0.383653 0.527537 0.829112
O O14 0.573597 0.825595 0.548096
O O15 0.349870 0.716129 0.312864
O O16 0.196979 0.039370 0.322993
O O17 0.743103 0.201120 0.848394
O O18 0.000000 0.000000 0.500000
#
# Coordination Sequence:
#
# PCOD8016074 Si02
#       8
#     2   2   2   2   2   2   2   2
#     4  12  26  45  66  98 147 185 224 281 363 422
#     4  12  28  43  67 105 146 181 231 297 346 408
#     4   9  17  37  66  98 128 168 226 277 335 403
#     4  12  27  44  67  97 135 188 233 280 358 426
#     4  11  24  44  71  97 136 177 242 295 340 405
#     4   9  19  36  69  99 127 171 228 288 332 398
#     4  11  21  40  71 103 136 172 225 279 353 407
#     4  10  21  43  70 100 130 180 228 288 337 419
#
# _framework density 21.645112000000001
#
# number of rings (size 3 to 8) (size 9 to 14) (size 15 to 20)
#    0.000    1.250    3.750    2.625    5.250    0.500 
#    0.000    0.000    0.000    3.000    0.000    0.000 
#    0.000    0.000    0.000    0.000    0.000    0.000 
#
# Total GULP energy -198278.839542 kJ/mol
# GULP energy per Si atom -12392.427471 kJ/mol
# Density = 2.159585 g / cm^3
# Si number density = 21.645112 Si / 1000 Ang^3
#
#
#
# Elastic Constant Matrix: (Units=GPa)
#
#
# Indices 1 2 3 4 5 6 
#
# 1 121.6063 48.6675 47.7854 14.2722 11.0853 3.4665
# 2 48.6675 114.8250 32.7466 12.4503 5.4049 -2.6939
# 3 47.7854 32.7466 110.5392 19.4058 2.0203 -0.9930
# 4 14.2722 12.4503 19.4058 22.3214 2.5117 -0.3045
# 5 11.0853 5.4049 2.0203 2.5117 43.4342 0.8154
# 6 3.4665 -2.6939 -0.9930 -0.3045 0.8154 36.8564
#
#
#
# Elastic Compliance Matrix: (Units=1/GPa)
#
#
# Indices 1 2 3 4 5 6 
#
# 1 0.011528 -0.003584 -0.003530 -0.002076 -0.002185 -0.001410
# 2 -0.003584 0.010898 -0.001189 -0.002710 -0.000250 0.001085
# 3 -0.003530 -0.001189 0.012293 -0.007864 0.000923 0.000491
# 4 -0.002076 -0.002710 -0.007864 0.054698 -0.001935 0.000280
# 5 -0.002185 -0.000250 0.000923 -0.001935 0.023687 -0.000328
# 6 -0.001410 0.001085 0.000491 0.000280 -0.000328 0.027367
#
#
# Mechanical properties :
#
#
# Convention : Reuss Voigt Hill
#
# Bulk Modulus (GPa) = 55.20980 67.26330 61.23655
# Shear Modulus (GPa) = 30.65321 35.04047 32.84684
#
# Velocity S-wave (km/s) = 3.76729 4.02787 3.89976
# Velocity P-wave (km/s) = 6.66974 7.26462 6.97353
#
# Compressibility (1/GPa) = 0.01811273
#
# Stress axis : x y z
#
# Youngs Moduli (GPa) = 86.74611 91.75762 81.34827
#
# Poissons Ratio (x) = 0.32890 0.28714
# Poissons Ratio (y) = 0.31094 0.09671
# Poissons Ratio (z) = 0.30620 0.10909
#
# Static dielectric constant tensor:
#      x y z
#    x 3.999860 0.258170 0.175370 
#    y 0.258170 3.722650 0.014410 
#    z 0.175370 0.014410 4.132620 
# 
# 
# High freq. dielectric constant tensor:
#      x y z
#    x 1.855270 0.006700 0.011630 
#    y 0.006700 1.833250 0.001000 
#    z 0.011630 0.001000 1.852660 
# 
# From -- ./inp_files/209363.got.cif
#   From: 2010.06.25/outbox.cif.g09.slc.cpg/sg2_105_cif.got.tgz:209363.got - 2010.06.27 13:26:56.
