data_PCOD8016964
_publ_section_title
;
Structure prediction by ZEFSAII (Michael W. Deem and Ramdas Pophale) SiO2 
 PCOD8016964
Probable space group: P -1
;
_chemical_formula_sum "Si O2"
_cell_formula_units_Z 14
_cell_length_a 7.697865
_cell_length_b 8.912468
_cell_length_c 10.745807
_cell_angle_alpha 60.146937
_cell_angle_beta 116.076882
_cell_angle_gamma 93.520321
_cell_volume 562.474281
_symmetry_space_group_name_H-M "P -1"
_symmetry_group_IT_number 2
_symmetry_cell_setting 'triclinic'
loop_
_space_group_symop_operation_xyz
x,y,z
-x,-y,-z
loop_
_atom_site_type_symbol
_atom_site_label
_atom_site_fract_x
_atom_site_fract_y
_atom_site_fract_z
Si Si1 0.820995 0.952933 0.176692
Si Si2 0.891975 0.674698 0.513252
Si Si3 0.830774 0.494831 0.127798
Si Si4 0.464307 0.247931 0.945734
Si Si5 0.414343 0.500084 0.609743
Si Si6 0.981747 0.747637 0.913008
Si Si7 0.388780 0.198763 0.399276
O O1 0.978983 0.058378 0.122178
O O2 0.930245 0.832261 0.371761
O O3 0.731324 0.838324 0.095117
O O4 0.639667 0.099386 0.114254
O O5 0.814828 0.520217 0.472944
O O6 0.721678 0.765024 0.518743
O O7 0.094410 0.594053 0.680293
O O8 0.606412 0.599775 0.036124
O O9 0.838857 0.348136 0.082834
O O10 0.980785 0.625301 0.084109
O O11 0.519239 0.330549 0.796832
O O12 0.500000 0.500000 0.500000
O O13 0.446814 0.678696 0.613355
O O14 0.771020 0.755024 0.779366
O O15 0.500000 0.000000 0.500000
#
# Coordination Sequence:
#
# PCOD8016964 Si02
#       7
#     2   2   2   2   2   2   2
#     4  10  23  41  63  92 130 157 210 265 311 357
#     4   9  21  41  62  88 125 166 203 262 305 367
#     4  10  23  41  63  93 126 167 212 244 319 376
#     4  10  23  40  65  95 121 168 212 255 308 373
#     4   9  20  39  63  89 123 164 205 256 308 370
#     4  10  24  41  61  91 131 167 200 262 310 372
#     4  10  22  37  61  95 126 160 211 254 316 364
#
# _framework density 24.890025999999999
#
# number of rings (size 3 to 8) (size 9 to 14) (size 15 to 20)
#    0.000    2.286    0.000    0.000   10.000    9.143 
#    0.000    0.000    0.000    0.000    0.000    0.000 
#    0.000    0.000    0.000    0.000    0.000    0.000 
#
# Total GULP energy -173525.348439 kJ/mol
# GULP energy per Si atom -12394.667746 kJ/mol
# Density = 2.483338 g / cm^3
# Si number density = 24.890026 Si / 1000 Ang^3
#
#
#
# Elastic Constant Matrix: (Units=GPa)
#
#
# Indices 1 2 3 4 5 6 
#
# 1 19.4852 13.2535 -8.8290 -4.2709 -3.3073 -0.8440
# 2 13.2535 116.1155 25.4564 -19.6882 -6.7606 23.6417
# 3 -8.8290 25.4564 97.1289 -16.3694 -12.2590 2.8423
# 4 -4.2709 -19.6882 -16.3694 32.6802 0.6921 -3.1692
# 5 -3.3073 -6.7606 -12.2590 0.6921 37.1587 -20.3662
# 6 -0.8440 23.6417 2.8423 -3.1692 -20.3662 46.5651
#
#
#
# Elastic Compliance Matrix: (Units=1/GPa)
#
#
# Indices 1 2 3 4 5 6 
#
# 1 0.069665 -0.010852 0.012383 0.009746 0.015508 0.013463
# 2 -0.010852 0.012736 -0.004063 0.003525 -0.004523 -0.008153
# 3 0.012383 -0.004063 0.014472 0.006769 0.007936 0.005335
# 4 0.009746 0.003525 0.006769 0.037532 0.004383 0.002445
# 5 0.015508 -0.004523 0.007936 0.004383 0.041190 0.020407
# 6 0.013463 -0.008153 0.005335 0.002445 0.020407 0.034625
#
#
# Mechanical properties :
#
#
# Convention : Reuss Voigt Hill
#
# Bulk Modulus (GPa) = 10.89222 32.49903 21.69563
# Shear Modulus (GPa) = 20.33463 36.80403 28.56933
#
# Velocity S-wave (km/s) = 2.86139 3.84951 3.39163
# Velocity P-wave (km/s) = 3.91182 5.73095 4.90643
#
# Compressibility (1/GPa) = 0.09180865
#
# Stress axis : x y z
#
# Youngs Moduli (GPa) = 14.35450 78.51909 69.09796
#
# Poissons Ratio (x) = 0.85208 -0.85561
# Poissons Ratio (y) = 0.15577 0.28072
# Poissons Ratio (z) = -0.17775 0.31900
#
# Static dielectric constant tensor:
#      x y z
#    x 4.241990 0.228080 -0.113100 
#    y 0.228080 4.724270 -0.104330 
#    z -0.113100 -0.104330 4.466400 
# 
# 
# High freq. dielectric constant tensor:
#      x y z
#    x 1.979670 0.012040 -0.006290 
#    y 0.012040 1.997570 -0.008900 
#    z -0.006290 -0.008900 1.989540 
# 
# From -- ./inp_files/184507.got.cif
#   From: 2010.06.25/outbox.cif.g09.slc.cpg/sg2_93_cif.got.tgz:184507.got - 2010.06.27 13:26:56.
