data_PCOD8016778
_publ_section_title
;
Structure prediction by ZEFSAII (Michael W. Deem and Ramdas Pophale) SiO2 
 PCOD8016778
Probable space group: P -1
;
_chemical_formula_sum "Si O2"
_cell_formula_units_Z 14
_cell_length_a 13.759646
_cell_length_b 11.597764
_cell_length_c 5.458512
_cell_angle_alpha 62.988407
_cell_angle_beta 64.072136
_cell_angle_gamma 96.106941
_cell_volume 645.408261
_symmetry_space_group_name_H-M "P -1"
_symmetry_group_IT_number 2
_symmetry_cell_setting 'triclinic'
loop_
_space_group_symop_operation_xyz
x,y,z
-x,-y,-z
loop_
_atom_site_type_symbol
_atom_site_label
_atom_site_fract_x
_atom_site_fract_y
_atom_site_fract_z
Si Si1 0.041985 0.213895 0.356742
Si Si2 0.190740 0.931860 0.030133
Si Si3 0.162906 0.795071 0.687378
Si Si4 0.882254 0.489873 0.772510
Si Si5 0.678833 0.516139 0.706087
Si Si6 0.737729 0.789424 0.082883
Si Si7 0.550715 0.622079 0.136009
O O1 0.101583 0.371371 0.234064
O O2 0.950721 0.117771 0.752767
O O3 0.970996 0.214694 0.183441
O O4 0.140201 0.149016 0.263213
O O5 0.230502 0.863779 0.292133
O O6 0.223274 0.883976 0.778583
O O7 0.256102 0.100292 0.816587
O O8 0.160916 0.639241 0.865667
O O9 0.780036 0.461232 0.712373
O O10 0.000000 0.500000 0.500000
O O11 0.727721 0.637640 0.332500
O O12 0.563693 0.379854 0.883443
O O13 0.643494 0.590106 0.898721
O O14 0.624978 0.767698 0.054046
O O15 0.500000 0.500000 0.500000
#
# Coordination Sequence:
#
# PCOD8016778 Si02
#       7
#     2   2   2   2   2   2   2
#     4  10  22  35  57  92 124 166 205 252 308 360
#     4  10  24  38  57  88 134 168 204 245 307 379
#     4  10  23  38  54  85 129 167 206 241 299 371
#     4  12  20  39  61  92 127 164 206 252 308 373
#     4  10  22  36  66  89 121 155 206 264 316 355
#     4  11  21  36  62  89 123 161 206 260 314 367
#     4   9  20  41  57  93 115 153 210 263 319 354
#
# _framework density 21.691694999999999
#
# number of rings (size 3 to 8) (size 9 to 14) (size 15 to 20)
#    0.857    0.857    2.857    1.714    2.000    1.714 
#    0.000    0.000    0.000    1.714    0.000    0.000 
#    0.000    0.000    0.000    0.000    0.000    0.000 
#
# Total GULP energy -173437.742613 kJ/mol
# GULP energy per Si atom -12388.410187 kJ/mol
# Density = 2.164232 g / cm^3
# Si number density = 21.691695 Si / 1000 Ang^3
#
#
#
# Elastic Constant Matrix: (Units=GPa)
#
#
# Indices 1 2 3 4 5 6 
#
# 1 130.7606 38.2667 20.6145 -5.0059 7.7827 16.1213
# 2 38.2667 80.3316 -5.7245 -0.2718 4.4325 33.2852
# 3 20.6145 -5.7245 47.3607 8.2971 10.2051 3.8522
# 4 -5.0059 -0.2718 8.2971 34.9551 3.4754 1.7858
# 5 7.7827 4.4325 10.2051 3.4754 23.4165 5.3739
# 6 16.1213 33.2852 3.8522 1.7858 5.3739 32.5702
#
#
#
# Elastic Compliance Matrix: (Units=1/GPa)
#
#
# Indices 1 2 3 4 5 6 
#
# 1 0.010197 -0.005861 -0.005624 0.002729 -0.000591 0.001555
# 2 -0.005861 0.025953 0.008035 -0.001231 -0.000686 -0.024392
# 3 -0.005624 0.008035 0.028207 -0.006147 -0.009456 -0.006867
# 4 0.002729 -0.001231 -0.006147 0.030721 -0.002405 -0.000654
# 5 -0.000591 -0.000686 -0.009456 -0.002405 0.048844 -0.005815
# 6 0.001555 -0.024392 -0.006867 -0.000654 -0.005815 0.056667
#
#
# Mechanical properties :
#
#
# Convention : Reuss Voigt Hill
#
# Bulk Modulus (GPa) = 17.40406 40.52959 28.96683
# Shear Modulus (GPa) = 22.06124 31.87478 26.96801
#
# Velocity S-wave (km/s) = 3.19256 3.83749 3.52979
# Velocity P-wave (km/s) = 4.65088 6.19355 5.47681
#
# Compressibility (1/GPa) = 0.05745786
#
# Stress axis : x y z
#
# Youngs Moduli (GPa) = 98.06495 38.53080 35.45228
#
# Poissons Ratio (x) = 0.22583 0.19939
# Poissons Ratio (y) = 0.57476 -0.28488
# Poissons Ratio (z) = 0.55155 -0.30961
#
# Static dielectric constant tensor:
#      x y z
#    x 4.323250 0.483850 0.031640 
#    y 0.483850 3.816670 -0.075200 
#    z 0.031640 -0.075200 3.641830 
# 
# 
# High freq. dielectric constant tensor:
#      x y z
#    x 1.836060 0.034840 0.006590 
#    y 0.034840 1.833740 0.003990 
#    z 0.006590 0.003990 1.841300 
# 
# From -- ./inp_files/93176.got.cif
#   From: 2010.06.25/outbox.cif.g09.slc.cpg/sg2_47_cif.got.tgz:93176.got - 2010.06.27 13:26:56.
