data_PCOD8016339
_publ_section_title
;
Structure prediction by ZEFSAII (Michael W. Deem and Ramdas Pophale) SiO2 
 PCOD8016339
Probable space group: P -1
;
_chemical_formula_sum "Si O2"
_cell_formula_units_Z 16
_cell_length_a 11.788421
_cell_length_b 11.546233
_cell_length_c 8.863152
_cell_angle_alpha 119.223686
_cell_angle_beta 124.682134
_cell_angle_gamma 52.468876
_cell_volume 767.940346
_symmetry_space_group_name_H-M "P -1"
_symmetry_group_IT_number 2
_symmetry_cell_setting 'triclinic'
loop_
_space_group_symop_operation_xyz
x,y,z
-x,-y,-z
loop_
_atom_site_type_symbol
_atom_site_label
_atom_site_fract_x
_atom_site_fract_y
_atom_site_fract_z
Si Si1 0.845290 0.499566 0.939481
Si Si2 0.689511 0.012325 0.435328
Si Si3 0.592544 0.776163 0.107610
Si Si4 0.702034 0.181314 0.273330
Si Si5 0.643533 0.489393 0.510163
Si Si6 0.159181 0.755845 0.033387
Si Si7 0.996908 0.077696 0.263561
Si Si8 0.520765 0.261713 0.688450
O O1 0.769093 0.485235 0.719048
O O2 0.887626 0.357806 0.989620
O O3 0.733632 0.649395 0.040824
O O4 0.000000 0.500000 0.000000
O O5 0.679910 0.145898 0.406118
O O6 0.595289 0.093475 0.567867
O O7 0.615657 0.923389 0.232293
O O8 0.869786 0.896450 0.534143
O O9 0.583339 0.722549 0.234822
O O10 0.429757 0.824304 0.933397
O O11 0.706033 0.338686 0.364509
O O12 0.871777 0.063061 0.268693
O O13 0.500000 0.500000 0.500000
O O14 0.598859 0.626480 0.451300
O O15 0.346238 0.690301 0.135780
O O16 0.091508 0.784108 0.830701
O O17 0.085919 0.915948 0.155947
#
# Coordination Sequence:
#
# PCOD8016339 Si02
#       8
#     2   2   2   2   2   2   2   2
#     4  12  28  45  65  96 136 170 210 272 329 381
#     4  11  24  42  63  98 139 166 212 269 327 377
#     4  12  26  42  67 100 128 175 215 264 329 381
#     4  12  23  41  70  96 128 173 223 264 311 392
#     4  12  22  44  69  95 125 169 221 265 321 378
#     4  10  21  44  67  96 131 168 219 269 317 379
#     4  10  23  39  69  96 126 177 216 263 321 383
#     4  11  22  44  71  95 130 170 219 270 313 387
#
# _framework density 20.834949999999999
#
# number of rings (size 3 to 8) (size 9 to 14) (size 15 to 20)
#    0.000    0.750    5.000    1.875    5.250    2.000 
#    0.000    1.250    0.000    0.000    0.000    0.000 
#    0.000    0.000    0.000    0.000    0.000    0.000 
#
# Total GULP energy -198429.176557 kJ/mol
# GULP energy per Si atom -12401.823535 kJ/mol
# Density = 2.078753 g / cm^3
# Si number density = 20.834950 Si / 1000 Ang^3
#
#
#
# Elastic Constant Matrix: (Units=GPa)
#
#
# Indices 1 2 3 4 5 6 
#
# 1 113.3667 30.1034 41.2121 5.1636 8.9819 -7.9598
# 2 30.1034 75.5230 42.0538 -4.2998 10.7561 8.8430
# 3 41.2121 42.0538 136.3681 1.6707 16.5580 -5.1963
# 4 5.1636 -4.2998 1.6707 23.2772 5.0505 0.0304
# 5 8.9819 10.7561 16.5580 5.0505 32.1837 -2.6507
# 6 -7.9598 8.8430 -5.1963 0.0304 -2.6507 30.1108
#
#
#
# Elastic Compliance Matrix: (Units=1/GPa)
#
#
# Indices 1 2 3 4 5 6 
#
# 1 0.010956 -0.003901 -0.001932 -0.003021 0.000020 0.003713
# 2 -0.003901 0.019238 -0.004573 0.005742 -0.004538 -0.007875
# 3 -0.001932 -0.004573 0.009745 -0.000538 -0.002674 0.002279
# 4 -0.003021 0.005742 -0.000538 0.046553 -0.008381 -0.003363
# 5 0.000020 -0.004538 -0.002674 -0.008381 0.035605 0.004019
# 6 0.003713 -0.007875 0.002279 -0.003363 0.004019 0.037256
#
#
# Mechanical properties :
#
#
# Convention : Reuss Voigt Hill
#
# Bulk Modulus (GPa) = 52.28237 61.33293 56.80765
# Shear Modulus (GPa) = 26.80395 31.24024 29.02210
#
# Velocity S-wave (km/s) = 3.59066 3.87643 3.73628
# Velocity P-wave (km/s) = 6.50680 7.03825 6.77774
#
# Compressibility (1/GPa) = 0.01912691
#
# Stress axis : x y z
#
# Youngs Moduli (GPa) = 91.27562 51.98126 102.61264
#
# Poissons Ratio (x) = 0.20277 0.19824
# Poissons Ratio (y) = 0.35605 0.46927
# Poissons Ratio (z) = 0.17634 0.23772
#
# Static dielectric constant tensor:
#      x y z
#    x 3.913180 -0.271570 -0.117530 
#    y -0.271570 4.252090 -0.078320 
#    z -0.117530 -0.078320 3.971730 
# 
# 
# High freq. dielectric constant tensor:
#      x y z
#    x 1.817370 -0.006720 -0.008320 
#    y -0.006720 1.813760 -0.007790 
#    z -0.008320 -0.007790 1.826930 
# 
# From -- ./inp_files/225958.got.cif
#   From: 2010.06.25/outbox.cif.g09.slc.cpg/sg2_113_cif.got.tgz:225958.got - 2010.06.27 13:26:56.
