data_PCOD8016638
_publ_section_title
;
Structure prediction by ZEFSAII (Michael W. Deem and Ramdas Pophale) SiO2 
 PCOD8016638
Probable space group: P -1
;
_chemical_formula_sum "Si O2"
_cell_formula_units_Z 16
_cell_length_a 20.355680
_cell_length_b 14.304184
_cell_length_c 8.543781
_cell_angle_alpha 112.111584
_cell_angle_beta 118.327213
_cell_angle_gamma 19.268560
_cell_volume 700.386809
_symmetry_space_group_name_H-M "P -1"
_symmetry_group_IT_number 2
_symmetry_cell_setting 'triclinic'
loop_
_space_group_symop_operation_xyz
x,y,z
-x,-y,-z
loop_
_atom_site_type_symbol
_atom_site_label
_atom_site_fract_x
_atom_site_fract_y
_atom_site_fract_z
Si Si1 0.773420 0.744788 0.844595
Si Si2 0.380238 0.737956 0.912717
Si Si3 0.211803 0.214593 0.461722
Si Si4 0.682105 0.130581 0.754155
Si Si5 0.585254 0.813558 0.852881
Si Si6 0.610670 0.640054 0.043879
Si Si7 0.932874 0.993593 0.808656
Si Si8 0.785767 0.217492 0.448814
O O1 0.774440 0.739643 0.654502
O O2 0.763666 0.643488 0.840322
O O3 0.566024 0.071287 0.878170
O O4 0.000000 0.500000 0.000000
O O5 0.222644 0.884517 0.701786
O O6 0.500000 0.500000 0.000000
O O7 0.262694 0.953436 0.050963
O O8 0.534501 0.620461 0.920437
O O9 0.000000 0.500000 0.500000
O O10 0.208229 0.099931 0.356109
O O11 0.405544 0.003379 0.653176
O O12 0.424117 0.453520 0.635125
O O13 0.775389 0.119054 0.801309
O O14 0.667206 0.613321 0.918458
O O15 0.500000 0.000000 0.000000
O O16 0.843035 0.344338 0.208469
O O17 0.792136 0.205294 0.634955
O O18 0.000000 0.000000 0.000000
O O19 0.000000 0.000000 0.500000
#
# Coordination Sequence:
#
# PCOD8016638 Si02
#       8
#     2   2   2   2   2   2   2   2
#     4  11  25  50  74 103 141 185 244 305 358 437
#     4  10  21  45  72 100 145 187 239 301 350 432
#     4  12  26  46  76 106 145 187 243 303 372 437
#     4  11  25  44  72 106 143 191 242 297 367 431
#     4  10  25  46  73 102 143 183 242 300 359 431
#     4  11  24  45  74 104 145 190 241 292 369 422
#     4  12  26  43  72 104 151 190 238 300 360 437
#     4  11  24  45  70 105 145 186 245 294 361 431
#
# _framework density 22.844518999999998
#
# number of rings (size 3 to 8) (size 9 to 14) (size 15 to 20)
#    0.000    1.000    1.250    6.000    8.750    0.000 
#    2.250    0.000    0.000    0.000    0.000    0.000 
#    0.000    0.000    0.000    0.000    0.000    0.000 
#
# Total GULP energy -198325.844223 kJ/mol
# GULP energy per Si atom -12395.365264 kJ/mol
# Density = 2.279252 g / cm^3
# Si number density = 22.844519 Si / 1000 Ang^3
#
#
#
# Elastic Constant Matrix: (Units=GPa)
#
#
# Indices 1 2 3 4 5 6 
#
# 1 182.7876 18.4759 37.1896 11.6410 2.4094 -7.2947
# 2 18.4759 98.1710 18.9462 4.3649 3.1458 -6.3297
# 3 37.1896 18.9462 139.6729 24.0133 -0.2897 4.4866
# 4 11.6410 4.3649 24.0133 29.3440 -5.3998 3.6432
# 5 2.4094 3.1458 -0.2897 -5.3998 43.8521 0.0673
# 6 -7.2947 -6.3297 4.4866 3.6432 0.0673 30.5745
#
#
#
# Elastic Compliance Matrix: (Units=1/GPa)
#
#
# Indices 1 2 3 4 5 6 
#
# 1 0.005971 -0.000686 -0.001293 -0.001501 -0.000475 0.001652
# 2 -0.000686 0.010763 -0.001221 -0.000775 -0.000842 0.002338
# 3 -0.001293 -0.001221 0.008820 -0.006496 -0.000581 -0.001080
# 4 -0.001501 -0.000775 -0.006496 0.041631 0.005228 -0.004537
# 5 -0.000475 -0.000842 -0.000581 0.005228 0.023532 -0.000877
# 6 0.001652 0.002338 -0.001080 -0.004537 -0.000877 0.034286
#
#
# Mechanical properties :
#
#
# Convention : Reuss Voigt Hill
#
# Bulk Modulus (GPa) = 52.20629 63.31721 57.76175
# Shear Modulus (GPa) = 36.28800 43.82212 40.05506
#
# Velocity S-wave (km/s) = 3.98989 4.38457 4.19188
# Velocity P-wave (km/s) = 6.64290 7.30817 6.98346
#
# Compressibility (1/GPa) = 0.01915478
#
# Stress axis : x y z
#
# Youngs Moduli (GPa) = 167.47667 92.90934 113.38214
#
# Poissons Ratio (x) = 0.06371 0.14658
# Poissons Ratio (y) = 0.11485 0.13844
# Poissons Ratio (z) = 0.21651 0.11345
#
# Static dielectric constant tensor:
#      x y z
#    x 5.327260 0.063860 -0.225540 
#    y 0.063860 4.166000 0.129310 
#    z -0.225540 0.129310 4.520980 
# 
# 
# High freq. dielectric constant tensor:
#      x y z
#    x 1.925500 -0.009750 0.001420 
#    y -0.009750 1.892910 0.001800 
#    z 0.001420 0.001800 1.909170 
# 
# From -- ./inp_files/347629.got.cif
#   From: 2010.06.25/outbox.cif.g09.slc.cpg/sg2_174_cif.got.tgz:347629.got - 2010.06.27 13:26:56.
