data_PCOD8016926
_publ_section_title
;
Structure prediction by ZEFSAII (Michael W. Deem and Ramdas Pophale) SiO2 
 PCOD8016926
Probable space group: P -1
;
_chemical_formula_sum "Si O2"
_cell_formula_units_Z 16
_cell_length_a 10.618915
_cell_length_b 9.415732
_cell_length_c 10.891371
_cell_angle_alpha 83.711235
_cell_angle_beta 139.430857
_cell_angle_gamma 94.334618
_cell_volume 703.918818
_symmetry_space_group_name_H-M "P -1"
_symmetry_group_IT_number 2
_symmetry_cell_setting 'triclinic'
loop_
_space_group_symop_operation_xyz
x,y,z
-x,-y,-z
loop_
_atom_site_type_symbol
_atom_site_label
_atom_site_fract_x
_atom_site_fract_y
_atom_site_fract_z
Si Si1 0.879399 0.376075 0.806097
Si Si2 0.205111 0.167321 0.648759
Si Si3 0.548712 0.919548 0.380636
Si Si4 0.488350 0.634081 0.068027
Si Si5 0.432991 0.779261 0.552333
Si Si6 0.115678 0.894346 0.005830
Si Si7 0.291985 0.452774 0.133299
Si Si8 0.164365 0.870352 0.766629
O O1 0.757978 0.312686 0.609593
O O2 0.914754 0.263641 0.951903
O O3 0.758149 0.505526 0.766769
O O4 0.091367 0.425326 0.912452
O O5 0.329904 0.166442 0.618481
O O6 0.293205 0.303540 0.772340
O O7 0.983464 0.188503 0.440616
O O8 0.237920 0.025770 0.766992
O O9 0.551053 0.825816 0.514690
O O10 0.334622 0.945064 0.168906
O O11 0.642165 0.076125 0.452076
O O12 0.410569 0.580023 0.146701
O O13 0.500000 0.500000 0.000000
O O14 0.343598 0.760512 0.906413
O O15 0.575818 0.689918 0.754403
O O16 0.057948 0.890838 0.818947
O O17 0.000000 0.000000 0.000000
#
# Coordination Sequence:
#
# PCOD8016926 Si02
#       8
#     2   2   2   2   2   2   2   2
#     4  10  22  39  60  93 136 171 219 272 348 406
#     4  11  26  47  74 101 135 190 235 286 354 403
#     4  10  22  40  66 101 136 177 230 282 348 404
#     4  12  27  48  71  98 139 184 237 290 340 416
#     4  10  22  37  60 100 135 172 222 282 334 415
#     4  11  22  40  68 102 137 174 218 285 347 407
#     4  11  23  41  62  95 128 187 218 272 354 402
#     4  11  26  48  73 101 140 182 237 293 341 414
#
# _framework density 22.729896
#
# number of rings (size 3 to 8) (size 9 to 14) (size 15 to 20)
#    0.000    1.250    2.500    2.250    8.750    2.500 
#    2.250    0.000    0.000    0.000    0.000    0.000 
#    0.000    0.000    0.000    0.000    0.000    0.000 
#
# Total GULP energy -198393.621577 kJ/mol
# GULP energy per Si atom -12399.601349 kJ/mol
# Density = 2.267816 g / cm^3
# Si number density = 22.729896 Si / 1000 Ang^3
#
#
#
# Elastic Constant Matrix: (Units=GPa)
#
#
# Indices 1 2 3 4 5 6 
#
# 1 44.0558 21.4794 17.5278 4.8328 0.7999 3.6268
# 2 21.4794 107.9818 49.2044 19.7659 6.0159 6.1827
# 3 17.5278 49.2044 96.8225 10.2659 9.9654 7.0938
# 4 4.8328 19.7659 10.2659 47.0536 8.1084 -0.8965
# 5 0.7999 6.0159 9.9654 8.1084 26.7890 7.3739
# 6 3.6268 6.1827 7.0938 -0.8965 7.3739 36.2151
#
#
#
# Elastic Compliance Matrix: (Units=1/GPa)
#
#
# Indices 1 2 3 4 5 6 
#
# 1 0.025817 -0.003730 -0.002746 -0.000837 0.001839 -0.001806
# 2 -0.003730 0.013367 -0.005680 -0.004145 0.000768 -0.001055
# 3 -0.002746 -0.005680 0.014131 0.000218 -0.003758 -0.000753
# 4 -0.000837 -0.004145 0.000218 0.024339 -0.007272 0.002832
# 5 0.001839 0.000768 -0.003758 -0.007272 0.043047 -0.008524
# 6 -0.001806 -0.001055 -0.000753 0.002832 -0.008524 0.029927
#
#
# Mechanical properties :
#
#
# Convention : Reuss Voigt Hill
#
# Bulk Modulus (GPa) = 34.48020 47.25370 40.86695
# Shear Modulus (GPa) = 27.08449 32.72146 29.90298
#
# Velocity S-wave (km/s) = 3.45567 3.79829 3.63103
# Velocity P-wave (km/s) = 5.57895 6.33012 5.96637
#
# Compressibility (1/GPa) = 0.02900216
#
# Stress axis : x y z
#
# Youngs Moduli (GPa) = 38.73470 74.80831 70.76756
#
# Poissons Ratio (x) = 0.27902 0.19435
# Poissons Ratio (y) = 0.14447 0.40198
# Poissons Ratio (z) = 0.10638 0.42493
#
# Static dielectric constant tensor:
#      x y z
#    x 3.900130 -0.051790 -0.060260 
#    y -0.051790 4.036700 0.014890 
#    z -0.060260 0.014890 4.022380 
# 
# 
# High freq. dielectric constant tensor:
#      x y z
#    x 1.880460 0.006000 0.007350 
#    y 0.006000 1.907610 0.010340 
#    z 0.007350 0.010340 1.895310 
# 
# From -- ./inp_files/308687.got.cif
#   From: 2010.06.25/outbox.cif.g09.slc.cpg/sg2_155_cif.got.tgz:308687.got - 2010.06.27 13:26:56.
