data_PCOD8016587
_publ_section_title
;
Structure prediction by ZEFSAII (Michael W. Deem and Ramdas Pophale) SiO2 
 PCOD8016587
Probable space group: P -1
;
_chemical_formula_sum "Si O2"
_cell_formula_units_Z 16
_cell_length_a 8.718175
_cell_length_b 11.920163
_cell_length_c 15.063988
_cell_angle_alpha 112.607079
_cell_angle_beta 40.005337
_cell_angle_gamma 130.789575
_cell_volume 739.992372
_symmetry_space_group_name_H-M "P -1"
_symmetry_group_IT_number 2
_symmetry_cell_setting 'triclinic'
loop_
_space_group_symop_operation_xyz
x,y,z
-x,-y,-z
loop_
_atom_site_type_symbol
_atom_site_label
_atom_site_fract_x
_atom_site_fract_y
_atom_site_fract_z
Si Si1 0.024121 0.086082 0.651748
Si Si2 0.344138 0.594074 0.358193
Si Si3 0.638808 0.127826 0.551451
Si Si4 0.691854 0.577792 0.350116
Si Si5 0.755721 0.783818 0.748840
Si Si6 0.484681 0.515647 0.906176
Si Si7 0.452082 0.086118 0.342408
Si Si8 0.827999 0.370352 0.159171
O O1 0.058368 0.238743 0.702957
O O2 0.340016 0.135225 0.489256
O O3 0.907843 0.965186 0.749212
O O4 0.778778 0.985281 0.656303
O O5 0.479220 0.770048 0.370991
O O6 0.477328 0.537071 0.349501
O O7 0.401383 0.567633 0.223728
O O8 0.000000 0.500000 0.500000
O O9 0.003868 0.225912 0.415729
O O10 0.500000 0.000000 0.500000
O O11 0.512655 0.039801 0.675084
O O12 0.500000 0.500000 0.500000
O O13 0.872124 0.509608 0.234774
O O14 0.690938 0.696228 0.844239
O O15 0.438111 0.697441 0.813715
O O16 0.500000 0.500000 0.000000
O O17 0.147306 0.435649 0.995414
O O18 0.759772 0.240661 0.219781
#
# Coordination Sequence:
#
# PCOD8016587 Si02
#       8
#     2   2   2   2   2   2   2   2
#     4   9  19  35  64  98 126 168 228 278 334 393
#     4  12  26  45  67 102 138 177 237 289 337 413
#     4  11  23  39  73 100 139 174 229 289 353 401
#     4  12  24  37  71 107 132 169 233 290 339 405
#     4  10  21  45  68  94 133 186 224 284 339 406
#     4  12  28  44  70 100 141 192 229 282 357 412
#     4   9  19  36  62  94 130 173 214 275 342 404
#     4  11  23  43  69  94 141 176 228 281 349 407
#
# _framework density 21.621845
#
# number of rings (size 3 to 8) (size 9 to 14) (size 15 to 20)
#    0.000    1.250    3.750    2.625    5.250    0.000 
#    0.000    1.250    5.500    0.000    0.000    0.000 
#    0.000    0.000    0.000    0.000    0.000    0.000 
#
# Total GULP energy -198273.482791 kJ/mol
# GULP energy per Si atom -12392.092674 kJ/mol
# Density = 2.157263 g / cm^3
# Si number density = 21.621845 Si / 1000 Ang^3
#
#
#
# Elastic Constant Matrix: (Units=GPa)
#
#
# Indices 1 2 3 4 5 6 
#
# 1 71.4154 25.7422 38.0984 -2.6159 13.5074 -17.5832
# 2 25.7422 139.7142 64.1324 -16.8700 13.5902 -19.1728
# 3 38.0984 64.1324 113.2872 -4.5992 6.4808 -10.0225
# 4 -2.6159 -16.8700 -4.5992 36.1319 -7.4504 11.7231
# 5 13.5074 13.5902 6.4808 -7.4504 40.6047 -8.6215
# 6 -17.5832 -19.1728 -10.0225 11.7231 -8.6215 36.5349
#
#
#
# Elastic Compliance Matrix: (Units=1/GPa)
#
#
# Indices 1 2 3 4 5 6 
#
# 1 0.019769 0.000290 -0.005969 -0.002666 -0.004551 0.007810
# 2 0.000290 0.010594 -0.005633 0.003009 -0.001594 0.002812
# 3 -0.005969 -0.005633 0.013791 -0.000539 0.001235 -0.001581
# 4 -0.002666 0.003009 -0.000539 0.032689 0.003967 -0.009405
# 5 -0.004551 -0.001594 0.001235 0.003967 0.027756 0.002589
# 6 0.007810 0.002812 -0.001581 -0.009405 0.002589 0.035801
#
#
# Mechanical properties :
#
#
# Convention : Reuss Voigt Hill
#
# Bulk Modulus (GPa) = 46.44717 64.48476 55.46596
# Shear Modulus (GPa) = 29.37741 35.75055 32.56398
#
# Velocity S-wave (km/s) = 3.69004 4.07067 3.88502
# Velocity P-wave (km/s) = 6.29948 7.20988 6.77000
#
# Compressibility (1/GPa) = 0.02152984
#
# Stress axis : x y z
#
# Youngs Moduli (GPa) = 50.58524 94.39429 72.51145
#
# Poissons Ratio (x) = -0.02741 0.43285
# Poissons Ratio (y) = -0.01469 0.40844
# Poissons Ratio (z) = 0.30197 0.53170
#
# Static dielectric constant tensor:
#      x y z
#    x 4.258300 -0.612950 0.039680 
#    y -0.612950 4.535150 -0.295470 
#    z 0.039680 -0.295470 3.833330 
# 
# 
# High freq. dielectric constant tensor:
#      x y z
#    x 1.853590 -0.016540 0.000840 
#    y -0.016540 1.861190 -0.026320 
#    z 0.000840 -0.026320 1.817750 
# 
# From -- ./inp_files/500519.got.cif
#   From: 2010.06.25/outbox.cif.g09.slc.cpg/sg2_251_cif.got.tgz:500519.got - 2010.06.27 13:26:56.
