data_PCOD8016122
_publ_section_title
;
Structure prediction by ZEFSAII (Michael W. Deem and Ramdas Pophale) SiO2 
 PCOD8016122
Probable space group: P -1
;
_chemical_formula_sum "Si O2"
_cell_formula_units_Z 16
_cell_length_a 13.220470
_cell_length_b 8.611678
_cell_length_c 8.523828
_cell_angle_alpha 84.744010
_cell_angle_beta 47.312290
_cell_angle_gamma 96.474233
_cell_volume 689.765698
_symmetry_space_group_name_H-M "P -1"
_symmetry_group_IT_number 2
_symmetry_cell_setting 'triclinic'
loop_
_space_group_symop_operation_xyz
x,y,z
-x,-y,-z
loop_
_atom_site_type_symbol
_atom_site_label
_atom_site_fract_x
_atom_site_fract_y
_atom_site_fract_z
Si Si1 0.455294 0.305637 0.746117
Si Si2 0.423864 0.815340 0.077569
Si Si3 0.283040 0.765254 0.696213
Si Si4 0.144114 0.819127 0.535016
Si Si5 0.659921 0.416519 0.076009
Si Si6 0.906221 0.625341 0.610178
Si Si7 0.790914 0.936279 0.125325
Si Si8 0.913713 0.872297 0.314966
O O1 0.500338 0.283195 0.877676
O O2 0.565822 0.260589 0.514171
O O3 0.444445 0.491303 0.732091
O O4 0.301794 0.190766 0.883409
O O5 0.257680 0.791003 0.292091
O O6 0.432473 0.742110 0.901561
O O7 0.500000 0.000000 0.000000
O O8 0.166517 0.729809 0.683092
O O9 0.237520 0.642113 0.900474
O O10 0.302341 0.948230 0.715845
O O11 0.985694 0.752773 0.643802
O O12 0.165868 0.008382 0.523757
O O13 0.751727 0.538857 0.843343
O O14 0.888022 0.708518 0.455702
O O15 0.000000 0.500000 0.500000
O O16 0.848977 0.838058 0.211313
O O17 0.919579 0.045993 0.881642
#
# Coordination Sequence:
#
# PCOD8016122 Si02
#       8
#     2   2   2   2   2   2   2   2
#     4  11  24  42  66  98 133 175 222 276 330 394
#     4  11  25  43  68  95 132 177 222 274 327 398
#     4  10  23  44  66  93 138 176 226 269 322 403
#     4  10  23  44  65  98 129 175 225 267 332 381
#     4  12  25  43  65 100 136 176 220 271 343 387
#     4  12  24  40  66  97 140 171 211 277 333 395
#     4  10  21  43  70  99 130 178 229 269 330 383
#     4  10  23  40  69 101 133 172 225 276 317 402
#
# _framework density 23.196283000000001
#
# number of rings (size 3 to 8) (size 9 to 14) (size 15 to 20)
#    0.000    1.250    1.250    3.750    3.500    3.500 
#    2.250    0.000    0.000    0.000    0.000    0.000 
#    0.000    0.000    0.000    0.000    0.000    0.000 
#
# Total GULP energy -198419.570004 kJ/mol
# GULP energy per Si atom -12401.223125 kJ/mol
# Density = 2.314349 g / cm^3
# Si number density = 23.196283 Si / 1000 Ang^3
#
#
#
# Elastic Constant Matrix: (Units=GPa)
#
#
# Indices 1 2 3 4 5 6 
#
# 1 91.9913 35.6692 39.6679 -6.3352 3.1296 -16.0772
# 2 35.6692 115.8337 36.5972 11.7896 5.2095 -13.7979
# 3 39.6679 36.5972 73.6462 -0.8370 8.5056 -7.0968
# 4 -6.3352 11.7896 -0.8370 43.5553 -8.4912 7.0462
# 5 3.1296 5.2095 8.5056 -8.4912 32.5648 -10.5416
# 6 -16.0772 -13.7979 -7.0968 7.0462 -10.5416 45.1730
#
#
#
# Elastic Compliance Matrix: (Units=1/GPa)
#
#
# Indices 1 2 3 4 5 6 
#
# 1 0.015691 -0.002521 -0.007106 0.002728 0.002728 0.003909
# 2 -0.002521 0.011425 -0.004040 -0.004085 -0.000817 0.002404
# 3 -0.007106 -0.004040 0.019761 -0.000151 -0.004410 -0.001664
# 4 0.002728 -0.004085 -0.000151 0.026160 0.006310 -0.002909
# 5 0.002728 -0.000817 -0.004410 0.006310 0.035766 0.007391
# 6 0.003909 0.002404 -0.001664 -0.002909 0.007391 0.026180
#
#
# Mechanical properties :
#
#
# Convention : Reuss Voigt Hill
#
# Bulk Modulus (GPa) = 51.17120 56.14887 53.66003
# Shear Modulus (GPa) = 29.61582 35.56110 32.58846
#
# Velocity S-wave (km/s) = 3.57704 3.91967 3.75227
# Velocity P-wave (km/s) = 6.25845 6.68906 6.47734
#
# Compressibility (1/GPa) = 0.01954224
#
# Stress axis : x y z
#
# Youngs Moduli (GPa) = 63.73263 87.52994 50.60597
#
# Poissons Ratio (x) = 0.22069 0.35960
# Poissons Ratio (y) = 0.16069 0.20443
# Poissons Ratio (z) = 0.45287 0.35359
#
# Static dielectric constant tensor:
#      x y z
#    x 4.401730 -0.147390 0.149170 
#    y -0.147390 4.241080 0.163520 
#    z 0.149170 0.163520 4.108890 
# 
# 
# High freq. dielectric constant tensor:
#      x y z
#    x 1.926450 -0.012210 0.009650 
#    y -0.012210 1.920370 0.019680 
#    z 0.009650 0.019680 1.904400 
# 
# From -- ./inp_files/243351.got.cif
#   From: 2010.06.25/outbox.cif.g09.slc.cpg/sg2_122_cif.got.tgz:243351.got - 2010.06.27 13:26:56.
