data_PCOD8016661
_publ_section_title
;
Structure prediction by ZEFSAII (Michael W. Deem and Ramdas Pophale) SiO2 
 PCOD8016661
Probable space group: P -1
;
_chemical_formula_sum "Si O2"
_cell_formula_units_Z 16
_cell_length_a 12.031444
_cell_length_b 13.603668
_cell_length_c 9.380221
_cell_angle_alpha 105.209677
_cell_angle_beta 116.632617
_cell_angle_gamma 128.263569
_cell_volume 688.413653
_symmetry_space_group_name_H-M "P -1"
_symmetry_group_IT_number 2
_symmetry_cell_setting 'triclinic'
loop_
_space_group_symop_operation_xyz
x,y,z
-x,-y,-z
loop_
_atom_site_type_symbol
_atom_site_label
_atom_site_fract_x
_atom_site_fract_y
_atom_site_fract_z
Si Si1 0.178279 0.219779 0.182835
Si Si2 0.737961 0.213674 0.144227
Si Si3 0.882541 0.110885 0.751130
Si Si4 0.496592 0.268184 0.431330
Si Si5 0.851546 0.654535 0.527143
Si Si6 0.079700 0.942879 0.554068
Si Si7 0.963150 0.376838 0.034041
Si Si8 0.481018 0.751132 0.864798
O O1 0.436493 0.348716 0.411059
O O2 0.115130 0.261843 0.275839
O O3 0.128310 0.235848 0.005849
O O4 0.000000 0.000000 0.000000
O O5 0.740469 0.331206 0.249893
O O6 0.945272 0.288378 0.351511
O O7 0.766689 0.247085 0.000077
O O8 0.500000 0.000000 0.000000
O O9 0.871014 0.222333 0.820205
O O10 0.644747 0.885135 0.581612
O O11 0.879128 0.095442 0.575492
O O12 0.421280 0.151638 0.200577
O O13 0.781137 0.467309 0.687569
O O14 0.600435 0.422243 0.274215
O O15 0.861919 0.741395 0.437749
O O16 0.317115 0.103476 0.845713
O O17 0.000000 0.000000 0.500000
O O18 0.000000 0.500000 0.000000
#
# Coordination Sequence:
#
# PCOD8016661 Si02
#       8
#     2   2   2   2   2   2   2   2
#     4  10  21  45  76 106 144 188 250 301 362 447
#     4  12  25  50  79 105 148 198 253 306 373 451
#     4  11  24  45  71 105 149 192 236 302 379 435
#     4  11  24  45  79 105 144 189 247 303 370 439
#     4  12  25  47  76 109 141 197 251 303 363 447
#     4  12  27  45  69 109 151 194 240 303 375 442
#     4  12  29  47  73 113 149 188 251 312 377 434
#     4  12  26  45  75 106 145 191 254 300 365 442
#
# _framework density 23.241841000000001
#
# number of rings (size 3 to 8) (size 9 to 14) (size 15 to 20)
#    0.000    0.500    3.750    4.875    3.500    4.000 
#    0.000    0.000    0.000    0.000    0.000    0.000 
#    0.000    0.000    0.000    0.000    0.000    0.000 
#
# Total GULP energy -198280.914417 kJ/mol
# GULP energy per Si atom -12392.557151 kJ/mol
# Density = 2.318894 g / cm^3
# Si number density = 23.241841 Si / 1000 Ang^3
#
#
#
# Elastic Constant Matrix: (Units=GPa)
#
#
# Indices 1 2 3 4 5 6 
#
# 1 123.4743 24.1010 39.9381 -2.6754 -14.6482 -5.4796
# 2 24.1010 129.1786 34.2215 -2.8669 -7.4750 1.7155
# 3 39.9381 34.2215 93.5664 -8.3723 -21.8784 16.6610
# 4 -2.6754 -2.8669 -8.3723 36.2185 2.4347 -4.4692
# 5 -14.6482 -7.4750 -21.8784 2.4347 42.6939 0.7736
# 6 -5.4796 1.7155 16.6610 -4.4692 0.7736 39.7564
#
#
#
# Elastic Compliance Matrix: (Units=1/GPa)
#
#
# Indices 1 2 3 4 5 6 
#
# 1 0.009883 -0.000690 -0.004294 0.000006 0.001012 0.003173
# 2 -0.000690 0.008661 -0.003094 0.000045 -0.000324 0.000839
# 3 -0.004294 -0.003094 0.016666 0.001943 0.006548 -0.007352
# 4 0.000006 0.000045 0.001943 0.028402 -0.000657 0.002390
# 5 0.001012 -0.000324 0.006548 -0.000657 0.027164 -0.003193
# 6 0.003173 0.000839 -0.007352 0.002390 -0.003193 0.028966
#
#
# Mechanical properties :
#
#
# Convention : Reuss Voigt Hill
#
# Bulk Modulus (GPa) = 52.48269 60.30448 56.39359
# Shear Modulus (GPa) = 35.14922 40.26438 37.70680
#
# Velocity S-wave (km/s) = 3.89308 4.16674 4.03223
# Velocity P-wave (km/s) = 6.54509 7.01083 6.78196
#
# Compressibility (1/GPa) = 0.01905390
#
# Stress axis : x y z
#
# Youngs Moduli (GPa) = 101.17964 115.46317 60.00129
#
# Poissons Ratio (x) = 0.07965 0.25765
# Poissons Ratio (y) = 0.06980 0.18567
# Poissons Ratio (z) = 0.43448 0.35728
#
# Static dielectric constant tensor:
#      x y z
#    x 4.785500 -1.090270 0.466120 
#    y -1.090270 -0.026290 2.297710 
#    z 0.466120 2.297710 3.127230 
# 
# 
# High freq. dielectric constant tensor:
#      x y z
#    x 1.938360 -0.003840 -0.008970 
#    y -0.003840 1.931840 0.006090 
#    z -0.008970 0.006090 1.912120 
# 
# From -- ./inp_files/273865.got.cif
#   From: 2010.06.25/outbox.cif.g09.slc.cpg/sg2_137_cif.got.tgz:273865.got - 2010.06.27 13:26:56.
