data_PCOD8016292
_publ_section_title
;
Structure prediction by ZEFSAII (Michael W. Deem and Ramdas Pophale) SiO2 
 PCOD8016292
Probable space group: P -1
;
_chemical_formula_sum "Si O2"
_cell_formula_units_Z 16
_cell_length_a 14.818187
_cell_length_b 20.439815
_cell_length_c 8.761158
_cell_angle_alpha 50.991887
_cell_angle_beta 52.669054
_cell_angle_gamma 19.603489
_cell_volume 690.891554
_symmetry_space_group_name_H-M "P -1"
_symmetry_group_IT_number 2
_symmetry_cell_setting 'triclinic'
loop_
_space_group_symop_operation_xyz
x,y,z
-x,-y,-z
loop_
_atom_site_type_symbol
_atom_site_label
_atom_site_fract_x
_atom_site_fract_y
_atom_site_fract_z
Si Si1 0.487928 0.373239 0.141899
Si Si2 0.522780 0.361138 0.787673
Si Si3 0.285967 0.233420 0.264815
Si Si4 0.912878 0.222599 0.445264
Si Si5 0.455265 0.818853 0.134352
Si Si6 0.572332 0.044301 0.550041
Si Si7 0.127110 0.777146 0.853472
Si Si8 0.270265 0.368693 0.568147
O O1 0.754629 0.218976 0.190634
O O2 0.322005 0.413007 0.339718
O O3 0.565459 0.289653 0.015278
O O4 0.312040 0.574286 0.000213
O O5 0.737835 0.291510 0.650019
O O6 0.220607 0.598223 0.723259
O O7 0.558482 0.270087 0.753314
O O8 0.335616 0.114709 0.287590
O O9 0.005594 0.427841 0.357424
O O10 0.528847 0.081619 0.358833
O O11 0.303265 0.298030 0.032566
O O12 0.909507 0.174443 0.359117
O O13 0.200989 0.043972 0.491323
O O14 0.495027 0.800814 0.300079
O O15 0.168476 0.050156 0.037559
O O16 0.294774 0.264142 0.597794
#
# Coordination Sequence:
#
# PCOD8016292 Si02
#       8
#     2   2   2   2   2   2   2   2
#     4  10  24  42  68 104 139 179 220 286 347 407
#     4  10  23  40  71 102 142 175 222 287 343 416
#     4  11  28  46  67 103 138 182 236 287 338 401
#     4  10  21  44  66 103 138 179 224 280 353 403
#     4  12  25  44  70 102 135 181 228 283 341 417
#     4  11  25  45  72 100 134 187 229 288 340 408
#     4  10  23  42  67 102 140 177 222 278 351 413
#     4  12  25  47  72 100 139 184 230 289 341 404
#
# _framework density 23.158484000000001
#
# number of rings (size 3 to 8) (size 9 to 14) (size 15 to 20)
#    0.000    1.250    1.250    3.000    7.000    5.000 
#    2.250    0.000    0.000    0.000    0.000    0.000 
#    0.000    0.000    0.000    0.000    0.000    0.000 
#
# Total GULP energy -198310.827394 kJ/mol
# GULP energy per Si atom -12394.426712 kJ/mol
# Density = 2.310577 g / cm^3
# Si number density = 23.158484 Si / 1000 Ang^3
#
#
#
# Elastic Constant Matrix: (Units=GPa)
#
#
# Indices 1 2 3 4 5 6 
#
# 1 100.8356 10.1656 31.0997 7.3174 7.4921 9.4530
# 2 10.1656 65.1460 24.8594 20.1960 -7.8821 7.9961
# 3 31.0997 24.8594 112.8008 21.1932 7.6377 -9.7430
# 4 7.3174 20.1960 21.1932 24.3320 1.0989 2.1212
# 5 7.4921 -7.8821 7.6377 1.0989 26.3904 -0.4329
# 6 9.4530 7.9961 -9.7430 2.1212 -0.4329 38.2646
#
#
#
# Elastic Compliance Matrix: (Units=1/GPa)
#
#
# Indices 1 2 3 4 5 6 
#
# 1 0.011474 -0.000482 -0.003233 0.000193 -0.002533 -0.003596
# 2 -0.000482 0.023252 -0.002813 -0.016702 0.008518 -0.004434
# 3 -0.003233 -0.002813 0.012496 -0.007869 -0.003130 0.004969
# 4 0.000193 -0.016702 -0.007869 0.062181 -0.005389 -0.002069
# 5 -0.002533 0.008518 -0.003130 -0.005389 0.042267 -0.001174
# 6 -0.003596 -0.004434 0.004969 -0.002069 -0.001174 0.029315
#
#
# Mechanical properties :
#
#
# Convention : Reuss Voigt Hill
#
# Bulk Modulus (GPa) = 29.26830 45.67019 37.46924
# Shear Modulus (GPa) = 24.33938 31.97457 28.15698
#
# Velocity S-wave (km/s) = 3.24542 3.71979 3.49067
# Velocity P-wave (km/s) = 5.16811 6.18164 5.69745
#
# Compressibility (1/GPa) = 0.03416666
#
# Stress axis : x y z
#
# Youngs Moduli (GPa) = 87.15325 43.00782 80.02627
#
# Poissons Ratio (x) = 0.02071 0.25870
# Poissons Ratio (y) = 0.04198 0.22512
# Poissons Ratio (z) = 0.28174 0.12099
#
# Static dielectric constant tensor:
#      x y z
#    x 4.346830 0.062320 0.296030 
#    y 0.062320 4.331370 -0.029070 
#    z 0.296030 -0.029070 3.988270 
# 
# 
# High freq. dielectric constant tensor:
#      x y z
#    x 1.922600 0.003310 0.016750 
#    y 0.003310 1.923460 -0.005650 
#    z 0.016750 -0.005650 1.905310 
# 
# From -- ./inp_files/319244.got.cif
#   From: 2010.06.25/outbox.cif.g09.slc.cpg/sg2_160_cif.got.tgz:319244.got - 2010.06.27 13:26:56.
