data_PCOD8016591
_publ_section_title
;
Structure prediction by ZEFSAII (Michael W. Deem and Ramdas Pophale) SiO2 
 PCOD8016591
Probable space group: P -1
;
_chemical_formula_sum "Si O2"
_cell_formula_units_Z 16
_cell_length_a 22.640678
_cell_length_b 11.317205
_cell_length_c 5.605876
_cell_angle_alpha 117.464105
_cell_angle_beta 129.135087
_cell_angle_gamma 39.868903
_cell_volume 713.427397
_symmetry_space_group_name_H-M "P -1"
_symmetry_group_IT_number 2
_symmetry_cell_setting 'triclinic'
loop_
_space_group_symop_operation_xyz
x,y,z
-x,-y,-z
loop_
_atom_site_type_symbol
_atom_site_label
_atom_site_fract_x
_atom_site_fract_y
_atom_site_fract_z
Si Si1 0.374673 0.997448 0.678985
Si Si2 0.559648 0.354535 0.306588
Si Si3 0.941136 0.708062 0.530585
Si Si4 0.360360 0.514284 0.642408
Si Si5 0.817623 0.889831 0.886163
Si Si6 0.823602 0.172907 0.217386
Si Si7 0.972827 0.135505 0.254490
Si Si8 0.567361 0.839803 0.714755
O O1 0.275971 0.107513 0.350011
O O2 0.371301 0.859690 0.672828
O O3 0.487834 0.868092 0.722823
O O4 0.357668 0.144268 0.946320
O O5 0.500000 0.500000 0.500000
O O6 0.646407 0.358296 0.447028
O O7 0.471368 0.409627 0.951505
O O8 0.884992 0.792147 0.723140
O O9 0.000000 0.500000 0.500000
O O10 0.029672 0.715663 0.732230
O O11 0.870486 0.798041 0.193058
O O12 0.255270 0.646641 0.654548
O O13 0.361057 0.363836 0.400071
O O14 0.768270 0.100127 0.937666
O O15 0.856944 0.236421 0.153929
O O16 0.934087 0.985555 0.428632
O O17 0.000000 0.000000 0.000000
O O18 0.500000 0.000000 0.500000
#
# Coordination Sequence:
#
# PCOD8016591 Si02
#       8
#     2   2   2   2   2   2   2   2
#     4  11  25  43  67  96 139 190 237 291 360 434
#     4  11  22  39  67  98 136 175 232 297 351 412
#     4  11  25  48  75 106 147 184 237 298 368 437
#     4  11  24  40  67 102 133 183 240 297 349 436
#     4  11  25  45  77 107 137 192 243 296 361 440
#     4  10  23  41  70 103 136 179 243 298 358 426
#     4  10  21  45  68  96 138 183 223 297 366 420
#     4  11  24  46  64  92 148 189 230 298 364 416
#
# _framework density 22.426947999999999
#
# number of rings (size 3 to 8) (size 9 to 14) (size 15 to 20)
#    0.000    1.250    3.750    1.125    7.000    1.000 
#    4.500    0.000    0.000    0.000    0.000    0.000 
#    0.000    0.000    0.000    0.000    0.000    0.000 
#
# Total GULP energy -198240.172159 kJ/mol
# GULP energy per Si atom -12390.010760 kJ/mol
# Density = 2.237590 g / cm^3
# Si number density = 22.426948 Si / 1000 Ang^3
#
#
#
# Elastic Constant Matrix: (Units=GPa)
#
#
# Indices 1 2 3 4 5 6 
#
# 1 119.5465 61.2663 44.8091 23.2368 4.6847 0.5128
# 2 61.2663 129.4546 41.1296 47.7434 8.3413 6.9095
# 3 44.8091 41.1296 111.5338 35.1792 11.0385 6.7325
# 4 23.2368 47.7434 35.1792 41.2197 2.4815 -1.6382
# 5 4.6847 8.3413 11.0385 2.4815 42.4178 7.4637
# 6 0.5128 6.9095 6.7325 -1.6382 7.4637 44.3007
#
#
#
# Elastic Compliance Matrix: (Units=1/GPa)
#
#
# Indices 1 2 3 4 5 6 
#
# 1 0.012145 -0.005801 -0.003876 0.003214 0.000372 0.001409
# 2 -0.005801 0.016666 0.002198 -0.017943 -0.001585 -0.003263
# 3 -0.003876 0.002198 0.013963 -0.012226 -0.002491 -0.002452
# 4 0.003214 -0.017943 -0.012226 0.053787 0.002108 0.006253
# 5 0.000372 -0.001585 -0.002491 0.002108 0.024988 -0.003511
# 6 0.001409 -0.003263 -0.002452 0.006253 -0.003511 0.024261
#
#
# Mechanical properties :
#
#
# Convention : Reuss Voigt Hill
#
# Bulk Modulus (GPa) = 35.94955 72.77165 54.36060
# Shear Modulus (GPa) = 29.40488 39.80963 34.60725
#
# Velocity S-wave (km/s) = 3.62490 4.21774 3.93251
# Velocity P-wave (km/s) = 5.79519 7.49919 6.70157
#
# Compressibility (1/GPa) = 0.02781676
#
# Stress axis : x y z
#
# Youngs Moduli (GPa) = 82.33594 60.00406 71.61746
#
# Poissons Ratio (x) = 0.34809 0.27758
# Poissons Ratio (y) = 0.47764 -0.15744
# Poissons Ratio (z) = 0.31912 -0.13191
#
# Static dielectric constant tensor:
#      x y z
#    x 4.420990 0.258160 0.071470 
#    y 0.258160 3.700400 0.214240 
#    z 0.071470 0.214240 4.252080 
# 
# 
# High freq. dielectric constant tensor:
#      x y z
#    x 1.897320 0.006030 0.006450 
#    y 0.006030 1.868390 0.016470 
#    z 0.006450 0.016470 1.898280 
# 
# From -- ./inp_files/118888.got.cif
#   From: 2010.06.25/outbox.cif.g09.slc.cpg/sg2_60_cif.got.tgz:118888.got - 2010.06.27 13:26:56.
