data_PCOD8016842
_publ_section_title
;
Structure prediction by ZEFSAII (Michael W. Deem and Ramdas Pophale) SiO2 
 PCOD8016842
Probable space group: P -1
;
_chemical_formula_sum "Si O2"
_cell_formula_units_Z 14
_cell_length_a 9.217740
_cell_length_b 11.951526
_cell_length_c 8.727782
_cell_angle_alpha 85.379354
_cell_angle_beta 93.012531
_cell_angle_gamma 52.262953
_cell_volume 751.559561
_symmetry_space_group_name_H-M "P -1"
_symmetry_group_IT_number 2
_symmetry_cell_setting 'triclinic'
loop_
_space_group_symop_operation_xyz
x,y,z
-x,-y,-z
loop_
_atom_site_type_symbol
_atom_site_label
_atom_site_fract_x
_atom_site_fract_y
_atom_site_fract_z
Si Si1 0.643348 0.470525 0.308542
Si Si2 0.353378 0.784865 0.260152
Si Si3 0.442967 0.364171 0.428989
Si Si4 0.406024 0.926374 0.981247
Si Si5 0.272082 0.342885 0.143214
Si Si6 0.002144 0.115061 0.901254
Si Si7 0.924451 0.363447 0.075359
O O1 0.489286 0.626727 0.207755
O O2 0.566347 0.380529 0.318968
O O3 0.681274 0.495041 0.483355
O O4 0.829726 0.384900 0.230740
O O5 0.421295 0.776123 0.439453
O O6 0.146657 0.829422 0.250095
O O7 0.363638 0.893821 0.149739
O O8 0.308385 0.350102 0.323919
O O9 0.534360 0.782125 0.908591
O O10 0.212434 0.037594 0.865871
O O11 0.500000 0.000000 0.000000
O O12 0.130904 0.307392 0.126666
O O13 0.190708 0.491339 0.042484
O O14 0.932445 0.246062 0.994195
O O15 0.000000 0.000000 0.000000
#
# Coordination Sequence:
#
# PCOD8016842 Si02
#       7
#     2   2   2   2   2   2   2
#     4   9  19  36  59  89 114 149 193 246 285 338
#     4   9  19  39  57  83 115 152 188 239 290 337
#     4   9  20  37  58  86 120 149 190 241 298 339
#     4  11  21  40  59  86 119 155 193 239 290 346
#     4  11  22  37  61  90 117 152 197 239 290 347
#     4  10  22  36  61  84 117 150 196 239 288 339
#     4  11  22  36  61  92 113 151 201 242 283 343
#
# _framework density 18.627931
#
# number of rings (size 3 to 8) (size 9 to 14) (size 15 to 20)
#    0.857    1.143    2.857    0.857    4.000    1.714 
#    0.000    2.857    0.000    0.000    0.000    0.000 
#    0.000    0.000    0.000    0.000    0.000    0.000 
#
# Total GULP energy -173495.070296 kJ/mol
# GULP energy per Si atom -12392.505021 kJ/mol
# Density = 1.858553 g / cm^3
# Si number density = 18.627931 Si / 1000 Ang^3
#
#
#
# Elastic Constant Matrix: (Units=GPa)
#
#
# Indices 1 2 3 4 5 6 
#
# 1 112.0730 37.5022 49.3826 0.1494 7.2881 -7.7996
# 2 37.5022 75.7141 18.2406 2.0984 2.1741 -6.5597
# 3 49.3826 18.2406 87.1958 0.1853 12.6748 -3.7119
# 4 0.1494 2.0984 0.1853 15.4677 3.3762 -2.9297
# 5 7.2881 2.1741 12.6748 3.3762 34.5269 0.0781
# 6 -7.7996 -6.5597 -3.7119 -2.9297 0.0781 37.3391
#
#
#
# Elastic Compliance Matrix: (Units=1/GPa)
#
#
# Indices 1 2 3 4 5 6 
#
# 1 0.013619 -0.005065 -0.006562 0.000948 -0.000243 0.001378
# 2 -0.005065 0.016005 -0.000470 -0.001913 0.000417 0.001556
# 3 -0.006562 -0.000470 0.015949 0.000967 -0.004535 0.000218
# 4 0.000948 -0.001913 0.000967 0.067423 -0.007040 0.005263
# 5 -0.000243 0.000417 -0.004535 -0.007040 0.031344 -0.001046
# 6 0.001378 0.001556 0.000218 0.005263 -0.001046 0.027780
#
#
# Mechanical properties :
#
#
# Convention : Reuss Voigt Hill
#
# Bulk Modulus (GPa) = 46.77113 53.91486 50.34299
# Shear Modulus (GPa) = 24.57719 28.79057 26.68388
#
# Velocity S-wave (km/s) = 3.63626 3.93563 3.78890
# Velocity P-wave (km/s) = 6.54159 7.04685 6.79891
#
# Compressibility (1/GPa) = 0.02138071
#
# Stress axis : x y z
#
# Youngs Moduli (GPa) = 73.42543 62.47881 62.69830
#
# Poissons Ratio (x) = 0.31645 0.41140
# Poissons Ratio (y) = 0.37190 0.02947
# Poissons Ratio (z) = 0.48179 0.02937
#
# Static dielectric constant tensor:
#      x y z
#    x 3.658510 -0.203820 0.181830 
#    y -0.203820 3.369440 -0.178560 
#    z 0.181830 -0.178560 3.222640 
# 
# 
# High freq. dielectric constant tensor:
#      x y z
#    x 1.730020 0.000320 0.006170 
#    y 0.000320 1.718310 -0.010040 
#    z 0.006170 -0.010040 1.699150 
# 
# From -- ./inp_files/177739.got.cif
#   From: 2010.06.25/outbox.cif.g09.slc.cpg/sg2_89_cif.got.tgz:177739.got - 2010.06.27 13:26:56.
