data_PCOD8016249
_publ_section_title
;
Structure prediction by ZEFSAII (Michael W. Deem and Ramdas Pophale) SiO2 
 PCOD8016249
Probable space group: P -1
;
_chemical_formula_sum "Si O2"
_cell_formula_units_Z 16
_cell_length_a 9.900015
_cell_length_b 15.978057
_cell_length_c 9.053941
_cell_angle_alpha 71.346904
_cell_angle_beta 38.983212
_cell_angle_gamma 57.598838
_cell_volume 747.997118
_symmetry_space_group_name_H-M "P -1"
_symmetry_group_IT_number 2
_symmetry_cell_setting 'triclinic'
loop_
_space_group_symop_operation_xyz
x,y,z
-x,-y,-z
loop_
_atom_site_type_symbol
_atom_site_label
_atom_site_fract_x
_atom_site_fract_y
_atom_site_fract_z
Si Si1 0.486524 0.905605 0.002262
Si Si2 0.003984 0.267379 0.257074
Si Si3 0.687680 0.621579 0.617310
Si Si4 0.124988 0.602132 0.435090
Si Si5 0.270163 0.859351 0.485685
Si Si6 0.922397 0.042190 0.878661
Si Si7 0.798286 0.726179 0.217661
Si Si8 0.161174 0.749078 0.097963
O O1 0.315000 0.879674 0.267961
O O2 0.357055 0.932832 0.935833
O O3 0.758347 0.813133 0.809864
O O4 0.500000 0.000000 0.000000
O O5 0.861189 0.362488 0.431265
O O6 0.837665 0.218023 0.377257
O O7 0.079357 0.310212 0.026144
O O8 0.682558 0.516468 0.672124
O O9 0.804160 0.634298 0.357659
O O10 0.853259 0.621125 0.614535
O O11 0.415831 0.714628 0.814593
O O12 0.213240 0.660528 0.217318
O O13 0.522101 0.814288 0.386896
O O14 0.093882 0.963772 0.655516
O O15 0.928369 0.146691 0.798045
O O16 0.000000 0.000000 0.000000
O O17 0.947634 0.771697 0.150710
#
# Coordination Sequence:
#
# PCOD8016249 Si02
#       8
#     2   2   2   2   2   2   2   2
#     4  11  24  40  63  88 128 172 207 254 313 370
#     4  11  22  41  64  92 127 163 211 253 317 375
#     4  10  21  44  64  92 126 157 210 265 321 369
#     4  10  23  39  68  93 119 166 208 261 318 383
#     4  11  24  42  61  90 132 169 208 254 311 380
#     4  12  24  39  64  95 126 170 213 257 308 372
#     4  10  23  41  63  90 127 168 203 266 312 374
#     4  11  23  41  63  90 129 165 213 259 316 369
#
# _framework density 21.390456
#
# number of rings (size 3 to 8) (size 9 to 14) (size 15 to 20)
#    0.000    1.250    1.250    4.500    3.500    3.000 
#    0.000    2.500    0.000    0.000    0.000    0.000 
#    0.000    0.000    0.000    0.000    0.000    0.000 
#
# Total GULP energy -198442.817288 kJ/mol
# GULP energy per Si atom -12402.676080 kJ/mol
# Density = 2.134177 g / cm^3
# Si number density = 21.390456 Si / 1000 Ang^3
#
#
#
# Elastic Constant Matrix: (Units=GPa)
#
#
# Indices 1 2 3 4 5 6 
#
# 1 131.8077 36.1525 30.0364 1.9267 -7.8638 5.0582
# 2 36.1525 114.9596 28.3650 -4.3868 5.4683 18.7756
# 3 30.0364 28.3650 81.2487 -3.6223 -4.0168 10.6136
# 4 1.9267 -4.3868 -3.6223 32.3326 -2.1877 4.8633
# 5 -7.8638 5.4683 -4.0168 -2.1877 31.0260 2.6940
# 6 5.0582 18.7756 10.6136 4.8633 2.6940 27.9700
#
#
#
# Elastic Compliance Matrix: (Units=1/GPa)
#
#
# Indices 1 2 3 4 5 6 
#
# 1 0.008958 -0.002512 -0.002508 -0.001157 0.002220 0.001005
# 2 -0.002512 0.011271 -0.002168 0.002262 -0.002182 -0.006472
# 3 -0.002508 -0.002168 0.014766 0.002306 0.002195 -0.004307
# 4 -0.001157 0.002262 0.002306 0.032970 0.002641 -0.008171
# 5 0.002220 -0.002182 0.002195 0.002641 0.033952 -0.003499
# 6 0.001005 -0.006472 -0.004307 -0.008171 -0.003499 0.043307
#
#
# Mechanical properties :
#
#
# Convention : Reuss Voigt Hill
#
# Bulk Modulus (GPa) = 48.49864 57.45820 52.97842
# Shear Modulus (GPa) = 30.03488 33.82986 31.93237
#
# Velocity S-wave (km/s) = 3.75123 3.98117 3.86791
# Velocity P-wave (km/s) = 6.44085 6.93202 6.69094
#
# Compressibility (1/GPa) = 0.02061913
#
# Stress axis : x y z
#
# Youngs Moduli (GPa) = 111.63053 88.72510 67.72491
#
# Poissons Ratio (x) = 0.22291 0.16984
# Poissons Ratio (y) = 0.28045 0.14680
# Poissons Ratio (z) = 0.27994 0.19232
#
# Static dielectric constant tensor:
#      x y z
#    x 4.091070 -0.054630 -0.026600 
#    y -0.054630 3.849380 -0.090570 
#    z -0.026600 -0.090570 3.909040 
# 
# 
# High freq. dielectric constant tensor:
#      x y z
#    x 1.852330 -0.002030 -0.004110 
#    y -0.002030 1.835980 -0.007970 
#    z -0.004110 -0.007970 1.835050 
# 
# From -- ./inp_files/38605.got.cif
#   From: 2010.06.25/outbox.cif.g09.slc.cpg/sg2_20_cif.got.tgz:38605.got - 2010.06.27 13:26:56.
