data_PCOD8016703
_publ_section_title
;
Structure prediction by ZEFSAII (Michael W. Deem and Ramdas Pophale) SiO2 
 PCOD8016703
Probable space group: P -1
;
_chemical_formula_sum "Si O2"
_cell_formula_units_Z 16
_cell_length_a 11.966389
_cell_length_b 10.253058
_cell_length_c 7.389406
_cell_angle_alpha 61.629751
_cell_angle_beta 123.324987
_cell_angle_gamma 92.016373
_cell_volume 634.325362
_symmetry_space_group_name_H-M "P -1"
_symmetry_group_IT_number 2
_symmetry_cell_setting 'triclinic'
loop_
_space_group_symop_operation_xyz
x,y,z
-x,-y,-z
loop_
_atom_site_type_symbol
_atom_site_label
_atom_site_fract_x
_atom_site_fract_y
_atom_site_fract_z
Si Si1 0.363616 0.266662 0.696152
Si Si2 0.734063 0.960670 0.694149
Si Si3 0.441958 0.225926 0.180874
Si Si4 0.865779 0.237989 0.303475
Si Si5 0.473141 0.650655 0.496500
Si Si6 0.180485 0.074293 0.591942
Si Si7 0.171931 0.772546 0.308014
Si Si8 0.124901 0.560255 0.136359
O O1 0.485522 0.223490 0.679301
O O2 0.306145 0.119286 0.773600
O O3 0.240368 0.419751 0.427356
O O4 0.428336 0.300489 0.920881
O O5 0.593665 0.097701 0.421646
O O6 0.843660 0.041058 0.834916
O O7 0.689379 0.841831 0.861875
O O8 0.813559 0.872129 0.646726
O O9 0.432904 0.362200 0.229369
O O10 0.826714 0.285401 0.445626
O O11 0.033940 0.168792 0.488339
O O12 0.793933 0.110303 0.255109
O O13 0.811019 0.384247 0.024016
O O14 0.500000 0.500000 0.500000
O O15 0.314027 0.691845 0.381729
O O16 0.067844 0.707387 0.133226
O O17 0.000000 0.500000 0.000000
#
# Coordination Sequence:
#
# PCOD8016703 Si02
#       8
#     2   2   2   2   2   2   2   2
#     4  12  25  44  71 110 141 191 235 292 358 426
#     4   9  20  45  69 103 141 178 233 298 356 417
#     4  10  23  41  71 105 144 182 230 292 357 428
#     4  10  24  47  71  96 142 190 241 297 346 422
#     4  11  23  46  67 103 148 182 233 291 356 427
#     4  10  21  46  71 102 136 184 246 291 352 412
#     4  10  24  45  70 103 135 189 240 286 362 419
#     4  12  26  48  69 102 148 191 237 295 353 425
#
# _framework density 25.223649000000002
#
# number of rings (size 3 to 8) (size 9 to 14) (size 15 to 20)
#    0.000    1.500    3.750    0.000    1.750    5.500 
#    4.500    1.875    0.000    0.000    0.000    0.000 
#    0.000    0.000    0.000    0.000    0.000    0.000 
#
# Total GULP energy -198266.628106 kJ/mol
# GULP energy per Si atom -12391.664257 kJ/mol
# Density = 2.516624 g / cm^3
# Si number density = 25.223649 Si / 1000 Ang^3
#
#
#
# Elastic Constant Matrix: (Units=GPa)
#
#
# Indices 1 2 3 4 5 6 
#
# 1 96.6265 26.6793 31.2404 16.5416 -25.0217 12.9502
# 2 26.6793 110.8477 38.8988 45.2622 -4.8368 23.8313
# 3 31.2404 38.8988 121.1370 29.5607 -18.2706 8.8164
# 4 16.5416 45.2622 29.5607 47.1565 -2.8981 -3.5692
# 5 -25.0217 -4.8368 -18.2706 -2.8981 32.1946 8.3581
# 6 12.9502 23.8313 8.8164 -3.5692 8.3581 44.3722
#
#
#
# Elastic Compliance Matrix: (Units=1/GPa)
#
#
# Indices 1 2 3 4 5 6 
#
# 1 0.015962 0.001354 -0.000202 -0.006550 0.014120 -0.008532
# 2 0.001354 0.020561 0.000121 -0.020997 0.006030 -0.014287
# 3 -0.000202 0.000121 0.011287 -0.007018 0.006692 -0.004074
# 4 -0.006550 -0.020997 -0.007018 0.048831 -0.013288 0.021014
# 5 0.014120 0.006030 0.006692 -0.013288 0.050548 -0.019279
# 6 -0.008532 -0.014287 -0.004074 0.021014 -0.019279 0.038831
#
#
# Mechanical properties :
#
#
# Convention : Reuss Voigt Hill
#
# Bulk Modulus (GPa) = 19.85833 58.02757 38.94295
# Shear Modulus (GPa) = 24.96776 40.19750 32.58263
#
# Velocity S-wave (km/s) = 3.14961 3.99638 3.59799
# Velocity P-wave (km/s) = 4.59529 6.65957 5.72130
#
# Compressibility (1/GPa) = 0.05035669
#
# Stress axis : x y z
#
# Youngs Moduli (GPa) = 62.64967 48.63490 88.59989
#
# Poissons Ratio (x) = -0.06587 0.01792
# Poissons Ratio (y) = -0.08485 -0.01075
# Poissons Ratio (z) = 0.01267 -0.00590
#
# Static dielectric constant tensor:
#      x y z
#    x 5.401640 0.476860 -0.363230 
#    y 0.476860 5.070980 0.451840 
#    z -0.363230 0.451840 4.328450 
# 
# 
# High freq. dielectric constant tensor:
#      x y z
#    x 2.020200 0.017450 -0.017920 
#    y 0.017450 2.012720 0.028490 
#    z -0.017920 0.028490 1.983130 
# 
# From -- ./inp_files/69348.got.cif
#   From: 2010.06.25/outbox.cif.g09.slc.cpg/sg2_35_cif.got.tgz:69348.got - 2010.06.27 13:26:56.
