data_PCOD8016687
_publ_section_title
;
Structure prediction by ZEFSAII (Michael W. Deem and Ramdas Pophale) SiO2 
 PCOD8016687
Probable space group: P -1
;
_chemical_formula_sum "Si O2"
_cell_formula_units_Z 16
_cell_length_a 12.970373
_cell_length_b 12.700285
_cell_length_c 7.779399
_cell_angle_alpha 91.241030
_cell_angle_beta 122.136736
_cell_angle_gamma 133.531142
_cell_volume 609.645486
_symmetry_space_group_name_H-M "P -1"
_symmetry_group_IT_number 2
_symmetry_cell_setting 'triclinic'
loop_
_space_group_symop_operation_xyz
x,y,z
-x,-y,-z
loop_
_atom_site_type_symbol
_atom_site_label
_atom_site_fract_x
_atom_site_fract_y
_atom_site_fract_z
Si Si1 0.467287 0.174346 0.242854
Si Si2 0.920091 0.703997 0.484140
Si Si3 0.657586 0.138170 0.795204
Si Si4 0.135227 0.468156 0.223215
Si Si5 0.585914 0.950296 0.137323
Si Si6 0.645564 0.475286 0.909103
Si Si7 0.177243 0.157642 0.419735
Si Si8 0.236166 0.226550 0.093197
O O1 0.683561 0.313894 0.556908
O O2 0.344516 0.189526 0.196643
O O3 0.314526 0.959875 0.100099
O O4 0.508463 0.211003 0.074332
O O5 0.877035 0.613267 0.621197
O O6 0.884894 0.803004 0.487892
O O7 0.155477 0.859888 0.612792
O O8 0.754834 0.536720 0.192332
O O9 0.500000 0.000000 0.500000
O O10 0.538896 0.148190 0.794128
O O11 0.899810 0.352626 0.975644
O O12 0.205333 0.459294 0.111911
O O13 0.500000 0.000000 0.000000
O O14 0.398238 0.253891 0.675674
O O15 0.611627 0.577353 0.851719
O O16 0.196585 0.230679 0.255688
O O17 0.986584 0.934889 0.220678
#
# Coordination Sequence:
#
# PCOD8016687 Si02
#       8
#     2   2   2   2   2   2   2   2
#     4  11  23  43  72  97 130 180 226 272 343 409
#     4  12  23  45  67  99 140 182 225 279 337 396
#     4  11  25  48  71  97 134 174 225 295 346 392
#     4  12  24  45  72  98 139 182 220 279 345 394
#     4  10  21  46  69  91 130 172 228 278 340 398
#     4  12  26  41  67 104 142 180 227 272 329 413
#     4  11  22  41  66  94 137 182 223 269 336 401
#     4  11  22  41  70  94 139 187 218 272 339 396
#
# _framework density 26.244762000000001
#
# number of rings (size 3 to 8) (size 9 to 14) (size 15 to 20)
#    0.000    0.750    6.250    2.250    1.750    1.500 
#    4.500    0.000    0.000    0.000    0.000    0.000 
#    0.000    0.000    0.000    0.000    0.000    0.000 
#
# Total GULP energy -198311.552659 kJ/mol
# GULP energy per Si atom -12394.472041 kJ/mol
# Density = 2.618503 g / cm^3
# Si number density = 26.244762 Si / 1000 Ang^3
#
#
#
# Elastic Constant Matrix: (Units=GPa)
#
#
# Indices 1 2 3 4 5 6 
#
# 1 143.6830 14.3170 62.6941 10.7710 2.8949 33.9961
# 2 14.3170 29.4174 5.5086 20.8376 0.9002 5.7120
# 3 62.6941 5.5086 215.6574 27.1602 -5.4122 28.9665
# 4 10.7710 20.8376 27.1602 35.9946 9.8035 -2.5429
# 5 2.8949 0.9002 -5.4122 9.8035 53.1669 0.3958
# 6 33.9961 5.7120 28.9665 -2.5429 0.3958 24.6253
#
#
#
# Elastic Compliance Matrix: (Units=1/GPa)
#
#
# Indices 1 2 3 4 5 6 
#
# 1 0.011082 0.000840 -0.000629 -0.004473 0.000256 -0.015220
# 2 0.000840 0.084056 0.011392 -0.063583 0.011719 -0.040812
# 3 -0.000629 0.011392 0.008166 -0.014415 0.003427 -0.012924
# 4 -0.004473 -0.063583 -0.014415 0.084496 -0.016076 0.046864
# 5 0.000256 0.011719 0.003427 -0.016076 0.021977 -0.009117
# 6 -0.015220 -0.040812 -0.012924 0.046864 -0.009117 0.091275
#
#
# Mechanical properties :
#
#
# Convention : Reuss Voigt Hill
#
# Bulk Modulus (GPa) = 7.90445 61.53302 34.71873
# Shear Modulus (GPa) = 15.62427 43.17323 29.39875
#
# Velocity S-wave (km/s) = 2.44258 4.06029 3.35053
# Velocity P-wave (km/s) = 3.31260 6.74374 5.31278
#
# Compressibility (1/GPa) = 0.12651106
#
# Stress axis : x y z
#
# Youngs Moduli (GPa) = 90.23876 11.89683 122.45639
#
# Poissons Ratio (x) = -0.01000 0.07703
# Poissons Ratio (y) = -0.07582 -1.39507
# Poissons Ratio (z) = 0.05676 -0.13553
#
# Static dielectric constant tensor:
#      x y z
#    x 5.978480 0.325050 -0.195940 
#    y 0.325050 5.849600 -0.380290 
#    z -0.195940 -0.380290 5.295050 
# 
# 
# High freq. dielectric constant tensor:
#      x y z
#    x 2.054990 0.008730 -0.011000 
#    y 0.008730 2.047610 0.001370 
#    z -0.011000 0.001370 2.073220 
# 
# From -- ./inp_files/273874.got.cif
#   From: 2010.06.25/outbox.cif.g09.slc.cpg/sg2_137_cif.got.tgz:273874.got - 2010.06.27 13:26:56.
