data_PCOD8016103
_publ_section_title
;
Structure prediction by ZEFSAII (Michael W. Deem and Ramdas Pophale) SiO2 
 PCOD8016103
Probable space group: P -1
;
_chemical_formula_sum "Si O2"
_cell_formula_units_Z 16
_cell_length_a 17.287753
_cell_length_b 9.157190
_cell_length_c 10.576100
_cell_angle_alpha 130.552285
_cell_angle_beta 34.171912
_cell_angle_gamma 116.638137
_cell_volume 698.624533
_symmetry_space_group_name_H-M "P -1"
_symmetry_group_IT_number 2
_symmetry_cell_setting 'triclinic'
loop_
_space_group_symop_operation_xyz
x,y,z
-x,-y,-z
loop_
_atom_site_type_symbol
_atom_site_label
_atom_site_fract_x
_atom_site_fract_y
_atom_site_fract_z
Si Si1 0.379378 0.568302 0.805122
Si Si2 0.086185 0.526647 0.096355
Si Si3 0.053387 0.923343 0.246169
Si Si4 0.593291 0.694119 0.163744
Si Si5 0.806520 0.754685 0.719852
Si Si6 0.384466 0.999479 0.487728
Si Si7 0.088596 0.081212 0.817866
Si Si8 0.596618 0.013503 0.996080
O O1 0.500000 0.500000 0.500000
O O2 0.436687 0.491795 0.823212
O O3 0.329406 0.801911 0.014210
O O4 0.240953 0.478588 0.921388
O O5 0.094255 0.683679 0.060198
O O6 0.960395 0.621394 0.414792
O O7 0.054795 0.317875 0.982349
O O8 0.943543 0.993030 0.319854
O O9 0.000000 0.000000 0.500000
O O10 0.181908 0.035666 0.110960
O O11 0.646317 0.845326 0.271035
O O12 0.447235 0.785136 0.341497
O O13 0.719830 0.634269 0.857692
O O14 0.719429 0.817197 0.740679
O O15 0.249674 0.989972 0.580474
O O16 0.502121 0.059090 0.273918
O O17 0.000000 0.000000 0.000000
O O18 0.500000 0.000000 0.000000
#
# Coordination Sequence:
#
# PCOD8016103 Si02
#       8
#     2   2   2   2   2   2   2   2
#     4  12  23  43  71 104 133 184 238 282 349 424
#     4  11  24  44  68 104 144 182 235 294 346 429
#     4  10  23  43  70  97 142 185 229 285 357 418
#     4  10  21  43  70  94 141 178 232 283 353 420
#     4  10  23  45  67 103 134 190 223 284 363 418
#     4  10  22  42  67  96 133 182 228 286 349 411
#     4  12  25  44  68 107 140 185 237 297 352 416
#     4  11  24  43  69  98 138 176 234 289 344 421
#
# _framework density 22.902145000000001
#
# number of rings (size 3 to 8) (size 9 to 14) (size 15 to 20)
#    0.000    1.250    3.750    1.125    3.500    1.500 
#    9.000    1.250    0.000    0.000    0.000    0.000 
#    0.000    0.000    0.000    0.000    0.000    0.000 
#
# Total GULP energy -198277.721400 kJ/mol
# GULP energy per Si atom -12392.357588 kJ/mol
# Density = 2.285002 g / cm^3
# Si number density = 22.902145 Si / 1000 Ang^3
#
#
#
# Elastic Constant Matrix: (Units=GPa)
#
#
# Indices 1 2 3 4 5 6 
#
# 1 146.9288 36.0689 39.6198 -2.4019 -16.5905 -17.2359
# 2 36.0689 112.5172 30.7055 -4.5184 -1.2925 -23.2597
# 3 39.6198 30.7055 109.2237 -6.2876 -17.4462 -13.3601
# 4 -2.4019 -4.5184 -6.2876 16.3624 -0.9150 -0.3036
# 5 -16.5905 -1.2925 -17.4462 -0.9150 34.2860 -0.7704
# 6 -17.2359 -23.2597 -13.3601 -0.3036 -0.7704 39.7785
#
#
#
# Elastic Compliance Matrix: (Units=1/GPa)
#
#
# Indices 1 2 3 4 5 6 
#
# 1 0.008298 -0.001704 -0.001766 0.000281 0.003107 0.002069
# 2 -0.001704 0.011087 -0.001954 0.002086 -0.001231 0.005080
# 3 -0.001766 -0.001954 0.011662 0.004011 0.005161 0.002140
# 4 0.000281 0.002086 0.004011 0.063560 0.004025 0.003252
# 5 0.003107 -0.001231 0.005161 0.004025 0.033425 0.003038
# 6 0.002069 0.005080 0.002140 0.003252 0.003038 0.029809
#
#
# Mechanical properties :
#
#
# Convention : Reuss Voigt Hill
#
# Bulk Modulus (GPa) = 49.50237 64.60646 57.05442
# Shear Modulus (GPa) = 28.50273 35.57042 32.03658
#
# Velocity S-wave (km/s) = 3.53164 3.94528 3.74417
# Velocity P-wave (km/s) = 6.18802 7.00176 6.60743
#
# Compressibility (1/GPa) = 0.02020105
#
# Stress axis : x y z
#
# Youngs Moduli (GPa) = 120.50414 90.19794 85.74564
#
# Poissons Ratio (x) = 0.15367 0.15141
# Poissons Ratio (y) = 0.20530 0.16753
# Poissons Ratio (z) = 0.21278 0.17623
#
# Static dielectric constant tensor:
#      x y z
#    x 4.274830 -0.299460 -0.279770 
#    y -0.299460 4.601100 -0.043540 
#    z -0.279770 -0.043540 3.957990 
# 
# 
# High freq. dielectric constant tensor:
#      x y z
#    x 1.902990 -0.019910 -0.020340 
#    y -0.019910 1.911790 -0.009040 
#    z -0.020340 -0.009040 1.890370 
# 
# From -- ./inp_files/462393.got.cif
#   From: 2010.06.25/outbox.cif.g09.slc.cpg/sg2_232_cif.got.tgz:462393.got - 2010.06.27 13:26:56.
