data_PCOD8016180
_publ_section_title
;
Structure prediction by ZEFSAII (Michael W. Deem and Ramdas Pophale) SiO2 
 PCOD8016180
Probable space group: P -1
;
_chemical_formula_sum "Si O2"
_cell_formula_units_Z 10
_cell_length_a 9.127152
_cell_length_b 9.148262
_cell_length_c 11.946831
_cell_angle_alpha 58.882189
_cell_angle_beta 143.205167
_cell_angle_gamma 131.892663
_cell_volume 444.397861
_symmetry_space_group_name_H-M "P -1"
_symmetry_group_IT_number 2
_symmetry_cell_setting 'triclinic'
loop_
_space_group_symop_operation_xyz
x,y,z
-x,-y,-z
loop_
_atom_site_type_symbol
_atom_site_label
_atom_site_fract_x
_atom_site_fract_y
_atom_site_fract_z
Si Si1 0.882430 0.297139 0.944776
Si Si2 0.286749 0.033781 0.609623
Si Si3 0.080015 0.287953 0.828682
Si Si4 0.385691 0.687366 0.750192
Si Si5 0.259998 0.128340 0.310411
O O1 0.543386 0.171640 0.794446
O O2 0.978424 0.344475 0.856541
O O3 0.000000 0.500000 0.000000
O O4 0.000320 0.167913 0.125566
O O5 0.349586 0.149508 0.485128
O O6 0.257799 0.821661 0.658512
O O7 0.000000 0.000000 0.500000
O O8 0.157450 0.458569 0.717114
O O9 0.343515 0.256117 0.028513
O O10 0.828348 0.088497 0.703568
O O11 0.474740 0.717925 0.662013
#
# Coordination Sequence:
#
# PCOD8016180 Si02
#       5
#     2   2   2   2   2
#     4  11  25  47  70 101 148 186 229 291 351 414
#     4  12  27  43  70 109 146 180 230 294 354 412
#     4  10  21  43  78  99 131 191 239 282 342 418
#     4  10  21  43  72 104 134 184 239 279 347 419
#     4  11  23  47  74  97 140 186 236 288 345 411
#
# _framework density 22.502359999999999
#
# number of rings (size 3 to 8) (size 9 to 14) (size 15 to 20)
#    0.000    1.200    4.000    1.800    2.800    7.200 
#    0.000    0.000    0.000    0.000    0.000    0.000 
#    0.000    0.000    0.000    0.000    0.000    0.000 
#
# Total GULP energy -124065.373830 kJ/mol
# GULP energy per Si atom -12406.537383 kJ/mol
# Density = 2.245114 g / cm^3
# Si number density = 22.502360 Si / 1000 Ang^3
#
#
#
# Elastic Constant Matrix: (Units=GPa)
#
#
# Indices 1 2 3 4 5 6 
#
# 1 112.6771 53.9539 55.3683 -14.4713 17.6059 -12.5398
# 2 53.9539 121.8200 45.6650 -7.8227 -1.0175 -1.3005
# 3 55.3683 45.6650 86.2873 -10.3096 9.9368 -4.5063
# 4 -14.4713 -7.8227 -10.3096 36.4916 3.0080 -9.5126
# 5 17.6059 -1.0175 9.9368 3.0080 41.7349 -0.2640
# 6 -12.5398 -1.3005 -4.5063 -9.5126 -0.2640 34.5950
#
#
#
# Elastic Compliance Matrix: (Units=1/GPa)
#
#
# Indices 1 2 3 4 5 6 
#
# 1 0.016730 -0.004536 -0.006576 0.006032 -0.005995 0.006650
# 2 -0.004536 0.011584 -0.003832 -0.001185 0.003181 -0.002009
# 3 -0.006576 -0.003832 0.018305 0.001994 -0.001819 0.000391
# 4 0.006032 -0.001185 0.001994 0.033571 -0.005394 0.011592
# 5 -0.005995 0.003181 -0.001819 -0.005394 0.027367 -0.003565
# 6 0.006650 -0.002009 0.000391 0.011592 -0.003565 0.034452
#
#
# Mechanical properties :
#
#
# Convention : Reuss Voigt Hill
#
# Bulk Modulus (GPa) = 59.77517 70.08433 64.92975
# Shear Modulus (GPa) = 28.17308 33.61743 30.89525
#
# Velocity S-wave (km/s) = 3.54221 3.86936 3.70939
# Velocity P-wave (km/s) = 6.58417 7.15371 6.87484
#
# Compressibility (1/GPa) = 0.01672935
#
# Stress axis : x y z
#
# Youngs Moduli (GPa) = 59.77293 86.32933 54.62945
#
# Poissons Ratio (x) = 0.39162 0.35925
# Poissons Ratio (y) = 0.27115 0.20935
# Poissons Ratio (z) = 0.39307 0.33083
#
# Static dielectric constant tensor:
#      x y z
#    x 3.999040 0.136420 0.051190 
#    y 0.136420 4.086660 -0.191070 
#    z 0.051190 -0.191070 4.313300 
# 
# 
# High freq. dielectric constant tensor:
#      x y z
#    x 1.879320 0.007250 0.009680 
#    y 0.007250 1.884850 -0.009360 
#    z 0.009680 -0.009360 1.905620 
# 
# From -- ./inp_files/153061.got.cif
#   From: 2010.06.25/outbox.cif.g09.slc.cpg/sg2_77_cif.got.tgz:153061.got - 2010.06.27 13:26:56.
