data_PCOD8016534
_publ_section_title
;
Structure prediction by ZEFSAII (Michael W. Deem and Ramdas Pophale) SiO2 
 PCOD8016534
Probable space group: P -1
;
_chemical_formula_sum "Si O2"
_cell_formula_units_Z 16
_cell_length_a 20.344672
_cell_length_b 9.445739
_cell_length_c 9.115331
_cell_angle_alpha 75.242153
_cell_angle_beta 55.332191
_cell_angle_gamma 120.902186
_cell_volume 781.358590
_symmetry_space_group_name_H-M "P -1"
_symmetry_group_IT_number 2
_symmetry_cell_setting 'triclinic'
loop_
_space_group_symop_operation_xyz
x,y,z
-x,-y,-z
loop_
_atom_site_type_symbol
_atom_site_label
_atom_site_fract_x
_atom_site_fract_y
_atom_site_fract_z
Si Si1 0.375302 0.251846 0.129785
Si Si2 0.617844 0.126366 0.021922
Si Si3 0.920384 0.703546 0.522928
Si Si4 0.649439 0.099371 0.651583
Si Si5 0.091676 0.530235 0.968420
Si Si6 0.591583 0.763623 0.229178
Si Si7 0.089764 0.982887 0.535223
Si Si8 0.904614 0.273022 0.801297
O O1 0.324360 0.034043 0.341908
O O2 0.252932 0.182369 0.273755
O O3 0.500000 0.500000 0.000000
O O4 0.445179 0.318174 0.870068
O O5 0.496800 0.067919 0.194984
O O6 0.560932 0.894574 0.243927
O O7 0.763221 0.401830 0.842573
O O8 0.661614 0.173056 0.783353
O O9 0.019836 0.854701 0.499712
O O10 0.999648 0.727314 0.289007
O O11 0.908842 0.851853 0.445170
O O12 0.773484 0.335312 0.321330
O O13 0.127967 0.671580 0.035424
O O14 0.000000 0.500000 0.000000
O O15 0.996606 0.243973 0.182388
O O16 0.500000 0.500000 0.500000
O O17 0.756473 0.991528 0.997427
O O18 0.000000 0.500000 0.500000
#
# Coordination Sequence:
#
# PCOD8016534 Si02
#       8
#     2   2   2   2   2   2   2   2
#     4  11  22  42  64  87 132 175 215 267 340 397
#     4  10  21  45  64  94 136 180 213 273 350 392
#     4  11  22  41  69  92 128 179 224 267 333 398
#     4  10  23  40  67  94 130 176 221 269 331 407
#     4  12  23  40  69 101 130 172 230 273 322 395
#     4  11  24  39  64 100 130 173 225 274 330 401
#     4  11  23  40  64 101 126 169 227 276 324 397
#     4  12  22  44  68  92 134 186 220 263 341 404
#
# _framework density 20.477153000000001
#
# number of rings (size 3 to 8) (size 9 to 14) (size 15 to 20)
#    0.000    1.000    5.000    1.500    1.750    1.000 
#    0.000    3.750    0.000    0.000    0.000    0.000 
#    0.000    0.000    0.000    0.000    0.000    0.000 
#
# Total GULP energy -198212.062149 kJ/mol
# GULP energy per Si atom -12388.253884 kJ/mol
# Density = 2.043055 g / cm^3
# Si number density = 20.477153 Si / 1000 Ang^3
#
#
#
# Elastic Constant Matrix: (Units=GPa)
#
#
# Indices 1 2 3 4 5 6 
#
# 1 124.4259 43.5201 41.9541 -12.6463 -15.0806 -17.7935
# 2 43.5201 95.4243 40.2166 -19.7921 -2.5351 -8.9780
# 3 41.9541 40.2166 106.9122 -13.7345 -2.7879 -4.5586
# 4 -12.6463 -19.7921 -13.7345 33.5707 -3.4357 -5.2582
# 5 -15.0806 -2.5351 -2.7879 -3.4357 43.4809 -6.4750
# 6 -17.7935 -8.9780 -4.5586 -5.2582 -6.4750 44.2862
#
#
#
# Elastic Compliance Matrix: (Units=1/GPa)
#
#
# Indices 1 2 3 4 5 6 
#
# 1 0.011495 -0.002975 -0.002730 0.002664 0.004551 0.004716
# 2 -0.002975 0.014916 -0.003475 0.006668 0.000490 0.002334
# 3 -0.002730 -0.003475 0.011925 0.001705 -0.000312 -0.000417
# 4 0.002664 0.006668 0.001705 0.037211 0.005527 0.007824
# 5 0.004551 0.000490 -0.000312 0.005527 0.025968 0.006349
# 6 0.004716 0.002334 -0.000417 0.007824 0.006349 0.026763
#
#
# Mechanical properties :
#
#
# Convention : Reuss Voigt Hill
#
# Bulk Modulus (GPa) = 50.05726 64.23824 57.14775
# Shear Modulus (GPa) = 32.61705 37.67233 35.14469
#
# Velocity S-wave (km/s) = 3.99538 4.29385 4.14730
# Velocity P-wave (km/s) = 6.76628 7.48476 7.13457
#
# Compressibility (1/GPa) = 0.01997712
#
# Stress axis : x y z
#
# Youngs Moduli (GPa) = 86.99799 67.04118 83.85901
#
# Poissons Ratio (x) = 0.19943 0.22891
# Poissons Ratio (y) = 0.25880 0.29139
# Poissons Ratio (z) = 0.23748 0.23295
#
# Static dielectric constant tensor:
#      x y z
#    x 4.086710 -0.053010 -0.030840 
#    y -0.053010 3.821430 -0.111240 
#    z -0.030840 -0.111240 3.540380 
# 
# 
# High freq. dielectric constant tensor:
#      x y z
#    x 1.816380 -0.006240 -0.012080 
#    y -0.006240 1.802690 -0.011410 
#    z -0.012080 -0.011410 1.788400 
# 
# From -- ./inp_files/343525.got.cif
#   From: 2010.06.25/outbox.cif.g09.slc.cpg/sg2_172_cif.got.tgz:343525.got - 2010.06.27 13:26:56.
