data_PCOD8016306
_publ_section_title
;
Structure prediction by ZEFSAII (Michael W. Deem and Ramdas Pophale) SiO2 
 PCOD8016306
Probable space group: P -1
;
_chemical_formula_sum "Si O2"
_cell_formula_units_Z 16
_cell_length_a 11.668469
_cell_length_b 9.364798
_cell_length_c 10.705839
_cell_angle_alpha 64.720600
_cell_angle_beta 55.055600
_cell_angle_gamma 98.181811
_cell_volume 739.597837
_symmetry_space_group_name_H-M "P -1"
_symmetry_group_IT_number 2
_symmetry_cell_setting 'triclinic'
loop_
_space_group_symop_operation_xyz
x,y,z
-x,-y,-z
loop_
_atom_site_type_symbol
_atom_site_label
_atom_site_fract_x
_atom_site_fract_y
_atom_site_fract_z
Si Si1 0.913196 0.948325 0.209533
Si Si2 0.270906 0.784104 0.301853
Si Si3 0.822706 0.233847 0.119940
Si Si4 0.668317 0.727167 0.082563
Si Si5 0.805102 0.511275 0.200812
Si Si6 0.104571 0.994847 0.324507
Si Si7 0.690033 0.516100 0.525270
Si Si8 0.385792 0.973142 0.901344
O O1 0.780370 0.733971 0.384670
O O2 0.822214 0.060706 0.247746
O O3 0.034677 0.985362 0.233697
O O4 0.000000 0.000000 0.000000
O O5 0.210451 0.566834 0.435934
O O6 0.124679 0.821000 0.406636
O O7 0.416641 0.900234 0.268681
O O8 0.334557 0.840103 0.101701
O O9 0.762606 0.327536 0.221766
O O10 0.690558 0.161679 0.118535
O O11 0.007992 0.384757 0.901685
O O12 0.792174 0.660316 0.068257
O O13 0.481863 0.557538 0.269448
O O14 0.686383 0.891005 0.100698
O O15 0.717175 0.813184 0.877355
O O16 0.672394 0.448652 0.417645
O O17 0.000000 0.000000 0.500000
#
# Coordination Sequence:
#
# PCOD8016306 Si02
#       8
#     2   2   2   2   2   2   2   2
#     4  12  23  45  69 101 132 179 234 269 329 407
#     4   9  21  40  66  95 129 174 224 263 334 403
#     4  11  23  39  65 100 135 172 220 290 338 377
#     4  10  21  44  66  94 132 180 217 272 331 402
#     4  11  23  38  64 100 138 168 225 283 339 387
#     4  11  24  43  72  97 138 178 216 285 342 399
#     4  11  23  40  68  98 131 181 226 272 322 409
#     4   9  19  42  70  90 129 179 220 270 326 410
#
# _framework density 21.633379999999999
#
# number of rings (size 3 to 8) (size 9 to 14) (size 15 to 20)
#    0.000    1.500    2.500    3.375    1.750    1.500 
#    4.500    3.750    0.000    0.000    0.000    0.000 
#    0.000    0.000    0.000    0.000    0.000    0.000 
#
# Total GULP energy -198269.042986 kJ/mol
# GULP energy per Si atom -12391.815187 kJ/mol
# Density = 2.158414 g / cm^3
# Si number density = 21.633380 Si / 1000 Ang^3
#
#
#
# Elastic Constant Matrix: (Units=GPa)
#
#
# Indices 1 2 3 4 5 6 
#
# 1 111.4309 57.5619 24.0045 -3.2526 8.3181 -2.6262
# 2 57.5619 138.0242 54.7725 -9.7472 10.1243 -6.9339
# 3 24.0045 54.7725 130.1823 -4.3634 1.8148 0.0659
# 4 -3.2526 -9.7472 -4.3634 35.8233 -9.8444 -1.3991
# 5 8.3181 10.1243 1.8148 -9.8444 20.8492 -8.7734
# 6 -2.6262 -6.9339 0.0659 -1.3991 -8.7734 32.6386
#
#
#
# Elastic Compliance Matrix: (Units=1/GPa)
#
#
# Indices 1 2 3 4 5 6 
#
# 1 0.011611 -0.004664 -0.000172 -0.001192 -0.003338 -0.001005
# 2 -0.004664 0.010973 -0.003677 0.001718 -0.001668 0.001589
# 3 -0.000172 -0.003677 0.009259 0.000365 0.000997 -0.000530
# 4 -0.001192 0.001718 0.000365 0.033593 0.018255 0.006615
# 5 -0.003338 -0.001668 0.000997 0.018255 0.066191 0.017950
# 6 -0.001005 0.001589 -0.000530 0.006615 0.017950 0.036005
#
#
# Mechanical properties :
#
#
# Convention : Reuss Voigt Hill
#
# Bulk Modulus (GPa) = 67.48511 72.47946 69.98228
# Shear Modulus (GPa) = 26.37187 34.08212 30.22700
#
# Velocity S-wave (km/s) = 3.49526 3.97349 3.74202
# Velocity P-wave (km/s) = 6.89578 7.39106 7.14771
#
# Compressibility (1/GPa) = 0.01481808
#
# Stress axis : x y z
#
# Youngs Moduli (GPa) = 86.12388 91.13562 108.00722
#
# Poissons Ratio (x) = 0.42506 0.01853
# Poissons Ratio (y) = 0.40169 0.39709
# Poissons Ratio (z) = 0.01478 0.33507
#
# Static dielectric constant tensor:
#      x y z
#    x 3.973010 -0.262530 0.072550 
#    y -0.262530 3.892860 -0.209340 
#    z 0.072550 -0.209340 3.966290 
# 
# 
# High freq. dielectric constant tensor:
#      x y z
#    x 1.846110 -0.026110 0.005230 
#    y -0.026110 1.836630 -0.015540 
#    z 0.005230 -0.015540 1.849920 
# 
# From -- ./inp_files/419126.got.cif
#   From: 2010.06.25/outbox.cif.g09.slc.cpg/sg2_210_cif.got.tgz:419126.got - 2010.06.27 13:26:56.
