data_PCOD8016272
_publ_section_title
;
Structure prediction by ZEFSAII (Michael W. Deem and Ramdas Pophale) SiO2 
 PCOD8016272
Probable space group: P -1
;
_chemical_formula_sum "Si O2"
_cell_formula_units_Z 16
_cell_length_a 16.685873
_cell_length_b 13.936390
_cell_length_c 9.637061
_cell_angle_alpha 28.760110
_cell_angle_beta 134.755633
_cell_angle_gamma 134.493563
_cell_volume 742.407253
_symmetry_space_group_name_H-M "P -1"
_symmetry_group_IT_number 2
_symmetry_cell_setting 'triclinic'
loop_
_space_group_symop_operation_xyz
x,y,z
-x,-y,-z
loop_
_atom_site_type_symbol
_atom_site_label
_atom_site_fract_x
_atom_site_fract_y
_atom_site_fract_z
Si Si1 0.980190 0.290945 0.394681
Si Si2 0.321331 0.483099 0.743217
Si Si3 0.154189 0.393292 0.246438
Si Si4 0.474385 0.180881 0.333703
Si Si5 0.363427 0.686785 0.248249
Si Si6 0.398301 0.126884 0.612894
Si Si7 0.066102 0.338627 0.730110
Si Si8 0.151736 0.117101 0.348324
O O1 0.105316 0.335232 0.414871
O O2 0.997737 0.221645 0.661091
O O3 0.884854 0.129018 0.394113
O O4 0.929551 0.491268 0.083830
O O5 0.412705 0.628253 0.774381
O O6 0.310616 0.608560 0.431882
O O7 0.197878 0.442906 0.717713
O O8 0.365406 0.273137 0.033181
O O9 0.288492 0.528209 0.245789
O O10 0.143953 0.185481 0.410664
O O11 0.449853 0.085355 0.579356
O O12 0.500000 0.000000 0.500000
O O13 0.503185 0.702960 0.398846
O O14 0.354848 0.919338 0.912919
O O15 0.284725 0.212980 0.339942
O O16 0.000000 0.500000 0.500000
O O17 0.063175 0.183710 0.049826
#
# Coordination Sequence:
#
# PCOD8016272 Si02
#       8
#     2   2   2   2   2   2   2   2
#     4  11  24  44  62  92 135 172 223 279 328 393
#     4  10  22  44  66  93 136 171 225 281 330 403
#     4  11  23  42  68  90 129 179 220 271 339 398
#     4  10  22  43  69  96 128 178 222 277 343 397
#     4  10  21  44  65  95 133 173 212 282 335 392
#     4  10  22  42  68  98 137 166 220 285 335 397
#     4  12  24  44  68  98 134 183 226 275 342 396
#     4  12  24  42  67  98 129 175 227 279 334 399
#
# _framework density 21.551513
#
# number of rings (size 3 to 8) (size 9 to 14) (size 15 to 20)
#    0.000    1.250    5.000    0.750    0.000    2.500 
#   11.250    0.000    0.000    0.000    0.000    0.000 
#    0.000    0.000    0.000    0.000    0.000    0.000 
#
# Total GULP energy -198316.608838 kJ/mol
# GULP energy per Si atom -12394.788052 kJ/mol
# Density = 2.150246 g / cm^3
# Si number density = 21.551513 Si / 1000 Ang^3
#
#
#
# Elastic Constant Matrix: (Units=GPa)
#
#
# Indices 1 2 3 4 5 6 
#
# 1 92.5988 47.1593 34.6266 -3.4904 20.6056 5.9751
# 2 47.1593 133.6080 18.7985 -2.7212 13.4190 0.2003
# 3 34.6266 18.7985 65.4993 4.9150 1.8290 -12.6515
# 4 -3.4904 -2.7212 4.9150 33.4149 -5.2373 -0.3391
# 5 20.6056 13.4190 1.8290 -5.2373 35.2779 0.1638
# 6 5.9751 0.2003 -12.6515 -0.3391 0.1638 35.1382
#
#
#
# Elastic Compliance Matrix: (Units=1/GPa)
#
#
# Indices 1 2 3 4 5 6 
#
# 1 0.019327 -0.004468 -0.010142 0.001701 -0.008779 -0.006855
# 2 -0.004468 0.009168 -0.000129 0.000173 -0.000848 0.000667
# 3 -0.010142 -0.000129 0.022726 -0.003653 0.004207 0.009853
# 4 0.001701 0.000173 -0.003653 0.031234 0.003773 -0.001322
# 5 -0.008779 -0.000848 0.004207 0.003773 0.034125 0.002890
# 6 -0.006855 0.000667 0.009853 -0.001322 0.002890 0.033142
#
#
# Mechanical properties :
#
#
# Convention : Reuss Voigt Hill
#
# Bulk Modulus (GPa) = 45.99443 54.76388 50.37915
# Shear Modulus (GPa) = 26.81702 33.50765 30.16233
#
# Velocity S-wave (km/s) = 3.53132 3.94734 3.74511
# Velocity P-wave (km/s) = 6.16562 6.80008 6.49061
#
# Compressibility (1/GPa) = 0.02174176
#
# Stress axis : x y z
#
# Youngs Moduli (GPa) = 51.73997 109.07889 44.00284
#
# Poissons Ratio (x) = 0.48740 0.44627
# Poissons Ratio (y) = 0.23119 0.00570
# Poissons Ratio (z) = 0.52473 0.01412
#
# Static dielectric constant tensor:
#      x y z
#    x 3.822940 0.277930 -0.013880 
#    y 0.277930 3.990570 0.254920 
#    z -0.013880 0.254920 3.957560 
# 
# 
# High freq. dielectric constant tensor:
#      x y z
#    x 1.838650 0.016380 -0.005120 
#    y 0.016380 1.847910 0.016450 
#    z -0.005120 0.016450 1.844860 
# 
# From -- ./inp_files/332656.got.cif
#   From: 2010.06.25/outbox.cif.g09.slc.cpg/sg2_167_cif.got.tgz:332656.got - 2010.06.27 13:26:56.
