data_PCOD8016906
_publ_section_title
;
Structure prediction by ZEFSAII (Michael W. Deem and Ramdas Pophale) SiO2 
 PCOD8016906
Probable space group: P -1
;
_chemical_formula_sum "Si O2"
_cell_formula_units_Z 16
_cell_length_a 15.088219
_cell_length_b 6.458219
_cell_length_c 8.631355
_cell_angle_alpha 99.811546
_cell_angle_beta 66.203460
_cell_angle_gamma 104.630804
_cell_volume 742.375567
_symmetry_space_group_name_H-M "P -1"
_symmetry_group_IT_number 2
_symmetry_cell_setting 'triclinic'
loop_
_space_group_symop_operation_xyz
x,y,z
-x,-y,-z
loop_
_atom_site_type_symbol
_atom_site_label
_atom_site_fract_x
_atom_site_fract_y
_atom_site_fract_z
Si Si1 0.572905 0.115194 0.592907
Si Si2 0.400496 0.271461 0.871353
Si Si3 0.394384 0.023749 0.131944
Si Si4 0.059162 0.956122 0.804069
Si Si5 0.968347 0.774400 0.412124
Si Si6 0.282838 0.615477 0.999212
Si Si7 0.093404 0.436701 0.277832
Si Si8 0.732525 0.130697 0.253444
O O1 0.516357 0.280733 0.744780
O O2 0.601979 0.948561 0.680212
O O3 0.674366 0.221883 0.447423
O O4 0.500000 0.000000 0.500000
O O5 0.332645 0.089954 0.792564
O O6 0.375580 0.502644 0.885965
O O7 0.375566 0.223158 0.066496
O O8 0.312778 0.811617 0.121486
O O9 0.500000 0.000000 0.000000
O O10 0.164476 0.908425 0.763805
O O11 0.995723 0.748815 0.739480
O O12 0.076981 0.172854 0.713579
O O13 0.000000 0.000000 0.000000
O O14 0.890893 0.613196 0.556663
O O15 0.063711 0.667206 0.304565
O O16 0.000000 0.000000 0.500000
O O17 0.193829 0.440146 0.113550
O O18 0.247107 0.690923 0.870904
#
# Coordination Sequence:
#
# PCOD8016906 Si02
#       8
#     2   2   2   2   2   2   2   2
#     4   9  19  38  59  82 114 146 183 239 290 337
#     4   9  20  39  60  82 114 154 193 234 288 345
#     4   9  20  38  59  82 112 149 194 238 283 341
#     4  11  22  37  60  87 121 159 193 240 299 348
#     4   9  21  40  59  79 115 157 196 243 293 340
#     4  11  22  37  60  86 115 153 195 236 285 348
#     4  10  22  39  59  87 119 154 201 245 284 348
#     4  10  22  37  56  85 118 152 192 239 290 343
#
# _framework density 21.552432
#
# number of rings (size 3 to 8) (size 9 to 14) (size 15 to 20)
#    0.000    2.250    0.000    2.250    0.000   12.500 
#    0.000    2.500    0.000    1.500    0.000    0.000 
#    0.000    0.000    0.000    0.000    0.000    0.000 
#
# Total GULP energy -198258.743085 kJ/mol
# GULP energy per Si atom -12391.171443 kJ/mol
# Density = 2.150338 g / cm^3
# Si number density = 21.552432 Si / 1000 Ang^3
#
#
#
# Elastic Constant Matrix: (Units=GPa)
#
#
# Indices 1 2 3 4 5 6 
#
# 1 120.6533 38.8703 66.7342 -25.5532 -3.0976 -23.4268
# 2 38.8703 78.9823 40.2137 -13.7717 3.7444 -30.1397
# 3 66.7342 40.2137 152.3831 -32.1947 0.4339 -20.4544
# 4 -25.5532 -13.7717 -32.1947 35.8024 -6.0779 1.3803
# 5 -3.0976 3.7444 0.4339 -6.0779 43.9359 -5.6556
# 6 -23.4268 -30.1397 -20.4544 1.3803 -5.6556 37.0381
#
#
#
# Elastic Compliance Matrix: (Units=1/GPa)
#
#
# Indices 1 2 3 4 5 6 
#
# 1 0.012999 -0.001910 -0.003291 0.005825 0.002564 0.005025
# 2 -0.001910 0.020894 -0.001707 0.004679 0.000651 0.014777
# 3 -0.003291 -0.001707 0.009995 0.006061 0.000906 0.001962
# 4 0.005825 0.004679 0.006061 0.040099 0.006836 0.010389
# 5 0.002564 0.000651 0.000906 0.006836 0.024615 0.006156
# 6 0.005025 0.014777 0.001962 0.010389 0.006156 0.043838
#
#
# Mechanical properties :
#
#
# Convention : Reuss Voigt Hill
#
# Bulk Modulus (GPa) = 33.25322 71.51724 52.38523
# Shear Modulus (GPa) = 28.36388 37.10198 32.73293
#
# Velocity S-wave (km/s) = 3.63166 4.15357 3.90135
# Velocity P-wave (km/s) = 5.74872 7.50052 6.68227
#
# Compressibility (1/GPa) = 0.03007228
#
# Stress axis : x y z
#
# Youngs Moduli (GPa) = 76.92923 47.86020 100.04704
#
# Poissons Ratio (x) = 0.09143 0.32922
# Poissons Ratio (y) = 0.14696 0.17079
# Poissons Ratio (z) = 0.25315 0.08170
#
# Static dielectric constant tensor:
#      x y z
#    x 5.482540 -0.634130 1.281150 
#    y -0.634130 3.931160 -0.588710 
#    z 1.281150 -0.588710 5.284830 
# 
# 
# High freq. dielectric constant tensor:
#      x y z
#    x 1.844480 -0.016100 0.006520 
#    y -0.016100 1.825350 -0.016620 
#    z 0.006520 -0.016620 1.858010 
# 
# From -- ./inp_files/110565.got.cif
#   From: 2010.06.25/outbox.cif.g09.slc.cpg/sg2_56_cif.got.tgz:110565.got - 2010.06.27 13:26:56.
