data_PCOD8016497
_publ_section_title
;
Structure prediction by ZEFSAII (Michael W. Deem and Ramdas Pophale) SiO2 
 PCOD8016497
Probable space group: P -1
;
_chemical_formula_sum "Si O2"
_cell_formula_units_Z 16
_cell_length_a 11.278198
_cell_length_b 9.117739
_cell_length_c 9.744698
_cell_angle_alpha 59.901746
_cell_angle_beta 65.936405
_cell_angle_gamma 100.340723
_cell_volume 691.803643
_symmetry_space_group_name_H-M "P -1"
_symmetry_group_IT_number 2
_symmetry_cell_setting 'triclinic'
loop_
_space_group_symop_operation_xyz
x,y,z
-x,-y,-z
loop_
_atom_site_type_symbol
_atom_site_label
_atom_site_fract_x
_atom_site_fract_y
_atom_site_fract_z
Si Si1 0.293579 0.812834 0.552578
Si Si2 0.633814 0.770051 0.633898
Si Si3 0.662542 0.304197 0.129085
Si Si4 0.024027 0.489247 0.222903
Si Si5 0.535666 0.955471 0.155437
Si Si6 0.952562 0.809400 0.197300
Si Si7 0.361782 0.294356 0.647206
Si Si8 0.069953 0.183119 0.484160
O O1 0.371981 0.814404 0.657264
O O2 0.386075 0.806827 0.379178
O O3 0.129667 0.627891 0.730742
O O4 0.290934 0.012748 0.442771
O O5 0.466356 0.630804 0.838028
O O6 0.632169 0.793910 0.460355
O O7 0.748492 0.698071 0.664754
O O8 0.629483 0.162986 0.083271
O O9 0.833781 0.471770 0.957425
O O10 0.016173 0.341143 0.412982
O O11 0.040520 0.690924 0.178655
O O12 0.637092 0.848353 0.164837
O O13 0.500000 0.000000 0.000000
O O14 0.781308 0.673694 0.297197
O O15 0.978299 0.885902 0.305267
O O16 0.000000 0.000000 0.000000
O O17 0.500000 0.500000 0.500000
O O18 0.000000 0.000000 0.500000
#
# Coordination Sequence:
#
# PCOD8016497 Si02
#       8
#     2   2   2   2   2   2   2   2
#     4  11  21  43  74 100 141 186 239 288 357 429
#     4  10  21  44  72  99 134 197 234 289 352 425
#     4  11  23  43  72 102 140 182 244 290 343 438
#     4  12  26  42  74 113 142 187 238 300 364 415
#     4  11  23  41  70 103 137 181 234 296 361 412
#     4  11  27  46  73 103 144 189 240 292 358 432
#     4  11  22  43  68  98 139 186 238 286 353 425
#     4  11  25  48  73 103 148 185 237 301 362 418
#
# _framework density 23.127952000000001
#
# number of rings (size 3 to 8) (size 9 to 14) (size 15 to 20)
#    0.000    1.000    3.750    3.000    1.750    6.500 
#    0.000    0.000    0.000    0.000    0.000    0.000 
#    0.000    0.000    0.000    0.000    0.000    0.000 
#
# Total GULP energy -198256.692939 kJ/mol
# GULP energy per Si atom -12391.043309 kJ/mol
# Density = 2.307531 g / cm^3
# Si number density = 23.127952 Si / 1000 Ang^3
#
#
#
# Elastic Constant Matrix: (Units=GPa)
#
#
# Indices 1 2 3 4 5 6 
#
# 1 121.1078 48.7630 43.9711 12.8659 6.3724 -5.2873
# 2 48.7630 79.6911 37.3675 2.1351 10.5906 -4.4886
# 3 43.9711 37.3675 106.6321 10.4346 -0.6437 10.1202
# 4 12.8659 2.1351 10.4346 30.5826 6.9027 2.1998
# 5 6.3724 10.5906 -0.6437 6.9027 56.9764 -3.9910
# 6 -5.2873 -4.4886 10.1202 2.1998 -3.9910 40.0332
#
#
#
# Elastic Compliance Matrix: (Units=1/GPa)
#
#
# Indices 1 2 3 4 5 6 
#
# 1 0.012134 -0.005999 -0.002687 -0.003980 0.000340 0.001862
# 2 -0.005999 0.018851 -0.004671 0.003369 -0.003154 0.002003
# 3 -0.002687 -0.004671 0.012781 -0.002947 0.001404 -0.003808
# 4 -0.003980 0.003369 -0.002947 0.036350 -0.004749 -0.001874
# 5 0.000340 -0.003154 0.001404 -0.004749 0.018794 0.001471
# 6 0.001862 0.002003 -0.003808 -0.001874 0.001471 0.026662
#
#
# Mechanical properties :
#
#
# Convention : Reuss Voigt Hill
#
# Bulk Modulus (GPa) = 58.64044 63.07047 60.85545
# Shear Modulus (GPa) = 31.65169 37.34038 34.49604
#
# Velocity S-wave (km/s) = 3.70340 4.02246 3.86622
# Velocity P-wave (km/s) = 6.61035 6.99307 6.80440
#
# Compressibility (1/GPa) = 0.01705308
#
# Stress axis : x y z
#
# Youngs Moduli (GPa) = 82.41225 53.04722 78.24037
#
# Poissons Ratio (x) = 0.31822 0.21020
# Poissons Ratio (y) = 0.49438 0.36548
# Poissons Ratio (z) = 0.22141 0.24779
#
# Static dielectric constant tensor:
#      x y z
#    x 7.974720 -1.021300 -0.520460 
#    y -1.021300 4.126950 0.110320 
#    z -0.520460 0.110320 3.926460 
# 
# 
# High freq. dielectric constant tensor:
#      x y z
#    x 1.941750 0.001980 -0.008380 
#    y 0.001980 1.897150 0.001030 
#    z -0.008380 0.001030 1.897880 
# 
# From -- ./inp_files/242944.got.cif
#   From: 2010.06.25/outbox.cif.g09.slc.cpg/sg2_122_cif.got.tgz:242944.got - 2010.06.27 13:26:56.
