data_PCOD8016883
_publ_section_title
;
Structure prediction by ZEFSAII (Michael W. Deem and Ramdas Pophale) SiO2 
 PCOD8016883
Probable space group: P -1
;
_chemical_formula_sum "Si O2"
_cell_formula_units_Z 16
_cell_length_a 20.201308
_cell_length_b 11.109991
_cell_length_c 11.375095
_cell_angle_alpha 58.215696
_cell_angle_beta 150.538001
_cell_angle_gamma 139.811613
_cell_volume 729.178639
_symmetry_space_group_name_H-M "P -1"
_symmetry_group_IT_number 2
_symmetry_cell_setting 'triclinic'
loop_
_space_group_symop_operation_xyz
x,y,z
-x,-y,-z
loop_
_atom_site_type_symbol
_atom_site_label
_atom_site_fract_x
_atom_site_fract_y
_atom_site_fract_z
Si Si1 0.239399 0.692323 0.526665
Si Si2 0.175089 0.732394 0.912851
Si Si3 0.450605 0.129518 0.548564
Si Si4 0.827256 0.920660 0.508933
Si Si5 0.365025 0.170673 0.975615
Si Si6 0.732856 0.171262 0.257411
Si Si7 0.514395 0.611195 0.355120
Si Si8 0.280636 0.227590 0.055356
O O1 0.181115 0.668873 0.585498
O O2 0.043438 0.477481 0.273520
O O3 0.294370 0.883452 0.452803
O O4 0.418969 0.721301 0.777348
O O5 0.205822 0.719291 0.829670
O O6 0.212521 0.926728 0.894671
O O7 0.338808 0.770211 0.220894
O O8 0.494378 0.235803 0.688786
O O9 0.366107 0.171525 0.300705
O O10 0.720043 0.807851 0.277239
O O11 0.719111 0.746607 0.532426
O O12 0.814706 0.075424 0.442757
O O13 0.047975 0.034750 0.787204
O O14 0.375667 0.282940 0.045240
O O15 0.500000 0.000000 0.000000
O O16 0.500000 0.500000 0.500000
O O17 0.337633 0.428362 0.087976
#
# Coordination Sequence:
#
# PCOD8016883 Si02
#       8
#     2   2   2   2   2   2   2   2
#     4  11  21  38  67  91 122 165 199 265 317 351
#     4  10  22  36  66  93 121 160 207 258 313 369
#     4  10  22  41  60  94 129 153 212 259 302 371
#     4  11  22  40  67  91 127 162 209 258 304 374
#     4  10  24  44  60  94 128 159 216 255 299 374
#     4  11  18  39  61  96 126 151 204 270 309 357
#     4  10  23  40  60  91 124 161 206 252 303 370
#     4  11  26  42  62  87 131 178 200 248 311 367
#
# _framework density 21.942496999999999
#
# number of rings (size 3 to 8) (size 9 to 14) (size 15 to 20)
#    0.000    1.500    5.000    0.750    1.750    9.500 
#    0.000    1.250    0.000    0.000    0.000    0.000 
#    0.000    0.000    0.000    0.000    0.000    0.000 
#
# Total GULP energy -198340.226531 kJ/mol
# GULP energy per Si atom -12396.264158 kJ/mol
# Density = 2.189255 g / cm^3
# Si number density = 21.942497 Si / 1000 Ang^3
#
#
#
# Elastic Constant Matrix: (Units=GPa)
#
#
# Indices 1 2 3 4 5 6 
#
# 1 107.3552 22.9286 35.8430 0.7237 -10.3989 1.6578
# 2 22.9286 71.5348 48.5131 13.7282 3.6096 9.8704
# 3 35.8430 48.5131 128.7258 5.2955 8.0949 9.9144
# 4 0.7237 13.7282 5.2955 35.3184 3.7758 -1.7765
# 5 -10.3989 3.6096 8.0949 3.7758 19.2753 5.5471
# 6 1.6578 9.8704 9.9144 -1.7765 5.5471 20.0263
#
#
#
# Elastic Compliance Matrix: (Units=1/GPa)
#
#
# Indices 1 2 3 4 5 6 
#
# 1 0.011499 -0.002059 -0.002877 0.000107 0.007982 -0.000714
# 2 -0.002059 0.021866 -0.006792 -0.008037 0.001642 -0.008412
# 3 -0.002877 -0.006792 0.011434 0.001520 -0.005239 -0.000489
# 4 0.000107 -0.008037 0.001520 0.032457 -0.007805 0.008241
# 5 0.007982 0.001642 -0.005239 -0.007805 0.064636 -0.017472
# 6 -0.000714 -0.008412 -0.000489 0.008241 -0.017472 0.059952
#
#
# Mechanical properties :
#
#
# Convention : Reuss Voigt Hill
#
# Bulk Modulus (GPa) = 46.85651 58.02058 52.43855
# Shear Modulus (GPa) = 21.51342 28.27940 24.89641
#
# Velocity S-wave (km/s) = 3.13460 3.59388 3.37207
# Velocity P-wave (km/s) = 5.87380 6.61217 6.25389
#
# Compressibility (1/GPa) = 0.02134175
#
# Stress axis : x y z
#
# Youngs Moduli (GPa) = 86.96632 45.73407 87.46013
#
# Poissons Ratio (x) = 0.09418 0.25162
# Poissons Ratio (y) = 0.17908 0.59402
# Poissons Ratio (z) = 0.25020 0.31062
#
# Static dielectric constant tensor:
#      x y z
#    x 4.170630 -0.224290 -0.121890 
#    y -0.224290 3.998720 0.140330 
#    z -0.121890 0.140330 3.889950 
# 
# 
# High freq. dielectric constant tensor:
#      x y z
#    x 1.858740 -0.001010 -0.000060 
#    y -0.001010 1.858180 0.006500 
#    z -0.000060 0.006500 1.858400 
# 
# From -- ./inp_files/438329.got.cif
#   From: 2010.06.25/outbox.cif.g09.slc.cpg/sg2_220_cif.got.tgz:438329.got - 2010.06.27 13:26:56.
