data_PCOD8016989
_publ_section_title
;
Structure prediction by ZEFSAII (Michael W. Deem and Ramdas Pophale) SiO2 
 PCOD8016989
Probable space group: P -1
;
_chemical_formula_sum "Si O2"
_cell_formula_units_Z 14
_cell_length_a 17.727015
_cell_length_b 13.533946
_cell_length_c 10.792525
_cell_angle_alpha 32.252927
_cell_angle_beta 148.767108
_cell_angle_gamma 133.550410
_cell_volume 711.015853
_symmetry_space_group_name_H-M "P -1"
_symmetry_group_IT_number 2
_symmetry_cell_setting 'triclinic'
loop_
_space_group_symop_operation_xyz
x,y,z
-x,-y,-z
loop_
_atom_site_type_symbol
_atom_site_label
_atom_site_fract_x
_atom_site_fract_y
_atom_site_fract_z
Si Si1 0.535644 0.040930 0.146304
Si Si2 0.141404 0.653677 0.126620
Si Si3 0.613358 0.439316 0.831667
Si Si4 0.790298 0.689611 0.260386
Si Si5 0.396433 0.291779 0.251889
Si Si6 0.096515 0.552680 0.902107
Si Si7 0.673841 0.045302 0.862572
O O1 0.643804 0.868771 0.539241
O O2 0.378885 0.060892 0.977281
O O3 0.620227 0.219134 0.093077
O O4 0.500000 0.000000 0.000000
O O5 0.245793 0.476266 0.521245
O O6 0.183064 0.852330 0.019008
O O7 0.972635 0.634502 0.950921
O O8 0.157928 0.650137 0.005229
O O9 0.500000 0.500000 0.500000
O O10 0.566725 0.535621 0.794905
O O11 0.772348 0.495526 0.958889
O O12 0.966729 0.691579 0.506115
O O13 0.736274 0.644369 0.095036
O O14 0.710525 0.893041 0.969060
O O15 0.541826 0.207687 0.466767
#
# Coordination Sequence:
#
# PCOD8016989 Si02
#       7
#     2   2   2   2   2   2   2
#     4  10  22  38  59  95 116 149 207 241 292 349
#     4   9  20  41  60  89 117 154 200 240 297 348
#     4  12  22  41  66  83 121 155 198 253 288 352
#     4  10  22  41  58  87 127 155 195 247 294 355
#     4  10  24  37  61  93 116 161 197 239 304 344
#     4   9  22  40  60  89 116 156 202 237 300 349
#     4  10  22  37  63  89 119 154 201 241 297 344
#
# _framework density 19.690137
#
# number of rings (size 3 to 8) (size 9 to 14) (size 15 to 20)
#    1.714    0.286    1.429    2.143    4.000    2.857 
#    2.571    0.714    0.000    0.000    0.000    0.000 
#    0.000    0.000    0.000    0.000    0.000    0.000 
#
# Total GULP energy -173459.135560 kJ/mol
# GULP energy per Si atom -12389.938254 kJ/mol
# Density = 1.964532 g / cm^3
# Si number density = 19.690137 Si / 1000 Ang^3
#
#
#
# Elastic Constant Matrix: (Units=GPa)
#
#
# Indices 1 2 3 4 5 6 
#
# 1 64.6308 39.7688 31.4923 10.7743 10.8756 -3.1929
# 2 39.7688 112.4836 32.9157 2.6619 -8.2269 -12.5411
# 3 31.4923 32.9157 92.3637 25.1328 -9.8039 -18.8712
# 4 10.7743 2.6619 25.1328 29.0476 -7.3803 -6.7340
# 5 10.8756 -8.2269 -9.8039 -7.3803 29.1400 5.1079
# 6 -3.1929 -12.5411 -18.8712 -6.7340 5.1079 40.1841
#
#
#
# Elastic Compliance Matrix: (Units=1/GPa)
#
#
# Indices 1 2 3 4 5 6 
#
# 1 0.028969 -0.009812 -0.006261 -0.009610 -0.017583 -0.003076
# 2 -0.009812 0.013662 -0.001957 0.006758 0.008105 0.002667
# 3 -0.006261 -0.001957 0.018108 -0.010926 0.004228 0.005027
# 4 -0.009610 0.006758 -0.010926 0.051134 0.014248 0.002972
# 5 -0.017583 0.008105 0.004228 0.014248 0.048310 -0.000635
# 6 -0.003076 0.002667 0.005027 0.002972 -0.000635 0.028413
#
#
# Mechanical properties :
#
#
# Convention : Reuss Voigt Hill
#
# Bulk Modulus (GPa) = 40.51811 53.09239 46.80525
# Shear Modulus (GPa) = 21.47014 30.69442 26.08228
#
# Velocity S-wave (km/s) = 3.30570 3.95254 3.64350
# Velocity P-wave (km/s) = 5.93235 6.91756 6.44381
#
# Compressibility (1/GPa) = 0.02468032
#
# Stress axis : x y z
#
# Youngs Moduli (GPa) = 34.51960 73.19577 55.22475
#
# Poissons Ratio (x) = 0.71816 0.34574
# Poissons Ratio (y) = 0.33869 0.10808
# Poissons Ratio (z) = 0.21611 0.14325
#
# Static dielectric constant tensor:
#      x y z
#    x 3.318020 0.039410 -0.038740 
#    y 0.039410 3.580910 -0.028970 
#    z -0.038740 -0.028970 3.391800 
# 
# 
# High freq. dielectric constant tensor:
#      x y z
#    x 1.746610 -0.003670 -0.005480 
#    y -0.003670 1.769330 0.001080 
#    z -0.005480 0.001080 1.749860 
# 
# From -- ./inp_files/471497.got.cif
#   From: 2010.06.25/outbox.cif.g09.slc.cpg/sg2_236_cif.got.tgz:471497.got - 2010.06.27 13:26:56.
