data_PCOD8016551
_publ_section_title
;
Structure prediction by ZEFSAII (Michael W. Deem and Ramdas Pophale) SiO2 
 PCOD8016551
Probable space group: P -1
;
_chemical_formula_sum "Si O2"
_cell_formula_units_Z 16
_cell_length_a 8.732847
_cell_length_b 14.698824
_cell_length_c 17.032836
_cell_angle_alpha 147.391477
_cell_angle_beta 41.193039
_cell_angle_gamma 137.386443
_cell_volume 743.207578
_symmetry_space_group_name_H-M "P -1"
_symmetry_group_IT_number 2
_symmetry_cell_setting 'triclinic'
loop_
_space_group_symop_operation_xyz
x,y,z
-x,-y,-z
loop_
_atom_site_type_symbol
_atom_site_label
_atom_site_fract_x
_atom_site_fract_y
_atom_site_fract_z
Si Si1 0.878740 0.409338 0.172578
Si Si2 0.414365 0.234342 0.654942
Si Si3 0.130595 0.904752 0.608980
Si Si4 0.220143 0.538734 0.003393
Si Si5 0.317398 0.225632 0.059618
Si Si6 0.435614 0.512325 0.344295
Si Si7 0.972087 0.072782 0.939997
Si Si8 0.767221 0.555533 0.470639
O O1 0.629564 0.422240 0.239913
O O2 0.921446 0.470695 0.291275
O O3 0.110814 0.536299 0.130467
O O4 0.868900 0.204316 0.022912
O O5 0.670865 0.201848 0.551322
O O6 0.366646 0.392478 0.839218
O O7 0.424661 0.292789 0.601356
O O8 0.195644 0.059758 0.631569
O O9 0.873519 0.767847 0.585799
O O10 0.113431 0.976279 0.755996
O O11 0.405205 0.728290 0.046482
O O12 0.000000 0.500000 0.000000
O O13 0.291560 0.394823 0.242145
O O14 0.150854 0.186203 0.018666
O O15 0.251960 0.062046 0.026328
O O16 0.242430 0.522731 0.494012
O O17 0.500000 0.500000 0.500000
#
# Coordination Sequence:
#
# PCOD8016551 Si02
#       8
#     2   2   2   2   2   2   2   2
#     4  11  23  41  70  98 130 173 224 263 328 393
#     4  10  23  39  70  96 127 178 218 262 343 381
#     4  11  23  43  66  97 140 169 215 279 328 388
#     4  11  21  43  69  97 132 175 218 268 331 390
#     4  10  23  40  66 100 133 167 220 269 329 389
#     4  10  21  45  66  96 134 173 220 267 330 392
#     4  11  24  42  65 104 132 169 220 273 331 385
#     4  10  24  44  64  99 132 176 220 261 332 397
#
# _framework density 21.528307000000002
#
# number of rings (size 3 to 8) (size 9 to 14) (size 15 to 20)
#    0.000    1.500    5.000    0.000    3.500    5.500 
#    4.500    2.500    0.000    0.000    0.000    0.000 
#    0.000    0.000    0.000    0.000    0.000    0.000 
#
# Total GULP energy -198265.973494 kJ/mol
# GULP energy per Si atom -12391.623343 kJ/mol
# Density = 2.147931 g / cm^3
# Si number density = 21.528307 Si / 1000 Ang^3
#
#
#
# Elastic Constant Matrix: (Units=GPa)
#
#
# Indices 1 2 3 4 5 6 
#
# 1 75.8565 60.7089 44.5823 5.0439 7.5779 0.0943
# 2 60.7089 213.2008 51.7669 -14.3888 13.8921 -11.8538
# 3 44.5823 51.7669 107.5173 -20.0409 17.5533 -4.9379
# 4 5.0439 -14.3888 -20.0409 35.5893 -10.7614 6.7678
# 5 7.5779 13.8921 17.5533 -10.7614 36.4206 0.3364
# 6 0.0943 -11.8538 -4.9379 6.7678 0.3364 31.5603
#
#
#
# Elastic Compliance Matrix: (Units=1/GPa)
#
#
# Indices 1 2 3 4 5 6 
#
# 1 0.023557 -0.005188 -0.009058 -0.010861 -0.001756 -0.001088
# 2 -0.005188 0.006568 -0.000345 0.002699 -0.000479 0.001855
# 3 -0.009058 -0.000345 0.015347 0.008870 -0.002764 0.000426
# 4 -0.010861 0.002699 0.008870 0.039517 0.008688 -0.006133
# 5 -0.001756 -0.000479 -0.002764 0.008688 0.031930 -0.002811
# 6 -0.001088 0.001855 0.000426 -0.006133 -0.002811 0.033797
#
#
# Mechanical properties :
#
#
# Convention : Reuss Voigt Hill
#
# Bulk Modulus (GPa) = 61.38337 78.96565 70.17451
# Shear Modulus (GPa) = 26.97948 36.68180 31.83064
#
# Velocity S-wave (km/s) = 3.54391 4.13229 3.84936
# Velocity P-wave (km/s) = 6.73205 7.71540 7.24044
#
# Compressibility (1/GPa) = 0.01629106
#
# Stress axis : x y z
#
# Youngs Moduli (GPa) = 42.45044 152.25899 65.16054
#
# Poissons Ratio (x) = 0.78985 0.59022
# Poissons Ratio (y) = 0.22021 0.02246
# Poissons Ratio (z) = 0.38451 0.05248
#
# Static dielectric constant tensor:
#      x y z
#    x 3.689210 -0.352740 0.304180 
#    y -0.352740 4.652290 -0.396610 
#    z 0.304180 -0.396610 4.153090 
# 
# 
# High freq. dielectric constant tensor:
#      x y z
#    x 1.821220 -0.014840 0.007780 
#    y -0.014840 1.874110 -0.017850 
#    z 0.007780 -0.017850 1.834090 
# 
# From -- ./inp_files/561409.got.cif
#   From: 2010.06.25/outbox.cif.g09.slc.cpg/sg2_281_cif.got.tgz:561409.got - 2010.06.27 13:26:56.
