data_PCOD8016336
_publ_section_title
;
Structure prediction by ZEFSAII (Michael W. Deem and Ramdas Pophale) SiO2 
 PCOD8016336
Probable space group: P -1
;
_chemical_formula_sum "Si O2"
_cell_formula_units_Z 16
_cell_length_a 11.236685
_cell_length_b 16.093485
_cell_length_c 9.141892
_cell_angle_alpha 117.997429
_cell_angle_beta 125.997710
_cell_angle_gamma 33.961348
_cell_volume 746.577088
_symmetry_space_group_name_H-M "P -1"
_symmetry_group_IT_number 2
_symmetry_cell_setting 'triclinic'
loop_
_space_group_symop_operation_xyz
x,y,z
-x,-y,-z
loop_
_atom_site_type_symbol
_atom_site_label
_atom_site_fract_x
_atom_site_fract_y
_atom_site_fract_z
Si Si1 0.806842 0.241670 0.844521
Si Si2 0.612808 0.043774 0.594691
Si Si3 0.621324 0.530281 0.870319
Si Si4 0.866671 0.186456 0.177631
Si Si5 0.638550 0.730311 0.145546
Si Si6 0.882294 0.494364 0.786628
Si Si7 0.451766 0.781350 0.550284
Si Si8 0.757102 0.063993 0.177512
O O1 0.733752 0.386620 0.913836
O O2 0.625709 0.268232 0.644896
O O3 0.808532 0.204316 0.979985
O O4 0.062916 0.112015 0.845843
O O5 0.510655 0.168304 0.738882
O O6 0.555971 0.115536 0.454970
O O7 0.500000 0.000000 0.500000
O O8 0.885769 0.887601 0.682833
O O9 0.341695 0.652897 0.758676
O O10 0.731849 0.487133 0.751518
O O11 0.663765 0.604064 0.057081
O O12 0.882138 0.076574 0.171171
O O13 0.894475 0.652956 0.267457
O O14 0.498979 0.834103 0.985344
O O15 0.714437 0.635529 0.674708
O O16 0.000000 0.500000 0.000000
O O17 0.270419 0.881292 0.635194
#
# Coordination Sequence:
#
# PCOD8016336 Si02
#       8
#     2   2   2   2   2   2   2   2
#     4  12  24  38  71 110 134 174 232 285 339 401
#     4  12  28  44  69 103 138 179 232 282 341 413
#     4  10  23  40  72 102 131 183 231 274 339 409
#     4  11  22  46  67  95 145 178 223 282 349 400
#     4  10  22  48  69  92 141 193 214 276 352 406
#     4  10  21  44  67  94 145 185 222 273 344 404
#     4  12  24  42  71 105 135 179 234 286 338 395
#     4  11  21  43  73  96 136 186 225 281 338 400
#
# _framework density 21.431144
#
# number of rings (size 3 to 8) (size 9 to 14) (size 15 to 20)
#    0.000    1.000    6.250    2.625    0.000    5.000 
#    0.000    1.250    0.000    0.000    0.000    0.000 
#    0.000    0.000    0.000    0.000    0.000    0.000 
#
# Total GULP energy -198346.776687 kJ/mol
# GULP energy per Si atom -12396.673543 kJ/mol
# Density = 2.138237 g / cm^3
# Si number density = 21.431144 Si / 1000 Ang^3
#
#
#
# Elastic Constant Matrix: (Units=GPa)
#
#
# Indices 1 2 3 4 5 6 
#
# 1 125.6715 77.0438 57.7028 -10.3509 -5.4636 -15.4162
# 2 77.0438 130.8197 47.2776 -16.8110 17.4299 -11.8523
# 3 57.7028 47.2776 106.3578 -23.7070 -7.4781 -1.2870
# 4 -10.3509 -16.8110 -23.7070 29.4638 -5.3537 8.7915
# 5 -5.4636 17.4299 -7.4781 -5.3537 28.9236 -7.2396
# 6 -15.4162 -11.8523 -1.2870 8.7915 -7.2396 44.0094
#
#
#
# Elastic Compliance Matrix: (Units=1/GPa)
#
#
# Indices 1 2 3 4 5 6 
#
# 1 0.016420 -0.008813 -0.005185 -0.003585 0.007713 0.005212
# 2 -0.008813 0.015391 -0.002435 0.002024 -0.011523 -0.001313
# 3 -0.005185 -0.002435 0.016382 0.012097 0.006111 -0.003404
# 4 -0.003585 0.002024 0.012097 0.047556 0.007891 -0.008559
# 5 0.007713 -0.011523 0.006111 0.007891 0.047522 0.006018
# 6 0.005212 -0.001313 -0.003404 -0.008559 0.006018 0.026795
#
#
# Mechanical properties :
#
#
# Convention : Reuss Voigt Hill
#
# Bulk Modulus (GPa) = 65.24057 80.76638 73.00348
# Shear Modulus (GPa) = 24.03392 32.53435 28.28413
#
# Velocity S-wave (km/s) = 3.35244 3.90049 3.63680
# Velocity P-wave (km/s) = 6.74486 7.61928 7.19536
#
# Compressibility (1/GPa) = 0.01532788
#
# Stress axis : x y z
#
# Youngs Moduli (GPa) = 60.90209 64.97510 61.04110
#
# Poissons Ratio (x) = 0.57259 0.31649
# Poissons Ratio (y) = 0.53670 0.14864
# Poissons Ratio (z) = 0.31576 0.15822
#
# Static dielectric constant tensor:
#      x y z
#    x 4.012150 -0.504920 -0.164810 
#    y -0.504920 4.315790 -0.205540 
#    z -0.164810 -0.205540 3.798480 
# 
# 
# High freq. dielectric constant tensor:
#      x y z
#    x 1.834280 -0.025230 -0.015350 
#    y -0.025230 1.856840 -0.014120 
#    z -0.015350 -0.014120 1.824880 
# 
# From -- ./inp_files/278180.got.cif
#   From: 2010.06.25/outbox.cif.g09.slc.cpg/sg2_140_cif.got.tgz:278180.got - 2010.06.27 13:26:56.
