data_PCOD8016167
_publ_section_title
;
Structure prediction by ZEFSAII (Michael W. Deem and Ramdas Pophale) SiO2 
 PCOD8016167
Probable space group: P -1
;
_chemical_formula_sum "Si O2"
_cell_formula_units_Z 10
_cell_length_a 9.756468
_cell_length_b 16.048882
_cell_length_c 21.803048
_cell_angle_alpha 162.198145
_cell_angle_beta 27.387068
_cell_angle_gamma 151.208022
_cell_volume 468.328514
_symmetry_space_group_name_H-M "P -1"
_symmetry_group_IT_number 2
_symmetry_cell_setting 'triclinic'
loop_
_space_group_symop_operation_xyz
x,y,z
-x,-y,-z
loop_
_atom_site_type_symbol
_atom_site_label
_atom_site_fract_x
_atom_site_fract_y
_atom_site_fract_z
Si Si1 0.314648 0.223292 0.530321
Si Si2 0.975817 0.584190 0.855305
Si Si3 0.577031 0.711750 0.206677
Si Si4 0.057383 0.896139 0.837656
Si Si5 0.585425 0.337056 0.629733
O O1 0.583327 0.078617 0.298995
O O2 0.375422 0.347204 0.661370
O O3 0.278815 0.468988 0.669119
O O4 0.000000 0.000000 0.500000
O O5 0.773249 0.388631 0.747462
O O6 0.789676 0.557491 0.974490
O O7 0.067803 0.903011 0.019378
O O8 0.596289 0.622671 0.207613
O O9 0.690135 0.044239 0.386721
O O10 0.888204 0.578498 0.671070
O O11 0.000000 0.000000 0.000000
#
# Coordination Sequence:
#
# PCOD8016167 Si02
#       5
#     2   2   2   2   2
#     4  12  25  44  73 102 134 178 232 279 331 406
#     4  11  22  44  71  97 134 182 224 271 340 403
#     4  10  21  43  71  98 137 184 219 272 345 408
#     4  12  26  47  68  99 143 178 219 288 344 386
#     4  11  23  43  71 100 138 180 224 276 342 399
#
# _framework density 21.352533000000001
#
# number of rings (size 3 to 8) (size 9 to 14) (size 15 to 20)
#    0.000    0.800    6.000    1.800    0.000    2.400 
#    0.000    0.000    0.000    0.000    0.000    0.000 
#    0.000    0.000    0.000    0.000    0.000    0.000 
#
# Total GULP energy -124019.115162 kJ/mol
# GULP energy per Si atom -12401.911516 kJ/mol
# Density = 2.130393 g / cm^3
# Si number density = 21.352533 Si / 1000 Ang^3
#
#
#
# Elastic Constant Matrix: (Units=GPa)
#
#
# Indices 1 2 3 4 5 6 
#
# 1 148.3862 44.6672 53.1241 -11.6988 6.4312 -12.1703
# 2 44.6672 115.0408 44.7607 23.7293 1.4910 4.4652
# 3 53.1241 44.7607 88.6805 10.0914 -8.2268 -7.1843
# 4 -11.6988 23.7293 10.0914 36.2879 -5.0216 7.4784
# 5 6.4312 1.4910 -8.2268 -5.0216 50.0872 6.8918
# 6 -12.1703 4.4652 -7.1843 7.4784 6.8918 34.2223
#
#
#
# Elastic Compliance Matrix: (Units=1/GPa)
#
#
# Indices 1 2 3 4 5 6 
#
# 1 0.010358 -0.003346 -0.005237 0.006335 -0.001728 0.001984
# 2 -0.003346 0.013410 -0.004043 -0.008555 -0.001262 -0.001665
# 3 -0.005237 -0.004043 0.017391 -0.004020 0.002887 0.002613
# 4 0.006335 -0.008555 -0.004020 0.038139 0.003501 -0.006514
# 5 -0.001728 -0.001262 0.002887 0.003501 0.021736 -0.004986
# 6 0.001984 -0.001665 0.002613 -0.006514 -0.004986 0.033120
#
#
# Mechanical properties :
#
#
# Convention : Reuss Voigt Hill
#
# Bulk Modulus (GPa) = 62.85858 70.80125 66.82992
# Shear Modulus (GPa) = 30.35664 38.08986 34.22325
#
# Velocity S-wave (km/s) = 3.77462 4.22815 4.00781
# Velocity P-wave (km/s) = 6.96415 7.55425 7.26519
#
# Compressibility (1/GPa) = 0.01590873
#
# Stress axis : x y z
#
# Youngs Moduli (GPa) = 96.54051 74.56986 57.50012
#
# Poissons Ratio (x) = 0.24948 0.30113
# Poissons Ratio (y) = 0.32299 0.23247
# Poissons Ratio (z) = 0.50558 0.30148
#
# Static dielectric constant tensor:
#      x y z
#    x 4.185690 -0.139700 0.039850 
#    y -0.139700 3.950160 0.175020 
#    z 0.039850 0.175020 3.932820 
# 
# 
# High freq. dielectric constant tensor:
#      x y z
#    x 1.845160 -0.017810 0.013250 
#    y -0.017810 1.829090 0.021300 
#    z 0.013250 0.021300 1.837250 
# 
# From -- ./inp_files/143906.got.cif
#   From: 2010.06.25/outbox.cif.g09.slc.cpg/sg2_72_cif.got.tgz:143906.got - 2010.06.27 13:26:56.
