data_PCOD8016797
_publ_section_title
;
Structure prediction by ZEFSAII (Michael W. Deem and Ramdas Pophale) SiO2 
 PCOD8016797
Probable space group: P -1
;
_chemical_formula_sum "Si O2"
_cell_formula_units_Z 16
_cell_length_a 11.133090
_cell_length_b 11.679947
_cell_length_c 10.394449
_cell_angle_alpha 48.012181
_cell_angle_beta 64.694670
_cell_angle_gamma 97.912264
_cell_volume 705.047125
_symmetry_space_group_name_H-M "P -1"
_symmetry_group_IT_number 2
_symmetry_cell_setting 'triclinic'
loop_
_space_group_symop_operation_xyz
x,y,z
-x,-y,-z
loop_
_atom_site_type_symbol
_atom_site_label
_atom_site_fract_x
_atom_site_fract_y
_atom_site_fract_z
Si Si1 0.503049 0.919302 0.767952
Si Si2 0.568002 0.687080 0.091585
Si Si3 0.243094 0.293529 0.419126
Si Si4 0.031238 0.672398 0.438926
Si Si5 0.853123 0.404847 0.951520
Si Si6 0.180624 0.922331 0.656170
Si Si7 0.594266 0.943854 0.080960
Si Si8 0.151807 0.295987 0.165891
O O1 0.643206 0.030876 0.506731
O O2 0.467077 0.062555 0.739846
O O3 0.583692 0.854865 0.876866
O O4 0.320134 0.720994 0.957552
O O5 0.743973 0.719892 0.978539
O O6 0.423614 0.470851 0.264180
O O7 0.545075 0.733183 0.215399
O O8 0.226188 0.303264 0.265802
O O9 0.104933 0.293918 0.557442
O O10 0.222559 0.095726 0.600650
O O11 0.000000 0.500000 0.500000
O O12 0.007655 0.596844 0.653823
O O13 0.206920 0.881023 0.166362
O O14 0.909269 0.276483 0.068062
O O15 0.824602 0.501301 0.011592
O O16 0.050895 0.886171 0.630137
O O17 0.500000 0.000000 0.000000
#
# Coordination Sequence:
#
# PCOD8016797 Si02
#       8
#     2   2   2   2   2   2   2   2
#     4  11  21  40  63  94 131 164 208 261 316 378
#     4  11  20  39  64  95 124 161 226 263 307 367
#     4  11  22  38  68  93 122 167 216 268 312 366
#     4  11  20  41  68  94 124 162 217 261 308 375
#     4  11  24  41  63  96 130 168 205 259 328 381
#     4  12  25  39  63  99 131 167 205 262 328 379
#     4  10  22  35  63  98 122 162 212 266 307 367
#     4  11  22  39  63  92 128 164 213 268 308 375
#
# _framework density 22.693518000000001
#
# number of rings (size 3 to 8) (size 9 to 14) (size 15 to 20)
#    0.000    1.000    5.000    3.750    7.000    0.000 
#    0.000    0.625    0.000    1.500    0.000    0.000 
#    0.000    0.000    0.000    0.000    0.000    0.000 
#
# Total GULP energy -198249.628360 kJ/mol
# GULP energy per Si atom -12390.601773 kJ/mol
# Density = 2.264187 g / cm^3
# Si number density = 22.693518 Si / 1000 Ang^3
#
#
#
# Elastic Constant Matrix: (Units=GPa)
#
#
# Indices 1 2 3 4 5 6 
#
# 1 64.0553 40.1162 32.6989 -1.0221 -15.6863 -24.2809
# 2 40.1162 186.9137 42.5964 -20.9207 -13.8290 -44.8605
# 3 32.6989 42.5964 65.8140 -7.9364 -14.9748 -12.2520
# 4 -1.0221 -20.9207 -7.9364 37.7896 -6.3852 -6.2143
# 5 -15.6863 -13.8290 -14.9748 -6.3852 40.0432 -5.9538
# 6 -24.2809 -44.8605 -12.2520 -6.2143 -5.9538 37.3664
#
#
#
# Elastic Compliance Matrix: (Units=1/GPa)
#
#
# Indices 1 2 3 4 5 6 
#
# 1 0.031282 0.003188 -0.008648 0.007434 0.015016 0.024948
# 2 0.003188 0.011277 -0.002376 0.010216 0.008544 0.017891
# 3 -0.008648 -0.002376 0.022770 0.004166 0.005044 0.000491
# 4 0.007434 0.010216 0.004166 0.041009 0.018741 0.028268
# 5 0.015016 0.008544 0.005044 0.018741 0.043394 0.031700
# 6 0.024948 0.017891 0.000491 0.028268 0.031700 0.074366
#
#
# Mechanical properties :
#
#
# Convention : Reuss Voigt Hill
#
# Bulk Modulus (GPa) = 20.13803 60.84509 40.49156
# Shear Modulus (GPa) = 19.50660 36.46462 27.98561
#
# Velocity S-wave (km/s) = 2.93502 4.01288 3.51550
# Velocity P-wave (km/s) = 4.51431 6.95275 5.86173
#
# Compressibility (1/GPa) = 0.04965728
#
# Stress axis : x y z
#
# Youngs Moduli (GPa) = 31.96685 88.67601 43.91718
#
# Poissons Ratio (x) = -0.28266 0.37979
# Poissons Ratio (y) = -0.10190 0.10434
# Poissons Ratio (z) = 0.27645 0.21067
#
# Static dielectric constant tensor:
#      x y z
#    x 4.194740 -0.663140 -0.661770 
#    y -0.663140 5.388950 0.420260 
#    z -0.661770 0.420260 4.530020 
# 
# 
# High freq. dielectric constant tensor:
#      x y z
#    x 1.880530 -0.024740 -0.028890 
#    y -0.024740 1.916070 -0.023070 
#    z -0.028890 -0.023070 1.867040 
# 
# From -- ./inp_files/244165.got.cif
#   From: 2010.06.25/outbox.cif.g09.slc.cpg/sg2_123_cif.got.tgz:244165.got - 2010.06.27 13:26:56.
