data_PCOD8016814
_publ_section_title
;
Structure prediction by ZEFSAII (Michael W. Deem and Ramdas Pophale) SiO2 
 PCOD8016814
Probable space group: P -1
;
_chemical_formula_sum "Si O2"
_cell_formula_units_Z 14
_cell_length_a 21.691778
_cell_length_b 5.247161
_cell_length_c 11.311435
_cell_angle_alpha 112.997157
_cell_angle_beta 35.627590
_cell_angle_gamma 107.321171
_cell_volume 689.893434
_symmetry_space_group_name_H-M "P -1"
_symmetry_group_IT_number 2
_symmetry_cell_setting 'triclinic'
loop_
_space_group_symop_operation_xyz
x,y,z
-x,-y,-z
loop_
_atom_site_type_symbol
_atom_site_label
_atom_site_fract_x
_atom_site_fract_y
_atom_site_fract_z
Si Si1 0.328260 0.580617 0.752221
Si Si2 0.596614 0.430111 0.613851
Si Si3 0.875442 0.335766 0.768677
Si Si4 0.427137 0.847482 0.997333
Si Si5 0.886396 0.689162 0.586455
Si Si6 0.513817 0.900919 0.592154
Si Si7 0.312784 0.398634 0.248616
O O1 0.329199 0.676197 0.629522
O O2 0.402911 0.744212 0.757990
O O3 0.375601 0.271432 0.612787
O O4 0.208283 0.590429 0.985098
O O5 0.664231 0.526640 0.637518
O O6 0.526127 0.165033 0.709907
O O7 0.512145 0.681376 0.747097
O O8 0.849549 0.537169 0.735476
O O9 0.992101 0.395687 0.648277
O O10 0.870114 0.017525 0.683377
O O11 0.365156 0.614089 0.119624
O O12 0.350796 0.081412 0.098926
O O13 0.500000 0.000000 0.000000
O O14 0.813412 0.586104 0.574122
O O15 0.500000 0.000000 0.500000
#
# Coordination Sequence:
#
# PCOD8016814 Si02
#       7
#     2   2   2   2   2   2   2
#     4  10  22  37  59  84 119 159 196 246 298 352
#     4  10  22  36  56  88 125 157 196 241 293 367
#     4  10  23  43  64  86 117 153 202 257 298 347
#     4  10  22  37  55  88 125 163 191 232 294 359
#     4  10  23  42  64  89 113 153 206 252 300 352
#     4   9  21  35  52  85 117 159 194 230 288 364
#     4  11  23  38  62  88 122 161 197 246 298 351
#
# _framework density 20.292987
#
# number of rings (size 3 to 8) (size 9 to 14) (size 15 to 20)
#    0.000    2.000    0.000    2.571   12.000    4.571 
#    0.000    0.714    0.000    0.857    0.000    0.000 
#    0.000    0.000    0.000    0.000    0.000    0.000 
#
# Total GULP energy -173459.187437 kJ/mol
# GULP energy per Si atom -12389.941960 kJ/mol
# Density = 2.024680 g / cm^3
# Si number density = 20.292987 Si / 1000 Ang^3
#
#
#
# Elastic Constant Matrix: (Units=GPa)
#
#
# Indices 1 2 3 4 5 6 
#
# 1 116.5813 28.6695 44.6707 -14.3225 -16.9784 33.7066
# 2 28.6695 115.7346 25.9115 -2.9405 -11.7614 15.3508
# 3 44.6707 25.9115 125.4255 -22.2803 -8.8167 27.9307
# 4 -14.3225 -2.9405 -22.2803 19.5661 -3.1221 13.2292
# 5 -16.9784 -11.7614 -8.8167 -3.1221 26.7529 2.1898
# 6 33.7066 15.3508 27.9307 13.2292 2.1898 12.9205
#
#
#
# Elastic Compliance Matrix: (Units=1/GPa)
#
#
# Indices 1 2 3 4 5 6 
#
# 1 0.006570 -0.002155 -0.006747 -0.011600 -0.001346 0.012110
# 2 -0.002155 0.009508 -0.001965 -0.003125 0.001678 0.001488
# 3 -0.006747 -0.001965 0.007008 -0.005505 -0.004393 0.011167
# 4 -0.011600 -0.003125 -0.005505 0.003510 -0.013792 0.044619
# 5 -0.001346 0.001678 -0.004393 -0.013792 0.032600 0.019610
# 6 0.012110 0.001488 0.011167 0.044619 0.019610 -0.029114
#
#
# Mechanical properties :
#
#
# Convention : Reuss Voigt Hill
#
# Bulk Modulus (GPa) = 739.33843 61.80496 400.57169
# Shear Modulus (GPa) = 95.66235 29.08056 62.37146
#
# Velocity S-wave (km/s) = 6.87335 3.78965 5.54997
# Velocity P-wave (km/s) = 20.69090 7.04777 15.45614
#
# Compressibility (1/GPa) = 0.00135256
#
# Stress axis : x y z
#
# Youngs Moduli (GPa) = 152.20091 105.17407 142.68951
#
# Poissons Ratio (x) = 0.22663 0.96272
# Poissons Ratio (y) = 0.32797 0.28042
# Poissons Ratio (z) = 1.02689 0.20669
#
# Static dielectric constant tensor:
#      x y z
#    x 3.829610 0.147330 -0.321650 
#    y 0.147330 2.831600 0.854450 
#    z -0.321650 0.854450 3.316440 
# 
# 
# High freq. dielectric constant tensor:
#      x y z
#    x 1.793270 -0.012260 0.002800 
#    y -0.012260 1.823070 0.001540 
#    z 0.002800 0.001540 1.768430 
# 
# From -- ./inp_files/70129.got.cif
#   From: 2010.06.25/outbox.cif.g09.slc.cpg/sg2_36_cif.got.tgz:70129.got - 2010.06.27 13:26:56.
