data_PCOD8016347
_publ_section_title
;
Structure prediction by ZEFSAII (Michael W. Deem and Ramdas Pophale) SiO2 
 PCOD8016347
Probable space group: P -1
;
_chemical_formula_sum "Si O2"
_cell_formula_units_Z 16
_cell_length_a 18.473099
_cell_length_b 9.376835
_cell_length_c 8.802205
_cell_angle_alpha 118.370951
_cell_angle_beta 103.529877
_cell_angle_gamma 35.750260
_cell_volume 748.922138
_symmetry_space_group_name_H-M "P -1"
_symmetry_group_IT_number 2
_symmetry_cell_setting 'triclinic'
loop_
_space_group_symop_operation_xyz
x,y,z
-x,-y,-z
loop_
_atom_site_type_symbol
_atom_site_label
_atom_site_fract_x
_atom_site_fract_y
_atom_site_fract_z
Si Si1 0.309464 0.802719 0.952077
Si Si2 0.265470 0.294011 0.653263
Si Si3 0.917338 0.797232 0.167352
Si Si4 0.113041 0.257594 0.550028
Si Si5 0.958286 0.075127 0.191028
Si Si6 0.204917 0.827403 0.192591
Si Si7 0.583975 0.789331 0.069766
Si Si8 0.569737 0.156488 0.759541
O O1 0.218339 0.839886 0.023428
O O2 0.327368 0.930590 0.129380
O O3 0.451120 0.483439 0.814080
O O4 0.230311 0.974318 0.845569
O O5 0.166911 0.330481 0.675916
O O6 0.184608 0.589585 0.691672
O O7 0.335869 0.216849 0.804644
O O8 0.364210 0.046440 0.453796
O O9 0.929889 0.774256 0.343879
O O10 0.966577 0.884899 0.178064
O O11 0.000000 0.500000 0.000000
O O12 0.000000 0.500000 0.500000
O O13 0.224014 0.960499 0.362601
O O14 0.069515 0.994815 0.272944
O O15 0.000000 0.000000 0.000000
O O16 0.322329 0.499861 0.120204
O O17 0.489058 0.881445 0.190880
O O18 0.500000 0.000000 0.000000
#
# Coordination Sequence:
#
# PCOD8016347 Si02
#       8
#     2   2   2   2   2   2   2   2
#     4  10  21  44  68 100 136 185 230 282 343 414
#     4  12  24  44  76  98 138 187 227 289 348 411
#     4  12  27  41  71 104 140 184 234 285 356 419
#     4  12  26  45  67 107 142 179 230 289 351 416
#     4  12  22  43  73 101 137 177 229 289 352 410
#     4  11  22  44  69  97 142 179 221 287 351 404
#     4  11  26  42  64 100 138 181 230 283 339 411
#     4  10  23  42  71  94 137 186 231 279 343 408
#
# _framework density 21.364038000000001
#
# number of rings (size 3 to 8) (size 9 to 14) (size 15 to 20)
#    0.000    0.750    5.000    2.625    1.750    2.500 
#    0.000    1.250    0.000    0.000    0.000    0.000 
#    0.000    0.000    0.000    0.000    0.000    0.000 
#
# Total GULP energy -198340.145086 kJ/mol
# GULP energy per Si atom -12396.259068 kJ/mol
# Density = 2.131541 g / cm^3
# Si number density = 21.364038 Si / 1000 Ang^3
#
#
#
# Elastic Constant Matrix: (Units=GPa)
#
#
# Indices 1 2 3 4 5 6 
#
# 1 111.3714 51.3159 31.9030 -6.4360 14.3687 -0.3072
# 2 51.3159 142.8860 62.2982 -8.6023 7.6757 2.3383
# 3 31.9030 62.2982 123.5525 18.6498 0.0940 15.3363
# 4 -6.4360 -8.6023 18.6498 36.0767 3.4053 -0.1795
# 5 14.3687 7.6757 0.0940 3.4053 30.7598 4.4289
# 6 -0.3072 2.3383 15.3363 -0.1795 4.4289 28.8416
#
#
#
# Elastic Compliance Matrix: (Units=1/GPa)
#
#
# Indices 1 2 3 4 5 6 
#
# 1 0.011867 -0.002709 -0.002512 0.003310 -0.005595 0.002561
# 2 -0.002709 0.011013 -0.006016 0.005498 -0.002460 0.002689
# 3 -0.002512 -0.006016 0.014222 -0.009731 0.004847 -0.007906
# 4 0.003310 0.005498 -0.009731 0.035408 -0.007696 0.006166
# 5 -0.005595 -0.002460 0.004847 -0.007696 0.037768 -0.008285
# 6 0.002561 0.002689 -0.007906 0.006166 -0.008285 0.039996
#
#
# Mechanical properties :
#
#
# Convention : Reuss Voigt Hill
#
# Bulk Modulus (GPa) = 68.35227 74.31600 71.33414
# Shear Modulus (GPa) = 28.14947 34.62180 31.38563
#
# Velocity S-wave (km/s) = 3.63383 4.02999 3.83703
# Velocity P-wave (km/s) = 7.04768 7.51768 7.28647
#
# Compressibility (1/GPa) = 0.01463009
#
# Stress axis : x y z
#
# Youngs Moduli (GPa) = 84.26885 90.79843 70.31274
#
# Poissons Ratio (x) = 0.24595 0.17661
# Poissons Ratio (y) = 0.22827 0.42298
# Poissons Ratio (z) = 0.21166 0.54621
#
# Static dielectric constant tensor:
#      x y z
#    x 4.317750 -0.095330 0.186080 
#    y -0.095330 3.921200 0.168340 
#    z 0.186080 0.168340 3.909470 
# 
# 
# High freq. dielectric constant tensor:
#      x y z
#    x 1.848340 -0.004940 0.013110 
#    y -0.004940 1.832260 0.013240 
#    z 0.013110 0.013240 1.841990 
# 
# From -- ./inp_files/245436.got.cif
#   From: 2010.06.25/outbox.cif.g09.slc.cpg/sg2_123_cif.got.tgz:245436.got - 2010.06.27 13:26:56.
