data_PCOD8016357
_publ_section_title
;
Structure prediction by ZEFSAII (Michael W. Deem and Ramdas Pophale) SiO2 
 PCOD8016357
Probable space group: P -1
;
_chemical_formula_sum "Si O2"
_cell_formula_units_Z 14
_cell_length_a 7.030586
_cell_length_b 16.987411
_cell_length_c 10.480094
_cell_angle_alpha 42.159031
_cell_angle_beta 66.057148
_cell_angle_gamma 52.429476
_cell_volume 663.352632
_symmetry_space_group_name_H-M "P -1"
_symmetry_group_IT_number 2
_symmetry_cell_setting 'triclinic'
loop_
_space_group_symop_operation_xyz
x,y,z
-x,-y,-z
loop_
_atom_site_type_symbol
_atom_site_label
_atom_site_fract_x
_atom_site_fract_y
_atom_site_fract_z
Si Si1 0.751051 0.487530 0.905037
Si Si2 0.212895 0.957363 0.397256
Si Si3 0.236847 0.215073 0.117819
Si Si4 0.691053 0.766511 0.640464
Si Si5 0.476020 0.683974 0.237639
Si Si6 0.866909 0.209988 0.581477
Si Si7 0.420296 0.474293 0.361882
O O1 0.788320 0.605380 0.813967
O O2 0.764927 0.497344 0.735659
O O3 0.500000 0.500000 0.000000
O O4 0.970751 0.342247 0.060987
O O5 0.452002 0.834327 0.540130
O O6 0.144762 0.911186 0.340760
O O7 0.234215 0.088713 0.206280
O O8 0.000000 0.000000 0.500000
O O9 0.361340 0.174732 0.271793
O O10 0.395049 0.239964 0.943670
O O11 0.871567 0.805717 0.474792
O O12 0.221074 0.787803 0.250916
O O13 0.428876 0.610708 0.220570
O O14 0.651788 0.572512 0.430258
O O15 0.684818 0.354146 0.389831
#
# Coordination Sequence:
#
# PCOD8016357 Si02
#       7
#     2   2   2   2   2   2   2
#     4  12  23  39  67 105 129 167 230 282 313 382
#     4  12  25  45  67  96 135 174 219 271 329 395
#     4  12  25  39  66 101 131 170 225 271 329 385
#     4  12  23  44  72  90 129 181 218 264 342 380
#     4   9  21  42  64  96 135 170 218 272 328 389
#     4  10  21  44  68  92 128 178 216 261 324 404
#     4   9  19  42  66  90 141 166 208 271 334 373
#
# _framework density 21.104914000000001
#
# number of rings (size 3 to 8) (size 9 to 14) (size 15 to 20)
#    0.857    0.286    2.857    4.286    0.000    1.143 
#    2.571    0.714    0.000    0.000    0.000    0.000 
#    0.000    0.000    0.000    0.000    0.000    0.000 
#
# Total GULP energy -173575.286866 kJ/mol
# GULP energy per Si atom -12398.234776 kJ/mol
# Density = 2.105688 g / cm^3
# Si number density = 21.104914 Si / 1000 Ang^3
#
#
#
# Elastic Constant Matrix: (Units=GPa)
#
#
# Indices 1 2 3 4 5 6 
#
# 1 86.5505 38.3550 31.2560 4.2829 -24.1295 10.6894
# 2 38.3550 101.9980 34.2338 -1.0000 -22.2888 14.5797
# 3 31.2560 34.2338 89.1560 8.2164 -32.9436 -0.8630
# 4 4.2829 -1.0000 8.2164 41.1489 -0.3521 -8.0384
# 5 -24.1295 -22.2888 -32.9436 -0.3521 39.7773 -10.3035
# 6 10.6894 14.5797 -0.8630 -8.0384 -10.3035 42.1576
#
#
#
# Elastic Compliance Matrix: (Units=1/GPa)
#
#
# Indices 1 2 3 4 5 6 
#
# 1 0.015746 -0.003884 -0.001927 -0.001635 0.005325 -0.001699
# 2 -0.003884 0.013130 -0.003209 0.000773 0.001548 -0.003096
# 3 -0.001927 -0.003209 0.018379 -0.002496 0.013473 0.004792
# 4 -0.001635 0.000773 -0.002496 0.025907 -0.001166 0.004751
# 5 0.005325 0.001548 0.013473 -0.001166 0.042609 0.008582
# 6 -0.001699 -0.003096 0.004792 0.004751 0.008582 0.028323
#
#
# Mechanical properties :
#
#
# Convention : Reuss Voigt Hill
#
# Bulk Modulus (GPa) = 34.22866 53.93268 44.08067
# Shear Modulus (GPa) = 29.09099 36.20739 32.64919
#
# Velocity S-wave (km/s) = 3.71671 4.14646 3.93745
# Velocity P-wave (km/s) = 5.88830 6.96665 6.45005
#
# Compressibility (1/GPa) = 0.02921529
#
# Stress axis : x y z
#
# Youngs Moduli (GPa) = 63.50660 76.16036 54.40981
#
# Poissons Ratio (x) = 0.29580 0.10485
# Poissons Ratio (y) = 0.24666 0.17461
# Poissons Ratio (z) = 0.12239 0.24441
#
# Static dielectric constant tensor:
#      x y z
#    x 3.614520 0.051040 0.003080 
#    y 0.051040 3.694150 0.017830 
#    z 0.003080 0.017830 3.600470 
# 
# 
# High freq. dielectric constant tensor:
#      x y z
#    x 1.824090 0.015260 -0.012520 
#    y 0.015260 1.830130 0.001170 
#    z -0.012520 0.001170 1.816190 
# 
# From -- ./inp_files/369294.got.cif
#   From: 2010.06.25/outbox.cif.g09.slc.cpg/sg2_185_cif.got.tgz:369294.got - 2010.06.27 13:26:56.
