data_PCOD8016966
_publ_section_title
;
Structure prediction by ZEFSAII (Michael W. Deem and Ramdas Pophale) SiO2 
 PCOD8016966
Probable space group: P -1
;
_chemical_formula_sum "Si O2"
_cell_formula_units_Z 16
_cell_length_a 12.249936
_cell_length_b 17.454773
_cell_length_c 20.760176
_cell_angle_alpha 19.110194
_cell_angle_beta 149.904852
_cell_angle_gamma 150.235451
_cell_volume 693.291401
_symmetry_space_group_name_H-M "P -1"
_symmetry_group_IT_number 2
_symmetry_cell_setting 'triclinic'
loop_
_space_group_symop_operation_xyz
x,y,z
-x,-y,-z
loop_
_atom_site_type_symbol
_atom_site_label
_atom_site_fract_x
_atom_site_fract_y
_atom_site_fract_z
Si Si1 0.782314 0.664043 0.945274
Si Si2 0.208852 0.893326 0.155917
Si Si3 0.132589 0.536849 0.142098
Si Si4 0.050799 0.848412 0.744369
Si Si5 0.856915 0.615224 0.286749
Si Si6 0.394593 0.181582 0.387790
Si Si7 0.425535 0.337029 0.529295
Si Si8 0.398200 0.173822 0.158886
O O1 0.732671 0.855886 0.716438
O O2 0.801203 0.769256 0.944248
O O3 0.569140 0.419691 0.022628
O O4 0.016674 0.611278 0.087497
O O5 0.298783 0.986741 0.199388
O O6 0.383609 0.787409 0.292282
O O7 0.165345 0.117335 0.914765
O O8 0.976467 0.671267 0.231619
O O9 0.374920 0.503108 0.313755
O O10 0.952103 0.291247 0.214092
O O11 0.187756 0.747977 0.948422
O O12 0.785649 0.794591 0.669398
O O13 0.180498 0.135077 0.575889
O O14 0.606932 0.428404 0.300931
O O15 0.000000 0.500000 0.500000
O O16 0.466394 0.942075 0.629028
O O17 0.500000 0.500000 0.500000
#
# Coordination Sequence:
#
# PCOD8016966 Si02
#       8
#     2   2   2   2   2   2   2   2
#     4  10  22  37  62 100 137 163 222 278 334 399
#     4  11  25  44  67  93 132 181 225 265 337 413
#     4  10  22  42  70 102 131 183 227 282 335 401
#     4  10  23  42  75 100 131 181 235 279 334 407
#     4  11  24  43  68  97 130 175 225 278 334 399
#     4  11  21  41  66 100 130 169 224 279 334 390
#     4  12  27  47  68 101 143 181 224 283 344 408
#     4  11  20  37  65  93 130 173 212 278 332 393
#
# _framework density 23.078319
#
# number of rings (size 3 to 8) (size 9 to 14) (size 15 to 20)
#    0.000    1.250    2.500    3.000    3.500    2.500 
#    6.750    0.000    0.000    0.000    0.000    0.000 
#    0.000    0.000    0.000    0.000    0.000    0.000 
#
# Total GULP energy -198349.691683 kJ/mol
# GULP energy per Si atom -12396.855730 kJ/mol
# Density = 2.302579 g / cm^3
# Si number density = 23.078319 Si / 1000 Ang^3
#
#
#
# Elastic Constant Matrix: (Units=GPa)
#
#
# Indices 1 2 3 4 5 6 
#
# 1 121.5507 36.7640 49.8708 2.6510 21.5896 -5.6090
# 2 36.7640 58.9674 12.9829 -2.4409 8.9431 9.0422
# 3 49.8708 12.9829 149.7323 17.9654 10.0203 1.7552
# 4 2.6510 -2.4409 17.9654 24.2030 4.6914 5.0891
# 5 21.5896 8.9431 10.0203 4.6914 32.9388 -1.5276
# 6 -5.6090 9.0422 1.7552 5.0891 -1.5276 34.5104
#
#
#
# Elastic Compliance Matrix: (Units=1/GPa)
#
#
# Indices 1 2 3 4 5 6 
#
# 1 0.012878 -0.006995 -0.003449 0.000704 -0.005419 0.003758
# 2 -0.006995 0.023237 -0.000048 0.005412 -0.002858 -0.008148
# 3 -0.003449 -0.000048 0.008521 -0.006043 0.000539 -0.000067
# 4 0.000704 0.005412 -0.006043 0.049551 -0.007551 -0.008638
# 5 -0.005419 -0.002858 0.000539 -0.007551 0.035716 0.002535
# 6 0.003758 -0.008148 -0.000067 -0.008638 0.002535 0.033112
#
#
# Mechanical properties :
#
#
# Convention : Reuss Voigt Hill
#
# Bulk Modulus (GPa) = 42.27662 58.83175 50.55419
# Shear Modulus (GPa) = 26.05765 33.70595 29.88180
#
# Velocity S-wave (km/s) = 3.36385 3.82580 3.60224
# Velocity P-wave (km/s) = 5.78324 6.71291 6.26534
#
# Compressibility (1/GPa) = 0.02365374
#
# Stress axis : x y z
#
# Youngs Moduli (GPa) = 77.65092 43.03474 117.35599
#
# Poissons Ratio (x) = 0.30103 0.40472
# Poissons Ratio (y) = 0.54317 0.00559
# Poissons Ratio (z) = 0.26779 0.00205
#
# Static dielectric constant tensor:
#      x y z
#    x 4.152750 0.102160 -0.059490 
#    y 0.102160 3.883540 0.077850 
#    z -0.059490 0.077850 4.543850 
# 
# 
# High freq. dielectric constant tensor:
#      x y z
#    x 1.909710 0.004910 -0.004790 
#    y 0.004910 1.889610 0.008600 
#    z -0.004790 0.008600 1.935650 
# 
# From -- ./inp_files/595978.got.cif
#   From: 2010.06.25/outbox.cif.g09.slc.cpg/sg2_298_cif.got.tgz:595978.got - 2010.06.27 13:26:56.
