data_PCOD8016789
_publ_section_title
;
Structure prediction by ZEFSAII (Michael W. Deem and Ramdas Pophale) SiO2 
 PCOD8016789
Probable space group: P -1
;
_chemical_formula_sum "Si O2"
_cell_formula_units_Z 14
_cell_length_a 14.108422
_cell_length_b 11.422343
_cell_length_c 12.131759
_cell_angle_alpha 105.539877
_cell_angle_beta 75.210907
_cell_angle_gamma 159.592049
_cell_volume 656.757645
_symmetry_space_group_name_H-M "P -1"
_symmetry_group_IT_number 2
_symmetry_cell_setting 'triclinic'
loop_
_space_group_symop_operation_xyz
x,y,z
-x,-y,-z
loop_
_atom_site_type_symbol
_atom_site_label
_atom_site_fract_x
_atom_site_fract_y
_atom_site_fract_z
Si Si1 0.428326 0.279415 0.480387
Si Si2 0.630869 0.563876 0.712169
Si Si3 0.187820 0.372799 0.126281
Si Si4 0.210485 0.615007 0.857670
Si Si5 0.829787 0.386821 0.877288
Si Si6 0.045411 0.215813 0.653750
Si Si7 0.358265 0.401194 0.917265
O O1 0.500000 0.500000 0.500000
O O2 0.424800 0.261345 0.610010
O O3 0.660969 0.464380 0.406126
O O4 0.139232 0.924339 0.416464
O O5 0.640722 0.471247 0.778995
O O6 0.522244 0.567718 0.797036
O O7 0.910506 0.930698 0.660866
O O8 0.119146 0.435428 0.168766
O O9 0.333493 0.512056 0.998024
O O10 0.931600 0.990875 0.116769
O O11 0.061745 0.555858 0.824709
O O12 0.089709 0.350109 0.781372
O O13 0.532732 0.992206 0.837340
O O14 0.139162 0.536312 0.986853
O O15 0.500000 0.500000 0.000000
#
# Coordination Sequence:
#
# PCOD8016789 Si02
#       7
#     2   2   2   2   2   2   2
#     4  10  22  38  59  90 121 155 196 245 296 352
#     4  10  22  35  60  89 120 154 190 242 310 349
#     4  10  22  36  58  88 123 155 189 246 294 363
#     4  10  23  40  61  85 113 164 194 242 287 340
#     4  10  23  40  60  86 118 152 205 233 289 354
#     4  11  23  39  63  87 122 154 200 248 289 353
#     4   9  21  34  52  92 119 157 185 230 306 362
#
# _framework density 21.316844
#
# number of rings (size 3 to 8) (size 9 to 14) (size 15 to 20)
#    0.000    2.000    0.000    2.571   16.000    2.286 
#    0.000    0.000    0.000    5.143    0.000    0.000 
#    0.000    0.000    0.000    0.000    0.000    0.000 
#
# Total GULP energy -173448.405426 kJ/mol
# GULP energy per Si atom -12389.171816 kJ/mol
# Density = 2.126833 g / cm^3
# Si number density = 21.316844 Si / 1000 Ang^3
#
#
#
# Elastic Constant Matrix: (Units=GPa)
#
#
# Indices 1 2 3 4 5 6 
#
# 1 91.8403 26.0885 25.8695 3.4339 3.1823 12.0160
# 2 26.0885 45.7303 27.4288 17.4638 5.9252 23.3563
# 3 25.8695 27.4288 93.0855 11.5131 6.0315 10.4707
# 4 3.4339 17.4638 11.5131 32.0730 3.1931 -2.3724
# 5 3.1823 5.9252 6.0315 3.1931 25.7726 -2.2512
# 6 12.0160 23.3563 10.4707 -2.3724 -2.2512 38.6205
#
#
#
# Elastic Compliance Matrix: (Units=1/GPa)
#
#
# Indices 1 2 3 4 5 6 
#
# 1 0.013676 -0.009907 -0.001791 0.004697 0.000649 0.002548
# 2 -0.009907 0.064915 -0.007399 -0.033254 -0.011069 -0.036858
# 3 -0.001791 -0.007399 0.013388 -0.000384 -0.001048 0.001317
# 4 0.004697 -0.033254 -0.000384 0.050265 0.002850 0.022007
# 5 0.000649 -0.011069 -0.001048 0.002850 0.041979 0.009399
# 6 0.002548 -0.036858 0.001317 0.022007 0.009399 0.048933
#
#
# Mechanical properties :
#
#
# Convention : Reuss Voigt Hill
#
# Bulk Modulus (GPa) = 18.59231 43.26996 30.93114
# Shear Modulus (GPa) = 17.28450 29.37785 23.33117
#
# Velocity S-wave (km/s) = 2.85061 3.71637 3.31190
# Velocity P-wave (km/s) = 4.42442 6.22558 5.40061
#
# Compressibility (1/GPa) = 0.05378568
#
# Stress axis : x y z
#
# Youngs Moduli (GPa) = 73.12296 15.40476 74.69444
#
# Poissons Ratio (x) = 0.15261 0.13378
# Poissons Ratio (y) = 0.72440 0.55264
# Poissons Ratio (z) = 0.13097 0.11397
#
# Static dielectric constant tensor:
#      x y z
#    x 4.166960 0.730260 0.509850 
#    y 0.730260 3.880190 0.765540 
#    z 0.509850 0.765540 7.157080 
# 
# 
# High freq. dielectric constant tensor:
#      x y z
#    x 1.828180 0.039080 0.000620 
#    y 0.039080 1.810780 0.015220 
#    z 0.000620 0.015220 1.837420 
# 
# From -- ./inp_files/62666.got.cif
#   From: 2010.06.25/outbox.cif.g09.slc.cpg/sg2_32_cif.got.tgz:62666.got - 2010.06.27 13:26:56.
