data_PCOD8016375
_publ_section_title
;
Structure prediction by ZEFSAII (Michael W. Deem and Ramdas Pophale) SiO2 
 PCOD8016375
Probable space group: P -1
;
_chemical_formula_sum "Si O2"
_cell_formula_units_Z 14
_cell_length_a 12.119432
_cell_length_b 12.989973
_cell_length_c 8.788879
_cell_angle_alpha 56.955561
_cell_angle_beta 71.952342
_cell_angle_gamma 118.746729
_cell_volume 638.400499
_symmetry_space_group_name_H-M "P -1"
_symmetry_group_IT_number 2
_symmetry_cell_setting 'triclinic'
loop_
_space_group_symop_operation_xyz
x,y,z
-x,-y,-z
loop_
_atom_site_type_symbol
_atom_site_label
_atom_site_fract_x
_atom_site_fract_y
_atom_site_fract_z
Si Si1 0.373694 0.998355 0.632984
Si Si2 0.396511 0.887388 0.292511
Si Si3 0.726734 0.650427 0.286665
Si Si4 0.546316 0.803378 0.839599
Si Si5 0.115276 0.039338 0.279425
Si Si6 0.928360 0.580867 0.247088
Si Si7 0.864288 0.649086 0.511884
O O1 0.461761 0.085470 0.695466
O O2 0.409869 0.155481 0.394624
O O3 0.500000 0.000000 0.500000
O O4 0.137502 0.764025 0.921081
O O5 0.175945 0.639659 0.561591
O O6 0.374293 0.997415 0.296428
O O7 0.500000 0.000000 0.000000
O O8 0.500000 0.500000 0.500000
O O9 0.769680 0.549709 0.284534
O O10 0.791249 0.702489 0.395939
O O11 0.865735 0.858740 0.958578
O O12 0.665416 0.800121 0.878296
O O13 0.314128 0.579298 0.147730
O O14 0.006634 0.821041 0.446166
O O15 0.000000 0.000000 0.500000
O O16 0.972676 0.643470 0.358393
#
# Coordination Sequence:
#
# PCOD8016375 Si02
#       7
#     2   2   2   2   2   2   2
#     4  10  25  42  63  97 140 175 225 277 335 399
#     4  11  23  43  73 101 132 177 230 277 333 412
#     4  10  21  44  68  98 137 175 231 278 333 405
#     4  11  24  45  63 101 139 173 225 282 336 402
#     4  12  25  43  67  99 134 179 226 280 343 404
#     4  10  23  42  71 101 132 186 222 280 343 395
#     4  10  24  43  67  96 135 178 225 279 333 399
#
# _framework density 21.929808000000001
#
# number of rings (size 3 to 8) (size 9 to 14) (size 15 to 20)
#    0.857    0.571    2.857    1.286    2.000    8.000 
#    2.571    0.000    0.000    0.000    0.000    0.000 
#    0.000    0.000    0.000    0.000    0.000    0.000 
#
# Total GULP energy -173471.459266 kJ/mol
# GULP energy per Si atom -12390.818519 kJ/mol
# Density = 2.187990 g / cm^3
# Si number density = 21.929808 Si / 1000 Ang^3
#
#
#
# Elastic Constant Matrix: (Units=GPa)
#
#
# Indices 1 2 3 4 5 6 
#
# 1 57.3319 12.6542 30.3228 8.2022 -4.5078 6.4074
# 2 12.6542 84.5430 43.7750 0.3365 8.9929 1.6048
# 3 30.3228 43.7750 179.8621 4.8976 1.8080 3.7805
# 4 8.2022 0.3365 4.8976 28.6425 5.7266 12.2747
# 5 -4.5078 8.9929 1.8080 5.7266 43.0862 5.9474
# 6 6.4074 1.6048 3.7805 12.2747 5.9474 31.5520
#
#
#
# Elastic Compliance Matrix: (Units=1/GPa)
#
#
# Indices 1 2 3 4 5 6 
#
# 1 0.020680 -0.001941 -0.002861 -0.005090 0.003707 -0.002477
# 2 -0.001941 0.014062 -0.003106 0.001540 -0.003221 0.000059
# 3 -0.002861 -0.003106 0.006806 -0.000345 0.000104 0.000038
# 4 -0.005090 0.001540 -0.000345 0.043837 -0.004568 -0.015196
# 5 0.003707 -0.003221 0.000104 -0.004568 0.025370 -0.003606
# 6 -0.002477 0.000059 0.000038 -0.015196 -0.003606 0.038781
#
#
# Mechanical properties :
#
#
# Convention : Reuss Voigt Hill
#
# Bulk Modulus (GPa) = 38.86151 55.02678 46.94415
# Shear Modulus (GPa) = 28.74727 36.32181 32.53454
#
# Velocity S-wave (km/s) = 3.62453 4.07415 3.85590
# Velocity P-wave (km/s) = 5.93933 6.87592 6.42472
#
# Compressibility (1/GPa) = 0.02573240
#
# Stress axis : x y z
#
# Youngs Moduli (GPa) = 48.35539 71.11121 146.93803
#
# Poissons Ratio (x) = 0.13805 0.42033
# Poissons Ratio (y) = 0.09387 0.45640
# Poissons Ratio (z) = 0.13833 0.22088
#
# Static dielectric constant tensor:
#      x y z
#    x 4.153140 0.368570 0.259620 
#    y 0.368570 3.616580 0.110020 
#    z 0.259620 0.110020 4.020670 
# 
# 
# High freq. dielectric constant tensor:
#      x y z
#    x 1.855830 0.014760 0.006830 
#    y 0.014760 1.843210 0.007980 
#    z 0.006830 0.007980 1.878580 
# 
# From -- ./inp_files/269591.got.cif
#   From: 2010.06.25/outbox.cif.g09.slc.cpg/sg2_135_cif.got.tgz:269591.got - 2010.06.27 13:26:56.
