data_PCOD8016405
_publ_section_title
;
Structure prediction by ZEFSAII (Michael W. Deem and Ramdas Pophale) SiO2 
 PCOD8016405
Probable space group: P -1
;
_chemical_formula_sum "Si O2"
_cell_formula_units_Z 16
_cell_length_a 8.712623
_cell_length_b 15.715284
_cell_length_c 12.255705
_cell_angle_alpha 28.721905
_cell_angle_beta 67.972018
_cell_angle_gamma 79.154612
_cell_volume 709.247985
_symmetry_space_group_name_H-M "P -1"
_symmetry_group_IT_number 2
_symmetry_cell_setting 'triclinic'
loop_
_space_group_symop_operation_xyz
x,y,z
-x,-y,-z
loop_
_atom_site_type_symbol
_atom_site_label
_atom_site_fract_x
_atom_site_fract_y
_atom_site_fract_z
Si Si1 0.689148 0.047362 0.081608
Si Si2 0.885519 0.312980 0.556082
Si Si3 0.694680 0.990718 0.807623
Si Si4 0.496544 0.413389 0.980329
Si Si5 0.705289 0.599620 0.329365
Si Si6 0.668920 0.124901 0.251008
Si Si7 0.754215 0.670398 0.478786
Si Si8 0.199013 0.044099 0.417609
O O1 0.769423 0.884714 0.216789
O O2 0.503557 0.018829 0.104609
O O3 0.684338 0.063788 0.193463
O O4 0.818080 0.230640 0.785728
O O5 0.814905 0.489721 0.354431
O O6 0.095336 0.364229 0.445833
O O7 0.820213 0.166231 0.640482
O O8 0.715492 0.017717 0.641316
O O9 0.739964 0.805232 0.039012
O O10 0.559334 0.574307 0.690865
O O11 0.500000 0.500000 0.000000
O O12 0.658245 0.331459 0.023090
O O13 0.309203 0.260329 0.174833
O O14 0.500000 0.500000 0.500000
O O15 0.773147 0.595799 0.438115
O O16 0.500000 0.000000 0.500000
O O17 0.820921 0.095935 0.316791
O O18 0.000000 0.000000 0.500000
#
# Coordination Sequence:
#
# PCOD8016405 Si02
#       8
#     2   2   2   2   2   2   2   2
#     4  12  22  45  72  98 144 192 241 284 365 433
#     4  12  27  44  70 111 142 190 239 296 366 431
#     4  12  25  45  71 103 145 190 238 291 366 433
#     4  11  24  45  71 103 136 185 243 294 359 424
#     4  12  24  45  70 103 145 187 237 294 365 424
#     4  10  21  44  69  98 133 188 234 286 354 422
#     4  12  26  43  71 104 145 183 238 306 356 430
#     4  11  26  46  73 102 138 185 237 297 360 424
#
# _framework density 22.559104999999999
#
# number of rings (size 3 to 8) (size 9 to 14) (size 15 to 20)
#    0.000    0.500    5.000    4.875    3.500    1.000 
#    0.000    0.625    0.000    0.000    0.000    0.000 
#    0.000    0.000    0.000    0.000    0.000    0.000 
#
# Total GULP energy -198314.114117 kJ/mol
# GULP energy per Si atom -12394.632132 kJ/mol
# Density = 2.250776 g / cm^3
# Si number density = 22.559105 Si / 1000 Ang^3
#
#
#
# Elastic Constant Matrix: (Units=GPa)
#
#
# Indices 1 2 3 4 5 6 
#
# 1 142.9869 29.7678 32.2080 -22.4154 -3.6232 5.1040
# 2 29.7678 129.9150 37.1527 -15.7174 -2.9354 23.1345
# 3 32.2080 37.1527 65.4373 -7.5519 2.9375 6.0776
# 4 -22.4154 -15.7174 -7.5519 44.1015 -4.5628 11.1408
# 5 -3.6232 -2.9354 2.9375 -4.5628 34.9653 -0.9119
# 6 5.1040 23.1345 6.0776 11.1408 -0.9119 41.3082
#
#
#
# Elastic Compliance Matrix: (Units=1/GPa)
#
#
# Indices 1 2 3 4 5 6 
#
# 1 0.008601 -0.000094 -0.003612 0.004301 0.001706 -0.001601
# 2 -0.000094 0.010993 -0.005095 0.004869 0.001803 -0.006669
# 3 -0.003612 -0.005095 0.019951 -0.000619 -0.002546 0.000475
# 4 0.004301 0.004869 -0.000619 0.029758 0.004500 -0.011094
# 5 0.001706 0.001803 -0.002546 0.004500 0.029693 -0.001404
# 6 -0.001601 -0.006669 0.000475 -0.011094 -0.001404 0.031032
#
#
# Mechanical properties :
#
#
# Convention : Reuss Voigt Hill
#
# Bulk Modulus (GPa) = 45.56995 59.62180 52.59588
# Shear Modulus (GPa) = 32.26960 40.02238 36.14599
#
# Velocity S-wave (km/s) = 3.78623 4.21659 4.00719
# Velocity P-wave (km/s) = 6.27361 7.08468 6.69144
#
# Compressibility (1/GPa) = 0.02194429
#
# Stress axis : x y z
#
# Youngs Moduli (GPa) = 116.26038 90.96507 50.12284
#
# Poissons Ratio (x) = 0.00855 0.18103
# Poissons Ratio (y) = 0.01093 0.25537
# Poissons Ratio (z) = 0.41990 0.46346
#
# Static dielectric constant tensor:
#      x y z
#    x 5.219890 0.044530 0.934920 
#    y 0.044530 3.922380 -0.302950 
#    z 0.934920 -0.302950 4.203850 
# 
# 
# High freq. dielectric constant tensor:
#      x y z
#    x 1.894830 0.003190 0.008280 
#    y 0.003190 1.897200 0.000640 
#    z 0.008280 0.000640 1.890510 
# 
# From -- ./inp_files/398101.got.cif
#   From: 2010.06.25/outbox.cif.g09.slc.cpg/sg2_200_cif.got.tgz:398101.got - 2010.06.27 13:26:56.
