data_PCOD8016164
_publ_section_title
;
Structure prediction by ZEFSAII (Michael W. Deem and Ramdas Pophale) SiO2 
 PCOD8016164
Probable space group: P -1
;
_chemical_formula_sum "Si O2"
_cell_formula_units_Z 16
_cell_length_a 14.945268
_cell_length_b 9.585716
_cell_length_c 8.868371
_cell_angle_alpha 117.371833
_cell_angle_beta 70.783323
_cell_angle_gamma 138.069249
_cell_volume 753.754578
_symmetry_space_group_name_H-M "P -1"
_symmetry_group_IT_number 2
_symmetry_cell_setting 'triclinic'
loop_
_space_group_symop_operation_xyz
x,y,z
-x,-y,-z
loop_
_atom_site_type_symbol
_atom_site_label
_atom_site_fract_x
_atom_site_fract_y
_atom_site_fract_z
Si Si1 0.134956 0.222306 0.466316
Si Si2 0.592250 0.478882 0.016353
Si Si3 0.954988 0.509141 0.692173
Si Si4 0.482679 0.011067 0.841333
Si Si5 0.369268 0.352280 0.597142
Si Si6 0.120723 0.218299 0.130379
Si Si7 0.787119 0.330687 0.331648
Si Si8 0.307296 0.926419 0.434092
O O1 0.256489 0.293477 0.526559
O O2 0.135154 0.167544 0.265430
O O3 0.144638 0.420563 0.565764
O O4 0.000000 0.000000 0.500000
O O5 0.597152 0.501872 0.205010
O O6 0.500000 0.500000 0.000000
O O7 0.530615 0.240364 0.884588
O O8 0.743425 0.667681 0.971066
O O9 0.907526 0.630859 0.778938
O O10 0.825084 0.254002 0.687474
O O11 0.000000 0.500000 0.500000
O O12 0.090730 0.640387 0.778959
O O13 0.561751 0.978932 0.679077
O O14 0.324829 0.804356 0.800815
O O15 0.500000 0.000000 0.000000
O O16 0.500000 0.500000 0.500000
O O17 0.324772 0.128455 0.566677
O O18 0.000000 0.000000 0.000000
O O19 0.715318 0.197319 0.461402
#
# Coordination Sequence:
#
# PCOD8016164 Si02
#       8
#     2   2   2   2   2   2   2   2
#     4  12  24  44  69 104 139 177 227 288 348 407
#     4  12  26  46  69 103 142 182 229 288 343 407
#     4  10  21  43  71  98 127 174 243 270 322 412
#     4  12  25  43  67 101 141 172 223 293 346 392
#     4  12  26  44  71 102 141 181 228 284 353 408
#     4  12  26  44  71 105 139 179 233 289 344 409
#     4  11  23  42  75  95 128 187 237 265 331 425
#     4  11  22  45  72  95 131 184 234 273 327 427
#
# _framework density 21.227067999999999
#
# number of rings (size 3 to 8) (size 9 to 14) (size 15 to 20)
#    0.000    0.500    3.750    5.625    7.000    0.000 
#    0.000    0.625    0.000    0.000    0.000    0.000 
#    0.000    0.000    0.000    0.000    0.000    0.000 
#
# Total GULP energy -198406.377463 kJ/mol
# GULP energy per Si atom -12400.398591 kJ/mol
# Density = 2.117875 g / cm^3
# Si number density = 21.227068 Si / 1000 Ang^3
#
#
#
# Elastic Constant Matrix: (Units=GPa)
#
#
# Indices 1 2 3 4 5 6 
#
# 1 146.0527 31.3631 40.6264 -6.6245 5.7933 28.6822
# 2 31.3631 103.1332 17.6451 -1.4629 2.5526 12.7081
# 3 40.6264 17.6451 95.5182 -3.7590 9.7714 11.0195
# 4 -6.6245 -1.4629 -3.7590 36.6128 2.1050 -1.0131
# 5 5.7933 2.5526 9.7714 2.1050 42.3831 5.4023
# 6 28.6822 12.7081 11.0195 -1.0131 5.4023 51.8273
#
#
#
# Elastic Compliance Matrix: (Units=1/GPa)
#
#
# Indices 1 2 3 4 5 6 
#
# 1 0.008836 -0.001693 -0.002961 0.001121 0.000009 -0.003824
# 2 -0.001693 0.010570 -0.001071 -0.000035 0.000026 -0.001430
# 3 -0.002961 -0.001071 0.012248 0.000801 -0.002338 -0.000444
# 4 0.001121 -0.000035 0.000801 0.027693 -0.001703 -0.000063
# 5 0.000009 0.000026 -0.002338 -0.001703 0.024483 -0.002099
# 6 -0.003824 -0.001430 -0.000444 -0.000063 -0.002099 0.022074
#
#
# Mechanical properties :
#
#
# Convention : Reuss Voigt Hill
#
# Bulk Modulus (GPa) = 49.49936 58.21925 53.85931
# Shear Modulus (GPa) = 40.29411 43.16926 41.73169
#
# Velocity S-wave (km/s) = 4.36161 4.51454 4.43873
# Velocity P-wave (km/s) = 6.98101 7.39332 7.19012
#
# Compressibility (1/GPa) = 0.02020228
#
# Stress axis : x y z
#
# Youngs Moduli (GPa) = 113.17947 94.61139 81.64415
#
# Poissons Ratio (x) = 0.16022 0.24173
# Poissons Ratio (y) = 0.19167 0.08746
# Poissons Ratio (z) = 0.33510 0.10136
#
# Static dielectric constant tensor:
#      x y z
#    x 2.326900 -1.769820 0.128350 
#    y -1.769820 3.029960 0.778180 
#    z 0.128350 0.778180 4.188840 
# 
# 
# High freq. dielectric constant tensor:
#      x y z
#    x 1.852360 0.011560 -0.002670 
#    y 0.011560 1.851840 0.008780 
#    z -0.002670 0.008780 1.824100 
# 
# From -- ./inp_files/299150.got.cif
#   From: 2010.06.25/outbox.cif.g09.slc.cpg/sg2_150_cif.got.tgz:299150.got - 2010.06.27 13:26:56.
