data_PCOD8016265
_publ_section_title
;
Structure prediction by ZEFSAII (Michael W. Deem and Ramdas Pophale) SiO2 
 PCOD8016265
Probable space group: P -1
;
_chemical_formula_sum "Si O2"
_cell_formula_units_Z 16
_cell_length_a 9.929255
_cell_length_b 13.633706
_cell_length_c 9.303260
_cell_angle_alpha 94.439086
_cell_angle_beta 95.993725
_cell_angle_gamma 148.141029
_cell_volume 627.156149
_symmetry_space_group_name_H-M "P -1"
_symmetry_group_IT_number 2
_symmetry_cell_setting 'triclinic'
loop_
_space_group_symop_operation_xyz
x,y,z
-x,-y,-z
loop_
_atom_site_type_symbol
_atom_site_label
_atom_site_fract_x
_atom_site_fract_y
_atom_site_fract_z
Si Si1 0.790955 0.587635 0.432924
Si Si2 0.011737 0.818269 0.761122
Si Si3 0.010807 0.668085 0.979264
Si Si4 0.562905 0.797242 0.675939
Si Si5 0.392729 0.752786 0.161297
Si Si6 0.720773 0.774066 0.924413
Si Si7 0.125369 0.244437 0.812979
Si Si8 0.301469 0.784437 0.459138
O O1 0.532663 0.362971 0.437479
O O2 0.716753 0.606692 0.285036
O O3 0.913671 0.737104 0.579647
O O4 0.999882 0.633891 0.414424
O O5 0.064417 0.747219 0.837094
O O6 0.770446 0.723607 0.800962
O O7 0.288957 0.054909 0.813994
O O8 0.736410 0.431919 0.921115
O O9 0.266241 0.761467 0.055919
O O10 0.000394 0.748896 0.103022
O O11 0.520775 0.733625 0.833077
O O12 0.372015 0.768203 0.610647
O O13 0.876158 0.019715 0.704417
O O14 0.342807 0.739363 0.323174
O O15 0.653118 0.679252 0.059591
O O16 0.000000 0.000000 0.000000
O O17 0.500000 0.000000 0.500000
#
# Coordination Sequence:
#
# PCOD8016265 Si02
#       8
#     2   2   2   2   2   2   2   2
#     4  12  24  39  69 102 123 172 214 257 330 380
#     4  11  23  41  65  94 126 169 214 259 318 377
#     4  10  22  38  60  93 132 166 210 259 318 378
#     4  11  23  41  66  93 130 169 214 262 314 378
#     4  11  21  39  62  94 131 168 209 264 317 377
#     4   9  23  46  66  90 128 173 216 263 314 376
#     4  10  21  44  65  93 131 166 212 265 314 378
#     4  12  21  42  66  95 138 165 203 272 324 377
#
# _framework density 25.511986
#
# number of rings (size 3 to 8) (size 9 to 14) (size 15 to 20)
#    0.000    1.250    3.750    1.500    0.000    4.000 
#    2.250    9.375    0.000    0.000    0.000    0.000 
#    0.000    0.000    0.000    0.000    0.000    0.000 
#
# Total GULP energy -198278.038044 kJ/mol
# GULP energy per Si atom -12392.377378 kJ/mol
# Density = 2.545392 g / cm^3
# Si number density = 25.511986 Si / 1000 Ang^3
#
#
#
# Elastic Constant Matrix: (Units=GPa)
#
#
# Indices 1 2 3 4 5 6 
#
# 1 79.0086 34.8327 61.5163 -12.3473 36.4783 -13.0035
# 2 34.8327 142.5189 31.6191 7.1957 3.2557 -24.5506
# 3 61.5163 31.6191 134.9270 -21.5976 33.7240 -13.8752
# 4 -12.3473 7.1957 -21.5976 41.4149 -13.4702 6.6520
# 5 36.4783 3.2557 33.7240 -13.4702 38.8982 -13.1319
# 6 -13.0035 -24.5506 -13.8752 6.6520 -13.1319 28.4272
#
#
#
# Elastic Compliance Matrix: (Units=1/GPa)
#
#
# Indices 1 2 3 4 5 6 
#
# 1 0.031868 -0.006643 -0.007387 -0.000375 -0.025186 -0.006312
# 2 -0.006643 0.010632 -0.001078 -0.003242 0.008654 0.010374
# 3 -0.007387 -0.001078 0.012175 0.003606 -0.002397 -0.000318
# 4 -0.000375 -0.003242 0.003606 0.029228 0.005806 -0.005368
# 5 -0.025186 0.008654 -0.002397 0.005806 0.059797 0.021048
# 6 -0.006312 0.010374 -0.000318 -0.005368 0.021048 0.052073
#
#
# Mechanical properties :
#
#
# Convention : Reuss Voigt Hill
#
# Bulk Modulus (GPa) = 40.88257 68.04340 54.46299
# Shear Modulus (GPa) = 21.35451 36.98047 29.16749
#
# Velocity S-wave (km/s) = 2.89630 3.81140 3.38492
# Velocity P-wave (km/s) = 5.21961 6.78956 6.05568
#
# Compressibility (1/GPa) = 0.02446030
#
# Stress axis : x y z
#
# Youngs Moduli (GPa) = 31.37990 94.05273 82.13281
#
# Poissons Ratio (x) = 0.62478 0.60668
# Poissons Ratio (y) = 0.20845 0.08854
# Poissons Ratio (z) = 0.23179 0.10139
#
# Static dielectric constant tensor:
#      x y z
#    x 4.041020 -0.661740 0.326330 
#    y -0.661740 4.924040 -0.357560 
#    z 0.326330 -0.357560 5.736770 
# 
# 
# High freq. dielectric constant tensor:
#      x y z
#    x 2.001050 -0.025780 0.028980 
#    y -0.025780 2.035090 0.020040 
#    z 0.028980 0.020040 2.029530 
# 
# From -- ./inp_files/273206.got.cif
#   From: 2010.06.25/outbox.cif.g09.slc.cpg/sg2_137_cif.got.tgz:273206.got - 2010.06.27 13:26:56.
