data_PCOD8016902
_publ_section_title
;
Structure prediction by ZEFSAII (Michael W. Deem and Ramdas Pophale) SiO2 
 PCOD8016902
Probable space group: P -1
;
_chemical_formula_sum "Si O2"
_cell_formula_units_Z 16
_cell_length_a 22.901890
_cell_length_b 12.017816
_cell_length_c 13.426648
_cell_angle_alpha 124.345793
_cell_angle_beta 25.292925
_cell_angle_gamma 140.333114
_cell_volume 882.336573
_symmetry_space_group_name_H-M "P -1"
_symmetry_group_IT_number 2
_symmetry_cell_setting 'triclinic'
loop_
_space_group_symop_operation_xyz
x,y,z
-x,-y,-z
loop_
_atom_site_type_symbol
_atom_site_label
_atom_site_fract_x
_atom_site_fract_y
_atom_site_fract_z
Si Si1 0.849411 0.891036 0.441027
Si Si2 0.894806 0.395262 0.714357
Si Si3 0.363416 0.540947 0.806930
Si Si4 0.728616 0.664801 0.951246
Si Si5 0.395872 0.032409 0.104254
Si Si6 0.614555 0.518013 0.741107
Si Si7 0.265476 0.579987 0.333410
Si Si8 0.805888 0.788381 0.238888
O O1 0.782859 0.744948 0.558965
O O2 0.853609 0.806951 0.291443
O O3 0.687889 0.895127 0.673838
O O4 0.066249 0.103363 0.244753
O O5 0.796320 0.176188 0.755612
O O6 0.000000 0.500000 0.500000
O O7 0.061471 0.519492 0.607345
O O8 0.718469 0.372272 0.996348
O O9 0.599610 0.724445 0.506182
O O10 0.231023 0.384599 0.841042
O O11 0.336899 0.422721 0.881530
O O12 0.748807 0.548940 0.791670
O O13 0.549603 0.631016 0.167477
O O14 0.500000 0.000000 0.000000
O O15 0.547628 0.187498 0.862008
O O16 0.717858 0.458551 0.597208
O O17 0.500000 0.500000 0.000000
O O18 0.000000 0.000000 0.000000
#
# Coordination Sequence:
#
# PCOD8016902 Si02
#       8
#     2   2   2   2   2   2   2   2
#     4  12  21  36  60  88 121 157 198 248 296 352
#     4  12  22  36  58  87 124 158 189 241 309 367
#     4  11  22  39  58  90 124 154 198 248 300 355
#     4  11  19  35  57  84 122 152 193 244 293 350
#     4  12  21  32  56  85 123 156 184 233 305 361
#     4  10  22  37  55  83 126 160 199 241 292 359
#     4  11  22  36  54  87 120 162 189 233 299 361
#     4  11  23  37  62  89 118 158 204 247 299 346
#
# _framework density 18.133669000000001
#
# number of rings (size 3 to 8) (size 9 to 14) (size 15 to 20)
#    0.000    0.750    8.750    0.750    0.000    4.000 
#    0.000    0.000    0.000    0.750    0.000    2.625 
#    0.000    0.000    0.000    0.000    0.000    0.000 
#
# Total GULP energy -198355.486193 kJ/mol
# GULP energy per Si atom -12397.217887 kJ/mol
# Density = 1.809240 g / cm^3
# Si number density = 18.133669 Si / 1000 Ang^3
#
#
#
# Elastic Constant Matrix: (Units=GPa)
#
#
# Indices 1 2 3 4 5 6 
#
# 1 119.0397 39.2638 40.7821 -13.0261 -4.2497 -16.3777
# 2 39.2638 76.8891 39.6596 -24.2118 10.3360 -0.6857
# 3 40.7821 39.6596 99.4013 -26.2369 -0.5808 -6.3971
# 4 -13.0261 -24.2118 -26.2369 41.4702 1.9694 0.4642
# 5 -4.2497 10.3360 -0.5808 1.9694 31.6027 -1.0977
# 6 -16.3777 -0.6857 -6.3971 0.4642 -1.0977 27.0531
#
#
#
# Elastic Compliance Matrix: (Units=1/GPa)
#
#
# Indices 1 2 3 4 5 6 
#
# 1 0.012085 -0.005736 -0.002597 -0.001451 0.003778 0.006735
# 2 -0.005736 0.022165 -0.004522 0.008747 -0.008805 -0.004488
# 3 -0.002597 -0.004522 0.014543 0.005674 0.001102 0.001700
# 4 -0.001451 0.008747 0.005674 0.032592 -0.004985 -0.000076
# 5 0.003778 -0.008805 0.001102 -0.004985 0.035495 0.003850
# 6 0.006735 -0.004488 0.001700 -0.000076 0.003850 0.041487
#
#
# Mechanical properties :
#
#
# Convention : Reuss Voigt Hill
#
# Bulk Modulus (GPa) = 43.32105 59.41568 51.36837
# Shear Modulus (GPa) = 26.07254 31.73349 28.90301
#
# Velocity S-wave (km/s) = 3.79594 4.18781 3.99668
# Velocity P-wave (km/s) = 6.56917 7.49801 7.04891
#
# Compressibility (1/GPa) = 0.02308347
#
# Stress axis : x y z
#
# Youngs Moduli (GPa) = 82.74678 45.11573 68.76046
#
# Poissons Ratio (x) = 0.25881 0.17857
# Poissons Ratio (y) = 0.47468 0.31091
# Poissons Ratio (z) = 0.21489 0.20400
#
# Static dielectric constant tensor:
#      x y z
#    x 1.875630 0.120860 -0.069390 
#    y 0.120860 3.393430 -0.223200 
#    z -0.069390 -0.223200 3.514950 
# 
# 
# High freq. dielectric constant tensor:
#      x y z
#    x 1.694050 0.007080 -0.009970 
#    y 0.007080 1.688540 -0.030720 
#    z -0.009970 -0.030720 1.704640 
# 
# From -- ./inp_files/433011.got.cif
#   From: 2010.06.25/outbox.cif.g09.slc.cpg/sg2_217_cif.got.tgz:433011.got - 2010.06.27 13:26:56.
