data_PCOD8016530
_publ_section_title
;
Structure prediction by ZEFSAII (Michael W. Deem and Ramdas Pophale) SiO2 
 PCOD8016530
Probable space group: P -1
;
_chemical_formula_sum "Si O2"
_cell_formula_units_Z 14
_cell_length_a 14.876799
_cell_length_b 11.616973
_cell_length_c 12.169485
_cell_angle_alpha 129.971905
_cell_angle_beta 136.700795
_cell_angle_gamma 27.846520
_cell_volume 673.734965
_symmetry_space_group_name_H-M "P -1"
_symmetry_group_IT_number 2
_symmetry_cell_setting 'triclinic'
loop_
_space_group_symop_operation_xyz
x,y,z
-x,-y,-z
loop_
_atom_site_type_symbol
_atom_site_label
_atom_site_fract_x
_atom_site_fract_y
_atom_site_fract_z
Si Si1 0.957019 0.905737 0.092799
Si Si2 0.116107 0.566789 0.843374
Si Si3 0.846033 0.041454 0.314584
Si Si4 0.382036 0.458069 0.619236
Si Si5 0.512581 0.664792 0.120665
Si Si6 0.063972 0.268215 0.632203
Si Si7 0.848163 0.950928 0.658502
O O1 0.994355 0.048859 0.193467
O O2 0.972623 0.863084 0.211072
O O3 0.125749 0.656323 0.018747
O O4 0.727162 0.056438 0.937572
O O5 0.338319 0.393018 0.872193
O O6 0.101069 0.408832 0.768469
O O7 0.911606 0.792367 0.722486
O O8 0.651408 0.328869 0.279754
O O9 0.777433 0.962907 0.282221
O O10 0.000000 0.000000 0.500000
O O11 0.398672 0.375097 0.705100
O O12 0.600049 0.225386 0.605291
O O13 0.181316 0.553870 0.444351
O O14 0.500000 0.500000 0.000000
O O15 0.112421 0.176362 0.494951
#
# Coordination Sequence:
#
# PCOD8016530 Si02
#       7
#     2   2   2   2   2   2   2
#     4  12  23  40  68  96 122 163 219 262 303 376
#     4  12  25  38  66  98 130 162 206 263 325 363
#     4  10  21  45  64  88 128 170 210 257 304 374
#     4  11  22  38  70  93 123 167 215 259 304 371
#     4  12  20  39  65  96 126 158 208 270 313 355
#     4  11  25  45  58  94 138 167 202 260 310 380
#     4  12  22  39  69  96 122 165 213 258 317 369
#
# _framework density 20.779685000000001
#
# number of rings (size 3 to 8) (size 9 to 14) (size 15 to 20)
#    0.000    0.571    8.571    1.714    0.000    2.857 
#    0.000    0.714    0.000    0.000    0.000    0.000 
#    0.000    0.000    0.000    0.000    0.000    0.000 
#
# Total GULP energy -173581.442621 kJ/mol
# GULP energy per Si atom -12398.674473 kJ/mol
# Density = 2.073239 g / cm^3
# Si number density = 20.779685 Si / 1000 Ang^3
#
#
#
# Elastic Constant Matrix: (Units=GPa)
#
#
# Indices 1 2 3 4 5 6 
#
# 1 91.1376 33.7366 30.8344 1.9459 -9.0519 19.9857
# 2 33.7366 65.2902 18.8873 0.0840 -3.8440 -1.2905
# 3 30.8344 18.8873 62.9940 10.0973 -14.6695 9.9086
# 4 1.9459 0.0840 10.0973 32.3877 -5.4088 10.3281
# 5 -9.0519 -3.8440 -14.6695 -5.4088 40.6708 2.9985
# 6 19.9857 -1.2905 9.9086 10.3281 2.9985 39.9637
#
#
#
# Elastic Compliance Matrix: (Units=1/GPa)
#
#
# Indices 1 2 3 4 5 6 
#
# 1 0.017655 -0.007734 -0.004905 0.003806 0.002602 -0.009042
# 2 -0.007734 0.020338 -0.003469 -0.000565 -0.001542 0.005646
# 3 -0.004905 -0.003469 0.021835 -0.004774 0.005990 -0.002289
# 4 0.003806 -0.000565 -0.004774 0.036250 0.004664 -0.010457
# 5 0.002602 -0.001542 0.005990 0.004664 0.028256 -0.006162
# 6 -0.009042 0.005646 -0.002289 -0.010457 -0.006162 0.033459
#
#
# Mechanical properties :
#
#
# Convention : Reuss Voigt Hill
#
# Bulk Modulus (GPa) = 36.21512 42.92649 39.57081
# Shear Modulus (GPa) = 25.09888 31.66867 28.38377
#
# Velocity S-wave (km/s) = 3.47919 3.90811 3.69987
# Velocity P-wave (km/s) = 5.79704 6.40837 6.11035
#
# Compressibility (1/GPa) = 0.02761277
#
# Stress axis : x y z
#
# Youngs Moduli (GPa) = 56.64222 49.17016 45.79719
#
# Poissons Ratio (x) = 0.38028 0.22462
# Poissons Ratio (y) = 0.43807 0.15885
# Poissons Ratio (z) = 0.27781 0.17055
#
# Static dielectric constant tensor:
#      x y z
#    x 4.272290 0.098100 -0.174220 
#    y 0.098100 4.071680 -0.193590 
#    z -0.174220 -0.193590 3.731530 
# 
# 
# High freq. dielectric constant tensor:
#      x y z
#    x 1.813430 -0.005920 -0.013600 
#    y -0.005920 1.803870 -0.001350 
#    z -0.013600 -0.001350 1.803530 
# 
# From -- ./inp_files/246030.got.cif
#   From: 2010.06.25/outbox.cif.g09.slc.cpg/sg2_124_cif.got.tgz:246030.got - 2010.06.27 13:26:56.
