data_PCOD8016123
_publ_section_title
;
Structure prediction by ZEFSAII (Michael W. Deem and Ramdas Pophale) SiO2 
 PCOD8016123
Probable space group: P -1
;
_chemical_formula_sum "Si O2"
_cell_formula_units_Z 16
_cell_length_a 9.258878
_cell_length_b 15.757071
_cell_length_c 7.922505
_cell_angle_alpha 55.472079
_cell_angle_beta 48.627922
_cell_angle_gamma 58.955987
_cell_volume 695.739010
_symmetry_space_group_name_H-M "P -1"
_symmetry_group_IT_number 2
_symmetry_cell_setting 'triclinic'
loop_
_space_group_symop_operation_xyz
x,y,z
-x,-y,-z
loop_
_atom_site_type_symbol
_atom_site_label
_atom_site_fract_x
_atom_site_fract_y
_atom_site_fract_z
Si Si1 0.235928 0.736943 0.564123
Si Si2 0.159611 0.172377 0.917712
Si Si3 0.603158 0.797827 0.606003
Si Si4 0.352868 0.432958 0.117305
Si Si5 0.993393 0.393600 0.905946
Si Si6 0.212987 0.900465 0.683656
Si Si7 0.170532 0.136253 0.339378
Si Si8 0.411459 0.402327 0.724781
O O1 0.155463 0.634814 0.804779
O O2 0.284418 0.807279 0.599077
O O3 0.439905 0.702288 0.344519
O O4 0.060843 0.812077 0.507558
O O5 0.323040 0.143479 0.678583
O O6 0.233993 0.155922 0.074491
O O7 0.049699 0.295832 0.843125
O O8 0.005199 0.099114 0.080427
O O9 0.627527 0.674877 0.669749
O O10 0.379889 0.865325 0.738060
O O11 0.716805 0.804510 0.684263
O O12 0.500000 0.500000 0.000000
O O13 0.128020 0.503167 0.215724
O O14 0.417954 0.388858 0.933281
O O15 0.189133 0.418096 0.809630
O O16 0.215747 0.012267 0.475007
O O17 0.500000 0.500000 0.500000
#
# Coordination Sequence:
#
# PCOD8016123 Si02
#       8
#     2   2   2   2   2   2   2   2
#     4  10  21  43  70  99 134 173 226 278 338 407
#     4  10  23  44  69  96 135 181 222 279 345 400
#     4  12  26  42  67 101 140 174 230 284 337 406
#     4  12  26  44  64 100 142 182 226 280 339 403
#     4  10  22  43  65  95 138 174 225 275 327 410
#     4  10  22  46  70 100 138 173 227 286 338 405
#     4  10  23  45  73 100 134 180 225 288 342 399
#     4  12  25  40  71  97 128 183 228 270 339 403
#
# _framework density 22.997129999999999
#
# number of rings (size 3 to 8) (size 9 to 14) (size 15 to 20)
#    0.000    1.500    1.250    6.000    3.500    3.500 
#    0.000    6.250    0.000    0.750    0.000    0.000 
#    0.000    0.000    0.000    0.000    0.000    0.000 
#
# Total GULP energy -198344.269906 kJ/mol
# GULP energy per Si atom -12396.516869 kJ/mol
# Density = 2.294479 g / cm^3
# Si number density = 22.997130 Si / 1000 Ang^3
#
#
#
# Elastic Constant Matrix: (Units=GPa)
#
#
# Indices 1 2 3 4 5 6 
#
# 1 136.7515 36.1342 38.4638 5.3588 -13.4114 -20.7116
# 2 36.1342 80.8914 37.7713 -21.8256 -8.6451 -19.1265
# 3 38.4638 37.7713 83.1015 -11.0753 -10.0326 -0.2340
# 4 5.3588 -21.8256 -11.0753 36.5167 -2.5930 4.5001
# 5 -13.4114 -8.6451 -10.0326 -2.5930 26.2960 -6.3385
# 6 -20.7116 -19.1265 -0.2340 4.5001 -6.3385 36.9347
#
#
#
# Elastic Compliance Matrix: (Units=1/GPa)
#
#
# Indices 1 2 3 4 5 6 
#
# 1 0.010486 -0.002210 -0.003935 -0.004496 0.004115 0.005965
# 2 -0.002210 0.022859 -0.006971 0.011105 0.007345 0.010462
# 3 -0.003935 -0.006971 0.017490 0.002518 0.001224 -0.005802
# 4 -0.004496 0.011105 0.002518 0.035875 0.005826 -0.000126
# 5 0.004115 0.007345 0.001224 0.005826 0.046825 0.013445
# 6 0.005965 0.010462 -0.005802 -0.000126 0.013445 0.038123
#
#
# Mechanical properties :
#
#
# Convention : Reuss Voigt Hill
#
# Bulk Modulus (GPa) = 40.64270 58.38702 49.51486
# Shear Modulus (GPa) = 24.26108 32.50780 28.38444
#
# Velocity S-wave (km/s) = 3.25154 3.76381 3.51701
# Velocity P-wave (km/s) = 5.63986 6.65825 6.17010
#
# Compressibility (1/GPa) = 0.02460467
#
# Stress axis : x y z
#
# Youngs Moduli (GPa) = 95.36180 43.74569 57.17506
#
# Poissons Ratio (x) = 0.09667 0.22498
# Poissons Ratio (y) = 0.21073 0.39857
# Poissons Ratio (z) = 0.37524 0.30495
#
# Static dielectric constant tensor:
#      x y z
#    x 4.217550 -0.095250 -0.187630 
#    y -0.095250 4.208390 -0.081360 
#    z -0.187630 -0.081360 4.115450 
# 
# 
# High freq. dielectric constant tensor:
#      x y z
#    x 1.915290 -0.005260 -0.016330 
#    y -0.005260 1.912320 -0.013000 
#    z -0.016330 -0.013000 1.897790 
# 
# From -- ./inp_files/214232.got.cif
#   From: 2010.06.25/outbox.cif.g09.slc.cpg/sg2_108_cif.got.tgz:214232.got - 2010.06.27 13:26:56.
