data_PCOD8016438
_publ_section_title
;
Structure prediction by ZEFSAII (Michael W. Deem and Ramdas Pophale) SiO2 
 PCOD8016438
Probable space group: P -1
;
_chemical_formula_sum "Si O2"
_cell_formula_units_Z 12
_cell_length_a 8.795775
_cell_length_b 7.691177
_cell_length_c 15.336396
_cell_angle_alpha 41.447614
_cell_angle_beta 128.196277
_cell_angle_gamma 127.493798
_cell_volume 518.279670
_symmetry_space_group_name_H-M "P -1"
_symmetry_group_IT_number 2
_symmetry_cell_setting 'triclinic'
loop_
_space_group_symop_operation_xyz
x,y,z
-x,-y,-z
loop_
_atom_site_type_symbol
_atom_site_label
_atom_site_fract_x
_atom_site_fract_y
_atom_site_fract_z
Si Si1 0.020265 0.256986 0.730974
Si Si2 0.161145 0.334585 0.118851
Si Si3 0.607920 0.307649 0.561780
Si Si4 0.562013 0.555781 0.285617
Si Si5 0.226140 0.346127 0.938597
Si Si6 0.540544 0.072335 0.195644
O O1 0.852904 0.424409 0.600330
O O2 0.237772 0.420138 0.709176
O O3 0.043004 0.205891 0.862127
O O4 0.933056 0.966160 0.759411
O O5 0.365352 0.502072 0.175984
O O6 0.190438 0.275832 0.051998
O O7 0.000000 0.500000 0.000000
O O8 0.500000 0.500000 0.500000
O O9 0.532968 0.297335 0.438608
O O10 0.551714 0.024492 0.703385
O O11 0.591500 0.831458 0.249494
O O12 0.266698 0.672224 0.812589
O O13 0.406230 0.208414 0.033566
#
# Coordination Sequence:
#
# PCOD8016438 Si02
#       6
#     2   2   2   2   2   2
#     4  12  25  44  70 101 137 179 226 279 337 401
#     4  12  26  42  72 105 136 179 222 283 342 398
#     4  10  24  45  70  96 134 187 228 271 336 401
#     4  11  25  46  67 102 142 171 231 279 330 406
#     4  11  23  41  69 101 135 172 230 275 341 396
#     4  10  21  44  70  99 134 182 217 279 339 399
#
# _framework density 23.153521000000001
#
# number of rings (size 3 to 8) (size 9 to 14) (size 15 to 20)
#    0.000    1.000    1.667    5.000    4.667    2.667 
#    3.000    1.667    0.000    0.000    0.000    0.000 
#    0.000    0.000    0.000    0.000    0.000    0.000 
#
# Total GULP energy -148663.769264 kJ/mol
# GULP energy per Si atom -12388.647439 kJ/mol
# Density = 2.310082 g / cm^3
# Si number density = 23.153521 Si / 1000 Ang^3
#
#
#
# Elastic Constant Matrix: (Units=GPa)
#
#
# Indices 1 2 3 4 5 6 
#
# 1 115.5665 44.8813 56.2465 15.6892 22.1797 12.3808
# 2 44.8813 105.7014 49.0332 -4.8910 8.5844 13.0451
# 3 56.2465 49.0332 121.5042 8.8142 3.2560 0.7225
# 4 15.6892 -4.8910 8.8142 32.2555 2.5000 1.9789
# 5 22.1797 8.5844 3.2560 2.5000 41.9044 3.1844
# 6 12.3808 13.0451 0.7225 1.9789 3.1844 31.3870
#
#
#
# Elastic Compliance Matrix: (Units=1/GPa)
#
#
# Indices 1 2 3 4 5 6 
#
# 1 0.014559 -0.003307 -0.004817 -0.005594 -0.006070 -0.003289
# 2 -0.003307 0.013742 -0.004347 0.005214 -0.000691 -0.004566
# 3 -0.004817 -0.004347 0.012281 -0.002058 0.002357 0.003315
# 4 -0.005594 0.005214 -0.002058 0.035199 0.000116 -0.002144
# 5 -0.006070 -0.000691 0.002357 0.000116 0.027038 -0.000123
# 6 -0.003289 -0.004566 0.003315 -0.002144 -0.000123 0.035126
#
#
# Mechanical properties :
#
#
# Convention : Reuss Voigt Hill
#
# Bulk Modulus (GPa) = 63.94242 71.45488 67.69865
# Shear Modulus (GPa) = 29.74407 33.95012 31.84710
#
# Velocity S-wave (km/s) = 3.58808 3.83339 3.71276
# Velocity P-wave (km/s) = 6.69645 7.10785 6.90521
#
# Compressibility (1/GPa) = 0.01563907
#
# Stress axis : x y z
#
# Youngs Moduli (GPa) = 68.68812 72.76749 81.42821
#
# Poissons Ratio (x) = 0.24066 0.39222
# Poissons Ratio (y) = 0.22717 0.35400
# Poissons Ratio (z) = 0.33085 0.31635
#
# Static dielectric constant tensor:
#      x y z
#    x 4.129980 0.113790 -0.230490 
#    y 0.113790 4.127250 0.023230 
#    z -0.230490 0.023230 4.549500 
# 
# 
# High freq. dielectric constant tensor:
#      x y z
#    x 1.920040 -0.000440 0.001740 
#    y -0.000440 1.903060 -0.002270 
#    z 0.001740 -0.002270 1.927950 
# 
# From -- ./inp_files/244748.got.cif
#   From: 2010.06.25/outbox.cif.g09.slc.cpg/sg2_123_cif.got.tgz:244748.got - 2010.06.27 13:26:56.
