data_PCOD8016455
_publ_section_title
;
Structure prediction by ZEFSAII (Michael W. Deem and Ramdas Pophale) SiO2 
 PCOD8016455
Probable space group: P -1
;
_chemical_formula_sum "Si O2"
_cell_formula_units_Z 14
_cell_length_a 14.548585
_cell_length_b 11.852434
_cell_length_c 8.293184
_cell_angle_alpha 128.846030
_cell_angle_beta 59.035794
_cell_angle_gamma 152.340378
_cell_volume 513.687995
_symmetry_space_group_name_H-M "P -1"
_symmetry_group_IT_number 2
_symmetry_cell_setting 'triclinic'
loop_
_space_group_symop_operation_xyz
x,y,z
-x,-y,-z
loop_
_atom_site_type_symbol
_atom_site_label
_atom_site_fract_x
_atom_site_fract_y
_atom_site_fract_z
Si Si1 0.779848 0.304051 0.062658
Si Si2 0.236363 0.464044 0.944664
Si Si3 0.946109 0.033237 0.376409
Si Si4 0.649498 0.876625 0.653820
Si Si5 0.653635 0.649695 0.706539
Si Si6 0.596115 0.004179 0.286823
Si Si7 0.134494 0.943092 0.865590
O O1 0.718753 0.229533 0.238901
O O2 0.741771 0.422552 0.140325
O O3 0.000000 0.500000 0.000000
O O4 0.635212 0.030867 0.842936
O O5 0.028424 0.274932 0.045271
O O6 0.420827 0.705670 0.109351
O O7 0.233178 0.289335 0.751292
O O8 0.980767 0.122711 0.241309
O O9 0.146057 0.191938 0.411822
O O10 0.878417 0.094183 0.598134
O O11 0.586933 0.717567 0.728831
O O12 0.513207 0.667615 0.437968
O O13 0.705566 0.757707 0.938735
O O14 0.754159 0.079089 0.300444
O O15 0.500000 0.000000 0.500000
#
# Coordination Sequence:
#
# PCOD8016455 Si02
#       7
#     2   2   2   2   2   2   2
#     4  12  25  53  78 108 158 203 250 321 385 449
#     4  11  25  48  77 109 154 199 253 315 385 455
#     4  11  25  45  78 113 151 202 255 315 382 457
#     4  11  24  42  75 110 150 196 253 318 371 455
#     4  10  21  44  71 109 152 194 258 310 381 448
#     4  12  28  49  77 111 152 204 257 312 386 461
#     4  11  24  50  75 109 160 203 253 323 379 456
#
# _framework density 27.253896999999998
#
# number of rings (size 3 to 8) (size 9 to 14) (size 15 to 20)
#    0.000    0.857    2.857    4.286    4.000    5.143 
#    2.571    0.000    0.000    0.000    0.000    0.000 
#    0.000    0.000    0.000    0.000    0.000    0.000 
#
# Total GULP energy -173639.197201 kJ/mol
# GULP energy per Si atom -12402.799800 kJ/mol
# Density = 2.719187 g / cm^3
# Si number density = 27.253897 Si / 1000 Ang^3
#
#
#
# Elastic Constant Matrix: (Units=GPa)
#
#
# Indices 1 2 3 4 5 6 
#
# 1 81.9953 23.7839 10.4282 10.9947 -0.9063 -22.5754
# 2 23.7839 104.8755 24.4062 -13.9822 -3.1765 -10.2377
# 3 10.4282 24.4062 91.3257 -18.4485 -14.4439 -15.9832
# 4 10.9947 -13.9822 -18.4485 38.1671 9.9097 -2.6920
# 5 -0.9063 -3.1765 -14.4439 9.9097 38.5344 3.7296
# 6 -22.5754 -10.2377 -15.9832 -2.6920 3.7296 38.7889
#
#
#
# Elastic Compliance Matrix: (Units=1/GPa)
#
#
# Indices 1 2 3 4 5 6 
#
# 1 0.016247 -0.003543 -0.000639 -0.005897 0.000613 0.007789
# 2 -0.003543 0.011401 -0.001753 0.004672 -0.001065 0.000651
# 3 -0.000639 -0.001753 0.014059 0.005889 0.003105 0.005068
# 4 -0.005897 0.004672 0.005889 0.034432 -0.006717 0.003263
# 5 0.000613 -0.001065 0.003105 -0.006717 0.028952 -0.001895
# 6 0.007789 0.000651 0.005068 0.003263 -0.001895 0.032983
#
#
# Mechanical properties :
#
#
# Convention : Reuss Voigt Hill
#
# Bulk Modulus (GPa) = 33.51634 43.93701 38.72668
# Shear Modulus (GPa) = 31.27169 37.73662 34.50416
#
# Velocity S-wave (km/s) = 3.39104 3.72510 3.56199
# Velocity P-wave (km/s) = 5.25896 5.88712 5.58188
#
# Compressibility (1/GPa) = 0.02983619
#
# Stress axis : x y z
#
# Youngs Moduli (GPa) = 61.55047 87.71339 71.12859
#
# Poissons Ratio (x) = 0.31077 0.04548
# Poissons Ratio (y) = 0.21807 0.12467
# Poissons Ratio (z) = 0.03936 0.15374
#
# Static dielectric constant tensor:
#      x y z
#    x 4.839660 0.231160 -0.101240 
#    y 0.231160 5.117030 0.073560 
#    z -0.101240 0.073560 4.933690 
# 
# 
# High freq. dielectric constant tensor:
#      x y z
#    x 2.097930 0.022490 -0.011090 
#    y 0.022490 2.108140 -0.007110 
#    z -0.011090 -0.007110 2.095140 
# 
# From -- ./inp_files/308495.got.cif
#   From: 2010.06.25/outbox.cif.g09.slc.cpg/sg2_155_cif.got.tgz:308495.got - 2010.06.27 13:26:56.
