data_PCOD8016659
_publ_section_title
;
Structure prediction by ZEFSAII (Michael W. Deem and Ramdas Pophale) SiO2 
 PCOD8016659
Probable space group: P -1
;
_chemical_formula_sum "Si O2"
_cell_formula_units_Z 14
_cell_length_a 9.171513
_cell_length_b 16.926724
_cell_length_c 7.794755
_cell_angle_alpha 33.689353
_cell_angle_beta 122.835985
_cell_angle_gamma 124.527028
_cell_volume 546.347915
_symmetry_space_group_name_H-M "P -1"
_symmetry_group_IT_number 2
_symmetry_cell_setting 'triclinic'
loop_
_space_group_symop_operation_xyz
x,y,z
-x,-y,-z
loop_
_atom_site_type_symbol
_atom_site_label
_atom_site_fract_x
_atom_site_fract_y
_atom_site_fract_z
Si Si1 0.939369 0.329880 0.317652
Si Si2 0.489932 0.606192 0.555550
Si Si3 0.154446 0.629862 0.440564
Si Si4 0.663352 0.932136 0.682379
Si Si5 0.593642 0.356814 0.931010
Si Si6 0.804437 0.874411 0.216794
Si Si7 0.702651 0.045826 0.126791
O O1 0.920017 0.317752 0.529542
O O2 0.062078 0.231117 0.499875
O O3 0.743889 0.267153 0.223364
O O4 0.000000 0.500000 0.000000
O O5 0.341698 0.577201 0.666706
O O6 0.610051 0.486861 0.849353
O O7 0.375478 0.571454 0.367502
O O8 0.606995 0.773072 0.319981
O O9 0.000000 0.500000 0.500000
O O10 0.220436 0.780275 0.100641
O O11 0.500000 0.000000 0.500000
O O12 0.728410 0.974453 0.455561
O O13 0.599347 0.754971 0.968686
O O14 0.811966 0.962593 0.878309
O O15 0.838252 0.994519 0.173199
O O16 0.500000 0.000000 0.000000
#
# Coordination Sequence:
#
# PCOD8016659 Si02
#       7
#     2   2   2   2   2   2   2
#     4  12  26  47  71 111 157 196 251 324 389 446
#     4  10  21  45  76 102 147 195 257 309 380 448
#     4  12  28  46  74 112 154 191 257 321 383 454
#     4  11  23  43  77 109 150 200 260 314 382 449
#     4  10  22  41  73 106 145 196 252 314 376 452
#     4  11  25  47  77 116 150 204 259 316 380 466
#     4  12  23  49  79 111 152 205 261 314 378 467
#
# _framework density 25.624697000000001
#
# number of rings (size 3 to 8) (size 9 to 14) (size 15 to 20)
#    0.000    0.857    4.286    2.571    4.000    2.286 
#    2.571    0.714    0.000    0.000    0.000    0.000 
#    0.000    0.000    0.000    0.000    0.000    0.000 
#
# Total GULP energy -173490.800815 kJ/mol
# GULP energy per Si atom -12392.200058 kJ/mol
# Density = 2.556637 g / cm^3
# Si number density = 25.624697 Si / 1000 Ang^3
#
#
#
# Elastic Constant Matrix: (Units=GPa)
#
#
# Indices 1 2 3 4 5 6 
#
# 1 136.1296 33.7328 45.3330 0.5113 11.6559 -22.4880
# 2 33.7328 87.1768 33.5744 -4.9901 -4.7929 -11.7952
# 3 45.3330 33.5744 115.5166 6.0347 0.2701 -9.1793
# 4 0.5113 -4.9901 6.0347 46.1397 -2.1905 -5.1018
# 5 11.6559 -4.7929 0.2701 -2.1905 56.2651 -5.3551
# 6 -22.4880 -11.7952 -9.1793 -5.1018 -5.3551 39.7311
#
#
#
# Elastic Compliance Matrix: (Units=1/GPa)
#
#
# Indices 1 2 3 4 5 6 
#
# 1 0.009639 -0.002170 -0.002853 0.000385 -0.001776 0.003962
# 2 -0.002170 0.014161 -0.003169 0.002379 0.002032 0.002823
# 3 -0.002853 -0.003169 0.010767 -0.001741 0.000176 -0.000268
# 4 0.000385 0.002379 -0.001741 0.022617 0.001355 0.003609
# 5 -0.001776 0.002032 0.000176 0.001355 0.018587 0.002318
# 6 0.003962 0.002823 -0.000268 0.003609 0.002318 0.028964
#
#
# Mechanical properties :
#
#
# Convention : Reuss Voigt Hill
#
# Bulk Modulus (GPa) = 54.99891 62.67816 58.83854
# Shear Modulus (GPa) = 39.31443 43.50604 41.41023
#
# Velocity S-wave (km/s) = 3.92119 4.12493 4.02435
# Velocity P-wave (km/s) = 6.48157 6.87022 6.67872
#
# Compressibility (1/GPa) = 0.01818218
#
# Stress axis : x y z
#
# Youngs Moduli (GPa) = 103.74465 70.61637 92.87978
#
# Poissons Ratio (x) = 0.15327 0.26499
# Poissons Ratio (y) = 0.22518 0.29431
# Poissons Ratio (z) = 0.29598 0.22377
#
# Static dielectric constant tensor:
#      x y z
#    x 4.924070 -0.059940 -0.277340 
#    y -0.059940 4.966460 0.009570 
#    z -0.277340 0.009570 5.279950 
# 
# 
# High freq. dielectric constant tensor:
#      x y z
#    x 2.030320 -0.009240 0.003440 
#    y -0.009240 2.020780 -0.022340 
#    z 0.003440 -0.022340 2.024190 
# 
# From -- ./inp_files/222875.got.cif
#   From: 2010.06.25/outbox.cif.g09.slc.cpg/sg2_112_cif.got.tgz:222875.got - 2010.06.27 13:26:56.
