data_PCOD8016412
_publ_section_title
;
Structure prediction by ZEFSAII (Michael W. Deem and Ramdas Pophale) SiO2 
 PCOD8016412
Probable space group: P -1
;
_chemical_formula_sum "Si O2"
_cell_formula_units_Z 16
_cell_length_a 14.921092
_cell_length_b 11.617782
_cell_length_c 9.441817
_cell_angle_alpha 49.636622
_cell_angle_beta 67.779969
_cell_angle_gamma 107.715427
_cell_volume 724.472483
_symmetry_space_group_name_H-M "P -1"
_symmetry_group_IT_number 2
_symmetry_cell_setting 'triclinic'
loop_
_space_group_symop_operation_xyz
x,y,z
-x,-y,-z
loop_
_atom_site_type_symbol
_atom_site_label
_atom_site_fract_x
_atom_site_fract_y
_atom_site_fract_z
Si Si1 0.790971 0.881556 0.200571
Si Si2 0.655923 0.156814 0.698560
Si Si3 0.778687 0.979173 0.825598
Si Si4 0.362311 0.895172 0.571719
Si Si5 0.855768 0.615313 0.397693
Si Si6 0.646120 0.773872 0.649360
Si Si7 0.857245 0.545811 0.773236
Si Si8 0.825864 0.809596 0.710926
O O1 0.779629 0.686414 0.364442
O O2 0.667875 0.801908 0.445752
O O3 0.733736 0.878200 0.089823
O O4 0.961692 0.148800 0.920023
O O5 0.689566 0.020103 0.800935
O O6 0.641558 0.183976 0.519659
O O7 0.793189 0.422740 0.471996
O O8 0.500000 0.000000 0.000000
O O9 0.960321 0.226944 0.499049
O O10 0.729713 0.774740 0.921462
O O11 0.500000 0.000000 0.500000
O O12 0.379893 0.093278 0.378582
O O13 0.206051 0.678457 0.929577
O O14 0.813020 0.497885 0.672063
O O15 0.804641 0.892916 0.521249
O O16 0.500000 0.500000 0.000000
O O17 0.767515 0.573401 0.887073
O O18 0.000000 0.000000 0.500000
#
# Coordination Sequence:
#
# PCOD8016412 Si02
#       8
#     2   2   2   2   2   2   2   2
#     4  10  24  43  73 100 132 186 232 280 350 417
#     4  12  28  45  67  98 148 181 229 295 349 421
#     4  10  24  44  68 104 136 178 232 287 348 419
#     4  12  28  46  69 100 138 189 235 282 367 416
#     4  10  23  44  70 103 140 177 228 284 348 417
#     4  12  26  46  73  96 138 189 240 291 350 429
#     4  10  22  43  73 100 139 179 226 292 345 416
#     4  10  21  44  70 100 140 176 231 297 343 410
#
# _framework density 22.085035999999999
#
# number of rings (size 3 to 8) (size 9 to 14) (size 15 to 20)
#    0.000    1.250    2.500    1.500   10.500    2.500 
#    0.000    1.250    0.000    0.000    0.000    0.000 
#    0.000    0.000    0.000    0.000    0.000    0.000 
#
# Total GULP energy -198372.596775 kJ/mol
# GULP energy per Si atom -12398.287298 kJ/mol
# Density = 2.203477 g / cm^3
# Si number density = 22.085036 Si / 1000 Ang^3
#
#
#
# Elastic Constant Matrix: (Units=GPa)
#
#
# Indices 1 2 3 4 5 6 
#
# 1 114.7146 45.3586 26.0273 6.7055 9.2258 3.1676
# 2 45.3586 152.2420 55.2939 19.7213 6.7529 0.0951
# 3 26.0273 55.2939 123.6629 24.4628 18.7600 4.1823
# 4 6.7055 19.7213 24.4628 35.2513 -1.7515 9.6655
# 5 9.2258 6.7529 18.7600 -1.7515 24.9279 7.9453
# 6 3.1676 0.0951 4.1823 9.6655 7.9453 36.8903
#
#
#
# Elastic Compliance Matrix: (Units=1/GPa)
#
#
# Indices 1 2 3 4 5 6 
#
# 1 0.010120 -0.002703 -0.000495 -0.000140 -0.002583 -0.000213
# 2 -0.002703 0.008762 -0.002891 -0.002697 0.000232 0.001194
# 3 -0.000495 -0.002891 0.012542 -0.008299 -0.009997 0.002956
# 4 -0.000140 -0.002697 -0.008299 0.039754 0.013781 -0.012424
# 5 -0.002583 0.000232 -0.009997 0.013781 0.053921 -0.013869
# 6 -0.000213 0.001194 0.002956 -0.012424 -0.013869 0.033030
#
#
# Mechanical properties :
#
#
# Convention : Reuss Voigt Hill
#
# Bulk Modulus (GPa) = 51.95707 71.55322 61.75514
# Shear Modulus (GPa) = 28.29318 37.00989 32.65153
#
# Velocity S-wave (km/s) = 3.58313 4.09808 3.84923
# Velocity P-wave (km/s) = 6.37930 7.40687 6.91220
#
# Compressibility (1/GPa) = 0.01924666
#
# Stress axis : x y z
#
# Youngs Moduli (GPa) = 98.81481 114.12812 79.73412
#
# Poissons Ratio (x) = 0.30844 0.03946
# Poissons Ratio (y) = 0.26706 0.23051
# Poissons Ratio (z) = 0.04890 0.32995
#
# Static dielectric constant tensor:
#      x y z
#    x 4.122010 -0.062330 0.177800 
#    y -0.062330 4.333190 -0.088150 
#    z 0.177800 -0.088150 3.575030 
# 
# 
# High freq. dielectric constant tensor:
#      x y z
#    x 1.874500 0.001180 0.007400 
#    y 0.001180 1.885900 0.009140 
#    z 0.007400 0.009140 1.857930 
# 
# From -- ./inp_files/271464.got.cif
#   From: 2010.06.25/outbox.cif.g09.slc.cpg/sg2_136_cif.got.tgz:271464.got - 2010.06.27 13:26:56.
