data_PCOD8016317
_publ_section_title
;
Structure prediction by ZEFSAII (Michael W. Deem and Ramdas Pophale) SiO2 
 PCOD8016317
Probable space group: P -1
;
_chemical_formula_sum "Si O2"
_cell_formula_units_Z 16
_cell_length_a 8.456410
_cell_length_b 8.443455
_cell_length_c 11.035905
_cell_angle_alpha 106.682230
_cell_angle_beta 77.966979
_cell_angle_gamma 112.081087
_cell_volume 694.946754
_symmetry_space_group_name_H-M "P -1"
_symmetry_group_IT_number 2
_symmetry_cell_setting 'triclinic'
loop_
_space_group_symop_operation_xyz
x,y,z
-x,-y,-z
loop_
_atom_site_type_symbol
_atom_site_label
_atom_site_fract_x
_atom_site_fract_y
_atom_site_fract_z
Si Si1 0.064367 0.853900 0.218140
Si Si2 0.057595 0.676457 0.753604
Si Si3 0.474804 0.272568 0.568309
Si Si4 0.167417 0.669099 0.364167
Si Si5 0.854028 0.049470 0.394589
Si Si6 0.616480 0.886787 0.916323
Si Si7 0.123347 0.191425 0.993203
Si Si8 0.404345 0.625288 0.694986
O O1 0.134077 0.712609 0.239621
O O2 0.901557 0.763860 0.133961
O O3 0.218419 0.987003 0.149490
O O4 0.998767 0.956928 0.356429
O O5 0.137187 0.870392 0.724943
O O6 0.212711 0.613231 0.756539
O O7 0.940480 0.536421 0.643828
O O8 0.935740 0.674658 0.885988
O O9 0.633143 0.294407 0.636786
O O10 0.399987 0.426605 0.641948
O O11 0.534902 0.274752 0.420062
O O12 0.334542 0.084095 0.575416
O O13 0.094837 0.786857 0.487574
O O14 0.523872 0.728374 0.806608
O O15 0.681800 0.800780 0.003232
O O16 0.500000 0.000000 0.000000
O O17 0.000000 0.000000 0.000000
#
# Coordination Sequence:
#
# PCOD8016317 Si02
#       8
#     2   2   2   2   2   2   2   2
#     4  11  25  42  71  96 138 178 229 273 334 410
#     4  12  24  43  73  95 140 177 228 277 335 401
#     4  11  26  42  68  99 145 175 224 275 340 402
#     4  12  26  43  66 107 134 181 224 278 340 398
#     4  12  24  44  68 101 137 181 220 280 337 405
#     4  11  23  40  71 102 133 175 228 274 344 396
#     4  10  21  44  66  98 126 181 220 279 326 399
#     4  11  24  43  66 101 139 181 220 281 336 398
#
# _framework density 23.023347999999999
#
# number of rings (size 3 to 8) (size 9 to 14) (size 15 to 20)
#    0.000    0.750    3.750    4.875    1.750    1.500 
#    0.000    1.250    0.000    4.500    0.000    0.000 
#    0.000    0.000    0.000    0.000    0.000    0.000 
#
# Total GULP energy -198401.078136 kJ/mol
# GULP energy per Si atom -12400.067383 kJ/mol
# Density = 2.297095 g / cm^3
# Si number density = 23.023348 Si / 1000 Ang^3
#
#
#
# Elastic Constant Matrix: (Units=GPa)
#
#
# Indices 1 2 3 4 5 6 
#
# 1 128.1916 27.3184 30.6975 10.4329 -7.6255 -8.1819
# 2 27.3184 87.9911 26.4897 9.4235 3.9642 5.1326
# 3 30.6975 26.4897 76.3129 19.1682 -6.3278 -1.3343
# 4 10.4329 9.4235 19.1682 31.4371 -3.7267 1.3579
# 5 -7.6255 3.9642 -6.3278 -3.7267 44.2465 4.4241
# 6 -8.1819 5.1326 -1.3343 1.3579 4.4241 37.6627
#
#
#
# Elastic Compliance Matrix: (Units=1/GPa)
#
#
# Indices 1 2 3 4 5 6 
#
# 1 0.009145 -0.002143 -0.002616 -0.000754 0.001122 0.002081
# 2 -0.002143 0.013496 -0.003723 -0.001208 -0.001997 -0.002159
# 3 -0.002616 -0.003723 0.017779 -0.008694 0.001624 0.000692
# 4 -0.000754 -0.001208 -0.008694 0.038059 0.002133 -0.001930
# 5 0.001122 -0.001997 0.001624 0.002133 0.023613 -0.002277
# 6 0.002081 -0.002159 0.000692 -0.001930 -0.002277 0.027659
#
#
# Mechanical properties :
#
#
# Convention : Reuss Voigt Hill
#
# Bulk Modulus (GPa) = 42.63105 51.27852 46.95479
# Shear Modulus (GPa) = 32.35566 36.53525 34.44545
#
# Velocity S-wave (km/s) = 3.75285 3.98789 3.87215
# Velocity P-wave (km/s) = 6.11025 6.59735 6.35847
#
# Compressibility (1/GPa) = 0.02345708
#
# Stress axis : x y z
#
# Youngs Moduli (GPa) = 109.35072 74.09596 56.24677
#
# Poissons Ratio (x) = 0.15878 0.14713
# Poissons Ratio (y) = 0.23432 0.20938
# Poissons Ratio (z) = 0.28604 0.27583
#
# Static dielectric constant tensor:
#      x y z
#    x 4.647240 -0.234640 0.181720 
#    y -0.234640 4.187600 0.029810 
#    z 0.181720 0.029810 4.451950 
# 
# 
# High freq. dielectric constant tensor:
#      x y z
#    x 1.920950 -0.013410 0.001680 
#    y -0.013410 1.902550 0.014670 
#    z 0.001680 0.014670 1.911940 
# 
# From -- ./inp_files/379890.got.cif
#   From: 2010.06.25/outbox.cif.g09.slc.cpg/sg2_190_cif.got.tgz:379890.got - 2010.06.27 13:26:56.
