data_PCOD8016485
_publ_section_title
;
Structure prediction by ZEFSAII (Michael W. Deem and Ramdas Pophale) SiO2 
 PCOD8016485
Probable space group: P -1
;
_chemical_formula_sum "Si O2"
_cell_formula_units_Z 14
_cell_length_a 5.219299
_cell_length_b 5.427805
_cell_length_c 18.323332
_cell_angle_alpha 83.324406
_cell_angle_beta 93.425999
_cell_angle_gamma 81.172654
_cell_volume 507.866916
_symmetry_space_group_name_H-M "P -1"
_symmetry_group_IT_number 2
_symmetry_cell_setting 'triclinic'
loop_
_space_group_symop_operation_xyz
x,y,z
-x,-y,-z
loop_
_atom_site_type_symbol
_atom_site_label
_atom_site_fract_x
_atom_site_fract_y
_atom_site_fract_z
Si Si1 0.214393 0.943163 0.396671
Si Si2 0.977512 0.774789 0.951603
Si Si3 0.405871 0.737532 0.203185
Si Si4 0.450035 0.680068 0.677766
Si Si5 0.496518 0.606006 0.915871
Si Si6 0.085824 0.056777 0.741868
Si Si7 0.184520 0.660198 0.537375
O O1 0.422462 0.082943 0.354716
O O2 0.984874 0.118884 0.428283
O O3 0.068100 0.802173 0.336385
O O4 0.350950 0.759180 0.470019
O O5 0.204967 0.761305 0.893856
O O6 0.695191 0.810237 0.905313
O O7 0.000000 0.500000 0.000000
O O8 0.000000 0.000000 0.000000
O O9 0.355519 0.509454 0.263206
O O10 0.427781 0.635516 0.125030
O O11 0.139676 0.941827 0.199456
O O12 0.674487 0.820998 0.228695
O O13 0.377510 0.528744 0.608958
O O14 0.204319 0.777524 0.724317
O O15 0.500000 0.500000 0.000000
O O16 0.000000 0.500000 0.500000
#
# Coordination Sequence:
#
# PCOD8016485 Si02
#       7
#     2   2   2   2   2   2   2
#     4  10  22  42  64 104 137 181 239 292 349 424
#     4  10  21  44  72 106 147 186 236 300 370 440
#     4  12  26  46  74 101 142 190 240 285 374 426
#     4  11  25  44  69 101 144 179 247 291 356 433
#     4  10  23  47  69 107 141 183 243 301 362 441
#     4  11  25  46  69 101 142 187 232 298 350 431
#     4  10  22  39  68  98 138 186 232 293 357 417
#
# _framework density 27.566278000000001
#
# number of rings (size 3 to 8) (size 9 to 14) (size 15 to 20)
#    0.000    1.429    1.429    2.571    6.000    0.571 
#   15.429    0.000    0.000    0.000    0.000    0.000 
#    0.000    0.000    0.000    0.000    0.000    0.000 
#
# Total GULP energy -173438.842604 kJ/mol
# GULP energy per Si atom -12388.488757 kJ/mol
# Density = 2.750354 g / cm^3
# Si number density = 27.566278 Si / 1000 Ang^3
#
#
#
# Elastic Constant Matrix: (Units=GPa)
#
#
# Indices 1 2 3 4 5 6 
#
# 1 195.6918 36.1981 65.8109 30.7809 -17.6872 26.3992
# 2 36.1981 82.2927 41.9890 33.5519 -6.7356 24.5922
# 3 65.8109 41.9890 109.6206 52.6593 -14.4342 7.5417
# 4 30.7809 33.5519 52.6593 61.2656 -2.6964 2.7243
# 5 -17.6872 -6.7356 -14.4342 -2.6964 53.3559 14.6122
# 6 26.3992 24.5922 7.5417 2.7243 14.6122 46.7312
#
#
#
# Elastic Compliance Matrix: (Units=1/GPa)
#
#
# Indices 1 2 3 4 5 6 
#
# 1 0.007153 0.000415 -0.003596 -0.000414 0.002659 -0.004486
# 2 0.000415 0.020685 -0.002629 -0.008545 0.004811 -0.011702
# 3 -0.003596 -0.002629 0.018791 -0.012790 0.002848 0.000238
# 4 -0.000414 -0.008545 -0.012790 0.031703 -0.004843 0.006461
# 5 0.002659 0.004811 0.002848 -0.004843 0.023961 -0.011703
# 6 -0.004486 -0.011702 0.000238 0.006461 -0.011703 0.033336
#
#
# Mechanical properties :
#
#
# Convention : Reuss Voigt Hill
#
# Bulk Modulus (GPa) = 28.56358 75.06680 51.81519
# Shear Modulus (GPa) = 31.46253 48.51102 39.98677
#
# Velocity S-wave (km/s) = 3.38204 4.19954 3.81276
# Velocity P-wave (km/s) = 5.06312 7.12779 6.18226
#
# Compressibility (1/GPa) = 0.03500962
#
# Stress axis : x y z
#
# Youngs Moduli (GPa) = 139.79781 48.34380 53.21688
#
# Poissons Ratio (x) = -0.02009 0.19136
# Poissons Ratio (y) = -0.05808 0.13993
# Poissons Ratio (z) = 0.50270 0.12712
#
# Static dielectric constant tensor:
#      x y z
#    x 7.535910 0.008460 -0.520330 
#    y 0.008460 4.204690 -0.970260 
#    z -0.520330 -0.970260 3.839790 
# 
# 
# High freq. dielectric constant tensor:
#      x y z
#    x 2.128880 -0.010730 -0.003510 
#    y -0.010730 2.091970 0.016320 
#    z -0.003510 0.016320 2.138530 
# 
# From -- ./inp_files/7942.got.cif
#   From: 2010.06.25/outbox.cif.g09.slc.cpg/sg2_4_cif.got.tgz:7942.got - 2010.06.27 13:26:56.
