data_PCOD8016949
_publ_section_title
;
Structure prediction by ZEFSAII (Michael W. Deem and Ramdas Pophale) SiO2 
 PCOD8016949
Probable space group: P -1
;
_chemical_formula_sum "Si O2"
_cell_formula_units_Z 16
_cell_length_a 13.608026
_cell_length_b 12.910312
_cell_length_c 10.742699
_cell_angle_alpha 89.347200
_cell_angle_beta 64.924003
_cell_angle_gamma 32.796910
_cell_volume 658.572654
_symmetry_space_group_name_H-M "P -1"
_symmetry_group_IT_number 2
_symmetry_cell_setting 'triclinic'
loop_
_space_group_symop_operation_xyz
x,y,z
-x,-y,-z
loop_
_atom_site_type_symbol
_atom_site_label
_atom_site_fract_x
_atom_site_fract_y
_atom_site_fract_z
Si Si1 0.573634 0.080155 0.731257
Si Si2 0.763061 0.645498 0.420897
Si Si3 0.571481 0.686538 0.967897
Si Si4 0.456409 0.127243 0.213097
Si Si5 0.069937 0.635468 0.865140
Si Si6 0.831592 0.820527 0.350287
Si Si7 0.668019 0.292796 0.024837
Si Si8 0.279043 0.684545 0.729208
O O1 0.280172 0.370273 0.820788
O O2 0.528707 0.007704 0.817322
O O3 0.826704 0.853530 0.500128
O O4 0.633249 0.112539 0.807510
O O5 0.783167 0.633691 0.559215
O O6 0.968660 0.377012 0.255622
O O7 0.817941 0.709668 0.330167
O O8 0.443357 0.886974 0.565682
O O9 0.649046 0.726466 0.858403
O O10 0.882525 0.376650 0.854079
O O11 0.423647 0.745031 0.945079
O O12 0.765637 0.898096 0.090674
O O13 0.187636 0.647107 0.796265
O O14 0.500000 0.500000 0.000000
O O15 0.584286 0.402714 0.208391
O O16 0.009438 0.995022 0.835323
O O17 0.500000 0.500000 0.500000
#
# Coordination Sequence:
#
# PCOD8016949 Si02
#       8
#     2   2   2   2   2   2   2   2
#     4  10  22  37  60  94 131 170 211 259 324 410
#     4   9  20  36  62  90 128 169 212 257 319 396
#     4  12  23  38  63  91 130 173 212 271 337 396
#     4  11  22  36  60  95 132 169 209 260 325 400
#     4  11  21  40  66  91 124 170 219 271 333 396
#     4   9  20  38  57  92 128 170 214 255 315 400
#     4  11  27  50  72 102 138 182 239 302 359 415
#     4  11  27  48  75 103 137 181 242 300 356 418
#
# _framework density 24.294967
#
# number of rings (size 3 to 8) (size 9 to 14) (size 15 to 20)
#    0.000    1.500    1.250    3.750    1.750    6.500 
#    0.000    0.000    0.000    0.000    0.000    0.000 
#    0.000    0.000    0.000    0.000    0.000    0.000 
#
# Total GULP energy -198238.856829 kJ/mol
# GULP energy per Si atom -12389.928552 kJ/mol
# Density = 2.423967 g / cm^3
# Si number density = 24.294967 Si / 1000 Ang^3
#
#
#
# Elastic Constant Matrix: (Units=GPa)
#
#
# Indices 1 2 3 4 5 6 
#
# 1 124.8215 9.1536 42.7179 -7.2484 29.3365 -11.4432
# 2 9.1536 84.9089 3.7970 2.4692 10.3740 -8.0910
# 3 42.7179 3.7970 81.3983 -21.0776 29.6481 -4.8366
# 4 -7.2484 2.4692 -21.0776 22.7963 -9.5382 -3.6855
# 5 29.3365 10.3740 29.6481 -9.5382 41.9089 0.8301
# 6 -11.4432 -8.0910 -4.8366 -3.6855 0.8301 32.3577
#
#
#
# Elastic Compliance Matrix: (Units=1/GPa)
#
#
# Indices 1 2 3 4 5 6 
#
# 1 0.010807 0.000007 -0.004135 -0.002049 -0.005169 0.003105
# 2 0.000007 0.012600 0.000526 -0.002060 -0.004026 0.003100
# 3 -0.004135 0.000526 0.022212 0.015879 -0.009415 0.004039
# 4 -0.002049 -0.002060 0.015879 0.061298 0.004503 0.008000
# 5 -0.005169 -0.004026 -0.009415 0.004503 0.036254 -0.004659
# 6 0.003105 0.003100 0.004039 0.008000 -0.004659 0.034412
#
#
# Mechanical properties :
#
#
# Convention : Reuss Voigt Hill
#
# Bulk Modulus (GPa) = 26.03177 44.71840 35.37508
# Shear Modulus (GPa) = 25.30468 35.10994 30.20731
#
# Velocity S-wave (km/s) = 3.23082 3.80564 3.52995
# Velocity P-wave (km/s) = 4.96546 6.14467 5.58626
#
# Compressibility (1/GPa) = 0.03841461
#
# Stress axis : x y z
#
# Youngs Moduli (GPa) = 92.53678 79.36311 45.02085
#
# Poissons Ratio (x) = -0.00054 0.18616
# Poissons Ratio (y) = -0.00063 -0.02368
# Poissons Ratio (z) = 0.38263 -0.04174
#
# Static dielectric constant tensor:
#      x y z
#    x 4.377770 -0.162550 0.357040 
#    y -0.162550 4.378540 0.104570 
#    z 0.357040 0.104570 4.684700 
# 
# 
# High freq. dielectric constant tensor:
#      x y z
#    x 1.955740 -0.017900 0.022250 
#    y -0.017900 1.962780 0.009690 
#    z 0.022250 0.009690 1.968680 
# 
# From -- ./inp_files/428370.got.cif
#   From: 2010.06.25/outbox.cif.g09.slc.cpg/sg2_215_cif.got.tgz:428370.got - 2010.06.27 13:26:56.
