data_PCOD8016041
_publ_section_title
;
Structure prediction by ZEFSAII (Michael W. Deem and Ramdas Pophale) SiO2 
 PCOD8016041
Probable space group: P -1
;
_chemical_formula_sum "Si O2"
_cell_formula_units_Z 16
_cell_length_a 7.838120
_cell_length_b 26.111832
_cell_length_c 9.557869
_cell_angle_alpha 134.927651
_cell_angle_beta 120.311454
_cell_angle_gamma 31.182994
_cell_volume 690.196229
_symmetry_space_group_name_H-M "P -1"
_symmetry_group_IT_number 2
_symmetry_cell_setting 'triclinic'
loop_
_space_group_symop_operation_xyz
x,y,z
-x,-y,-z
loop_
_atom_site_type_symbol
_atom_site_label
_atom_site_fract_x
_atom_site_fract_y
_atom_site_fract_z
Si Si1 0.505770 0.912627 0.348669
Si Si2 0.992584 0.466975 0.088253
Si Si3 0.930076 0.705546 0.316370
Si Si4 0.761324 0.230812 0.027373
Si Si5 0.831405 0.360296 0.423733
Si Si6 0.803467 0.135908 0.594047
Si Si7 0.428926 0.291424 0.485362
Si Si8 0.270941 0.875171 0.964783
O O1 0.858580 0.791684 0.344628
O O2 0.512992 0.864256 0.114148
O O3 0.500000 0.000000 0.500000
O O4 0.163404 0.984933 0.431990
O O5 0.718806 0.583965 0.307242
O O6 0.353112 0.363262 0.117321
O O7 0.000000 0.500000 0.000000
O O8 0.891767 0.413871 0.921520
O O9 0.543759 0.801445 0.391238
O O10 0.187056 0.654580 0.446966
O O11 0.925772 0.258977 0.185993
O O12 0.882357 0.175379 0.814731
O O13 0.889357 0.128980 0.989547
O O14 0.500000 0.500000 0.500000
O O15 0.137959 0.323776 0.475077
O O16 0.758412 0.183752 0.512917
O O17 0.517824 0.245582 0.274309
O O18 0.000000 0.000000 0.000000
#
# Coordination Sequence:
#
# PCOD8016041 Si02
#       8
#     2   2   2   2   2   2   2   2
#     4  12  26  44  65  94 136 170 220 275 325 384
#     4  11  17  40  67  96 122 171 216 261 317 395
#     4  10  22  40  69  95 128 175 219 261 325 395
#     4  11  23  40  68  94 131 169 221 267 321 392
#     4  11  22  39  65 103 132 161 219 279 316 376
#     4  10  21  43  69  92 122 179 221 256 327 397
#     4  11  23  40  71  96 135 171 214 268 335 382
#     4  12  27  46  63  95 137 174 216 274 329 388
#
# _framework density 23.181812999999998
#
# number of rings (size 3 to 8) (size 9 to 14) (size 15 to 20)
#    0.000    1.000    8.750    0.375    3.500    0.500 
#    0.000    1.250    0.000    2.250    0.000    0.000 
#    0.000    0.000    0.000    0.000    0.000    0.000 
#
# Total GULP energy -198243.249292 kJ/mol
# GULP energy per Si atom -12390.203081 kJ/mol
# Density = 2.312905 g / cm^3
# Si number density = 23.181813 Si / 1000 Ang^3
#
#
#
# Elastic Constant Matrix: (Units=GPa)
#
#
# Indices 1 2 3 4 5 6 
#
# 1 30.6164 14.6741 20.9006 -2.3051 13.2521 18.4525
# 2 14.6741 154.6642 58.0279 -15.5632 8.5330 26.7440
# 3 20.9006 58.0279 192.3939 -9.3538 6.7165 12.0856
# 4 -2.3051 -15.5632 -9.3538 39.7437 0.1052 -0.6918
# 5 13.2521 8.5330 6.7165 0.1052 31.6589 9.6405
# 6 18.4525 26.7440 12.0856 -0.6918 9.6405 28.4421
#
#
#
# Elastic Compliance Matrix: (Units=1/GPa)
#
#
# Indices 1 2 3 4 5 6 
#
# 1 0.063588 0.003396 -0.004911 0.003256 -0.015195 -0.037132
# 2 0.003396 0.008971 -0.002320 0.003001 -0.000491 -0.009413
# 3 -0.004911 -0.002320 0.006268 0.000324 0.000585 0.002514
# 4 0.003256 0.003001 0.000324 0.026534 -0.001094 -0.004056
# 5 -0.015195 -0.000491 0.000585 -0.001094 0.038917 -0.003147
# 6 -0.037132 -0.009413 0.002514 -0.004056 -0.003147 0.068000
#
#
# Mechanical properties :
#
#
# Convention : Reuss Voigt Hill
#
# Bulk Modulus (GPa) = 14.05338 62.76441 38.40890
# Shear Modulus (GPa) = 20.51974 38.90706 29.71340
#
# Velocity S-wave (km/s) = 2.97840 4.10120 3.58404
# Velocity P-wave (km/s) = 4.23122 7.03990 5.80790
#
# Compressibility (1/GPa) = 0.07115726
#
# Stress axis : x y z
#
# Youngs Moduli (GPa) = 15.72614 111.47417 159.53033
#
# Poissons Ratio (x) = -0.37857 0.78344
# Poissons Ratio (y) = -0.05341 0.37015
# Poissons Ratio (z) = 0.07723 0.25865
#
# Static dielectric constant tensor:
#      x y z
#    x 3.740930 0.122230 0.019720 
#    y 0.122230 4.908800 -0.196100 
#    z 0.019720 -0.196100 4.681540 
# 
# 
# High freq. dielectric constant tensor:
#      x y z
#    x 1.873050 0.018920 0.013020 
#    y 0.018920 1.933370 -0.007200 
#    z 0.013020 -0.007200 1.935020 
# 
# From -- ./inp_files/227536.got.cif
#   From: 2010.06.25/outbox.cif.g09.slc.cpg/sg2_114_cif.got.tgz:227536.got - 2010.06.27 13:26:56.
