data_PCOD8016713
_publ_section_title
;
Structure prediction by ZEFSAII (Michael W. Deem and Ramdas Pophale) SiO2 
 PCOD8016713
Probable space group: P -1
;
_chemical_formula_sum "Si O2"
_cell_formula_units_Z 16
_cell_length_a 8.403766
_cell_length_b 6.313428
_cell_length_c 14.463117
_cell_angle_alpha 80.761409
_cell_angle_beta 111.555412
_cell_angle_gamma 112.455241
_cell_volume 659.399943
_symmetry_space_group_name_H-M "P -1"
_symmetry_group_IT_number 2
_symmetry_cell_setting 'triclinic'
loop_
_space_group_symop_operation_xyz
x,y,z
-x,-y,-z
loop_
_atom_site_type_symbol
_atom_site_label
_atom_site_fract_x
_atom_site_fract_y
_atom_site_fract_z
Si Si1 0.691122 0.555900 0.269993
Si Si2 0.691126 0.700155 0.528293
Si Si3 0.233994 0.814343 0.014968
Si Si4 0.991658 0.409525 0.315899
Si Si5 0.599927 0.815728 0.689032
Si Si6 0.132659 0.381833 0.146679
Si Si7 0.480274 0.711666 0.928726
Si Si8 0.337502 0.042937 0.674001
O O1 0.911492 0.612306 0.310043
O O2 0.587015 0.409103 0.347777
O O3 0.594367 0.379074 0.180742
O O4 0.647084 0.789901 0.245974
O O5 0.500000 0.500000 0.500000
O O6 0.696955 0.866599 0.606041
O O7 0.735270 0.855148 0.436092
O O8 0.845452 0.585680 0.582023
O O9 0.243503 0.625582 0.104996
O O10 0.328998 0.072967 0.055995
O O11 0.334047 0.794413 0.943135
O O12 0.024213 0.771317 0.945720
O O13 0.052086 0.436826 0.220978
O O14 0.814368 0.188922 0.312278
O O15 0.733454 0.759447 0.795774
O O16 0.536187 0.024990 0.695049
O O17 0.500000 0.500000 0.000000
#
# Coordination Sequence:
#
# PCOD8016713 Si02
#       8
#     2   2   2   2   2   2   2   2
#     4  11  23  44  65 105 138 189 232 281 357 427
#     4  11  22  47  70 105 140 180 233 296 355 420
#     4  10  23  45  74  99 147 183 240 300 350 425
#     4  10  24  44  71 102 140 178 240 288 351 432
#     4  10  23  43  71 101 141 179 241 288 350 427
#     4  10  21  46  73 109 137 186 243 296 360 409
#     4  11  24  42  70 106 141 189 235 293 359 429
#     4  11  24  44  73  97 143 191 228 293 353 430
#
# _framework density 24.264482999999998
#
# number of rings (size 3 to 8) (size 9 to 14) (size 15 to 20)
#    0.000    1.500    2.500    1.500    1.750    3.500 
#    6.750    8.125    0.000    0.750    0.000    0.000 
#    0.000    0.000    0.000    0.000    0.000    0.000 
#
# Total GULP energy -198310.366462 kJ/mol
# GULP energy per Si atom -12394.397904 kJ/mol
# Density = 2.420926 g / cm^3
# Si number density = 24.264483 Si / 1000 Ang^3
#
#
#
# Elastic Constant Matrix: (Units=GPa)
#
#
# Indices 1 2 3 4 5 6 
#
# 1 135.3483 45.3070 40.8823 4.2267 15.4908 -20.4590
# 2 45.3070 116.2600 41.6284 0.1455 12.3561 -8.2097
# 3 40.8823 41.6284 112.7801 -12.5230 10.7325 2.1436
# 4 4.2267 0.1455 -12.5230 25.7889 1.6233 -4.9479
# 5 15.4908 12.3561 10.7325 1.6233 44.3807 -9.8831
# 6 -20.4590 -8.2097 2.1436 -4.9479 -9.8831 45.4829
#
#
#
# Elastic Compliance Matrix: (Units=1/GPa)
#
#
# Indices 1 2 3 4 5 6 
#
# 1 0.009814 -0.002414 -0.002870 -0.002221 -0.001172 0.003618
# 2 -0.002414 0.010841 -0.003130 -0.000984 -0.001240 0.000642
# 3 -0.002870 -0.003130 0.011929 0.005978 -0.001707 -0.002139
# 4 -0.002221 -0.000984 0.005978 0.042688 -0.001312 0.002900
# 5 -0.001172 -0.001240 -0.001707 -0.001312 0.024765 0.004568
# 6 0.003618 0.000642 -0.002139 0.002900 0.004568 0.025138
#
#
# Mechanical properties :
#
#
# Convention : Reuss Voigt Hill
#
# Bulk Modulus (GPa) = 63.46791 68.89154 66.17973
# Shear Modulus (GPa) = 33.95460 38.90188 36.42824
#
# Velocity S-wave (km/s) = 3.74485 4.00840 3.87886
# Velocity P-wave (km/s) = 6.70165 7.06233 6.88435
#
# Compressibility (1/GPa) = 0.01575599
#
# Stress axis : x y z
#
# Youngs Moduli (GPa) = 101.89840 92.24043 83.82619
#
# Poissons Ratio (x) = 0.22266 0.24060
# Poissons Ratio (y) = 0.24597 0.26239
# Poissons Ratio (z) = 0.29247 0.28872
#
# Static dielectric constant tensor:
#      x y z
#    x 4.937250 -0.218790 -0.267250 
#    y -0.218790 3.988950 0.618730 
#    z -0.267250 0.618730 3.078190 
# 
# 
# High freq. dielectric constant tensor:
#      x y z
#    x 1.983920 -0.010400 -0.006680 
#    y -0.010400 1.946710 -0.008000 
#    z -0.006680 -0.008000 1.968490 
# 
# From -- ./inp_files/488336.got.cif
#   From: 2010.06.25/outbox.cif.g09.slc.cpg/sg2_245_cif.got.tgz:488336.got - 2010.06.27 13:26:56.
