data_PCOD8016852
_publ_section_title
;
Structure prediction by ZEFSAII (Michael W. Deem and Ramdas Pophale) SiO2 
 PCOD8016852
Probable space group: P -1
;
_chemical_formula_sum "Si O2"
_cell_formula_units_Z 16
_cell_length_a 14.317402
_cell_length_b 9.704301
_cell_length_c 21.752281
_cell_angle_alpha 50.261039
_cell_angle_beta 18.885057
_cell_angle_gamma 50.813217
_cell_volume 747.786869
_symmetry_space_group_name_H-M "P -1"
_symmetry_group_IT_number 2
_symmetry_cell_setting 'triclinic'
loop_
_space_group_symop_operation_xyz
x,y,z
-x,-y,-z
loop_
_atom_site_type_symbol
_atom_site_label
_atom_site_fract_x
_atom_site_fract_y
_atom_site_fract_z
Si Si1 0.241254 0.586269 0.594358
Si Si2 0.359931 0.926884 0.935161
Si Si3 0.242772 0.594644 0.885480
Si Si4 0.587293 0.675617 0.241245
Si Si5 0.036605 0.119365 0.238335
Si Si6 0.651810 0.417352 0.036751
Si Si7 0.233185 0.900325 0.712806
Si Si8 0.400370 0.790671 0.080843
O O1 0.500000 0.500000 0.500000
O O2 0.339042 0.598614 0.459109
O O3 0.164729 0.793417 0.606524
O O4 0.963189 0.473731 0.803900
O O5 0.481517 0.107952 0.782903
O O6 0.440934 0.760143 0.886998
O O7 0.488003 0.878806 0.936632
O O8 0.010102 0.957221 0.146097
O O9 0.391193 0.407246 0.817250
O O10 0.347310 0.749489 0.733157
O O11 0.356433 0.619434 0.875499
O O12 0.894110 0.612642 0.100628
O O13 0.899916 0.191066 0.238053
O O14 0.094510 0.898574 0.264592
O O15 0.352143 0.190583 0.027472
O O16 0.392660 0.576858 0.137068
O O17 0.500000 0.000000 0.500000
#
# Coordination Sequence:
#
# PCOD8016852 Si02
#       8
#     2   2   2   2   2   2   2   2
#     4  11  21  36  62  94 126 161 202 259 310 376
#     4  10  23  39  62  92 123 165 210 264 306 357
#     4  10  22  37  61  91 127 170 202 245 319 383
#     4  10  22  38  60  88 132 162 208 253 311 378
#     4   9  20  36  63  91 116 167 212 247 300 371
#     4  11  23  38  65  93 123 165 208 261 314 361
#     4  10  22  36  61  95 135 159 197 262 327 372
#     4   9  20  40  64  85 121 168 223 245 296 379
#
# _framework density 21.396470999999998
#
# number of rings (size 3 to 8) (size 9 to 14) (size 15 to 20)
#    0.000    2.000    1.250    1.125   17.500    3.000 
#    0.000    2.500    0.000    5.250    0.000    0.000 
#    0.000    0.000    0.000    0.000    0.000    0.000 
#
# Total GULP energy -198292.379491 kJ/mol
# GULP energy per Si atom -12393.273718 kJ/mol
# Density = 2.134777 g / cm^3
# Si number density = 21.396471 Si / 1000 Ang^3
#
#
#
# Elastic Constant Matrix: (Units=GPa)
#
#
# Indices 1 2 3 4 5 6 
#
# 1 101.4571 43.8861 26.9469 -5.8983 20.9787 4.3909
# 2 43.8861 152.0660 31.8063 5.2000 10.0329 9.1548
# 3 26.9469 31.8063 79.1185 -10.1783 18.0872 -4.7886
# 4 -5.8983 5.2000 -10.1783 31.8478 -1.2795 7.1500
# 5 20.9787 10.0329 18.0872 -1.2795 23.6016 3.4695
# 6 4.3909 9.1548 -4.7886 7.1500 3.4695 33.2790
#
#
#
# Elastic Compliance Matrix: (Units=1/GPa)
#
#
# Indices 1 2 3 4 5 6 
#
# 1 0.013675 -0.003172 -0.000814 0.002513 -0.009966 -0.000550
# 2 -0.003172 0.008212 -0.003068 -0.002395 0.001837 -0.001959
# 3 -0.000814 -0.003068 0.017679 0.004691 -0.011813 0.003719
# 4 0.002513 -0.002395 0.004691 0.035097 -0.001977 -0.006332
# 5 -0.009966 0.001837 -0.011813 -0.001977 0.060387 -0.006761
# 6 -0.000550 -0.001959 0.003719 -0.006332 -0.006761 0.033261
#
#
# Mechanical properties :
#
#
# Convention : Reuss Voigt Hill
#
# Bulk Modulus (GPa) = 39.27929 59.76893 49.52411
# Shear Modulus (GPa) = 26.19115 33.07916 29.63516
#
# Velocity S-wave (km/s) = 3.50249 3.93620 3.72566
# Velocity P-wave (km/s) = 5.89528 6.97516 6.45783
#
# Compressibility (1/GPa) = 0.02545871
#
# Stress axis : x y z
#
# Youngs Moduli (GPa) = 73.12498 121.77801 56.56476
#
# Poissons Ratio (x) = 0.38624 0.04605
# Poissons Ratio (y) = 0.23193 0.17352
# Poissons Ratio (z) = 0.05954 0.37357
#
# Static dielectric constant tensor:
#      x y z
#    x 3.798370 -0.066570 0.133280 
#    y -0.066570 4.315790 0.311950 
#    z 0.133280 0.311950 3.540020 
# 
# 
# High freq. dielectric constant tensor:
#      x y z
#    x 1.836210 -0.004260 0.017250 
#    y -0.004260 1.857130 0.017130 
#    z 0.017250 0.017130 1.799410 
# 
# From -- ./inp_files/597317.got.cif
#   From: 2010.06.25/outbox.cif.g09.slc.cpg/sg2_299_cif.got.tgz:597317.got - 2010.06.27 13:26:56.
