data_PCOD8016291
_publ_section_title
;
Structure prediction by ZEFSAII (Michael W. Deem and Ramdas Pophale) SiO2 
 PCOD8016291
Probable space group: P -1
;
_chemical_formula_sum "Si O2"
_cell_formula_units_Z 16
_cell_length_a 9.723310
_cell_length_b 15.922768
_cell_length_c 8.747511
_cell_angle_alpha 79.648294
_cell_angle_beta 108.676721
_cell_angle_gamma 143.618495
_cell_volume 753.626897
_symmetry_space_group_name_H-M "P -1"
_symmetry_group_IT_number 2
_symmetry_cell_setting 'triclinic'
loop_
_space_group_symop_operation_xyz
x,y,z
-x,-y,-z
loop_
_atom_site_type_symbol
_atom_site_label
_atom_site_fract_x
_atom_site_fract_y
_atom_site_fract_z
Si Si1 0.245851 0.076889 0.376699
Si Si2 0.495487 0.592453 0.909854
Si Si3 0.478387 0.399909 0.450059
Si Si4 0.017392 0.891734 0.636881
Si Si5 0.013179 0.588540 0.086279
Si Si6 0.212726 0.861110 0.945250
Si Si7 0.010618 0.103269 0.929103
Si Si8 0.239310 0.622929 0.445396
O O1 0.534584 0.235244 0.415970
O O2 0.071832 0.077953 0.282288
O O3 0.214671 0.026140 0.552553
O O4 0.148605 0.960316 0.262293
O O5 0.540468 0.609970 0.738147
O O6 0.245874 0.520145 0.890548
O O7 0.500000 0.500000 0.000000
O O8 0.704629 0.740824 0.028340
O O9 0.500000 0.500000 0.500000
O O10 0.698785 0.443700 0.567252
O O11 0.234654 0.248432 0.492192
O O12 0.119937 0.851113 0.751941
O O13 0.200378 0.661681 0.268419
O O14 0.105756 0.716457 0.987511
O O15 0.000000 0.500000 0.000000
O O16 0.119456 0.889141 0.015575
O O17 0.500000 0.000000 0.000000
O O18 0.000000 0.000000 0.000000
O O19 0.000000 0.500000 0.500000
#
# Coordination Sequence:
#
# PCOD8016291 Si02
#       8
#     2   2   2   2   2   2   2   2
#     4  10  23  42  73 105 132 186 232 286 354 419
#     4  12  25  47  71 105 144 179 246 294 340 441
#     4  11  24  42  72  98 136 184 229 293 355 412
#     4  10  21  44  66 100 140 173 238 283 339 427
#     4  12  29  46  72 106 144 195 235 297 368 415
#     4  12  26  46  66 103 148 180 234 299 348 429
#     4  12  24  44  75 102 138 189 235 285 358 416
#     4  11  24  46  69  99 146 180 239 292 350 428
#
# _framework density 21.230664999999998
#
# number of rings (size 3 to 8) (size 9 to 14) (size 15 to 20)
#    0.000    0.750    5.000    1.500    7.000    2.000 
#    0.000    1.250    0.000    0.000    0.000    0.000 
#    0.000    0.000    0.000    0.000    0.000    0.000 
#
# Total GULP energy -198233.052517 kJ/mol
# GULP energy per Si atom -12389.565782 kJ/mol
# Density = 2.118234 g / cm^3
# Si number density = 21.230665 Si / 1000 Ang^3
#
#
#
# Elastic Constant Matrix: (Units=GPa)
#
#
# Indices 1 2 3 4 5 6 
#
# 1 130.2435 70.9746 43.9537 7.3543 15.7188 -6.4396
# 2 70.9746 163.5071 49.5318 4.8616 3.8674 -2.5650
# 3 43.9537 49.5318 93.2439 7.2047 19.0705 -5.5363
# 4 7.3543 4.8616 7.2047 37.4394 -9.4175 6.5662
# 5 15.7188 3.8674 19.0705 -9.4175 36.6034 1.9027
# 6 -6.4396 -2.5650 -5.5363 6.5662 1.9027 48.5544
#
#
#
# Elastic Compliance Matrix: (Units=1/GPa)
#
#
# Indices 1 2 3 4 5 6 
#
# 1 0.011317 -0.004102 -0.002015 -0.002617 -0.004132 0.001570
# 2 -0.004102 0.008843 -0.003521 0.001228 0.003017 -0.000763
# 3 -0.002015 -0.003521 0.015735 -0.004660 -0.008278 0.002295
# 4 -0.002617 0.001228 -0.004660 0.031945 0.011932 -0.005601
# 5 -0.004132 0.003017 -0.008278 0.011932 0.036386 -0.004372
# 6 0.001570 -0.000763 0.002295 -0.005601 -0.004372 0.021954
#
#
# Mechanical properties :
#
#
# Convention : Reuss Voigt Hill
#
# Bulk Modulus (GPa) = 60.17533 79.54609 69.86071
# Shear Modulus (GPa) = 33.11333 39.35507 36.23420
#
# Velocity S-wave (km/s) = 3.95358 4.31012 4.13569
# Velocity P-wave (km/s) = 7.01756 7.89420 7.46875
#
# Compressibility (1/GPa) = 0.01661810
#
# Stress axis : x y z
#
# Youngs Moduli (GPa) = 88.35912 113.07887 63.55432
#
# Poissons Ratio (x) = 0.46384 0.12809
# Poissons Ratio (y) = 0.36244 0.22380
# Poissons Ratio (z) = 0.17808 0.39819
#
# Static dielectric constant tensor:
#      x y z
#    x 4.132970 -0.121370 0.157190 
#    y -0.121370 7.396750 -0.210060 
#    z 0.157190 -0.210060 4.196510 
# 
# 
# High freq. dielectric constant tensor:
#      x y z
#    x 1.835260 0.001020 0.014560 
#    y 0.001020 1.849320 -0.002100 
#    z 0.014560 -0.002100 1.832330 
# 
# From -- ./inp_files/207097.got.cif
#   From: 2010.06.25/outbox.cif.g09.slc.cpg/sg2_104_cif.got.tgz:207097.got - 2010.06.27 13:26:56.
