data_PCOD8016188
_publ_section_title
;
Structure prediction by ZEFSAII (Michael W. Deem and Ramdas Pophale) SiO2 
 PCOD8016188
Probable space group: P -1
;
_chemical_formula_sum "Si O2"
_cell_formula_units_Z 16
_cell_length_a 9.421480
_cell_length_b 27.960983
_cell_length_c 12.280871
_cell_angle_alpha 24.012112
_cell_angle_beta 144.710982
_cell_angle_gamma 149.174626
_cell_volume 666.698002
_symmetry_space_group_name_H-M "P -1"
_symmetry_group_IT_number 2
_symmetry_cell_setting 'triclinic'
loop_
_space_group_symop_operation_xyz
x,y,z
-x,-y,-z
loop_
_atom_site_type_symbol
_atom_site_label
_atom_site_fract_x
_atom_site_fract_y
_atom_site_fract_z
Si Si1 0.736036 0.255914 0.182589
Si Si2 0.894884 0.893349 0.923395
Si Si3 0.158242 0.104893 0.478862
Si Si4 0.098622 0.338025 0.040277
Si Si5 0.222303 0.475696 0.314860
Si Si6 0.228387 0.746616 0.382097
Si Si7 0.820471 0.749243 0.394001
Si Si8 0.592910 0.373523 0.431777
O O1 0.814452 0.291124 0.030589
O O2 0.919102 0.192786 0.479871
O O3 0.416481 0.145770 0.225863
O O4 0.764082 0.384815 0.998669
O O5 0.077387 0.042635 0.680726
O O6 0.019390 0.808336 0.117206
O O7 0.891009 0.867760 0.104206
O O8 0.078732 0.224579 0.178749
O O9 0.494004 0.162263 0.560601
O O10 0.000000 0.000000 0.500000
O O11 0.342873 0.372632 0.208182
O O12 0.163462 0.470098 0.734323
O O13 0.500000 0.500000 0.500000
O O14 0.193073 0.384813 0.382939
O O15 0.940104 0.400619 0.365662
O O16 0.303231 0.723534 0.355456
O O17 0.522199 0.696854 0.376842
#
# Coordination Sequence:
#
# PCOD8016188 Si02
#       8
#     2   2   2   2   2   2   2   2
#     4  11  21  41  70  99 134 179 222 285 349 400
#     4  11  25  44  66  98 143 174 236 272 327 419
#     4  11  26  45  70  97 136 192 235 268 334 409
#     4   9  20  40  67 101 134 175 229 288 331 403
#     4  11  20  39  65 103 140 170 220 284 351 401
#     4  10  21  43  72  98 138 175 221 297 333 392
#     4  10  23  38  66 101 137 181 214 279 353 397
#     4   9  18  39  70 102 133 170 226 282 358 397
#
# _framework density 23.998873
#
# number of rings (size 3 to 8) (size 9 to 14) (size 15 to 20)
#    0.000    1.750    3.750    0.750    5.250    1.500 
#    2.250    6.875    0.000    0.000    0.000    0.000 
#    0.000    0.000    0.000    0.000    0.000    0.000 
#
# Total GULP energy -198296.991110 kJ/mol
# GULP energy per Si atom -12393.561944 kJ/mol
# Density = 2.394425 g / cm^3
# Si number density = 23.998873 Si / 1000 Ang^3
#
#
#
# Elastic Constant Matrix: (Units=GPa)
#
#
# Indices 1 2 3 4 5 6 
#
# 1 141.7946 32.6054 25.8459 0.7623 -8.0375 14.7980
# 2 32.6054 99.6505 31.2165 -7.9217 -10.8117 17.4111
# 3 25.8459 31.2165 76.4737 0.4560 -25.1956 0.8763
# 4 0.7623 -7.9217 0.4560 19.4423 -2.0960 -2.1919
# 5 -8.0375 -10.8117 -25.1956 -2.0960 37.1639 -9.0874
# 6 14.7980 17.4111 0.8763 -2.1919 -9.0874 39.5767
#
#
#
# Elastic Compliance Matrix: (Units=1/GPa)
#
#
# Indices 1 2 3 4 5 6 
#
# 1 0.008081 -0.001684 -0.002346 -0.001345 -0.001029 -0.002540
# 2 -0.001684 0.013390 -0.005179 0.004968 -0.000944 -0.005088
# 3 -0.002346 -0.005179 0.020224 -0.000444 0.013062 0.005682
# 4 -0.001345 0.004968 -0.000444 0.054272 0.004493 0.002365
# 5 -0.001029 -0.000944 0.013062 0.004493 0.037829 0.009446
# 6 -0.002540 -0.005088 0.005682 0.002365 0.009446 0.030629
#
#
# Mechanical properties :
#
#
# Convention : Reuss Voigt Hill
#
# Bulk Modulus (GPa) = 42.95973 55.25050 49.10511
# Shear Modulus (GPa) = 26.23257 34.45331 30.34294
#
# Velocity S-wave (km/s) = 3.30976 3.79307 3.55963
# Velocity P-wave (km/s) = 5.70487 6.50041 6.11559
#
# Compressibility (1/GPa) = 0.02327762
#
# Stress axis : x y z
#
# Youngs Moduli (GPa) = 123.74340 74.68289 49.44605
#
# Poissons Ratio (x) = 0.12578 0.11599
# Poissons Ratio (y) = 0.20841 0.25607
# Poissons Ratio (z) = 0.29027 0.38677
#
# Static dielectric constant tensor:
#      x y z
#    x 4.501830 0.270820 -0.082600 
#    y 0.270820 4.479170 -0.091970 
#    z -0.082600 -0.091970 4.193610 
# 
# 
# High freq. dielectric constant tensor:
#      x y z
#    x 1.959750 0.021420 0.003220 
#    y 0.021420 1.945180 -0.002110 
#    z 0.003220 -0.002110 1.936980 
# 
# From -- ./inp_files/407332.got.cif
#   From: 2010.06.25/outbox.cif.g09.slc.cpg/sg2_204_cif.got.tgz:407332.got - 2010.06.27 13:26:56.
