data_PCOD8016337
_publ_section_title
;
Structure prediction by ZEFSAII (Michael W. Deem and Ramdas Pophale) SiO2 
 PCOD8016337
Probable space group: P -1
;
_chemical_formula_sum "Si O2"
_cell_formula_units_Z 16
_cell_length_a 14.092376
_cell_length_b 8.894441
_cell_length_c 13.511354
_cell_angle_alpha 137.336722
_cell_angle_beta 126.677059
_cell_angle_gamma 83.821113
_cell_volume 729.325560
_symmetry_space_group_name_H-M "P -1"
_symmetry_group_IT_number 2
_symmetry_cell_setting 'triclinic'
loop_
_space_group_symop_operation_xyz
x,y,z
-x,-y,-z
loop_
_atom_site_type_symbol
_atom_site_label
_atom_site_fract_x
_atom_site_fract_y
_atom_site_fract_z
Si Si1 0.572426 0.996159 0.443229
Si Si2 0.500569 0.543500 0.809983
Si Si3 0.946517 0.858067 0.002539
Si Si4 0.597593 0.484744 0.631400
Si Si5 0.183318 0.391984 0.530673
Si Si6 0.880442 0.297764 0.698679
Si Si7 0.233786 0.898104 0.690711
Si Si8 0.000052 0.975463 0.603882
O O1 0.502027 0.672462 0.221077
O O2 0.500000 0.000000 0.500000
O O3 0.545331 0.166320 0.431585
O O4 0.751864 0.164078 0.637860
O O5 0.573361 0.554506 0.758228
O O6 0.336223 0.439893 0.630383
O O7 0.590416 0.845548 0.065018
O O8 0.771574 0.709847 0.826830
O O9 0.978792 0.632342 0.924609
O O10 0.000000 0.000000 0.000000
O O11 0.039400 0.094330 0.256724
O O12 0.500000 0.500000 0.500000
O O13 0.189910 0.640458 0.606884
O O14 0.140662 0.336689 0.594887
O O15 0.805449 0.187557 0.489452
O O16 0.988352 0.214838 0.753694
O O17 0.152457 0.020906 0.746825
O O18 0.000000 0.000000 0.500000
#
# Coordination Sequence:
#
# PCOD8016337 Si02
#       8
#     2   2   2   2   2   2   2   2
#     4   9  20  41  65  92 133 166 215 268 328 393
#     4  11  23  43  63  97 130 176 219 263 338 387
#     4  11  22  41  70  98 129 171 217 274 333 384
#     4  10  22  41  65  99 133 162 219 276 327 393
#     4  12  23  43  70  94 132 175 221 269 330 393
#     4  10  21  44  67  95 133 167 222 274 325 395
#     4  11  24  42  67  94 137 173 220 273 321 394
#     4  10  23  44  64  96 132 173 219 267 325 398
#
# _framework density 21.938077
#
# number of rings (size 3 to 8) (size 9 to 14) (size 15 to 20)
#    0.000    1.500    2.500    2.250    1.750    1.000 
#    9.000    0.000    0.000    0.000    0.000    0.000 
#    0.000    0.000    0.000    0.000    0.000    0.000 
#
# Total GULP energy -198228.175213 kJ/mol
# GULP energy per Si atom -12389.260951 kJ/mol
# Density = 2.188814 g / cm^3
# Si number density = 21.938077 Si / 1000 Ang^3
#
#
#
# Elastic Constant Matrix: (Units=GPa)
#
#
# Indices 1 2 3 4 5 6 
#
# 1 125.3436 56.8982 32.0203 9.4791 23.0158 -7.0796
# 2 56.8982 157.1385 74.6759 29.1641 9.1823 -16.0521
# 3 32.0203 74.6759 132.2745 23.1458 5.6294 -8.4513
# 4 9.4791 29.1641 23.1458 33.6785 -0.0595 3.4638
# 5 23.0158 9.1823 5.6294 -0.0595 29.9550 4.3440
# 6 -7.0796 -16.0521 -8.4513 3.4638 4.3440 45.6596
#
#
#
# Elastic Compliance Matrix: (Units=1/GPa)
#
#
# Indices 1 2 3 4 5 6 
#
# 1 0.011007 -0.003171 -0.000438 -0.000193 -0.007584 0.001247
# 2 -0.003171 0.010956 -0.004129 -0.006079 -0.000610 0.003115
# 3 -0.000438 -0.004129 0.010729 -0.003758 -0.000538 0.000803
# 4 -0.000193 -0.006079 -0.003758 0.038229 0.003680 -0.006113
# 5 -0.007584 -0.000610 -0.000538 0.003680 0.040319 -0.005605
# 6 0.001247 0.003115 0.000803 -0.006113 -0.005605 0.024335
#
#
# Mechanical properties :
#
#
# Convention : Reuss Voigt Hill
#
# Bulk Modulus (GPa) = 58.08649 82.43837 70.26243
# Shear Modulus (GPa) = 31.88977 38.60278 35.24627
#
# Velocity S-wave (km/s) = 3.81678 4.19934 4.01262
# Velocity P-wave (km/s) = 6.77929 7.82125 7.31883
#
# Compressibility (1/GPa) = 0.01721571
#
# Stress axis : x y z
#
# Youngs Moduli (GPa) = 90.85098 91.27162 93.20549
#
# Poissons Ratio (x) = 0.28942 0.04084
# Poissons Ratio (y) = 0.28809 0.38486
# Poissons Ratio (z) = 0.03981 0.37687
#
# Static dielectric constant tensor:
#      x y z
#    x 5.132810 0.462490 0.460410 
#    y 0.462490 5.119010 0.705820 
#    z 0.460410 0.705820 4.339280 
# 
# 
# High freq. dielectric constant tensor:
#      x y z
#    x 1.881840 -0.000900 0.012280 
#    y -0.000900 1.885610 0.023890 
#    z 0.012280 0.023890 1.833570 
# 
# From -- ./inp_files/244214.got.cif
#   From: 2010.06.25/outbox.cif.g09.slc.cpg/sg2_123_cif.got.tgz:244214.got - 2010.06.27 13:26:56.
