data_PCOD8016553
_publ_section_title
;
Structure prediction by ZEFSAII (Michael W. Deem and Ramdas Pophale) SiO2 
 PCOD8016553
Probable space group: P -1
;
_chemical_formula_sum "Si O2"
_cell_formula_units_Z 16
_cell_length_a 9.686368
_cell_length_b 15.584570
_cell_length_c 14.734230
_cell_angle_alpha 27.456635
_cell_angle_beta 77.710886
_cell_angle_gamma 96.613182
_cell_volume 739.452722
_symmetry_space_group_name_H-M "P -1"
_symmetry_group_IT_number 2
_symmetry_cell_setting 'triclinic'
loop_
_space_group_symop_operation_xyz
x,y,z
-x,-y,-z
loop_
_atom_site_type_symbol
_atom_site_label
_atom_site_fract_x
_atom_site_fract_y
_atom_site_fract_z
Si Si1 0.982037 0.055320 0.259236
Si Si2 0.244161 0.588587 0.541913
Si Si3 0.743549 0.998868 0.810410
Si Si4 0.658730 0.413543 0.276591
Si Si5 0.438312 0.851307 0.863481
Si Si6 0.603157 0.565397 0.829693
Si Si7 0.842948 0.113344 0.047533
Si Si8 0.405486 0.218213 0.772851
O O1 0.864032 0.001915 0.236200
O O2 0.120089 0.007925 0.261084
O O3 0.816878 0.842170 0.551694
O O4 0.117433 0.342684 0.012177
O O5 0.336244 0.549292 0.649278
O O6 0.411845 0.761320 0.280990
O O7 0.170117 0.717745 0.470339
O O8 0.053186 0.328095 0.772608
O O9 0.537491 0.824602 0.955407
O O10 0.724607 0.925472 0.986696
O O11 0.517331 0.435979 0.229924
O O12 0.581301 0.133756 0.531699
O O13 0.255488 0.785650 0.996747
O O14 0.378015 0.640430 0.997209
O O15 0.500000 0.500000 0.000000
O O16 0.723272 0.907417 0.180367
O O17 0.500000 0.500000 0.500000
#
# Coordination Sequence:
#
# PCOD8016553 Si02
#       8
#     2   2   2   2   2   2   2   2
#     4  11  23  44  73  96 136 181 226 272 349 406
#     4  10  22  41  63  92 132 180 231 274 329 389
#     4  11  23  40  68  95 132 185 221 277 333 394
#     4  10  21  45  66  97 138 175 217 278 339 397
#     4  11  23  45  73  94 139 183 221 278 349 396
#     4  12  26  45  74 107 133 170 226 283 343 419
#     4  11  23  42  67  94 134 184 223 273 329 399
#     4  12  24  38  60  97 139 177 231 278 320 379
#
# _framework density 21.637623000000001
#
# number of rings (size 3 to 8) (size 9 to 14) (size 15 to 20)
#    0.000    1.000    5.000    2.625    1.750    3.500 
#    0.000    0.625    0.000    0.000    0.000    0.000 
#    0.000    0.000    0.000    0.000    0.000    0.000 
#
# Total GULP energy -198229.812502 kJ/mol
# GULP energy per Si atom -12389.363281 kJ/mol
# Density = 2.158837 g / cm^3
# Si number density = 21.637623 Si / 1000 Ang^3
#
#
#
# Elastic Constant Matrix: (Units=GPa)
#
#
# Indices 1 2 3 4 5 6 
#
# 1 96.0956 14.6012 28.1594 1.0702 0.6287 4.6657
# 2 14.6012 48.9145 33.0219 -8.9402 0.4013 -4.0549
# 3 28.1594 33.0219 138.3652 0.4947 -28.1462 8.5298
# 4 1.0702 -8.9402 0.4947 29.2290 -0.4574 -5.4194
# 5 0.6287 0.4013 -28.1462 -0.4574 26.8444 -4.1453
# 6 4.6657 -4.0549 8.5298 -5.4194 -4.1453 15.0793
#
#
#
# Elastic Compliance Matrix: (Units=1/GPa)
#
#
# Indices 1 2 3 4 5 6 
#
# 1 0.011729 -0.002944 -0.002010 -0.002265 -0.003143 -0.004962
# 2 -0.002944 0.031751 -0.009651 0.013115 -0.007594 0.017534
# 3 -0.002010 -0.009651 0.012968 -0.004271 0.012575 -0.007387
# 4 -0.002265 0.013115 -0.004271 0.042400 -0.000542 0.021732
# 5 -0.003143 -0.007594 0.012575 -0.000542 0.051507 0.005781
# 6 -0.004962 0.017534 -0.007387 0.021732 0.005781 0.086144
#
#
# Mechanical properties :
#
#
# Convention : Reuss Voigt Hill
#
# Bulk Modulus (GPa) = 36.71226 48.32670 42.51948
# Shear Modulus (GPa) = 18.19576 28.07006 23.13291
#
# Velocity S-wave (km/s) = 2.90303 3.60569 3.27327
# Velocity P-wave (km/s) = 5.31418 6.30220 5.82916
#
# Compressibility (1/GPa) = 0.02723885
#
# Stress axis : x y z
#
# Youngs Moduli (GPa) = 85.25670 31.49524 77.11162
#
# Poissons Ratio (x) = 0.09272 0.15498
# Poissons Ratio (y) = 0.25100 0.74420
# Poissons Ratio (z) = 0.17135 0.30396
#
# Static dielectric constant tensor:
#      x y z
#    x 4.225030 0.046390 -0.056490 
#    y 0.046390 3.632410 -0.339130 
#    z -0.056490 -0.339130 4.042930 
# 
# 
# High freq. dielectric constant tensor:
#      x y z
#    x 1.857810 -0.001190 -0.004700 
#    y -0.001190 1.816790 -0.017880 
#    z -0.004700 -0.017880 1.863480 
# 
# From -- ./inp_files/504964.got.cif
#   From: 2010.06.25/outbox.cif.g09.slc.cpg/sg2_253_cif.got.tgz:504964.got - 2010.06.27 13:26:56.
