data_PCOD8016582
_publ_section_title
;
Structure prediction by ZEFSAII (Michael W. Deem and Ramdas Pophale) SiO2 
 PCOD8016582
Probable space group: P -1
;
_chemical_formula_sum "Si O2"
_cell_formula_units_Z 16
_cell_length_a 4.729848
_cell_length_b 22.323292
_cell_length_c 5.849961
_cell_angle_alpha 89.581170
_cell_angle_beta 88.177741
_cell_angle_gamma 102.522474
_cell_volume 602.610083
_symmetry_space_group_name_H-M "P -1"
_symmetry_group_IT_number 2
_symmetry_cell_setting 'triclinic'
loop_
_space_group_symop_operation_xyz
x,y,z
-x,-y,-z
loop_
_atom_site_type_symbol
_atom_site_label
_atom_site_fract_x
_atom_site_fract_y
_atom_site_fract_z
Si Si1 0.597538 0.131446 0.730755
Si Si2 0.136559 0.347875 0.166869
Si Si3 0.953608 0.927867 0.493866
Si Si4 0.620483 0.571412 0.470203
Si Si5 0.391686 0.258842 0.830842
Si Si6 0.185627 0.625470 0.226126
Si Si7 0.917431 0.244346 0.477680
Si Si8 0.043708 0.152392 0.107849
O O1 0.257644 0.099073 0.714652
O O2 0.650303 0.204703 0.645436
O O3 0.745491 0.093351 0.545166
O O4 0.761069 0.124308 0.962858
O O5 0.400183 0.394178 0.289439
O O6 0.901470 0.308813 0.355823
O O7 0.288606 0.303473 0.014615
O O8 0.956706 0.387513 0.019706
O O9 0.841404 0.899266 0.746558
O O10 0.000000 0.000000 0.500000
O O11 0.500000 0.500000 0.500000
O O12 0.473727 0.599224 0.258720
O O13 0.964396 0.588062 0.416218
O O14 0.726034 0.298087 0.757288
O O15 0.217493 0.255721 0.602885
O O16 0.329363 0.189478 0.950578
O O17 0.938587 0.200175 0.269356
#
# Coordination Sequence:
#
# PCOD8016582 Si02
#       8
#     2   2   2   2   2   2   2   2
#     4  10  23  42  63  99 131 174 231 277 335 404
#     4  11  23  43  73  98 137 179 220 282 350 396
#     4  11  24  43  67  96 137 183 231 275 328 401
#     4  12  29  49  69  99 141 181 227 277 334 410
#     4  10  21  45  68 105 135 173 230 284 342 418
#     4  12  25  46  69 103 129 174 231 274 339 406
#     4   9  19  43  66  99 138 172 220 283 347 404
#     4   9  22  41  66 100 135 182 216 289 345 392
#
# _framework density 26.551165000000001
#
# number of rings (size 3 to 8) (size 9 to 14) (size 15 to 20)
#    0.000    1.500    2.500    0.750    3.500    4.000 
#   22.500    0.000    0.000    0.000    0.000    0.000 
#    0.000    0.000    0.000    0.000    0.000    0.000 
#
# Total GULP energy -198341.084277 kJ/mol
# GULP energy per Si atom -12396.317767 kJ/mol
# Density = 2.649073 g / cm^3
# Si number density = 26.551165 Si / 1000 Ang^3
#
#
#
# Elastic Constant Matrix: (Units=GPa)
#
#
# Indices 1 2 3 4 5 6 
#
# 1 92.8890 43.6381 30.6116 -2.2401 17.7431 16.8842
# 2 43.6381 220.0136 79.5572 -3.9199 17.7515 3.6084
# 3 30.6116 79.5572 143.6986 -3.7658 32.1261 8.2534
# 4 -2.2401 -3.9199 -3.7658 42.1223 2.3812 2.7864
# 5 17.7431 17.7515 32.1261 2.3812 43.5769 -8.2781
# 6 16.8842 3.6084 8.2534 2.7864 -8.2781 38.6981
#
#
#
# Elastic Compliance Matrix: (Units=1/GPa)
#
#
# Indices 1 2 3 4 5 6 
#
# 1 0.014456 -0.002221 0.000098 0.001448 -0.006583 -0.007634
# 2 -0.002221 0.006027 -0.003169 0.000015 0.001032 0.001302
# 3 0.000098 -0.003169 0.010571 0.001311 -0.007309 -0.003660
# 4 0.001448 0.000015 0.001311 0.024363 -0.003544 -0.003425
# 5 -0.006583 0.001032 -0.007309 -0.003544 0.033003 0.011650
# 6 -0.007634 0.001302 -0.003660 -0.003425 0.011650 0.032570
#
#
# Mechanical properties :
#
#
# Convention : Reuss Voigt Hill
#
# Bulk Modulus (GPa) = 48.84776 84.91278 66.88027
# Shear Modulus (GPa) = 36.12776 45.06574 40.59675
#
# Velocity S-wave (km/s) = 3.69275 4.12432 3.91449
# Velocity P-wave (km/s) = 6.05139 7.39799 6.75831
#
# Compressibility (1/GPa) = 0.02047177
#
# Stress axis : x y z
#
# Youngs Moduli (GPa) = 69.17344 165.91582 94.59650
#
# Poissons Ratio (x) = 0.36843 -0.00927
# Poissons Ratio (y) = 0.15361 0.29977
# Poissons Ratio (z) = -0.00678 0.52577
#
# Static dielectric constant tensor:
#      x y z
#    x 4.850450 0.209430 -0.372850 
#    y 0.209430 4.956320 -0.221890 
#    z -0.372850 -0.221890 5.567800 
# 
# 
# High freq. dielectric constant tensor:
#      x y z
#    x 2.070390 0.006540 -0.014940 
#    y 0.006540 2.061370 0.005830 
#    z -0.014940 0.005830 2.095730 
# 
# From -- ./inp_files/13339.got.cif
#   From: 2010.06.25/outbox.cif.g09.slc.cpg/sg2_7_cif.got.tgz:13339.got - 2010.06.27 13:26:56.
