data_PCOD8016980
_publ_section_title
;
Structure prediction by ZEFSAII (Michael W. Deem and Ramdas Pophale) SiO2 
 PCOD8016980
Probable space group: P -1
;
_chemical_formula_sum "Si O2"
_cell_formula_units_Z 16
_cell_length_a 11.454875
_cell_length_b 8.719316
_cell_length_c 14.643682
_cell_angle_alpha 42.307610
_cell_angle_beta 51.627855
_cell_angle_gamma 70.832309
_cell_volume 747.767149
_symmetry_space_group_name_H-M "P -1"
_symmetry_group_IT_number 2
_symmetry_cell_setting 'triclinic'
loop_
_space_group_symop_operation_xyz
x,y,z
-x,-y,-z
loop_
_atom_site_type_symbol
_atom_site_label
_atom_site_fract_x
_atom_site_fract_y
_atom_site_fract_z
Si Si1 0.538403 0.673893 0.487778
Si Si2 0.337081 0.000780 0.384958
Si Si3 0.847809 0.750065 0.499438
Si Si4 0.525977 0.136073 0.066979
Si Si5 0.966674 0.246733 0.429422
Si Si6 0.573263 0.364756 0.758103
Si Si7 0.132395 0.733676 0.077690
Si Si8 0.882649 0.933870 0.213820
O O1 0.500000 0.500000 0.500000
O O2 0.458144 0.888765 0.428540
O O3 0.489993 0.540499 0.667033
O O4 0.719821 0.759452 0.351907
O O5 0.210783 0.780754 0.498291
O O6 0.267164 0.156876 0.418939
O O7 0.422026 0.173459 0.186721
O O8 0.755091 0.497325 0.615920
O O9 0.907051 0.948123 0.305465
O O10 0.994296 0.705376 0.503106
O O11 0.456268 0.872838 0.180669
O O12 0.511128 0.315050 0.913949
O O13 0.700312 0.171718 0.000806
O O14 0.078931 0.451059 0.225867
O O15 0.000000 0.000000 0.500000
O O16 0.016092 0.829170 0.154913
O O17 0.120007 0.819111 0.941684
#
# Coordination Sequence:
#
# PCOD8016980 Si02
#       8
#     2   2   2   2   2   2   2   2
#     4  11  19  39  62  96 127 166 212 259 318 382
#     4  11  23  41  67  89 133 172 207 258 325 383
#     4  10  23  43  62  98 128 168 217 259 319 388
#     4  11  22  40  63  99 125 164 213 262 321 372
#     4  10  23  43  62  91 129 176 214 250 326 389
#     4  10  22  37  62  95 129 154 215 264 307 375
#     4  11  21  42  66  94 132 168 210 272 321 376
#     4  10  23  37  66  97 126 165 217 264 324 374
#
# _framework density 21.397034999999999
#
# number of rings (size 3 to 8) (size 9 to 14) (size 15 to 20)
#    0.000    1.500    3.750    0.750    1.750    6.000 
#    0.000    2.500    0.000    0.000    0.000    0.000 
#    0.000    0.000    0.000    0.000    0.000    0.000 
#
# Total GULP energy -198278.057291 kJ/mol
# GULP energy per Si atom -12392.378581 kJ/mol
# Density = 2.134833 g / cm^3
# Si number density = 21.397035 Si / 1000 Ang^3
#
#
#
# Elastic Constant Matrix: (Units=GPa)
#
#
# Indices 1 2 3 4 5 6 
#
# 1 102.1165 12.2437 67.3198 2.6656 2.1477 13.4101
# 2 12.2437 43.8448 43.8444 5.1246 -0.7104 -2.9117
# 3 67.3198 43.8444 167.8702 6.9724 35.4396 12.4330
# 4 2.6656 5.1246 6.9724 37.1902 6.0040 -4.0952
# 5 2.1477 -0.7104 35.4396 6.0040 54.6443 0.2991
# 6 13.4101 -2.9117 12.4330 -4.0952 0.2991 19.1601
#
#
#
# Elastic Compliance Matrix: (Units=1/GPa)
#
#
# Indices 1 2 3 4 5 6 
#
# 1 0.014833 0.002808 -0.007094 -0.001435 0.004243 -0.005724
# 2 0.002808 0.036700 -0.013411 -0.002980 0.009329 0.011532
# 3 -0.007094 -0.013411 0.014764 0.000412 -0.009481 -0.006417
# 4 -0.001435 -0.002980 0.000412 0.028588 -0.003426 0.006448
# 5 0.004243 0.009329 -0.009481 -0.003426 0.024761 0.003481
# 6 -0.005724 0.011532 -0.006417 0.006448 0.003481 0.063439
#
#
# Mechanical properties :
#
#
# Convention : Reuss Voigt Hill
#
# Bulk Modulus (GPa) = 32.35931 62.29415 47.32673
# Shear Modulus (GPa) = 21.85509 34.89381 28.37445
#
# Velocity S-wave (km/s) = 3.19941 4.04267 3.64551
# Velocity P-wave (km/s) = 5.36698 7.13916 6.31554
#
# Compressibility (1/GPa) = 0.03090301
#
# Stress axis : x y z
#
# Youngs Moduli (GPa) = 67.41895 27.24807 67.73098
#
# Poissons Ratio (x) = -0.07652 0.48048
# Poissons Ratio (y) = -0.18933 0.90835
# Poissons Ratio (z) = 0.47826 0.36543
#
# Static dielectric constant tensor:
#      x y z
#    x 4.939170 0.138460 0.055250 
#    y 0.138460 3.445340 -0.035430 
#    z 0.055250 -0.035430 4.472200 
# 
# 
# High freq. dielectric constant tensor:
#      x y z
#    x 1.860720 0.006860 0.009900 
#    y 0.006860 1.803950 -0.003160 
#    z 0.009900 -0.003160 1.855470 
# 
# From -- ./inp_files/262301.got.cif
#   From: 2010.06.25/outbox.cif.g09.slc.cpg/sg2_132_cif.got.tgz:262301.got - 2010.06.27 13:26:56.
