data_PCOD8016742
_publ_section_title
;
Structure prediction by ZEFSAII (Michael W. Deem and Ramdas Pophale) SiO2 
 PCOD8016742
Probable space group: P -1
;
_chemical_formula_sum "Si O2"
_cell_formula_units_Z 14
_cell_length_a 14.930829
_cell_length_b 9.508221
_cell_length_c 15.430237
_cell_angle_alpha 144.244657
_cell_angle_beta 153.262355
_cell_angle_gamma 37.831725
_cell_volume 557.962642
_symmetry_space_group_name_H-M "P -1"
_symmetry_group_IT_number 2
_symmetry_cell_setting 'triclinic'
loop_
_space_group_symop_operation_xyz
x,y,z
-x,-y,-z
loop_
_atom_site_type_symbol
_atom_site_label
_atom_site_fract_x
_atom_site_fract_y
_atom_site_fract_z
Si Si1 0.191406 0.742536 0.224682
Si Si2 0.349213 0.542863 0.077547
Si Si3 0.940731 0.766738 0.291345
Si Si4 0.745320 0.139529 0.187442
Si Si5 0.775739 0.592626 0.761671
Si Si6 0.581353 0.122860 0.851012
Si Si7 0.127569 0.240035 0.513374
O O1 0.298453 0.683525 0.194953
O O2 0.308428 0.554312 0.307262
O O3 0.180976 0.029428 0.379374
O O4 0.961514 0.708614 0.010111
O O5 0.574781 0.360830 0.192617
O O6 0.341756 0.744823 0.097251
O O7 0.177551 0.391128 0.828871
O O8 0.149783 0.591967 0.346643
O O9 0.764700 0.872583 0.117016
O O10 0.000000 0.000000 0.500000
O O11 0.978157 0.172080 0.423578
O O12 0.719189 0.134228 0.059464
O O13 0.596283 0.832127 0.696018
O O14 0.349876 0.262516 0.750671
O O15 0.000000 0.500000 0.500000
#
# Coordination Sequence:
#
# PCOD8016742 Si02
#       7
#     2   2   2   2   2   2   2
#     4  10  22  47  75 103 149 197 242 307 359 440
#     4  11  26  45  74 111 149 194 243 307 373 424
#     4  11  26  47  78 112 145 195 252 308 361 444
#     4  12  25  50  73 107 152 195 241 310 363 437
#     4  10  21  47  72 104 148 197 242 298 379 433
#     4  12  26  45  78 108 148 202 240 303 380 434
#     4  12  26  46  77 108 145 199 252 297 365 451
#
# _framework density 25.091284999999999
#
# number of rings (size 3 to 8) (size 9 to 14) (size 15 to 20)
#    0.000    0.857    4.286    2.571    2.000    4.571 
#    2.571    0.000    0.000    0.000    0.000    0.000 
#    0.000    0.000    0.000    0.000    0.000    0.000 
#
# Total GULP energy -173540.549381 kJ/mol
# GULP energy per Si atom -12395.753527 kJ/mol
# Density = 2.503418 g / cm^3
# Si number density = 25.091285 Si / 1000 Ang^3
#
#
#
# Elastic Constant Matrix: (Units=GPa)
#
#
# Indices 1 2 3 4 5 6 
#
# 1 157.3146 74.0981 36.3891 3.3865 18.5248 7.2263
# 2 74.0981 200.2322 28.8419 8.1258 3.9245 -3.2192
# 3 36.3891 28.8419 66.0951 11.6435 14.9708 6.0389
# 4 3.3865 8.1258 11.6435 38.4812 -4.2093 3.3177
# 5 18.5248 3.9245 14.9708 -4.2093 16.4730 1.7470
# 6 7.2263 -3.2192 6.0389 3.3177 1.7470 40.1274
#
#
#
# Elastic Compliance Matrix: (Units=1/GPa)
#
#
# Indices 1 2 3 4 5 6 
#
# 1 0.009177 -0.002991 -0.001751 -0.000413 -0.007990 -0.001247
# 2 -0.002991 0.006346 -0.001986 -0.000200 0.003476 0.001212
# 3 -0.001751 -0.001986 0.023346 -0.008615 -0.020792 -0.001740
# 4 -0.000413 -0.000200 -0.008615 0.030625 0.016367 -0.001890
# 5 -0.007990 0.003476 -0.020792 0.016367 0.091994 -0.000512
# 6 -0.001247 0.001212 -0.001740 -0.001890 -0.000512 0.025683
#
#
# Mechanical properties :
#
#
# Convention : Reuss Voigt Hill
#
# Bulk Modulus (GPa) = 39.34688 78.03335 58.69012
# Shear Modulus (GPa) = 23.91209 37.97051 30.94130
#
# Velocity S-wave (km/s) = 3.09042 3.89433 3.51543
# Velocity P-wave (km/s) = 5.33384 7.16857 6.31816
#
# Compressibility (1/GPa) = 0.02541498
#
# Stress axis : x y z
#
# Youngs Moduli (GPa) = 108.96253 157.56907 42.83323
#
# Poissons Ratio (x) = 0.47124 0.07502
# Poissons Ratio (y) = 0.32587 0.08505
# Poissons Ratio (z) = 0.19083 0.31287
#
# Static dielectric constant tensor:
#      x y z
#    x 5.068440 0.193250 0.394860 
#    y 0.193250 5.258510 0.160020 
#    z 0.394860 0.160020 4.570160 
# 
# 
# High freq. dielectric constant tensor:
#      x y z
#    x 2.004930 -0.004890 0.008790 
#    y -0.004890 2.022080 0.009270 
#    z 0.008790 0.009270 1.990380 
# 
# From -- ./inp_files/530275.got.cif
#   From: 2010.06.25/outbox.cif.g09.slc.cpg/sg2_266_cif.got.tgz:530275.got - 2010.06.27 13:26:56.
