data_PCOD8016583
_publ_section_title
;
Structure prediction by ZEFSAII (Michael W. Deem and Ramdas Pophale) SiO2 
 PCOD8016583
Probable space group: P -1
;
_chemical_formula_sum "Si O2"
_cell_formula_units_Z 14
_cell_length_a 10.624956
_cell_length_b 7.616335
_cell_length_c 14.732627
_cell_angle_alpha 67.881863
_cell_angle_beta 69.394877
_cell_angle_gamma 125.603044
_cell_volume 585.501644
_symmetry_space_group_name_H-M "P -1"
_symmetry_group_IT_number 2
_symmetry_cell_setting 'triclinic'
loop_
_space_group_symop_operation_xyz
x,y,z
-x,-y,-z
loop_
_atom_site_type_symbol
_atom_site_label
_atom_site_fract_x
_atom_site_fract_y
_atom_site_fract_z
Si Si1 0.946937 0.653454 0.451466
Si Si2 0.555075 0.805631 0.832723
Si Si3 0.284973 0.371008 0.619098
Si Si4 0.360105 0.661093 0.250176
Si Si5 0.874573 0.295550 0.980119
Si Si6 0.794191 0.626213 0.161455
Si Si7 0.800348 0.603002 0.853935
O O1 0.762567 0.479894 0.448405
O O2 0.823629 0.626022 0.570291
O O3 0.000000 0.500000 0.500000
O O4 0.204431 0.038157 0.278985
O O5 0.409049 0.647002 0.807429
O O6 0.637085 0.107784 0.786835
O O7 0.398097 0.526215 0.006338
O O8 0.500000 0.500000 0.500000
O O9 0.328906 0.453379 0.698590
O O10 0.056673 0.978036 0.737812
O O11 0.261970 0.457768 0.223149
O O12 0.631434 0.897586 0.145756
O O13 0.791249 0.372230 0.926419
O O14 0.061069 0.398342 0.851621
O O15 0.000000 0.500000 0.000000
O O16 0.000000 0.000000 0.000000
#
# Coordination Sequence:
#
# PCOD8016583 Si02
#       7
#     2   2   2   2   2   2   2
#     4  10  26  46  71 102 144 191 238 292 358 428
#     4  10  21  45  68 105 136 179 241 294 353 425
#     4  12  30  48  70 107 151 191 241 297 365 425
#     4  10  23  42  71  98 142 181 237 290 355 422
#     4  11  21  41  75 103 138 184 243 296 359 421
#     4  12  25  44  72 106 143 189 241 304 356 428
#     4  11  24  44  70 103 141 189 238 294 356 431
#
# _framework density 23.911121999999999
#
# number of rings (size 3 to 8) (size 9 to 14) (size 15 to 20)
#    0.000    1.143    4.286    1.714   12.000    2.286 
#    0.000    3.571    0.000    0.000    0.000    0.000 
#    0.000    0.000    0.000    0.000    0.000    0.000 
#
# Total GULP energy -173466.953180 kJ/mol
# GULP energy per Si atom -12390.496656 kJ/mol
# Density = 2.385670 g / cm^3
# Si number density = 23.911122 Si / 1000 Ang^3
#
#
#
# Elastic Constant Matrix: (Units=GPa)
#
#
# Indices 1 2 3 4 5 6 
#
# 1 85.0878 7.0170 25.3320 16.3859 -21.1635 2.7867
# 2 7.0170 115.1870 56.4974 27.6856 -9.7821 8.5073
# 3 25.3320 56.4974 182.9250 31.2833 -35.6409 9.5582
# 4 16.3859 27.6856 31.2833 46.1494 2.7977 3.6970
# 5 -21.1635 -9.7821 -35.6409 2.7977 46.2838 1.2218
# 6 2.7867 8.5073 9.5582 3.6970 1.2218 24.3418
#
#
#
# Elastic Compliance Matrix: (Units=1/GPa)
#
#
# Indices 1 2 3 4 5 6 
#
# 1 0.014793 0.001326 0.000241 -0.006545 0.007669 -0.001643
# 2 0.001326 0.011407 -0.002284 -0.005670 0.001666 -0.002464
# 3 0.000241 -0.002284 0.008251 -0.004523 0.006310 -0.002099
# 4 -0.006545 -0.005670 -0.004523 0.031017 -0.009556 0.000276
# 5 0.007669 0.001666 0.006310 -0.009556 0.031009 -0.004043
# 6 -0.001643 -0.002464 -0.002099 0.000276 -0.004043 0.043116
#
#
# Mechanical properties :
#
#
# Convention : Reuss Voigt Hill
#
# Bulk Modulus (GPa) = 30.28550 62.32139 46.30344
# Shear Modulus (GPa) = 32.88759 42.97858 37.93308
#
# Velocity S-wave (km/s) = 3.71268 4.24421 3.98731
# Velocity P-wave (km/s) = 5.57422 7.08083 6.37221
#
# Compressibility (1/GPa) = 0.03301910
#
# Stress axis : x y z
#
# Youngs Moduli (GPa) = 67.59902 87.66433 121.19054
#
# Poissons Ratio (x) = -0.11626 -0.02923
# Poissons Ratio (y) = -0.08965 0.27677
# Poissons Ratio (z) = -0.01630 0.20020
#
# Static dielectric constant tensor:
#      x y z
#    x 4.241130 -0.046730 -0.634080 
#    y -0.046730 4.245570 0.489600 
#    z -0.634080 0.489600 5.882260 
# 
# 
# High freq. dielectric constant tensor:
#      x y z
#    x 1.957100 0.004360 -0.016680 
#    y 0.004360 1.935230 0.007380 
#    z -0.016680 0.007380 1.969710 
# 
# From -- ./inp_files/514197.got.cif
#   From: 2010.06.25/outbox.cif.g09.slc.cpg/sg2_258_cif.got.tgz:514197.got - 2010.06.27 13:26:56.
