data_PCOD8016283
_publ_section_title
;
Structure prediction by ZEFSAII (Michael W. Deem and Ramdas Pophale) SiO2 
 PCOD8016283
Probable space group: P -1
;
_chemical_formula_sum "Si O2"
_cell_formula_units_Z 16
_cell_length_a 14.153308
_cell_length_b 11.741298
_cell_length_c 9.639459
_cell_angle_alpha 34.274300
_cell_angle_beta 56.492492
_cell_angle_gamma 73.223590
_cell_volume 702.672551
_symmetry_space_group_name_H-M "P -1"
_symmetry_group_IT_number 2
_symmetry_cell_setting 'triclinic'
loop_
_space_group_symop_operation_xyz
x,y,z
-x,-y,-z
loop_
_atom_site_type_symbol
_atom_site_label
_atom_site_fract_x
_atom_site_fract_y
_atom_site_fract_z
Si Si1 0.854514 0.879265 0.755762
Si Si2 0.180222 0.224203 0.801026
Si Si3 0.663837 0.772920 0.583882
Si Si4 0.818291 0.413081 0.709138
Si Si5 0.755387 0.111192 0.389203
Si Si6 0.073676 0.445738 0.117471
Si Si7 0.001751 0.792364 0.318962
Si Si8 0.402862 0.716504 0.805612
O O1 0.828121 0.647000 0.936346
O O2 0.775045 0.008315 0.621824
O O3 0.805356 0.847126 0.984369
O O4 0.000000 0.000000 0.500000
O O5 0.291215 0.219368 0.619182
O O6 0.183975 0.473609 0.552394
O O7 0.049714 0.056729 0.010808
O O8 0.543045 0.838394 0.608636
O O9 0.761794 0.948155 0.425741
O O10 0.625191 0.540431 0.926190
O O11 0.905880 0.279914 0.776371
O O12 0.865011 0.644906 0.529379
O O13 0.687952 0.257400 0.025536
O O14 0.632628 0.171518 0.415430
O O15 0.864129 0.342400 0.050421
O O16 0.984393 0.264309 0.473818
O O17 0.000000 0.500000 0.000000
#
# Coordination Sequence:
#
# PCOD8016283 Si02
#       8
#     2   2   2   2   2   2   2   2
#     4  12  25  40  60  91 134 179 208 249 318 398
#     4  11  23  39  59  92 129 164 207 263 320 372
#     4  10  24  42  72  95 124 163 221 277 315 370
#     4  10  22  35  60  92 126 157 202 266 321 373
#     4  12  23  40  68  95 126 171 216 260 319 385
#     4  12  23  39  59  87 132 177 209 247 310 388
#     4  11  21  34  55  93 125 158 205 253 318 382
#     4  10  21  44  65  98 125 165 216 268 326 371
#
# _framework density 22.770208
#
# number of rings (size 3 to 8) (size 9 to 14) (size 15 to 20)
#    0.000    1.000    3.750    3.000    3.500    0.000 
#    0.000    0.625    0.000   13.500    0.000    0.000 
#    0.000    0.000    0.000    0.000    0.000    0.000 
#
# Total GULP energy -198226.308115 kJ/mol
# GULP energy per Si atom -12389.144257 kJ/mol
# Density = 2.271838 g / cm^3
# Si number density = 22.770208 Si / 1000 Ang^3
#
#
#
# Elastic Constant Matrix: (Units=GPa)
#
#
# Indices 1 2 3 4 5 6 
#
# 1 111.5689 15.4424 43.5443 7.4617 15.4556 -4.3805
# 2 15.4424 83.0273 25.4042 -0.9283 -3.6261 5.9899
# 3 43.5443 25.4042 102.4829 5.4096 5.5299 7.8913
# 4 7.4617 -0.9283 5.4096 32.9416 0.3882 -1.4108
# 5 15.4556 -3.6261 5.5299 0.3882 36.3684 -6.4167
# 6 -4.3805 5.9899 7.8913 -1.4108 -6.4167 27.7364
#
#
#
# Elastic Compliance Matrix: (Units=1/GPa)
#
#
# Indices 1 2 3 4 5 6 
#
# 1 0.011652 -0.001140 -0.004545 -0.001777 -0.003936 0.002379
# 2 -0.001140 0.013349 -0.002847 0.001004 0.001928 -0.001756
# 3 -0.004545 -0.002847 0.012831 -0.001319 -0.001004 -0.004053
# 4 -0.001777 0.001004 -0.001319 0.031065 0.001023 0.001695
# 5 -0.003936 0.001928 -0.001004 0.001023 0.030630 0.006386
# 6 0.002379 -0.001756 -0.004053 0.001695 0.006386 0.039525
#
#
# Mechanical properties :
#
#
# Convention : Reuss Voigt Hill
#
# Bulk Modulus (GPa) = 48.14994 51.76234 49.95614
# Shear Modulus (GPa) = 30.66758 33.58847 32.12802
#
# Velocity S-wave (km/s) = 3.67390 3.84488 3.76036
# Velocity P-wave (km/s) = 6.26008 6.51864 6.39067
#
# Compressibility (1/GPa) = 0.02076846
#
# Stress axis : x y z
#
# Youngs Moduli (GPa) = 85.81960 74.91015 77.93855
#
# Poissons Ratio (x) = 0.08538 0.35427
# Poissons Ratio (y) = 0.09782 0.22186
# Poissons Ratio (z) = 0.39009 0.21324
#
# Static dielectric constant tensor:
#      x y z
#    x 4.180830 -0.018300 0.256240 
#    y -0.018300 4.206620 -0.403100 
#    z 0.256240 -0.403100 4.359210 
# 
# 
# High freq. dielectric constant tensor:
#      x y z
#    x 1.886930 -0.009400 0.032310 
#    y -0.009400 1.891420 -0.030780 
#    z 0.032310 -0.030780 1.907960 
# 
# From -- ./inp_files/306199.got.cif
#   From: 2010.06.25/outbox.cif.g09.slc.cpg/sg2_154_cif.got.tgz:306199.got - 2010.06.27 13:26:56.
