data_PCOD8016263
_publ_section_title
;
Structure prediction by ZEFSAII (Michael W. Deem and Ramdas Pophale) SiO2 
 PCOD8016263
Probable space group: P -1
;
_chemical_formula_sum "Si O2"
_cell_formula_units_Z 16
_cell_length_a 6.384050
_cell_length_b 13.863878
_cell_length_c 12.860682
_cell_angle_alpha 48.102337
_cell_angle_beta 111.400596
_cell_angle_gamma 88.092796
_cell_volume 723.111257
_symmetry_space_group_name_H-M "P -1"
_symmetry_group_IT_number 2
_symmetry_cell_setting 'triclinic'
loop_
_space_group_symop_operation_xyz
x,y,z
-x,-y,-z
loop_
_atom_site_type_symbol
_atom_site_label
_atom_site_fract_x
_atom_site_fract_y
_atom_site_fract_z
Si Si1 0.110334 0.327411 0.372739
Si Si2 0.015810 0.920137 0.393255
Si Si3 0.873523 0.139271 0.763952
Si Si4 0.490840 0.568325 0.559413
Si Si5 0.449784 0.253688 0.300864
Si Si6 0.660945 0.955114 0.959274
Si Si7 0.563884 0.183560 0.149015
Si Si8 0.566545 0.515452 0.170455
O O1 0.096324 0.196233 0.525916
O O2 0.279225 0.389839 0.418742
O O3 0.221192 0.267452 0.322094
O O4 0.847525 0.457922 0.224676
O O5 0.991182 0.960181 0.237155
O O6 0.296148 0.863584 0.522998
O O7 0.839066 0.068421 0.306939
O O8 0.756624 0.292225 0.580842
O O9 0.660555 0.094830 0.802294
O O10 0.058283 0.138885 0.889271
O O11 0.500000 0.500000 0.500000
O O12 0.467332 0.472170 0.719024
O O13 0.410418 0.206584 0.212095
O O14 0.454437 0.408372 0.183582
O O15 0.572662 0.865362 0.929540
O O16 0.500000 0.000000 0.000000
O O17 0.582187 0.329236 0.014169
#
# Coordination Sequence:
#
# PCOD8016263 Si02
#       8
#     2   2   2   2   2   2   2   2
#     4  10  21  44  65  92 131 172 220 264 335 382
#     4  11  22  44  71  96 128 174 217 273 326 389
#     4  11  23  45  63  93 136 168 215 271 325 382
#     4  11  24  38  69  95 127 176 223 270 318 397
#     4  10  23  46  67  96 130 175 221 271 329 385
#     4  11  26  42  64  95 133 170 205 269 333 380
#     4  12  25  42  68  99 134 172 221 272 327 399
#     4  10  24  44  63 100 133 170 217 272 336 381
#
# _framework density 22.126609999999999
#
# number of rings (size 3 to 8) (size 9 to 14) (size 15 to 20)
#    0.000    1.250    5.000    1.500    3.500    1.500 
#    6.750    0.000    0.000    0.000    0.000    0.000 
#    0.000    0.000    0.000    0.000    0.000    0.000 
#
# Total GULP energy -198390.448820 kJ/mol
# GULP energy per Si atom -12399.403051 kJ/mol
# Density = 2.207625 g / cm^3
# Si number density = 22.126610 Si / 1000 Ang^3
#
#
#
# Elastic Constant Matrix: (Units=GPa)
#
#
# Indices 1 2 3 4 5 6 
#
# 1 110.8260 38.1842 33.9684 2.7339 -17.0484 -18.5176
# 2 38.1842 120.6898 38.3152 23.9384 -13.0568 -22.4967
# 3 33.9684 38.3152 95.5938 -7.6996 -16.4962 -1.9811
# 4 2.7339 23.9384 -7.6996 50.8840 -11.5850 -4.6417
# 5 -17.0484 -13.0568 -16.4962 -11.5850 29.9292 12.1234
# 6 -18.5176 -22.4967 -1.9811 -4.6417 12.1234 25.9822
#
#
#
# Elastic Compliance Matrix: (Units=1/GPa)
#
#
# Indices 1 2 3 4 5 6 
#
# 1 0.011799 -0.001587 -0.002983 0.000717 0.002284 0.005870
# 2 -0.001587 0.013949 -0.006487 -0.007792 -0.006264 0.011983
# 3 -0.002983 -0.006487 0.016529 0.007421 0.011766 -0.010647
# 4 0.000717 -0.007792 0.007421 0.027044 0.014682 -0.007689
# 5 0.002284 -0.006264 0.011766 0.014682 0.054576 -0.025741
# 6 0.005870 0.011983 -0.010647 -0.007689 -0.025741 0.062872
#
#
# Mechanical properties :
#
#
# Convention : Reuss Voigt Hill
#
# Bulk Modulus (GPa) = 49.59850 60.89392 55.24621
# Shear Modulus (GPa) = 23.19089 35.80185 29.49637
#
# Velocity S-wave (km/s) = 3.24095 4.02686 3.65509
# Velocity P-wave (km/s) = 6.03899 7.01436 6.54487
#
# Compressibility (1/GPa) = 0.02016190
#
# Stress axis : x y z
#
# Youngs Moduli (GPa) = 84.75562 71.69227 60.50147
#
# Poissons Ratio (x) = 0.11376 0.18048
# Poissons Ratio (y) = 0.13449 0.39248
# Poissons Ratio (z) = 0.25283 0.46507
#
# Static dielectric constant tensor:
#      x y z
#    x 4.180150 -0.565390 -0.156380 
#    y -0.565390 4.759600 0.284360 
#    z -0.156380 0.284360 4.098750 
# 
# 
# High freq. dielectric constant tensor:
#      x y z
#    x 1.871110 -0.014710 -0.007680 
#    y -0.014710 1.868460 0.009500 
#    z -0.007680 0.009500 1.877350 
# 
# From -- ./inp_files/367528.got.cif
#   From: 2010.06.25/outbox.cif.g09.slc.cpg/sg2_184_cif.got.tgz:367528.got - 2010.06.27 13:26:56.
