data_PCOD8016957
_publ_section_title
;
Structure prediction by ZEFSAII (Michael W. Deem and Ramdas Pophale) SiO2 
 PCOD8016957
Probable space group: P -1
;
_chemical_formula_sum "Si O2"
_cell_formula_units_Z 16
_cell_length_a 9.484530
_cell_length_b 8.755411
_cell_length_c 23.090941
_cell_angle_alpha 28.709428
_cell_angle_beta 51.572633
_cell_angle_gamma 57.783940
_cell_volume 721.221378
_symmetry_space_group_name_H-M "P -1"
_symmetry_group_IT_number 2
_symmetry_cell_setting 'triclinic'
loop_
_space_group_symop_operation_xyz
x,y,z
-x,-y,-z
loop_
_atom_site_type_symbol
_atom_site_label
_atom_site_fract_x
_atom_site_fract_y
_atom_site_fract_z
Si Si1 0.391269 0.862476 0.355553
Si Si2 0.990728 0.904482 0.236744
Si Si3 0.018077 0.695472 0.488225
Si Si4 0.043571 0.481673 0.883558
Si Si5 0.686654 0.828692 0.996641
Si Si6 0.751748 0.196708 0.365992
Si Si7 0.489533 0.178857 0.535998
Si Si8 0.719899 0.213099 0.119293
O O1 0.375534 0.477848 0.484456
O O2 0.435187 0.976691 0.372306
O O3 0.188833 0.948474 0.360764
O O4 0.531215 0.019230 0.220538
O O5 0.965235 0.543540 0.383096
O O6 0.984058 0.163647 0.203307
O O7 0.828606 0.986592 0.208827
O O8 0.182968 0.912873 0.153417
O O9 0.000000 0.500000 0.500000
O O10 0.840875 0.895406 0.472870
O O11 0.206955 0.297243 0.932641
O O12 0.102880 0.533735 0.783912
O O13 0.850192 0.289566 0.004970
O O14 0.658496 0.535947 0.057469
O O15 0.500000 0.000000 0.000000
O O16 0.637779 0.331051 0.403268
O O17 0.629847 0.090748 0.376841
#
# Coordination Sequence:
#
# PCOD8016957 Si02
#       8
#     2   2   2   2   2   2   2   2
#     4  11  21  40  60  86 119 159 206 243 302 354
#     4   9  17  33  57  84 114 155 203 232 287 357
#     4  12  22  36  61  91 120 156 195 253 301 354
#     4   9  17  35  56  81 117 158 195 234 291 363
#     4   9  18  32  57  91 115 151 201 252 283 341
#     4  11  22  39  61  93 123 155 201 245 300 354
#     4  10  22  37  61  87 121 161 198 247 294 361
#     4   9  19  35  61  82 114 160 202 239 290 361
#
# _framework density 22.18459
#
# number of rings (size 3 to 8) (size 9 to 14) (size 15 to 20)
#    0.000    2.000    2.500    4.500    0.000    3.500 
#    0.000    3.750    0.000    0.000    0.000    0.000 
#    0.000    0.000    0.000    0.000    0.000    0.000 
#
# Total GULP energy -198245.048307 kJ/mol
# GULP energy per Si atom -12390.315519 kJ/mol
# Density = 2.213410 g / cm^3
# Si number density = 22.184590 Si / 1000 Ang^3
#
#
#
# Elastic Constant Matrix: (Units=GPa)
#
#
# Indices 1 2 3 4 5 6 
#
# 1 73.4049 33.6000 34.3519 8.3306 -13.1080 -19.0573
# 2 33.6000 78.2509 25.9991 21.4157 4.8426 -21.0933
# 3 34.3519 25.9991 131.4533 34.9362 -1.2929 -10.2015
# 4 8.3306 21.4157 34.9362 39.0450 -4.6747 -1.6546
# 5 -13.1080 4.8426 -1.2929 -4.6747 30.9716 -0.4905
# 6 -19.0573 -21.0933 -10.2015 -1.6546 -0.4905 29.0731
#
#
#
# Elastic Compliance Matrix: (Units=1/GPa)
#
#
# Indices 1 2 3 4 5 6 
#
# 1 0.023665 -0.008762 -0.005428 0.006412 0.012251 0.007822
# 2 -0.008762 0.022900 0.001978 -0.013088 -0.009013 0.010668
# 3 -0.005428 0.001978 0.011519 -0.010625 -0.003709 0.001252
# 4 0.006412 -0.013088 -0.010625 0.041917 0.010541 -0.006457
# 5 0.012251 -0.009013 -0.003709 0.010541 0.040341 0.001470
# 6 0.007822 0.010668 0.001252 -0.006457 0.001470 0.047360
#
#
# Mechanical properties :
#
#
# Convention : Reuss Voigt Hill
#
# Bulk Modulus (GPa) = 29.70908 52.33458 41.02183
# Shear Modulus (GPa) = 22.38697 32.42849 27.40773
#
# Velocity S-wave (km/s) = 3.18011 3.82744 3.51870
# Velocity P-wave (km/s) = 5.18700 6.57070 5.91942
#
# Compressibility (1/GPa) = 0.03365974
#
# Stress axis : x y z
#
# Youngs Moduli (GPa) = 42.25737 43.66824 86.81502
#
# Poissons Ratio (x) = 0.38264 0.47119
# Poissons Ratio (y) = 0.37027 -0.17174
# Poissons Ratio (z) = 0.22935 -0.08638
#
# Static dielectric constant tensor:
#      x y z
#    x 3.840160 -0.215690 -0.010020 
#    y -0.215690 3.893500 0.222150 
#    z -0.010020 0.222150 4.446130 
# 
# 
# High freq. dielectric constant tensor:
#      x y z
#    x 1.847810 -0.021660 -0.007320 
#    y -0.021660 1.853560 0.021910 
#    z -0.007320 0.021910 1.884630 
# 
# From -- ./inp_files/544268.got.cif
#   From: 2010.06.25/outbox.cif.g09.slc.cpg/sg2_273_cif.got.tgz:544268.got - 2010.06.27 13:26:56.
