data_PCOD8016397
_publ_section_title
;
Structure prediction by ZEFSAII (Michael W. Deem and Ramdas Pophale) SiO2 
 PCOD8016397
Probable space group: P -1
;
_chemical_formula_sum "Si O2"
_cell_formula_units_Z 16
_cell_length_a 13.239516
_cell_length_b 14.095817
_cell_length_c 14.872864
_cell_angle_alpha 149.283032
_cell_angle_beta 39.071763
_cell_angle_gamma 119.148886
_cell_volume 740.235437
_symmetry_space_group_name_H-M "P -1"
_symmetry_group_IT_number 2
_symmetry_cell_setting 'triclinic'
loop_
_space_group_symop_operation_xyz
x,y,z
-x,-y,-z
loop_
_atom_site_type_symbol
_atom_site_label
_atom_site_fract_x
_atom_site_fract_y
_atom_site_fract_z
Si Si1 0.055612 0.250301 0.415455
Si Si2 0.796750 0.585259 0.164642
Si Si3 0.506574 0.465399 0.573114
Si Si4 0.809574 0.653972 0.819538
Si Si5 0.864526 0.009306 0.024256
Si Si6 0.466015 0.147749 0.059552
Si Si7 0.613026 0.076492 0.716362
Si Si8 0.908236 0.186918 0.638817
O O1 0.247786 0.246286 0.258826
O O2 0.873566 0.513026 0.753944
O O3 0.064664 0.138929 0.414230
O O4 0.023227 0.126207 0.254488
O O5 0.668436 0.558160 0.303350
O O6 0.694299 0.845788 0.416481
O O7 0.824371 0.433897 0.936448
O O8 0.000000 0.500000 0.000000
O O9 0.500000 0.500000 0.500000
O O10 0.706907 0.255878 0.300257
O O11 0.486347 0.671628 0.805567
O O12 0.000000 0.500000 0.500000
O O13 0.601627 0.704991 0.977710
O O14 0.764620 0.901739 0.057223
O O15 0.000000 0.000000 0.000000
O O16 0.612836 0.001023 0.758247
O O17 0.500000 0.000000 0.000000
O O18 0.745623 0.170984 0.688410
O O19 0.000000 0.000000 0.500000
#
# Coordination Sequence:
#
# PCOD8016397 Si02
#       8
#     2   2   2   2   2   2   2   2
#     4  11  25  45  69 104 141 192 240 292 362 432
#     4  12  26  44  68 101 147 189 234 295 363 428
#     4  12  26  41  70 111 141 184 247 304 362 429
#     4  10  21  44  69  95 136 179 234 297 349 414
#     4  11  23  42  73 108 141 181 243 310 359 420
#     4  12  23  41  71 101 142 183 241 302 363 419
#     4  12  23  46  70  99 140 188 235 297 353 421
#     4  12  27  46  71 102 150 193 233 291 370 437
#
# _framework density 21.614744999999999
#
# number of rings (size 3 to 8) (size 9 to 14) (size 15 to 20)
#    0.000    0.500    6.250    3.000    5.250    0.500 
#    2.250    0.625    0.000    0.000    0.000    0.000 
#    0.000    0.000    0.000    0.000    0.000    0.000 
#
# Total GULP energy -198281.024324 kJ/mol
# GULP energy per Si atom -12392.564020 kJ/mol
# Density = 2.156555 g / cm^3
# Si number density = 21.614745 Si / 1000 Ang^3
#
#
#
# Elastic Constant Matrix: (Units=GPa)
#
#
# Indices 1 2 3 4 5 6 
#
# 1 105.5380 32.8735 36.0897 8.0146 0.0118 12.8063
# 2 32.8735 91.2466 27.2992 4.4783 4.2372 11.4153
# 3 36.0897 27.2992 95.3424 16.5014 -2.5488 9.0403
# 4 8.0146 4.4783 16.5014 44.4769 0.4217 -3.3141
# 5 0.0118 4.2372 -2.5488 0.4217 43.5073 1.0038
# 6 12.8063 11.4153 9.0403 -3.3141 1.0038 47.8363
#
#
#
# Elastic Compliance Matrix: (Units=1/GPa)
#
#
# Indices 1 2 3 4 5 6 
#
# 1 0.011827 -0.003007 -0.003305 -0.000744 0.000147 -0.001878
# 2 -0.003007 0.013073 -0.002473 0.000021 -0.001376 -0.001817
# 3 -0.003305 -0.002473 0.013335 -0.004215 0.001095 -0.001360
# 4 -0.000744 0.000021 -0.004215 0.024385 -0.000547 0.002692
# 5 0.000147 -0.001376 0.001095 -0.000547 0.023198 -0.000443
# 6 -0.001878 -0.001817 -0.001360 0.002692 -0.000443 0.022294
#
#
# Mechanical properties :
#
#
# Convention : Reuss Voigt Hill
#
# Bulk Modulus (GPa) = 48.39216 53.85019 51.12118
# Shear Modulus (GPa) = 37.71601 40.22176 38.96888
#
# Velocity S-wave (km/s) = 4.18176 4.31843 4.25064
# Velocity P-wave (km/s) = 6.76411 7.05924 6.91325
#
# Compressibility (1/GPa) = 0.02066450
#
# Stress axis : x y z
#
# Youngs Moduli (GPa) = 84.55587 76.49514 74.98916
#
# Poissons Ratio (x) = 0.23004 0.24783
# Poissons Ratio (y) = 0.25429 0.18544
# Poissons Ratio (z) = 0.27944 0.18916
#
# Static dielectric constant tensor:
#      x y z
#    x 4.114330 0.130830 -0.147000 
#    y 0.130830 4.155900 0.156220 
#    z -0.147000 0.156220 4.079420 
# 
# 
# High freq. dielectric constant tensor:
#      x y z
#    x 1.849340 0.012750 -0.011740 
#    y 0.012750 1.854370 0.010640 
#    z -0.011740 0.010640 1.848250 
# 
# From -- ./inp_files/522571.got.cif
#   From: 2010.06.25/outbox.cif.g09.slc.cpg/sg2_262_cif.got.tgz:522571.got - 2010.06.27 13:26:56.
