data_PCOD8016897
_publ_section_title
;
Structure prediction by ZEFSAII (Michael W. Deem and Ramdas Pophale) SiO2 
 PCOD8016897
Probable space group: P -1
;
_chemical_formula_sum "Si O2"
_cell_formula_units_Z 14
_cell_length_a 23.441057
_cell_length_b 9.961698
_cell_length_c 12.434681
_cell_angle_alpha 127.329603
_cell_angle_beta 148.068404
_cell_angle_gamma 29.546395
_cell_volume 653.320307
_symmetry_space_group_name_H-M "P -1"
_symmetry_group_IT_number 2
_symmetry_cell_setting 'triclinic'
loop_
_space_group_symop_operation_xyz
x,y,z
-x,-y,-z
loop_
_atom_site_type_symbol
_atom_site_label
_atom_site_fract_x
_atom_site_fract_y
_atom_site_fract_z
Si Si1 0.415472 0.220891 0.263872
Si Si2 0.851073 0.754192 0.722099
Si Si3 0.547121 0.214689 0.889713
Si Si4 0.998050 0.162098 0.151966
Si Si5 0.941264 0.812045 0.103175
Si Si6 0.711918 0.433197 0.553577
Si Si7 0.786029 0.205283 0.228371
O O1 0.389200 0.357235 0.399587
O O2 0.634323 0.969126 0.442661
O O3 0.382018 0.067340 0.155641
O O4 0.238847 0.504350 0.033609
O O5 0.931932 0.760679 0.757825
O O6 0.011271 0.395233 0.832265
O O7 0.815518 0.911074 0.849099
O O8 0.450830 0.409620 0.717938
O O9 0.387627 0.431758 0.839753
O O10 0.730981 0.101755 0.152751
O O11 0.145993 0.919696 0.368994
O O12 0.000000 0.000000 0.000000
O O13 0.157024 0.591711 0.301716
O O14 0.803805 0.138431 0.097182
O O15 0.000000 0.000000 0.500000
#
# Coordination Sequence:
#
# PCOD8016897 Si02
#       7
#     2   2   2   2   2   2   2
#     4  11  21  37  62  87 121 152 195 241 288 353
#     4  11  21  36  60  91 120 155 193 237 296 348
#     4  11  23  38  62  90 112 157 202 242 286 341
#     4  10  22  37  53  88 130 154 181 237 304 347
#     4  11  21  36  62  91 117 153 198 243 288 343
#     4  11  21  39  59  92 123 150 190 243 299 344
#     4  11  22  38  58  88 121 149 197 252 287 335
#
# _framework density 21.428998
#
# number of rings (size 3 to 8) (size 9 to 14) (size 15 to 20)
#    0.000    1.143    5.714    2.143    2.000    2.286 
#    2.571    0.000    0.000    8.571    0.000    0.000 
#    0.000    0.000    0.000    0.000    0.000    0.000 
#
# Total GULP energy -173463.460521 kJ/mol
# GULP energy per Si atom -12390.247180 kJ/mol
# Density = 2.138022 g / cm^3
# Si number density = 21.428998 Si / 1000 Ang^3
#
#
#
# Elastic Constant Matrix: (Units=GPa)
#
#
# Indices 1 2 3 4 5 6 
#
# 1 37.3265 23.1014 11.4271 6.2117 4.7605 7.8966
# 2 23.1014 69.4189 37.8255 -4.2323 -16.6117 2.5208
# 3 11.4271 37.8255 106.9298 2.0904 18.1087 13.1310
# 4 6.2117 -4.2323 2.0904 23.4226 6.1898 1.4490
# 5 4.7605 -16.6117 18.1087 6.1898 37.2546 1.4371
# 6 7.8966 2.5208 13.1310 1.4490 1.4371 45.1231
#
#
#
# Elastic Compliance Matrix: (Units=1/GPa)
#
#
# Indices 1 2 3 4 5 6 
#
# 1 0.045315 -0.024254 0.008034 -0.011804 -0.018242 -0.007953
# 2 -0.024254 0.037771 -0.016073 0.007385 0.026306 0.005737
# 3 0.008034 -0.016073 0.017583 -0.002008 -0.016212 -0.005044
# 4 -0.011804 0.007385 -0.002008 0.047873 -0.002207 0.000770
# 5 -0.018242 0.026306 -0.016212 -0.002207 0.048959 0.004952
# 6 -0.007953 0.005737 -0.005044 0.000770 0.004952 0.024518
#
#
# Mechanical properties :
#
#
# Convention : Reuss Voigt Hill
#
# Bulk Modulus (GPa) = 27.71347 39.82037 33.76692
# Shear Modulus (GPa) = 16.74281 30.58147 23.66214
#
# Velocity S-wave (km/s) = 2.79823 3.78181 3.32657
# Velocity P-wave (km/s) = 4.83745 6.13940 5.52690
#
# Compressibility (1/GPa) = 0.03608353
#
# Stress axis : x y z
#
# Youngs Moduli (GPa) = 22.06758 26.47500 56.87182
#
# Poissons Ratio (x) = 0.64212 -0.45689
# Poissons Ratio (y) = 0.53522 0.91411
# Poissons Ratio (z) = -0.17728 0.42554
#
# Static dielectric constant tensor:
#      x y z
#    x 3.876090 0.211070 -0.096080 
#    y 0.211070 4.404590 -0.229050 
#    z -0.096080 -0.229050 4.275210 
# 
# 
# High freq. dielectric constant tensor:
#      x y z
#    x 1.804120 -0.007030 0.030740 
#    y -0.007030 1.837570 0.001180 
#    z 0.030740 0.001180 1.850110 
# 
# From -- ./inp_files/454170.got.cif
#   From: 2010.06.25/outbox.cif.g09.slc.cpg/sg2_228_cif.got.tgz:454170.got - 2010.06.27 13:26:56.
