data_PCOD8016772
_publ_section_title
;
Structure prediction by ZEFSAII (Michael W. Deem and Ramdas Pophale) SiO2 
 PCOD8016772
Probable space group: P -1
;
_chemical_formula_sum "Si O2"
_cell_formula_units_Z 16
_cell_length_a 9.643897
_cell_length_b 12.107988
_cell_length_c 14.888674
_cell_angle_alpha 120.689793
_cell_angle_beta 141.976511
_cell_angle_gamma 73.073611
_cell_volume 900.499805
_symmetry_space_group_name_H-M "P -1"
_symmetry_group_IT_number 2
_symmetry_cell_setting 'triclinic'
loop_
_space_group_symop_operation_xyz
x,y,z
-x,-y,-z
loop_
_atom_site_type_symbol
_atom_site_label
_atom_site_fract_x
_atom_site_fract_y
_atom_site_fract_z
Si Si1 0.280893 0.756906 0.205990
Si Si2 0.781922 0.670101 0.859911
Si Si3 0.195508 0.192341 0.254181
Si Si4 0.697871 0.078754 0.021769
Si Si5 0.857494 0.167463 0.654765
Si Si6 0.586077 0.374228 0.623611
Si Si7 0.482935 0.985994 0.286782
Si Si8 0.679342 0.833452 0.031876
O O1 0.226339 0.862038 0.296304
O O2 0.419853 0.658101 0.285398
O O3 0.425273 0.836748 0.232176
O O4 0.045169 0.665140 0.012781
O O5 0.781777 0.776572 0.826666
O O6 0.646237 0.528374 0.699502
O O7 0.656073 0.712449 0.900894
O O8 0.333520 0.316029 0.431651
O O9 0.931866 0.165458 0.138452
O O10 0.300586 0.063682 0.269578
O O11 0.754884 0.969526 0.072499
O O12 0.532935 0.013808 0.828925
O O13 0.564994 0.174672 0.047932
O O14 0.779011 0.304413 0.645241
O O15 0.131727 0.176689 0.798470
O O16 0.739475 0.053953 0.478372
#
# Coordination Sequence:
#
# PCOD8016772 Si02
#       8
#     2   2   2   2   2   2   2   2
#     4   9  18  29  51  82 102 127 165 221 257 299
#     4  11  18  36  55  79 104 139 175 214 256 304
#     4  11  20  33  56  81 105 133 173 224 257 299
#     4  11  22  35  50  81 107 139 173 209 265 316
#     4   8  19  32  52  80 102 134 167 220 256 303
#     4   9  21  31  55  83 104 132 178 217 254 301
#     4  11  18  32  54  80 106 128 177 217 268 294
#     4  10  22  35  54  74 110 141 169 211 263 316
#
# _framework density 17.767910000000001
#
# number of rings (size 3 to 8) (size 9 to 14) (size 15 to 20)
#    0.750    1.250    2.500    3.000    1.750    0.500 
#    0.000    0.625    0.000    3.000    0.000    0.000 
#    0.000    0.000    0.000    0.000    0.000    0.000 
#
# Total GULP energy -198312.179313 kJ/mol
# GULP energy per Si atom -12394.511207 kJ/mol
# Density = 1.772747 g / cm^3
# Si number density = 17.767910 Si / 1000 Ang^3
#
#
#
# Elastic Constant Matrix: (Units=GPa)
#
#
# Indices 1 2 3 4 5 6 
#
# 1 57.9220 21.6041 28.0134 3.9276 3.8916 -3.1955
# 2 21.6041 43.2750 19.4918 3.2993 8.0554 0.5971
# 3 28.0134 19.4918 103.4932 -1.8103 -6.8943 -1.6685
# 4 3.9276 3.2993 -1.8103 28.5685 1.0376 -2.9314
# 5 3.8916 8.0554 -6.8943 1.0376 15.0900 -3.1161
# 6 -3.1955 0.5971 -1.6685 -2.9314 -3.1161 18.8459
#
#
#
# Elastic Compliance Matrix: (Units=1/GPa)
#
#
# Indices 1 2 3 4 5 6 
#
# 1 0.023408 -0.008885 -0.004832 -0.002087 -0.002729 0.003047
# 2 -0.008885 0.033956 -0.005452 -0.003031 -0.019515 -0.006763
# 3 -0.004832 -0.005452 0.012763 0.001983 0.010369 0.002506
# 4 -0.002087 -0.003031 0.001983 0.036303 0.001776 0.005858
# 5 -0.002729 -0.019515 0.010369 0.001776 0.085193 0.015436
# 6 0.003047 -0.006763 0.002506 0.005858 0.015436 0.057478
#
#
# Mechanical properties :
#
#
# Convention : Reuss Voigt Hill
#
# Bulk Modulus (GPa) = 31.45684 38.10098 34.77891
# Shear Modulus (GPa) = 16.77646 21.53962 19.15804
#
# Velocity S-wave (km/s) = 3.07612 3.48555 3.28722
# Velocity P-wave (km/s) = 5.50994 6.13914 5.83303
#
# Compressibility (1/GPa) = 0.03178959
#
# Stress axis : x y z
#
# Youngs Moduli (GPa) = 42.71993 29.44958 78.35055
#
# Poissons Ratio (x) = 0.26165 0.37859
# Poissons Ratio (y) = 0.37955 0.42720
# Poissons Ratio (z) = 0.20642 0.16057
#
# Static dielectric constant tensor:
#      x y z
#    x 2.939500 0.035050 -0.138630 
#    y 0.035050 3.128090 -0.239230 
#    z -0.138630 -0.239230 3.308000 
# 
# 
# High freq. dielectric constant tensor:
#      x y z
#    x 1.644660 0.009320 -0.012740 
#    y 0.009320 1.676410 -0.018730 
#    z -0.012740 -0.018730 1.694010 
# 
# From -- ./inp_files/417096.got.cif
#   From: 2010.06.25/outbox.cif.g09.slc.cpg/sg2_209_cif.got.tgz:417096.got - 2010.06.27 13:26:56.
