data_PCOD8016901
_publ_section_title
;
Structure prediction by ZEFSAII (Michael W. Deem and Ramdas Pophale) SiO2 
 PCOD8016901
Probable space group: P -1
;
_chemical_formula_sum "Si O2"
_cell_formula_units_Z 12
_cell_length_a 10.108506
_cell_length_b 13.935003
_cell_length_c 4.875535
_cell_angle_alpha 117.440955
_cell_angle_beta 120.819170
_cell_angle_gamma 56.941862
_cell_volume 478.369270
_symmetry_space_group_name_H-M "P -1"
_symmetry_group_IT_number 2
_symmetry_cell_setting 'triclinic'
loop_
_space_group_symop_operation_xyz
x,y,z
-x,-y,-z
loop_
_atom_site_type_symbol
_atom_site_label
_atom_site_fract_x
_atom_site_fract_y
_atom_site_fract_z
Si Si1 0.145689 0.570797 0.998752
Si Si2 0.417417 0.933527 0.041813
Si Si3 0.779352 0.576062 0.627320
Si Si4 0.808945 0.028675 0.618943
Si Si5 0.331508 0.182671 0.406570
Si Si6 0.007016 0.171762 0.864476
O O1 0.214839 0.522894 0.712185
O O2 0.957822 0.582181 0.863041
O O3 0.270526 0.471722 0.209712
O O4 0.142161 0.702023 0.211066
O O5 0.270965 0.977829 0.181751
O O6 0.589782 0.835097 0.223127
O O7 0.435675 0.061351 0.177861
O O8 0.339808 0.890945 0.646283
O O9 0.646133 0.707030 0.568786
O O10 0.935576 0.094119 0.873874
O O11 0.903261 0.899485 0.408415
O O12 0.135769 0.203650 0.236346
#
# Coordination Sequence:
#
# PCOD8016901 Si02
#       6
#     2   2   2   2   2   2
#     4   9  18  31  50  77 105 134 173 221 264 305
#     4  10  22  37  55  81 112 143 175 220 273 320
#     4   9  18  31  50  77 105 134 173 221 264 305
#     4  10  22  37  55  81 112 143 175 220 273 320
#     4   9  20  36  58  82 108 141 182 222 265 319
#     4   9  20  36  58  82 108 141 182 222 265 319
#
# _framework density 25.085221000000001
#
# number of rings (size 3 to 8) (size 9 to 14) (size 15 to 20)
#    0.000    2.667    0.000    0.000    0.000   24.000 
#    0.000    0.000    0.000    6.000    0.000    0.000 
#    0.000    0.000    0.000    0.000    0.000    0.000 
#
# Total GULP energy -148727.194478 kJ/mol
# GULP energy per Si atom -12393.932873 kJ/mol
# Density = 2.502813 g / cm^3
# Si number density = 25.085221 Si / 1000 Ang^3
#
#
#
# Elastic Constant Matrix: (Units=GPa)
#
#
# Indices 1 2 3 4 5 6 
#
# 1 59.0982 19.6198 -3.9561 17.1774 4.4595 5.2598
# 2 19.6198 180.9778 24.6822 -4.1961 3.2553 26.7945
# 3 -3.9561 24.6822 16.6302 8.2117 16.7337 5.9495
# 4 17.1774 -4.1961 8.2117 32.5790 -1.3422 -0.8511
# 5 4.4595 3.2553 16.7337 -1.3422 24.1829 -7.4125
# 6 5.2598 26.7945 5.9495 -0.8511 -7.4125 21.6932
#
#
#
# Elastic Compliance Matrix: (Units=1/GPa)
#
#
# Indices 1 2 3 4 5 6 
#
# 1 0.009414 0.001037 -0.034092 0.005255 0.026633 0.015093
# 2 0.001037 0.006653 0.007349 -0.002353 -0.010662 -0.014220
# 3 -0.034092 0.007349 -0.092011 0.047259 0.088960 0.056674
# 4 0.005255 -0.002353 0.047259 0.013416 -0.040122 -0.024512
# 5 0.026633 -0.010662 0.088960 -0.040122 -0.035534 -0.031402
# 6 0.015093 -0.014220 0.056674 -0.024512 -0.031402 0.032768
#
#
# Mechanical properties :
#
#
# Convention : Reuss Voigt Hill
#
# Bulk Modulus (GPa) = -7.85208 37.48868 14.81830
# Shear Modulus (GPa) = -88.75681 30.11505 -29.32088
#
# Velocity S-wave (km/s) = -5.95474 3.46860 -3.42255
# Velocity P-wave (km/s) = 7.10039 5.56943 3.11424
#
# Compressibility (1/GPa) = -0.12735483
#
# Stress axis : x y z
#
# Youngs Moduli (GPa) = 106.22257 150.29976 -10.86828
#
# Poissons Ratio (x) = -0.15590 -0.37053
# Poissons Ratio (y) = -0.11018 0.07988
# Poissons Ratio (z) = 3.62139 -1.10461
#
# Static dielectric constant tensor:
#      x y z
#    x 4.420630 0.232930 -0.052270 
#    y 0.232930 5.018900 -0.340350 
#    z -0.052270 -0.340350 4.513100 
# 
# 
# High freq. dielectric constant tensor:
#      x y z
#    x 1.980730 0.012170 -0.022170 
#    y 0.012170 2.005040 -0.017530 
#    z -0.022170 -0.017530 1.989390 
# 
# From -- ./inp_files/60421.got.cif
#   From: 2010.06.25/outbox.cif.g09.slc.cpg/sg2_31_cif.got.tgz:60421.got - 2010.06.27 13:26:56.
