data_PCOD8016777
_publ_section_title
;
Structure prediction by ZEFSAII (Michael W. Deem and Ramdas Pophale) SiO2 
 PCOD8016777
Probable space group: P -1
;
_chemical_formula_sum "Si O2"
_cell_formula_units_Z 16
_cell_length_a 18.293682
_cell_length_b 26.105398
_cell_length_c 5.236420
_cell_angle_alpha 110.287999
_cell_angle_beta 65.594717
_cell_angle_gamma 156.883317
_cell_volume 890.188735
_symmetry_space_group_name_H-M "P -1"
_symmetry_group_IT_number 2
_symmetry_cell_setting 'triclinic'
loop_
_space_group_symop_operation_xyz
x,y,z
-x,-y,-z
loop_
_atom_site_type_symbol
_atom_site_label
_atom_site_fract_x
_atom_site_fract_y
_atom_site_fract_z
Si Si1 0.771105 0.367169 0.085608
Si Si2 0.578814 0.980754 0.136983
Si Si3 0.342639 0.852828 0.756085
Si Si4 0.518042 0.728743 0.735044
Si Si5 0.689472 0.795429 0.102991
Si Si6 0.800483 0.006427 0.809221
Si Si7 0.026707 0.927211 0.825629
Si Si8 0.809121 0.345629 0.492497
O O1 0.705102 0.388944 0.169004
O O2 0.453093 0.287684 0.076931
O O3 0.693153 0.281374 0.814860
O O4 0.000000 0.500000 0.000000
O O5 0.712803 0.118260 0.151587
O O6 0.502624 0.932870 0.455096
O O7 0.706481 0.007519 0.940420
O O8 0.410675 0.883270 0.999771
O O9 0.159496 0.699255 0.694253
O O10 0.321012 0.710223 0.647825
O O11 0.640373 0.860217 0.783358
O O12 0.568362 0.721159 0.411129
O O13 0.804959 0.809997 0.944130
O O14 0.837532 0.936417 0.130286
O O15 0.936841 0.085640 0.502094
O O16 0.934125 0.084640 0.001252
O O17 0.000000 0.500000 0.500000
#
# Coordination Sequence:
#
# PCOD8016777 Si02
#       8
#     2   2   2   2   2   2   2   2
#     4  10  20  31  44  65  89 117 150 188 227 265
#     4  10  20  30  45  65  89 123 156 191 224 262
#     4  10  19  32  45  63  91 120 158 194 223 263
#     4  10  17  26  42  58  81 115 149 177 211 270
#     4   9  17  27  39  58  80 112 146 176 220 261
#     4  10  17  26  41  60  81 113 150 179 213 258
#     4   9  17  27  39  57  84 109 142 186 216 255
#     4  10  19  31  47  64  87 121 152 187 230 268
#
# _framework density 17.973718000000002
#
# number of rings (size 3 to 8) (size 9 to 14) (size 15 to 20)
#    0.000    2.250    0.000    4.500    0.000    5.000 
#    0.000    0.000    0.000    0.000    0.000    0.000 
#    0.000    0.000    0.000   90.000    0.000   15.000 
#
# Total GULP energy -198232.948886 kJ/mol
# GULP energy per Si atom -12389.559305 kJ/mol
# Density = 1.793281 g / cm^3
# Si number density = 17.973718 Si / 1000 Ang^3
#
#
#
# Elastic Constant Matrix: (Units=GPa)
#
#
# Indices 1 2 3 4 5 6 
#
# 1 95.6420 21.4220 48.5073 -0.1934 3.1035 18.3409
# 2 21.4220 38.4038 13.3319 4.1749 -6.7552 3.2531
# 3 48.5073 13.3319 132.5285 -2.4961 17.4051 9.4918
# 4 -0.1934 4.1749 -2.4961 16.9194 4.3341 -12.4748
# 5 3.1035 -6.7552 17.4051 4.3341 45.2387 2.9180
# 6 18.3409 3.2531 9.4918 -12.4748 2.9180 28.6505
#
#
#
# Elastic Compliance Matrix: (Units=1/GPa)
#
#
# Indices 1 2 3 4 5 6 
#
# 1 0.016418 -0.005148 -0.004996 -0.008726 0.001653 -0.012238
# 2 -0.005148 0.033682 -0.002357 -0.016660 0.008393 -0.007857
# 3 -0.004996 -0.002357 0.010107 0.005339 -0.004597 0.002911
# 4 -0.008726 -0.016660 0.005339 0.109070 -0.017942 0.055027
# 5 0.001653 0.008393 -0.004597 -0.017942 0.027448 -0.011096
# 6 -0.012238 -0.007857 0.002911 0.055027 -0.011096 0.067755
#
#
# Mechanical properties :
#
#
# Convention : Reuss Voigt Hill
#
# Bulk Modulus (GPa) = 28.40553 48.12186 38.26369
# Shear Modulus (GPa) = 16.59920 30.38259 23.49089
#
# Velocity S-wave (km/s) = 3.04225 4.11590 3.61911
# Velocity P-wave (km/s) = 5.30836 7.02987 6.22887
#
# Compressibility (1/GPa) = 0.03520441
#
# Stress axis : x y z
#
# Youngs Moduli (GPa) = 60.90753 29.68949 98.93861
#
# Poissons Ratio (x) = 0.15284 0.49433
# Poissons Ratio (y) = 0.31354 0.23324
# Poissons Ratio (z) = 0.30432 0.06999
#
# Static dielectric constant tensor:
#      x y z
#    x 2.854730 0.137830 -0.964330 
#    y 0.137830 2.886570 0.108260 
#    z -0.964330 0.108260 1.730210 
# 
# 
# High freq. dielectric constant tensor:
#      x y z
#    x 1.693910 0.017280 0.020150 
#    y 0.017280 1.624310 -0.000160 
#    z 0.020150 -0.000160 1.725440 
# 
# From -- ./inp_files/113180.got.cif
#   From: 2010.06.25/outbox.cif.g09.slc.cpg/sg2_57_cif.got.tgz:113180.got - 2010.06.27 13:26:56.
