data_PCOD8016973
_publ_section_title
;
Structure prediction by ZEFSAII (Michael W. Deem and Ramdas Pophale) SiO2 
 PCOD8016973
Probable space group: P -1
;
_chemical_formula_sum "Si O2"
_cell_formula_units_Z 16
_cell_length_a 12.688148
_cell_length_b 9.101017
_cell_length_c 15.952927
_cell_angle_alpha 46.558036
_cell_angle_beta 140.592003
_cell_angle_gamma 113.663678
_cell_volume 814.697176
_symmetry_space_group_name_H-M "P -1"
_symmetry_group_IT_number 2
_symmetry_cell_setting 'triclinic'
loop_
_space_group_symop_operation_xyz
x,y,z
-x,-y,-z
loop_
_atom_site_type_symbol
_atom_site_label
_atom_site_fract_x
_atom_site_fract_y
_atom_site_fract_z
Si Si1 0.802308 0.071683 0.869312
Si Si2 0.443549 0.831307 0.478438
Si Si3 0.321921 0.178525 0.831205
Si Si4 0.148652 0.302544 0.837668
Si Si5 0.201250 0.625636 0.509793
Si Si6 0.053973 0.293266 0.372685
Si Si7 0.678042 0.532767 0.628108
Si Si8 0.018898 0.087841 0.605280
O O1 0.682129 0.073667 0.713811
O O2 0.785967 0.298892 0.812082
O O3 0.764301 0.911272 0.975454
O O4 0.000000 0.000000 0.000000
O O5 0.351607 0.708517 0.531955
O O6 0.629175 0.683579 0.618954
O O7 0.500000 0.000000 0.500000
O O8 0.294517 0.291371 0.861210
O O9 0.284815 0.373541 0.667077
O O10 0.179436 0.051080 0.781843
O O11 0.500000 0.000000 0.000000
O O12 0.960426 0.324203 0.672677
O O13 0.116435 0.504776 0.800661
O O14 0.142027 0.735262 0.521091
O O15 0.221326 0.368912 0.418971
O O16 0.082359 0.167966 0.526530
O O17 0.022874 0.135007 0.344116
O O18 0.500000 0.500000 0.500000
#
# Coordination Sequence:
#
# PCOD8016973 Si02
#       8
#     2   2   2   2   2   2   2   2
#     4  11  21  39  63  91 114 165 210 252 292 375
#     4  11  24  41  61  93 131 165 198 258 324 367
#     4  11  24  39  60  91 120 162 205 258 309 363
#     4  11  20  40  66  85 117 159 212 254 295 373
#     4  11  20  42  63  85 123 164 211 246 309 372
#     4  11  19  38  63  90 121 154 210 250 306 366
#     4  10  22  37  62  92 124 165 202 251 309 366
#     4  10  22  37  65  87 116 164 202 258 308 356
#
# _framework density 19.639198
#
# number of rings (size 3 to 8) (size 9 to 14) (size 15 to 20)
#    0.000    1.250    5.000    2.250    1.750    1.000 
#    2.250    1.250    0.000    0.000    0.000    0.000 
#    0.000    0.000    0.000    0.000    0.000    0.000 
#
# Total GULP energy -198244.601933 kJ/mol
# GULP energy per Si atom -12390.287621 kJ/mol
# Density = 1.959450 g / cm^3
# Si number density = 19.639198 Si / 1000 Ang^3
#
#
#
# Elastic Constant Matrix: (Units=GPa)
#
#
# Indices 1 2 3 4 5 6 
#
# 1 118.2947 47.3428 46.1634 -12.7714 14.1849 -3.0654
# 2 47.3428 135.5616 57.4919 -23.4301 3.7780 -13.5125
# 3 46.1634 57.4919 106.3259 -21.7013 8.9705 -5.1315
# 4 -12.7714 -23.4301 -21.7013 26.2324 -6.7196 3.0107
# 5 14.1849 3.7780 8.9705 -6.7196 32.4947 -10.8841
# 6 -3.0654 -13.5125 -5.1315 3.0107 -10.8841 37.7462
#
#
#
# Elastic Compliance Matrix: (Units=1/GPa)
#
#
# Indices 1 2 3 4 5 6 
#
# 1 0.011214 -0.002684 -0.003242 -0.000544 -0.004373 -0.001708
# 2 -0.002684 0.011250 -0.003789 0.006050 0.003434 0.003802
# 3 -0.003242 -0.003789 0.014275 0.006680 -0.000857 -0.000459
# 4 -0.000544 0.006050 0.006680 0.050844 0.008701 0.001483
# 5 -0.004373 0.003434 -0.000857 0.008701 0.038012 0.011025
# 6 -0.001708 0.003802 -0.000459 0.001483 0.011025 0.030713
#
#
# Mechanical properties :
#
#
# Convention : Reuss Voigt Hill
#
# Bulk Modulus (GPa) = 57.77354 73.57537 65.67446
# Shear Modulus (GPa) = 27.54684 33.24025 30.39355
#
# Velocity S-wave (km/s) = 3.74925 4.11852 3.93822
# Velocity P-wave (km/s) = 6.94434 7.75636 7.36156
#
# Compressibility (1/GPa) = 0.01730896
#
# Stress axis : x y z
#
# Youngs Moduli (GPa) = 89.17307 88.88945 70.05232
#
# Poissons Ratio (x) = 0.23855 0.22712
# Poissons Ratio (y) = 0.23932 0.26544
# Poissons Ratio (z) = 0.28911 0.33682
#
# Static dielectric constant tensor:
#      x y z
#    x 3.812950 -0.365870 0.075430 
#    y -0.365870 3.939110 -0.191510 
#    z 0.075430 -0.191510 3.231940 
# 
# 
# High freq. dielectric constant tensor:
#      x y z
#    x 1.781000 -0.009590 0.003410 
#    y -0.009590 1.768910 -0.023760 
#    z 0.003410 -0.023760 1.740760 
# 
# From -- ./inp_files/244663.got.cif
#   From: 2010.06.25/outbox.cif.g09.slc.cpg/sg2_123_cif.got.tgz:244663.got - 2010.06.27 13:26:56.
