data_PCOD8016083
_publ_section_title
;
Structure prediction by ZEFSAII (Michael W. Deem and Ramdas Pophale) SiO2 
 PCOD8016083
Probable space group: P -1
;
_chemical_formula_sum "Si O2"
_cell_formula_units_Z 14
_cell_length_a 10.545562
_cell_length_b 11.303860
_cell_length_c 7.365736
_cell_angle_alpha 61.965230
_cell_angle_beta 124.041371
_cell_angle_gamma 129.161301
_cell_volume 554.786611
_symmetry_space_group_name_H-M "P -1"
_symmetry_group_IT_number 2
_symmetry_cell_setting 'triclinic'
loop_
_space_group_symop_operation_xyz
x,y,z
-x,-y,-z
loop_
_atom_site_type_symbol
_atom_site_label
_atom_site_fract_x
_atom_site_fract_y
_atom_site_fract_z
Si Si1 0.771593 0.668431 0.131195
Si Si2 0.190434 0.032603 0.671881
Si Si3 0.932320 0.292638 0.143002
Si Si4 0.265100 0.640311 0.785342
Si Si5 0.159384 0.779682 0.287893
Si Si6 0.647491 0.887319 0.878015
Si Si7 0.688377 0.643639 0.502096
O O1 0.702399 0.504735 0.092601
O O2 0.709967 0.639263 0.309009
O O3 0.982153 0.771527 0.221425
O O4 0.689265 0.764581 0.895323
O O5 0.323220 0.200766 0.566964
O O6 0.187320 0.874766 0.725792
O O7 0.211505 0.041625 0.898560
O O8 0.000000 0.000000 0.500000
O O9 0.881205 0.401322 0.141608
O O10 0.143659 0.354004 0.266436
O O11 0.860066 0.279444 0.891599
O O12 0.195799 0.662787 0.519264
O O13 0.448858 0.796311 0.863482
O O14 0.314716 0.959816 0.315794
O O15 0.500000 0.500000 0.500000
#
# Coordination Sequence:
#
# PCOD8016083 Si02
#       7
#     2   2   2   2   2   2   2
#     4  11  24  47  68  99 146 187 230 288 348 418
#     4   8  18  40  67  96 133 176 230 283 336 409
#     4  10  23  44  72  98 141 188 226 283 359 409
#     4  12  25  46  69 105 151 178 228 298 344 413
#     4  11  24  45  74 102 137 187 237 281 353 417
#     4  10  23  44  73 103 135 189 238 282 347 415
#     4  10  21  43  70 102 136 184 235 287 345 414
#
# _framework density 25.234926999999999
#
# number of rings (size 3 to 8) (size 9 to 14) (size 15 to 20)
#    0.000    1.714    1.429    1.714    0.000    6.286 
#   12.857    0.000    0.000    0.000    0.000    0.000 
#    0.000    0.000    0.000    0.000    0.000    0.000 
#
# Total GULP energy -173453.548401 kJ/mol
# GULP energy per Si atom -12389.539171 kJ/mol
# Density = 2.517749 g / cm^3
# Si number density = 25.234927 Si / 1000 Ang^3
#
#
#
# Elastic Constant Matrix: (Units=GPa)
#
#
# Indices 1 2 3 4 5 6 
#
# 1 83.9955 38.9198 23.8434 4.8464 0.5783 8.7335
# 2 38.9198 133.3404 12.0161 -1.0367 7.1235 8.2868
# 3 23.8434 12.0161 86.7326 8.4020 -5.0333 -9.2020
# 4 4.8464 -1.0367 8.4020 26.3948 2.5201 11.0469
# 5 0.5783 7.1235 -5.0333 2.5201 23.3844 0.7219
# 6 8.7335 8.2868 -9.2020 11.0469 0.7219 45.4836
#
#
#
# Elastic Compliance Matrix: (Units=1/GPa)
#
#
# Indices 1 2 3 4 5 6 
#
# 1 0.015137 -0.003903 -0.003865 -0.000520 0.000127 -0.002853
# 2 -0.003903 0.008975 -0.000720 0.002221 -0.002985 -0.001524
# 3 -0.003865 -0.000720 0.014084 -0.006349 0.003870 0.005203
# 4 -0.000520 0.002221 -0.006349 0.046019 -0.006599 -0.012662
# 5 0.000127 -0.002985 0.003870 -0.006599 0.045146 0.002189
# 6 -0.002853 -0.001524 0.005203 -0.012662 0.002189 0.026905
#
#
# Mechanical properties :
#
#
# Convention : Reuss Voigt Hill
#
# Bulk Modulus (GPa) = 47.13060 50.40302 48.76681
# Shear Modulus (GPa) = 27.72886 34.33850 31.03368
#
# Velocity S-wave (km/s) = 3.31845 3.69284 3.51064
# Velocity P-wave (km/s) = 5.77928 6.18059 5.98330
#
# Compressibility (1/GPa) = 0.02121764
#
# Stress axis : x y z
#
# Youngs Moduli (GPa) = 66.06264 111.41683 71.00336
#
# Poissons Ratio (x) = 0.43491 0.27446
# Poissons Ratio (y) = 0.25787 0.05115
# Poissons Ratio (z) = 0.25536 0.08027
#
# Static dielectric constant tensor:
#      x y z
#    x 4.375440 -0.419770 0.186270 
#    y -0.419770 7.071890 -0.608960 
#    z 0.186270 -0.608960 4.669940 
# 
# 
# High freq. dielectric constant tensor:
#      x y z
#    x 1.977420 0.001390 0.008920 
#    y 0.001390 2.037240 -0.010070 
#    z 0.008920 -0.010070 2.004550 
# 
# From -- ./inp_files/257678.got.cif
#   From: 2010.06.25/outbox.cif.g09.slc.cpg/sg2_129_cif.got.tgz:257678.got - 2010.06.27 13:26:56.
