data_PCOD8016743
_publ_section_title
;
Structure prediction by ZEFSAII (Michael W. Deem and Ramdas Pophale) SiO2 
 PCOD8016743
Probable space group: P -1
;
_chemical_formula_sum "Si O2"
_cell_formula_units_Z 14
_cell_length_a 12.222337
_cell_length_b 9.328413
_cell_length_c 8.784201
_cell_angle_alpha 69.264269
_cell_angle_beta 62.493693
_cell_angle_gamma 115.427491
_cell_volume 581.028125
_symmetry_space_group_name_H-M "P -1"
_symmetry_group_IT_number 2
_symmetry_cell_setting 'triclinic'
loop_
_space_group_symop_operation_xyz
x,y,z
-x,-y,-z
loop_
_atom_site_type_symbol
_atom_site_label
_atom_site_fract_x
_atom_site_fract_y
_atom_site_fract_z
Si Si1 0.602321 0.074124 0.064881
Si Si2 0.223177 0.340438 0.639789
Si Si3 0.165433 0.987107 0.947738
Si Si4 0.277922 0.720322 0.598403
Si Si5 0.275330 0.567767 0.958023
Si Si6 0.096063 0.857214 0.689375
Si Si7 0.595734 0.652593 0.735694
O O1 0.728137 0.036543 0.004475
O O2 0.706473 0.327595 0.930498
O O3 0.470730 0.944443 0.340683
O O4 0.500000 0.000000 0.000000
O O5 0.238683 0.522414 0.625154
O O6 0.353073 0.440646 0.374469
O O7 0.270372 0.242793 0.764451
O O8 0.017594 0.136320 0.801501
O O9 0.125932 0.886105 0.841662
O O10 0.251967 0.683144 0.808963
O O11 0.140929 0.730799 0.635323
O O12 0.451902 0.638177 0.761391
O O13 0.109782 0.302268 0.163165
O O14 0.222841 0.095003 0.438599
O O15 0.500000 0.500000 0.000000
#
# Coordination Sequence:
#
# PCOD8016743 Si02
#       7
#     2   2   2   2   2   2   2
#     4  12  27  44  71 109 155 198 244 305 377 444
#     4  10  23  42  74 111 138 190 248 311 364 423
#     4  10  21  47  72 108 147 184 254 308 365 437
#     4  12  22  43  75 109 142 186 254 304 356 435
#     4  12  24  46  77 106 142 198 250 307 361 434
#     4  11  22  46  82 106 138 198 250 306 364 429
#     4  11  27  48  68 107 158 194 240 295 378 456
#
# _framework density 24.095219
#
# number of rings (size 3 to 8) (size 9 to 14) (size 15 to 20)
#    0.000    0.857    4.286    3.429    2.000    2.857 
#    2.571    1.429    0.000    0.000    0.000    0.000 
#    0.000    0.000    0.000    0.000    0.000    0.000 
#
# Total GULP energy -173510.410625 kJ/mol
# GULP energy per Si atom -12393.600759 kJ/mol
# Density = 2.404038 g / cm^3
# Si number density = 24.095219 Si / 1000 Ang^3
#
#
#
# Elastic Constant Matrix: (Units=GPa)
#
#
# Indices 1 2 3 4 5 6 
#
# 1 91.8462 33.3115 38.5173 4.4551 -4.5465 -3.8427
# 2 33.3115 132.0558 27.3185 -5.3430 3.4221 -4.5025
# 3 38.5173 27.3185 135.4986 -10.1787 -9.3843 7.2174
# 4 4.4551 -5.3430 -10.1787 37.4513 -0.8001 -13.8259
# 5 -4.5465 3.4221 -9.3843 -0.8001 33.5120 3.0890
# 6 -3.8427 -4.5025 7.2174 -13.8259 3.0890 39.7750
#
#
#
# Elastic Compliance Matrix: (Units=1/GPa)
#
#
# Indices 1 2 3 4 5 6 
#
# 1 0.013567 -0.002825 -0.003450 -0.002714 0.001044 0.000593
# 2 -0.002825 0.008670 -0.001008 0.001882 -0.001660 0.001674
# 3 -0.003450 -0.001008 0.008971 0.002205 0.002337 -0.001490
# 4 -0.002714 0.001882 0.002205 0.031809 -0.000163 0.010620
# 5 0.001044 -0.001660 0.002337 -0.000163 0.031077 -0.002981
# 6 0.000593 0.001674 -0.001490 0.010620 -0.002981 0.029582
#
#
# Mechanical properties :
#
#
# Convention : Reuss Voigt Hill
#
# Bulk Modulus (GPa) = 60.08931 61.96615 61.02773
# Shear Modulus (GPa) = 34.77302 39.49787 37.13545
#
# Velocity S-wave (km/s) = 3.80300 4.05315 3.93007
# Velocity P-wave (km/s) = 6.65404 6.90486 6.78061
#
# Compressibility (1/GPa) = 0.01664189
#
# Stress axis : x y z
#
# Youngs Moduli (GPa) = 73.70555 115.34086 111.47101
#
# Poissons Ratio (x) = 0.32588 0.38460
# Poissons Ratio (y) = 0.20824 0.11232
# Poissons Ratio (z) = 0.25430 0.11622
#
# Static dielectric constant tensor:
#      x y z
#    x 4.597410 -0.320060 -0.404620 
#    y -0.320060 4.364660 -0.210990 
#    z -0.404620 -0.210990 4.669370 
# 
# 
# High freq. dielectric constant tensor:
#      x y z
#    x 1.941520 -0.026030 -0.025250 
#    y -0.026030 1.960540 -0.010600 
#    z -0.025250 -0.010600 1.954640 
# 
# From -- ./inp_files/242895.got.cif
#   From: 2010.06.25/outbox.cif.g09.slc.cpg/sg2_122_cif.got.tgz:242895.got - 2010.06.27 13:26:56.
