data_PCOD8016429
_publ_section_title
;
Structure prediction by ZEFSAII (Michael W. Deem and Ramdas Pophale) SiO2 
 PCOD8016429
Probable space group: P -1
;
_chemical_formula_sum "Si O2"
_cell_formula_units_Z 14
_cell_length_a 26.809339
_cell_length_b 7.132244
_cell_length_c 9.344391
_cell_angle_alpha 112.345961
_cell_angle_beta 151.163089
_cell_angle_gamma 54.198029
_cell_volume 657.788742
_symmetry_space_group_name_H-M "P -1"
_symmetry_group_IT_number 2
_symmetry_cell_setting 'triclinic'
loop_
_space_group_symop_operation_xyz
x,y,z
-x,-y,-z
loop_
_atom_site_type_symbol
_atom_site_label
_atom_site_fract_x
_atom_site_fract_y
_atom_site_fract_z
Si Si1 0.741214 0.394037 0.152789
Si Si2 0.943130 0.884262 0.419163
Si Si3 0.672158 0.536773 0.699959
Si Si4 0.558264 0.443507 0.931057
Si Si5 0.681393 0.166930 0.429568
Si Si6 0.139367 0.413220 0.290761
Si Si7 0.860397 0.552629 0.017221
O O1 0.820661 0.477098 0.454896
O O2 0.822687 0.099669 0.263610
O O3 0.708922 0.513911 0.950376
O O4 0.613096 0.484841 0.939012
O O5 0.900742 0.742944 0.173290
O O6 0.042467 0.698206 0.729974
O O7 0.000000 0.000000 0.500000
O O8 0.521822 0.671872 0.344638
O O9 0.741503 0.267295 0.717908
O O10 0.724319 0.677574 0.788819
O O11 0.462962 0.711344 0.844076
O O12 0.671640 0.262575 0.270401
O O13 0.763956 0.877919 0.553342
O O14 0.145353 0.514212 0.180652
O O15 0.000000 0.500000 0.000000
#
# Coordination Sequence:
#
# PCOD8016429 Si02
#       7
#     2   2   2   2   2   2   2
#     4  12  24  40  69 102 140 174 233 292 335 394
#     4  11  24  45  71  96 140 180 231 284 336 411
#     4  10  21  44  70  97 132 176 233 275 342 408
#     4   9  22  44  72  96 134 187 226 286 342 397
#     4   9  22  46  69  90 146 178 231 272 350 405
#     4  12  28  41  65 106 138 181 230 284 342 411
#     4  11  25  44  71  97 134 192 222 271 361 400
#
# _framework density 21.283428000000001
#
# number of rings (size 3 to 8) (size 9 to 14) (size 15 to 20)
#    0.857    0.571    1.429    3.000    6.000    1.143 
#    0.000    1.429    0.000    0.000    0.000    0.000 
#    0.000    0.000    0.000    0.000    0.000    0.000 
#
# Total GULP energy -173545.922585 kJ/mol
# GULP energy per Si atom -12396.137327 kJ/mol
# Density = 2.123499 g / cm^3
# Si number density = 21.283428 Si / 1000 Ang^3
#
#
#
# Elastic Constant Matrix: (Units=GPa)
#
#
# Indices 1 2 3 4 5 6 
#
# 1 160.3083 30.6620 65.7065 4.5148 -8.5199 17.4475
# 2 30.6620 80.0925 28.2189 -8.1112 -6.2176 2.6018
# 3 65.7065 28.2189 116.3756 13.9795 -15.4649 4.9243
# 4 4.5148 -8.1112 13.9795 30.4953 -5.6609 4.9444
# 5 -8.5199 -6.2176 -15.4649 -5.6609 49.5147 4.8347
# 6 17.4475 2.6018 4.9243 4.9444 4.8347 29.5395
#
#
#
# Elastic Compliance Matrix: (Units=1/GPa)
#
#
# Indices 1 2 3 4 5 6 
#
# 1 0.008880 -0.001488 -0.004534 0.001217 0.000518 -0.004647
# 2 -0.001488 0.014990 -0.003299 0.006169 0.001414 -0.001156
# 3 -0.004534 -0.003299 0.012873 -0.005979 0.001996 0.001497
# 4 0.001217 0.006169 -0.005979 0.039010 0.004309 -0.007501
# 5 0.000518 0.001414 0.001996 0.004309 0.022077 -0.005098
# 6 -0.004647 -0.001156 0.001497 -0.007501 -0.005098 0.038540
#
#
# Mechanical properties :
#
#
# Convention : Reuss Voigt Hill
#
# Bulk Modulus (GPa) = 55.24421 67.32791 61.28606
# Shear Modulus (GPa) = 31.04774 37.38916 34.21845
#
# Velocity S-wave (km/s) = 3.82354 4.19588 4.01403
# Velocity P-wave (km/s) = 6.74577 7.42809 7.09513
#
# Compressibility (1/GPa) = 0.01810145
#
# Stress axis : x y z
#
# Youngs Moduli (GPa) = 112.61633 66.71325 77.68330
#
# Poissons Ratio (x) = 0.09925 0.35219
# Poissons Ratio (y) = 0.16753 0.25628
# Poissons Ratio (z) = 0.51056 0.22009
#
# Static dielectric constant tensor:
#      x y z
#    x 3.992780 -0.064130 -0.005480 
#    y -0.064130 3.622600 0.080030 
#    z -0.005480 0.080030 4.094130 
# 
# 
# High freq. dielectric constant tensor:
#      x y z
#    x 1.846440 0.000610 -0.005930 
#    y 0.000610 1.805470 0.007070 
#    z -0.005930 0.007070 1.849820 
# 
# From -- ./inp_files/356046.got.cif
#   From: 2010.06.25/outbox.cif.g09.slc.cpg/sg2_179_cif.got.tgz:356046.got - 2010.06.27 13:26:56.
