data_PCOD8016737
_publ_section_title
;
Structure prediction by ZEFSAII (Michael W. Deem and Ramdas Pophale) SiO2 
 PCOD8016737
Probable space group: P -1
;
_chemical_formula_sum "Si O2"
_cell_formula_units_Z 16
_cell_length_a 12.041546
_cell_length_b 11.880719
_cell_length_c 5.695699
_cell_angle_alpha 98.441750
_cell_angle_beta 58.365644
_cell_angle_gamma 104.166168
_cell_volume 672.499276
_symmetry_space_group_name_H-M "P -1"
_symmetry_group_IT_number 2
_symmetry_cell_setting 'triclinic'
loop_
_space_group_symop_operation_xyz
x,y,z
-x,-y,-z
loop_
_atom_site_type_symbol
_atom_site_label
_atom_site_fract_x
_atom_site_fract_y
_atom_site_fract_z
Si Si1 0.684234 0.700946 0.543382
Si Si2 0.608555 0.331276 0.155063
Si Si3 0.625977 0.127641 0.734250
Si Si4 0.060562 0.050834 0.197627
Si Si5 0.909329 0.708039 0.935732
Si Si6 0.188831 0.683148 0.689595
Si Si7 0.667206 0.921872 0.920879
Si Si8 0.244176 0.488999 0.268629
O O1 0.538654 0.678908 0.572970
O O2 0.691373 0.799253 0.761049
O O3 0.704970 0.582808 0.603640
O O4 0.798046 0.741293 0.239069
O O5 0.728683 0.364446 0.214215
O O6 0.619765 0.209200 0.990278
O O7 0.626560 0.438460 0.985754
O O8 0.725958 0.192450 0.448532
O O9 0.675377 0.012544 0.724611
O O10 0.474372 0.092851 0.791570
O O11 0.050177 0.186101 0.259381
O O12 0.213679 0.033596 0.015449
O O13 0.000000 0.000000 0.500000
O O14 0.000000 0.000000 0.000000
O O15 0.855781 0.590550 0.820589
O O16 0.041266 0.696688 0.935571
O O17 0.166570 0.585808 0.482198
#
# Coordination Sequence:
#
# PCOD8016737 Si02
#       8
#     2   2   2   2   2   2   2   2
#     4  11  24  44  71 105 143 181 240 300 363 435
#     4  10  24  43  71 103 137 186 236 298 361 427
#     4   9  22  44  72  98 143 182 237 299 354 441
#     4  12  27  46  73 107 150 194 243 303 372 442
#     4  12  27  43  70 102 141 189 235 300 365 436
#     4  11  25  44  67  99 140 183 241 291 365 430
#     4  10  21  47  71 104 136 190 240 291 369 434
#     4  11  24  45  69  99 137 186 240 300 359 436
#
# _framework density 23.791846
#
# number of rings (size 3 to 8) (size 9 to 14) (size 15 to 20)
#    0.000    1.250    1.250    3.000    3.500    7.000 
#    0.000    1.875    0.000    0.000    0.000    0.000 
#    0.000    0.000    0.000    0.000    0.000    0.000 
#
# Total GULP energy -198375.895307 kJ/mol
# GULP energy per Si atom -12398.493457 kJ/mol
# Density = 2.373770 g / cm^3
# Si number density = 23.791846 Si / 1000 Ang^3
#
#
#
# Elastic Constant Matrix: (Units=GPa)
#
#
# Indices 1 2 3 4 5 6 
#
# 1 174.6092 17.8858 40.6481 2.1437 -23.7913 3.9383
# 2 17.8858 103.8949 17.6382 -21.9151 -9.9855 -5.0453
# 3 40.6481 17.6382 86.4617 -9.9075 -12.3979 1.2185
# 4 2.1437 -21.9151 -9.9075 20.4721 -2.2383 5.2154
# 5 -23.7913 -9.9855 -12.3979 -2.2383 32.4145 0.3291
# 6 3.9383 -5.0453 1.2185 5.2154 0.3291 33.7317
#
#
#
# Elastic Compliance Matrix: (Units=1/GPa)
#
#
# Indices 1 2 3 4 5 6 
#
# 1 0.007030 -0.000956 -0.002892 -0.002645 0.003581 -0.000485
# 2 -0.000956 0.013357 0.000090 0.014998 0.004485 -0.000256
# 3 -0.002892 0.000090 0.014443 0.008204 0.004011 -0.001478
# 4 -0.002645 0.014998 0.008204 0.072658 0.010927 -0.009085
# 5 0.003581 0.004485 0.004011 0.010927 0.037169 -0.001944
# 6 -0.000485 -0.000256 -0.001478 -0.009085 -0.001944 0.031141
#
#
# Mechanical properties :
#
#
# Convention : Reuss Voigt Hill
#
# Bulk Modulus (GPa) = 36.61351 57.47890 47.04621
# Shear Modulus (GPa) = 25.98496 36.57656 31.28076
#
# Velocity S-wave (km/s) = 3.30840 3.92517 3.62991
# Velocity P-wave (km/s) = 5.47873 6.68985 6.11435
#
# Compressibility (1/GPa) = 0.02731232
#
# Stress axis : x y z
#
# Youngs Moduli (GPa) = 142.25279 74.86940 69.23621
#
# Poissons Ratio (x) = 0.07160 0.20026
# Poissons Ratio (y) = 0.13604 -0.00624
# Poissons Ratio (z) = 0.41146 -0.00675
#
# Static dielectric constant tensor:
#      x y z
#    x 4.388520 0.095070 -0.241550 
#    y 0.095070 4.459600 -0.218800 
#    z -0.241550 -0.218800 3.988100 
# 
# 
# High freq. dielectric constant tensor:
#      x y z
#    x 1.951220 0.000310 -0.014820 
#    y 0.000310 1.963680 -0.011460 
#    z -0.014820 -0.011460 1.918970 
# 
# From -- ./inp_files/70333.got.cif
#   From: 2010.06.25/outbox.cif.g09.slc.cpg/sg2_36_cif.got.tgz:70333.got - 2010.06.27 13:26:56.
