data_PCOD8016498
_publ_section_title
;
Structure prediction by ZEFSAII (Michael W. Deem and Ramdas Pophale) SiO2 
 PCOD8016498
Probable space group: P -1
;
_chemical_formula_sum "Si O2"
_cell_formula_units_Z 16
_cell_length_a 9.259745
_cell_length_b 19.317867
_cell_length_c 22.128066
_cell_angle_alpha 20.235591
_cell_angle_beta 39.288491
_cell_angle_gamma 30.823089
_cell_volume 690.128540
_symmetry_space_group_name_H-M "P -1"
_symmetry_group_IT_number 2
_symmetry_cell_setting 'triclinic'
loop_
_space_group_symop_operation_xyz
x,y,z
-x,-y,-z
loop_
_atom_site_type_symbol
_atom_site_label
_atom_site_fract_x
_atom_site_fract_y
_atom_site_fract_z
Si Si1 0.425637 0.415686 0.330295
Si Si2 0.770708 0.614076 0.702775
Si Si3 0.271757 0.556277 0.394916
Si Si4 0.721100 0.090176 0.297463
Si Si5 0.656775 0.076416 0.736334
Si Si6 0.585820 0.742888 0.205020
Si Si7 0.701546 0.655779 0.002379
Si Si8 0.351394 0.032851 0.702298
O O1 0.226600 0.520816 0.248631
O O2 0.256446 0.591233 0.299066
O O3 0.544793 0.124500 0.543890
O O4 0.671628 0.448242 0.209066
O O5 0.539409 0.652941 0.795022
O O6 0.085963 0.458355 0.755846
O O7 0.675279 0.883897 0.494825
O O8 0.487683 0.258199 0.584693
O O9 0.390071 0.690240 0.277916
O O10 0.949397 0.694819 0.408888
O O11 0.688575 0.117863 0.212620
O O12 0.025334 0.004432 0.293109
O O13 0.462605 0.245770 0.716931
O O14 0.690133 0.820490 0.926518
O O15 0.500000 0.000000 0.000000
O O16 0.460637 0.850198 0.873414
O O17 0.000000 0.500000 0.000000
#
# Coordination Sequence:
#
# PCOD8016498 Si02
#       8
#     2   2   2   2   2   2   2   2
#     4  11  25  46  71 102 143 184 236 298 357 425
#     4  10  23  42  69 105 136 187 239 287 360 425
#     4  12  24  46  72 107 143 191 243 294 363 429
#     4  10  21  44  72  99 140 188 233 294 352 430
#     4  12  23  47  72 101 144 188 242 296 353 428
#     4  12  26  42  68 108 143 188 241 298 360 420
#     4  12  29  48  70 108 144 191 244 295 362 438
#     4  11  25  46  73 105 142 192 238 296 368 423
#
# _framework density 23.184087999999999
#
# number of rings (size 3 to 8) (size 9 to 14) (size 15 to 20)
#    0.000    0.750    3.750    3.750    3.500    3.000 
#    2.250    1.875    0.000    0.000    0.000    0.000 
#    0.000    0.000    0.000    0.000    0.000    0.000 
#
# Total GULP energy -198332.891165 kJ/mol
# GULP energy per Si atom -12395.805698 kJ/mol
# Density = 2.313132 g / cm^3
# Si number density = 23.184088 Si / 1000 Ang^3
#
#
#
# Elastic Constant Matrix: (Units=GPa)
#
#
# Indices 1 2 3 4 5 6 
#
# 1 122.8694 56.1909 28.1347 1.7827 -1.2321 15.5265
# 2 56.1909 151.1247 29.6756 -0.0689 5.1639 -0.6013
# 3 28.1347 29.6756 75.2649 9.8900 -13.7282 -0.7644
# 4 1.7827 -0.0689 9.8900 29.7977 -1.1732 -3.0020
# 5 -1.2321 5.1639 -13.7282 -1.1732 22.5994 7.5137
# 6 15.5265 -0.6013 -0.7644 -3.0020 7.5137 35.9442
#
#
#
# Elastic Compliance Matrix: (Units=1/GPa)
#
#
# Indices 1 2 3 4 5 6 
#
# 1 0.011080 -0.003740 -0.002351 -0.000355 0.001774 -0.005299
# 2 -0.003740 0.008807 -0.003138 0.001377 -0.005001 0.002856
# 3 -0.002351 -0.003138 0.018307 -0.005635 0.011955 -0.001617
# 4 -0.000355 0.001377 -0.005635 0.035703 -0.003131 0.003693
# 5 0.001774 -0.005001 0.011955 -0.003131 0.056822 -0.012735
# 6 -0.005299 0.002856 -0.001617 0.003693 -0.012735 0.033094
#
#
# Mechanical properties :
#
#
# Convention : Reuss Voigt Hill
#
# Bulk Modulus (GPa) = 50.66941 64.14016 57.40478
# Shear Modulus (GPa) = 26.47605 33.35210 29.91407
#
# Velocity S-wave (km/s) = 3.38300 3.79697 3.59595
# Velocity P-wave (km/s) = 6.09609 6.85188 6.48501
#
# Compressibility (1/GPa) = 0.01973577
#
# Stress axis : x y z
#
# Youngs Moduli (GPa) = 90.25305 113.54885 54.62345
#
# Poissons Ratio (x) = 0.42467 0.12840
# Poissons Ratio (y) = 0.33755 0.17143
# Poissons Ratio (z) = 0.21216 0.35636
#
# Static dielectric constant tensor:
#      x y z
#    x 4.507250 0.210390 -0.109550 
#    y 0.210390 4.084400 0.132980 
#    z -0.109550 0.132980 4.106730 
# 
# 
# High freq. dielectric constant tensor:
#      x y z
#    x 1.939260 0.007970 -0.012490 
#    y 0.007970 1.911420 0.010770 
#    z -0.012490 0.010770 1.903240 
# 
# From -- ./inp_files/608636.got.cif
#   From: 2010.06.25/outbox.cif.g09.slc.cpg/sg2_305_cif.got.tgz:608636.got - 2010.06.27 13:26:56.
