data_PCOD8016104
_publ_section_title
;
Structure prediction by ZEFSAII (Michael W. Deem and Ramdas Pophale) SiO2 
 PCOD8016104
Probable space group: P -1
;
_chemical_formula_sum "Si O2"
_cell_formula_units_Z 16
_cell_length_a 8.116484
_cell_length_b 20.162043
_cell_length_c 10.714827
_cell_angle_alpha 39.789111
_cell_angle_beta 136.965558
_cell_angle_gamma 134.713969
_cell_volume 724.231526
_symmetry_space_group_name_H-M "P -1"
_symmetry_group_IT_number 2
_symmetry_cell_setting 'triclinic'
loop_
_space_group_symop_operation_xyz
x,y,z
-x,-y,-z
loop_
_atom_site_type_symbol
_atom_site_label
_atom_site_fract_x
_atom_site_fract_y
_atom_site_fract_z
Si Si1 0.271513 0.889783 0.016807
Si Si2 0.664074 0.197920 0.491405
Si Si3 0.797134 0.442765 0.862486
Si Si4 0.257033 0.668323 0.438443
Si Si5 0.729457 0.520945 0.441856
Si Si6 0.236843 0.968327 0.632455
Si Si7 0.652346 0.206247 0.186782
Si Si8 0.069210 0.113442 0.945433
O O1 0.335611 0.783092 0.244925
O O2 0.029227 0.901769 0.942852
O O3 0.241428 0.879378 0.867646
O O4 0.500000 0.000000 0.000000
O O5 0.617981 0.296303 0.405765
O O6 0.642567 0.231322 0.290777
O O7 0.946366 0.194848 0.687711
O O8 0.476278 0.077846 0.597267
O O9 0.849439 0.499795 0.672236
O O10 0.508722 0.435748 0.745738
O O11 0.806226 0.318943 0.039370
O O12 0.000000 0.500000 0.000000
O O13 0.372834 0.589085 0.540098
O O14 0.951015 0.611819 0.359273
O O15 0.217160 0.890699 0.612390
O O16 0.000000 0.000000 0.500000
O O17 0.370880 0.164450 0.035042
O O18 0.000000 0.000000 0.000000
#
# Coordination Sequence:
#
# PCOD8016104 Si02
#       8
#     2   2   2   2   2   2   2   2
#     4  11  20  39  61  93 130 162 214 262 323 394
#     4  11  23  42  64  94 133 175 223 262 334 401
#     4  11  24  44  68  99 130 171 226 279 335 386
#     4  10  21  43  70  95 129 177 217 273 335 387
#     4  10  23  44  70  96 131 170 228 278 325 394
#     4  12  25  39  59  95 134 173 216 273 325 396
#     4  12  25  44  65  95 135 176 225 278 331 403
#     4  11  22  39  67  90 127 183 218 263 328 395
#
# _framework density 22.092383999999999
#
# number of rings (size 3 to 8) (size 9 to 14) (size 15 to 20)
#    0.000    1.000    3.750    4.125    1.750    2.000 
#    0.000    8.125    0.000    0.000    0.000    0.000 
#    0.000    0.000    0.000    0.000    0.000    0.000 
#
# Total GULP energy -198254.478416 kJ/mol
# GULP energy per Si atom -12390.904901 kJ/mol
# Density = 2.204210 g / cm^3
# Si number density = 22.092384 Si / 1000 Ang^3
#
#
#
# Elastic Constant Matrix: (Units=GPa)
#
#
# Indices 1 2 3 4 5 6 
#
# 1 58.7631 16.2703 13.0911 -3.9505 2.7445 -8.5272
# 2 16.2703 115.1530 30.6039 -14.3228 0.1243 -16.5351
# 3 13.0911 30.6039 74.9122 2.6364 -5.7263 0.9504
# 4 -3.9505 -14.3228 2.6364 37.2445 -5.7353 -2.8298
# 5 2.7445 0.1243 -5.7263 -5.7353 36.5202 -0.7471
# 6 -8.5272 -16.5351 0.9504 -2.8298 -0.7471 46.5234
#
#
#
# Elastic Compliance Matrix: (Units=1/GPa)
#
#
# Indices 1 2 3 4 5 6 
#
# 1 0.018655 -0.001167 -0.003001 0.001746 -0.001530 0.003147
# 2 -0.001167 0.011286 -0.004618 0.004889 0.000179 0.004192
# 3 -0.003001 -0.004618 0.016073 -0.003093 0.002221 -0.002672
# 4 0.001746 0.004889 -0.003093 0.030082 0.004174 0.004018
# 5 -0.001530 0.000179 0.002221 0.004174 0.028509 0.000449
# 6 0.003147 0.004192 -0.002672 0.004018 0.000449 0.023867
#
#
# Mechanical properties :
#
#
# Convention : Reuss Voigt Hill
#
# Bulk Modulus (GPa) = 35.16225 40.97321 38.06773
# Shear Modulus (GPa) = 32.14873 36.64849 34.39861
#
# Velocity S-wave (km/s) = 3.81884 4.07735 3.95021
# Velocity P-wave (km/s) = 5.94939 6.38380 6.17042
#
# Compressibility (1/GPa) = 0.02843959
#
# Stress axis : x y z
#
# Youngs Moduli (GPa) = 53.60521 88.60250 62.21711
#
# Poissons Ratio (x) = 0.10344 0.18674
# Poissons Ratio (y) = 0.06258 0.28734
# Poissons Ratio (z) = 0.16089 0.40920
#
# Static dielectric constant tensor:
#      x y z
#    x 4.314500 -0.121900 -0.142860 
#    y -0.121900 3.560050 0.439200 
#    z -0.142860 0.439200 3.540080 
# 
# 
# High freq. dielectric constant tensor:
#      x y z
#    x 1.876130 -0.012610 -0.011910 
#    y -0.012610 1.883810 -0.010820 
#    z -0.011910 -0.010820 1.853590 
# 
# From -- ./inp_files/405454.got.cif
#   From: 2010.06.25/outbox.cif.g09.slc.cpg/sg2_203_cif.got.tgz:405454.got - 2010.06.27 13:26:56.
