data_PCOD8016545
_publ_section_title
;
Structure prediction by ZEFSAII (Michael W. Deem and Ramdas Pophale) SiO2 
 PCOD8016545
Probable space group: P -1
;
_chemical_formula_sum "Si O2"
_cell_formula_units_Z 14
_cell_length_a 11.638932
_cell_length_b 9.257314
_cell_length_c 8.721171
_cell_angle_alpha 131.923344
_cell_angle_beta 112.523315
_cell_angle_gamma 70.191395
_cell_volume 641.099008
_symmetry_space_group_name_H-M "P -1"
_symmetry_group_IT_number 2
_symmetry_cell_setting 'triclinic'
loop_
_space_group_symop_operation_xyz
x,y,z
-x,-y,-z
loop_
_atom_site_type_symbol
_atom_site_label
_atom_site_fract_x
_atom_site_fract_y
_atom_site_fract_z
Si Si1 0.544477 0.941751 0.316405
Si Si2 0.909605 0.057592 0.634758
Si Si3 0.980560 0.406165 0.087214
Si Si4 0.626387 0.026110 0.994704
Si Si5 0.244171 0.373349 0.344822
Si Si6 0.784049 0.691356 0.365702
Si Si7 0.312903 0.759197 0.547318
O O1 0.427400 0.863350 0.110779
O O2 0.664986 0.778252 0.261972
O O3 0.500000 0.000000 0.500000
O O4 0.567562 0.149249 0.395448
O O5 0.794600 0.193457 0.598520
O O6 0.872190 0.862137 0.555503
O O7 0.966669 0.178561 0.885995
O O8 0.000000 0.000000 0.500000
O O9 0.856466 0.510112 0.181911
O O10 0.097492 0.430661 0.273894
O O11 0.000000 0.500000 0.000000
O O12 0.711758 0.829163 0.856475
O O13 0.715000 0.145067 0.229268
O O14 0.500000 0.000000 0.000000
O O15 0.261275 0.372296 0.536512
O O16 0.329213 0.527252 0.421396
#
# Coordination Sequence:
#
# PCOD8016545 Si02
#       7
#     2   2   2   2   2   2   2
#     4  10  21  45  66  92 130 170 212 266 319 374
#     4  11  21  40  66  93 127 172 210 258 322 378
#     4  12  24  40  69  97 128 170 216 259 323 385
#     4  10  23  40  67  92 127 171 214 258 318 376
#     4  12  24  43  64  99 133 162 215 270 315 380
#     4  11  25  42  66  94 134 165 211 273 316 380
#     4  10  23  39  67  92 128 168 215 254 325 376
#
# _framework density 21.837499999999999
#
# number of rings (size 3 to 8) (size 9 to 14) (size 15 to 20)
#    0.000    1.143    4.286    1.286    4.000    4.000 
#    0.000    2.143    0.000    0.000    0.000    0.000 
#    0.000    0.000    0.000    0.000    0.000    0.000 
#
# Total GULP energy -173512.407911 kJ/mol
# GULP energy per Si atom -12393.743422 kJ/mol
# Density = 2.178780 g / cm^3
# Si number density = 21.837500 Si / 1000 Ang^3
#
#
#
# Elastic Constant Matrix: (Units=GPa)
#
#
# Indices 1 2 3 4 5 6 
#
# 1 58.9595 21.0090 14.6780 6.8737 -15.8753 -1.3833
# 2 21.0090 84.0807 28.3186 -5.1309 1.6421 5.4995
# 3 14.6780 28.3186 112.8504 1.2058 -7.9836 1.1695
# 4 6.8737 -5.1309 1.2058 38.7446 -4.9290 -4.9281
# 5 -15.8753 1.6421 -7.9836 -4.9290 36.3200 1.9081
# 6 -1.3833 5.4995 1.1695 -4.9281 1.9081 34.5769
#
#
#
# Elastic Compliance Matrix: (Units=1/GPa)
#
#
# Indices 1 2 3 4 5 6 
#
# 1 0.022082 -0.005702 -0.000760 -0.003368 0.009242 0.000826
# 2 -0.005702 0.014736 -0.003205 0.002379 -0.003438 -0.001935
# 3 -0.000760 -0.003205 0.009906 -0.000352 0.001943 -0.000013
# 4 -0.003368 0.002379 -0.000352 0.027393 0.001887 0.003299
# 5 0.009242 -0.003438 0.001943 0.001887 0.032447 -0.000671
# 6 0.000826 -0.001935 -0.000013 0.003299 -0.000671 0.029769
#
#
# Mechanical properties :
#
#
# Convention : Reuss Voigt Hill
#
# Bulk Modulus (GPa) = 36.50847 42.65574 39.58211
# Shear Modulus (GPa) = 30.34025 34.72064 32.53045
#
# Velocity S-wave (km/s) = 3.73146 3.99175 3.86380
# Velocity P-wave (km/s) = 5.94303 6.38914 6.17012
#
# Compressibility (1/GPa) = 0.02739090
#
# Stress axis : x y z
#
# Youngs Moduli (GPa) = 45.28511 67.85953 100.95139
#
# Poissons Ratio (x) = 0.38691 0.07673
# Poissons Ratio (y) = 0.25820 0.32354
# Poissons Ratio (z) = 0.03442 0.21749
#
# Static dielectric constant tensor:
#      x y z
#    x 3.454290 0.515890 -0.415530 
#    y 0.515890 3.429840 0.483850 
#    z -0.415530 0.483850 3.677980 
# 
# 
# High freq. dielectric constant tensor:
#      x y z
#    x 1.850120 -0.008600 -0.003080 
#    y -0.008600 1.856830 -0.015230 
#    z -0.003080 -0.015230 1.866730 
# 
# From -- ./inp_files/180799.got.cif
#   From: 2010.06.25/outbox.cif.g09.slc.cpg/sg2_91_cif.got.tgz:180799.got - 2010.06.27 13:26:56.
