data_PCOD8016633
_publ_section_title
;
Structure prediction by ZEFSAII (Michael W. Deem and Ramdas Pophale) SiO2 
 PCOD8016633
Probable space group: P -1
;
_chemical_formula_sum "Si O2"
_cell_formula_units_Z 12
_cell_length_a 15.040584
_cell_length_b 13.042463
_cell_length_c 8.567522
_cell_angle_alpha 130.580198
_cell_angle_beta 64.715674
_cell_angle_gamma 152.686044
_cell_volume 527.990433
_symmetry_space_group_name_H-M "P -1"
_symmetry_group_IT_number 2
_symmetry_cell_setting 'triclinic'
loop_
_space_group_symop_operation_xyz
x,y,z
-x,-y,-z
loop_
_atom_site_type_symbol
_atom_site_label
_atom_site_fract_x
_atom_site_fract_y
_atom_site_fract_z
Si Si1 0.797221 0.753373 0.016838
Si Si2 0.536831 0.148020 0.981072
Si Si3 0.700382 0.159469 0.449697
Si Si4 0.910835 0.618429 0.941869
Si Si5 0.343968 0.162325 0.642198
Si Si6 0.622915 0.790424 0.689349
O O1 0.786954 0.603878 0.974392
O O2 0.810237 0.899095 0.264583
O O3 0.588482 0.509038 0.823088
O O4 0.000000 0.000000 0.000000
O O5 0.332135 0.890755 0.761644
O O6 0.767093 0.392105 0.972073
O O7 0.539001 0.300585 0.202197
O O8 0.500000 0.000000 0.000000
O O9 0.500000 0.000000 0.500000
O O10 0.717197 0.034769 0.394249
O O11 0.906934 0.502000 0.687755
O O12 0.155893 0.948796 0.122807
O O13 0.314521 0.085922 0.408973
O O14 0.500000 0.500000 0.500000
#
# Coordination Sequence:
#
# PCOD8016633 Si02
#       6
#     2   2   2   2   2   2
#     4  11  24  42  72 100 134 187 234 276 350 413
#     4  11  25  45  73 103 142 182 229 292 355 409
#     4  10  21  45  71  97 139 182 229 288 342 411
#     4  11  25  47  69 103 144 183 233 288 345 421
#     4  11  24  44  69  99 142 178 232 293 336 414
#     4  12  27  44  70 106 143 183 234 288 351 411
#
# _framework density 22.727682000000001
#
# number of rings (size 3 to 8) (size 9 to 14) (size 15 to 20)
#    0.000    1.000    3.333    4.000    4.667    7.333 
#    0.000    0.000    0.000    0.000    0.000    0.000 
#    0.000    0.000    0.000    0.000    0.000    0.000 
#
# Total GULP energy -148823.454421 kJ/mol
# GULP energy per Si atom -12401.954535 kJ/mol
# Density = 2.267595 g / cm^3
# Si number density = 22.727682 Si / 1000 Ang^3
#
#
#
# Elastic Constant Matrix: (Units=GPa)
#
#
# Indices 1 2 3 4 5 6 
#
# 1 94.1694 27.2107 54.2795 1.0197 -16.6852 -24.8147
# 2 27.2107 90.2661 40.9294 2.5846 3.0756 -14.3540
# 3 54.2795 40.9294 164.6668 -1.8625 -7.4447 -9.0625
# 4 1.0197 2.5846 -1.8625 42.7852 2.1961 6.0113
# 5 -16.6852 3.0756 -7.4447 2.1961 43.9561 1.5919
# 6 -24.8147 -14.3540 -9.0625 6.0113 1.5919 43.2145
#
#
#
# Elastic Compliance Matrix: (Units=1/GPa)
#
#
# Indices 1 2 3 4 5 6 
#
# 1 0.016886 -0.001926 -0.004405 -0.001916 0.005598 0.008193
# 2 -0.001926 0.013456 -0.002654 -0.001200 -0.002173 0.003054
# 3 -0.004405 -0.002654 0.008089 0.000880 -0.000094 -0.001834
# 4 -0.001916 -0.001200 0.000880 0.024259 -0.001539 -0.004632
# 5 0.005598 -0.002173 -0.000094 -0.001539 0.025024 0.001765
# 6 0.008193 0.003054 -0.001834 -0.004632 0.001765 0.029054
#
#
# Mechanical properties :
#
#
# Convention : Reuss Voigt Hill
#
# Bulk Modulus (GPa) = 48.86973 65.99350 57.43161
# Shear Modulus (GPa) = 35.32086 41.10335 38.21210
#
# Velocity S-wave (km/s) = 3.94647 4.25728 4.10482
# Velocity P-wave (km/s) = 6.50501 7.29832 6.91306
#
# Compressibility (1/GPa) = 0.02046257
#
# Stress axis : x y z
#
# Youngs Moduli (GPa) = 59.21895 74.31541 123.61926
#
# Poissons Ratio (x) = 0.14312 0.54458
# Poissons Ratio (y) = 0.11405 0.32803
# Poissons Ratio (z) = 0.26088 0.19720
#
# Static dielectric constant tensor:
#      x y z
#    x 4.636860 -0.228150 -0.397760 
#    y -0.228150 4.542510 0.138080 
#    z -0.397760 0.138080 5.097360 
# 
# 
# High freq. dielectric constant tensor:
#      x y z
#    x 1.904310 0.000350 -0.010150 
#    y 0.000350 1.893880 -0.008260 
#    z -0.010150 -0.008260 1.909360 
# 
# From -- ./inp_files/158137.got.cif
#   From: 2010.06.25/outbox.cif.g09.slc.cpg/sg2_80_cif.got.tgz:158137.got - 2010.06.27 13:26:56.
