data_PCOD8016282
_publ_section_title
;
Structure prediction by ZEFSAII (Michael W. Deem and Ramdas Pophale) SiO2 
 PCOD8016282
Probable space group: P -1
;
_chemical_formula_sum "Si O2"
_cell_formula_units_Z 16
_cell_length_a 11.049659
_cell_length_b 15.435297
_cell_length_c 14.009490
_cell_angle_alpha 140.991417
_cell_angle_beta 145.049541
_cell_angle_gamma 64.437615
_cell_volume 708.103571
_symmetry_space_group_name_H-M "P -1"
_symmetry_group_IT_number 2
_symmetry_cell_setting 'triclinic'
loop_
_space_group_symop_operation_xyz
x,y,z
-x,-y,-z
loop_
_atom_site_type_symbol
_atom_site_label
_atom_site_fract_x
_atom_site_fract_y
_atom_site_fract_z
Si Si1 0.951015 0.445066 0.268005
Si Si2 0.670476 0.180009 0.411629
Si Si3 0.612616 0.406487 0.185797
Si Si4 0.594982 0.827422 0.585605
Si Si5 0.191267 0.477493 0.951753
Si Si6 0.363209 0.300823 0.220858
Si Si7 0.973237 0.153681 0.005414
Si Si8 0.724729 0.896462 0.188892
O O1 0.808545 0.473207 0.282998
O O2 0.939320 0.538574 0.248481
O O3 0.836858 0.251385 0.009711
O O4 0.241987 0.520371 0.555348
O O5 0.496316 0.105855 0.330994
O O6 0.560474 0.255665 0.337231
O O7 0.968064 0.336220 0.756199
O O8 0.659372 0.026483 0.220889
O O9 0.417849 0.452603 0.069765
O O10 0.462044 0.207604 0.932223
O O11 0.794857 0.785737 0.716942
O O12 0.325884 0.664646 0.237597
O O13 0.740690 0.960455 0.707988
O O14 0.500000 0.500000 0.500000
O O15 0.095297 0.187659 0.008147
O O16 0.291394 0.236445 0.010666
O O17 0.000000 0.000000 0.500000
#
# Coordination Sequence:
#
# PCOD8016282 Si02
#       8
#     2   2   2   2   2   2   2   2
#     4  11  24  42  69  95 132 183 228 287 355 419
#     4  11  24  43  68 102 136 183 233 288 353 419
#     4  11  24  45  65  97 140 177 231 290 353 417
#     4  10  23  40  69  98 138 182 230 292 352 411
#     4  12  23  42  68 102 136 180 238 290 348 421
#     4  11  25  44  74 103 141 185 237 288 351 427
#     4  10  21  44  65  97 136 180 230 286 350 418
#     4  12  25  43  68 100 142 182 229 293 354 409
#
# _framework density 22.595564
#
# number of rings (size 3 to 8) (size 9 to 14) (size 15 to 20)
#    0.000    1.000    2.500    4.125    1.750    3.500 
#    2.250    0.000    0.000    0.000    0.000    0.000 
#    0.000    0.000    0.000    0.000    0.000    0.000 
#
# Total GULP energy -198270.605826 kJ/mol
# GULP energy per Si atom -12391.912864 kJ/mol
# Density = 2.254414 g / cm^3
# Si number density = 22.595564 Si / 1000 Ang^3
#
#
#
# Elastic Constant Matrix: (Units=GPa)
#
#
# Indices 1 2 3 4 5 6 
#
# 1 89.9085 43.4016 49.3273 0.6258 4.1872 3.8680
# 2 43.4016 137.5068 33.0029 3.2808 -4.5967 -13.4076
# 3 49.3273 33.0029 92.9510 18.9842 3.0148 1.9243
# 4 0.6258 3.2808 18.9842 36.8055 1.5553 6.8276
# 5 4.1872 -4.5967 3.0148 1.5553 35.2650 8.5084
# 6 3.8680 -13.4076 1.9243 6.8276 8.5084 36.3325
#
#
#
# Elastic Compliance Matrix: (Units=1/GPa)
#
#
# Indices 1 2 3 4 5 6 
#
# 1 0.018412 -0.004111 -0.009340 0.005619 -0.001269 -0.003741
# 2 -0.004111 0.009243 -0.001007 -0.000992 0.000886 0.003881
# 3 -0.009340 -0.001007 0.017952 -0.009274 -0.000519 0.001536
# 4 0.005619 -0.000992 -0.009274 0.033191 0.000161 -0.006748
# 5 -0.001269 0.000886 -0.000519 0.000161 0.030259 -0.006627
# 6 -0.003741 0.003881 0.001536 -0.006748 -0.006627 0.032093
#
#
# Mechanical properties :
#
#
# Convention : Reuss Voigt Hill
#
# Bulk Modulus (GPa) = 59.91242 63.53669 61.72455
# Shear Modulus (GPa) = 28.46892 34.65622 31.56257
#
# Velocity S-wave (km/s) = 3.55341 3.92058 3.74150
# Velocity P-wave (km/s) = 6.58850 6.97673 6.78539
#
# Compressibility (1/GPa) = 0.01669103
#
# Stress axis : x y z
#
# Youngs Moduli (GPa) = 54.31120 108.18687 55.70512
#
# Poissons Ratio (x) = 0.44476 0.52031
# Poissons Ratio (y) = 0.22328 0.05608
# Poissons Ratio (z) = 0.50729 0.10891
#
# Static dielectric constant tensor:
#      x y z
#    x 4.054080 -0.148360 -0.011290 
#    y -0.148360 4.025440 0.167400 
#    z -0.011290 0.167400 4.320120 
# 
# 
# High freq. dielectric constant tensor:
#      x y z
#    x 1.885640 -0.002390 0.021320 
#    y -0.002390 1.901440 0.002920 
#    z 0.021320 0.002920 1.889030 
# 
# From -- ./inp_files/522551.got.cif
#   From: 2010.06.25/outbox.cif.g09.slc.cpg/sg2_262_cif.got.tgz:522551.got - 2010.06.27 13:26:56.
