data_PCOD8016941
_publ_section_title
;
Structure prediction by ZEFSAII (Michael W. Deem and Ramdas Pophale) SiO2 
 PCOD8016941
Probable space group: P -1
;
_chemical_formula_sum "Si O2"
_cell_formula_units_Z 14
_cell_length_a 14.334174
_cell_length_b 8.935459
_cell_length_c 9.780728
_cell_angle_alpha 134.123821
_cell_angle_beta 117.031506
_cell_angle_gamma 95.958834
_cell_volume 603.741961
_symmetry_space_group_name_H-M "P -1"
_symmetry_group_IT_number 2
_symmetry_cell_setting 'triclinic'
loop_
_space_group_symop_operation_xyz
x,y,z
-x,-y,-z
loop_
_atom_site_type_symbol
_atom_site_label
_atom_site_fract_x
_atom_site_fract_y
_atom_site_fract_z
Si Si1 0.263616 0.002958 0.379260
Si Si2 0.568447 0.887007 0.194227
Si Si3 0.037983 0.008370 0.185108
Si Si4 0.937162 0.089647 0.415993
Si Si5 0.629773 0.696990 0.880316
Si Si6 0.868599 0.385846 0.720658
Si Si7 0.410698 0.084506 0.262242
O O1 0.397768 0.190826 0.689354
O O2 0.138832 0.713299 0.190518
O O3 0.198597 0.145080 0.393155
O O4 0.304011 0.943529 0.227766
O O5 0.709922 0.191153 0.434537
O O6 0.443374 0.886229 0.126695
O O7 0.529159 0.674186 0.912034
O O8 0.013025 0.175724 0.372831
O O9 0.930284 0.694392 0.964712
O O10 0.000000 0.000000 0.000000
O O11 0.955513 0.344880 0.652456
O O12 0.773976 0.823092 0.125658
O O13 0.000000 0.000000 0.500000
O O14 0.554430 0.388620 0.586744
O O15 0.658924 0.892948 0.898843
#
# Coordination Sequence:
#
# PCOD8016941 Si02
#       7
#     2   2   2   2   2   2   2
#     4  10  22  39  59  91 121 158 212 245 293 379
#     4   9  20  39  60  82 119 160 200 247 301 357
#     4  12  23  39  63  90 122 160 204 258 309 353
#     4  11  21  41  67  88 121 166 204 246 310 360
#     4  10  22  37  60  92 122 157 202 250 300 364
#     4   9  22  40  62  86 122 156 211 249 294 369
#     4  11  21  38  60  88 126 159 196 251 306 352
#
# _framework density 23.188714999999998
#
# number of rings (size 3 to 8) (size 9 to 14) (size 15 to 20)
#    0.857    0.857    1.429    3.000    0.000    2.286 
#    0.000    1.429    0.000    0.000    0.000    0.000 
#    0.000    0.000    0.000    0.000    0.000    0.000 
#
# Total GULP energy -173557.948350 kJ/mol
# GULP energy per Si atom -12396.996311 kJ/mol
# Density = 2.313594 g / cm^3
# Si number density = 23.188715 Si / 1000 Ang^3
#
#
#
# Elastic Constant Matrix: (Units=GPa)
#
#
# Indices 1 2 3 4 5 6 
#
# 1 165.1920 39.0258 22.9569 -20.6173 -31.8178 1.4005
# 2 39.0258 86.2836 21.0901 -37.0365 -7.3213 9.4982
# 3 22.9569 21.0901 64.4759 -23.7411 -11.3616 -3.3196
# 4 -20.6173 -37.0365 -23.7411 29.8006 5.5193 -8.7616
# 5 -31.8178 -7.3213 -11.3616 5.5193 41.2219 -13.3270
# 6 1.4005 9.4982 -3.3196 -8.7616 -13.3270 29.8852
#
#
#
# Elastic Compliance Matrix: (Units=1/GPa)
#
#
# Indices 1 2 3 4 5 6 
#
# 1 0.008286 -0.002419 0.000484 0.003122 0.007148 0.004537
# 2 -0.002419 0.027102 0.006307 0.037971 0.000793 0.003686
# 3 0.000484 0.006307 0.027921 0.033061 0.009632 0.015062
# 4 0.003122 0.037971 0.033061 0.116043 0.012813 0.031193
# 5 0.007148 0.000793 0.009632 0.012813 0.037656 0.021032
# 6 0.004537 0.003686 0.015062 0.031193 0.021032 0.052274
#
#
# Mechanical properties :
#
#
# Convention : Reuss Voigt Hill
#
# Bulk Modulus (GPa) = 13.87872 53.56634 33.72253
# Shear Modulus (GPa) = 17.57121 35.70678 26.63900
#
# Velocity S-wave (km/s) = 2.75571 3.92833 3.39306
# Velocity P-wave (km/s) = 4.01539 6.61257 5.47035
#
# Compressibility (1/GPa) = 0.07205273
#
# Stress axis : x y z
#
# Youngs Moduli (GPa) = 120.68976 36.89708 35.81552
#
# Poissons Ratio (x) = 0.08925 -0.01732
# Poissons Ratio (y) = 0.29192 -0.22589
# Poissons Ratio (z) = -0.05837 -0.23271
#
# Static dielectric constant tensor:
#      x y z
#    x 4.356610 -0.048060 -0.199270 
#    y -0.048060 3.968990 -0.426990 
#    z -0.199270 -0.426990 4.136960 
# 
# 
# High freq. dielectric constant tensor:
#      x y z
#    x 1.931540 -0.003550 -0.007020 
#    y -0.003550 1.888130 -0.025210 
#    z -0.007020 -0.025210 1.913930 
# 
# From -- ./inp_files/296977.got.cif
#   From: 2010.06.25/outbox.cif.g09.slc.cpg/sg2_149_cif.got.tgz:296977.got - 2010.06.27 13:26:56.
