data_PCOD8016768
_publ_section_title
;
Structure prediction by ZEFSAII (Michael W. Deem and Ramdas Pophale) SiO2 
 PCOD8016768
Probable space group: P -1
;
_chemical_formula_sum "Si O2"
_cell_formula_units_Z 16
_cell_length_a 9.091072
_cell_length_b 18.712666
_cell_length_c 10.680342
_cell_angle_alpha 58.910982
_cell_angle_beta 87.054500
_cell_angle_gamma 40.002404
_cell_volume 780.622348
_symmetry_space_group_name_H-M "P -1"
_symmetry_group_IT_number 2
_symmetry_cell_setting 'triclinic'
loop_
_space_group_symop_operation_xyz
x,y,z
-x,-y,-z
loop_
_atom_site_type_symbol
_atom_site_label
_atom_site_fract_x
_atom_site_fract_y
_atom_site_fract_z
Si Si1 0.258371 0.324351 0.310761
Si Si2 0.823096 0.459470 0.384709
Si Si3 0.864065 0.662213 0.960060
Si Si4 0.776983 0.038728 0.695853
Si Si5 0.671290 0.217321 0.755182
Si Si6 0.071588 0.179553 0.753562
Si Si7 0.608669 0.233523 0.014661
Si Si8 0.730793 0.877475 0.935928
O O1 0.173156 0.304927 0.216874
O O2 0.607764 0.150270 0.476720
O O3 0.113143 0.365617 0.410697
O O4 0.163052 0.464963 0.152238
O O5 0.663403 0.581710 0.400262
O O6 0.906089 0.324758 0.537053
O O7 0.587169 0.586289 0.164504
O O8 0.586009 0.745547 0.943922
O O9 0.891407 0.736690 0.960577
O O10 0.661260 0.151391 0.712553
O O11 0.697930 0.982599 0.778685
O O12 0.125037 0.878037 0.801597
O O13 0.898426 0.178899 0.746051
O O14 0.754988 0.136038 0.961362
O O15 0.407727 0.999447 0.864680
O O16 0.070845 0.214266 0.864669
#
# Coordination Sequence:
#
# PCOD8016768 Si02
#       8
#     2   2   2   2   2   2   2   2
#     4  10  23  42  64  84 117 154 212 240 290 344
#     4   9  20  37  61  86 120 158 194 237 295 351
#     4  10  23  44  63  83 114 164 199 250 286 345
#     4  12  22  39  60  94 121 155 192 248 294 355
#     4  10  22  34  60  84 129 155 182 235 303 359
#     4  11  21  37  57  97 123 155 188 242 297 364
#     4   9  21  37  61  84 122 155 191 235 302 348
#     4  11  24  34  64  91 124 147 205 241 295 344
#
# _framework density 20.496468
#
# number of rings (size 3 to 8) (size 9 to 14) (size 15 to 20)
#    0.750    1.000    2.500    1.500    5.250    1.500 
#    0.000    0.000    0.000    4.500    0.000    0.000 
#    0.000    0.000    0.000    0.000    0.000    0.000 
#
# Total GULP energy -198290.931690 kJ/mol
# GULP energy per Si atom -12393.183231 kJ/mol
# Density = 2.044982 g / cm^3
# Si number density = 20.496468 Si / 1000 Ang^3
#
#
#
# Elastic Constant Matrix: (Units=GPa)
#
#
# Indices 1 2 3 4 5 6 
#
# 1 82.9594 28.5796 39.7967 1.0450 -6.0833 11.3265
# 2 28.5796 57.8423 24.7435 0.3483 -2.1334 27.3461
# 3 39.7967 24.7435 140.9189 -8.0469 6.0121 10.2867
# 4 1.0450 0.3483 -8.0469 17.9394 -1.3947 0.2696
# 5 -6.0833 -2.1334 6.0121 -1.3947 22.2463 -2.5377
# 6 11.3265 27.3461 10.2867 0.2696 -2.5377 32.6152
#
#
#
# Elastic Compliance Matrix: (Units=1/GPa)
#
#
# Indices 1 2 3 4 5 6 
#
# 1 0.016532 -0.007237 -0.003878 -0.002206 0.004959 0.001954
# 2 -0.007237 0.033531 -0.002016 -0.000845 -0.001129 -0.025046
# 3 -0.003878 -0.002016 0.008926 0.004004 -0.003424 -0.000078
# 4 -0.002206 -0.000845 0.004004 0.057829 0.001845 -0.000123
# 5 0.004959 -0.001129 -0.003424 0.001845 0.047696 0.004000
# 6 0.001954 -0.025046 -0.000078 -0.000123 0.004000 0.051318
#
#
# Mechanical properties :
#
#
# Convention : Reuss Voigt Hill
#
# Bulk Modulus (GPa) = 30.55586 51.99557 41.27572
# Shear Modulus (GPa) = 19.76254 27.13358 23.44806
#
# Velocity S-wave (km/s) = 3.10851 3.64238 3.38598
# Velocity P-wave (km/s) = 5.27485 6.56600 5.95552
#
# Compressibility (1/GPa) = 0.03272694
#
# Stress axis : x y z
#
# Youngs Moduli (GPa) = 60.48705 29.82345 112.03401
#
# Poissons Ratio (x) = 0.21584 0.43451
# Poissons Ratio (y) = 0.43775 0.22581
# Poissons Ratio (z) = 0.23459 0.06011
#
# Static dielectric constant tensor:
#      x y z
#    x 3.412810 -0.156680 0.039670 
#    y -0.156680 3.680430 -0.178680 
#    z 0.039670 -0.178680 3.869100 
# 
# 
# High freq. dielectric constant tensor:
#      x y z
#    x 1.781710 -0.011760 -0.002210 
#    y -0.011760 1.784920 -0.018100 
#    z -0.002210 -0.018100 1.810510 
# 
# From -- ./inp_files/402030.got.cif
#   From: 2010.06.25/outbox.cif.g09.slc.cpg/sg2_202_cif.got.tgz:402030.got - 2010.06.27 13:26:56.
