data_PCOD8016002
_publ_section_title
;
Structure prediction by ZEFSAII (Michael W. Deem and Ramdas Pophale) SiO2 
 PCOD8016002
Probable space group: P -1
;
_chemical_formula_sum "Si O2"
_cell_formula_units_Z 12
_cell_length_a 8.441951
_cell_length_b 7.040513
_cell_length_c 15.929726
_cell_angle_alpha 56.287056
_cell_angle_beta 134.381764
_cell_angle_gamma 124.534721
_cell_volume 536.843730
_symmetry_space_group_name_H-M "P -1"
_symmetry_group_IT_number 2
_symmetry_cell_setting 'triclinic'
loop_
_space_group_symop_operation_xyz
x,y,z
-x,-y,-z
loop_
_atom_site_type_symbol
_atom_site_label
_atom_site_fract_x
_atom_site_fract_y
_atom_site_fract_z
Si Si1 0.096773 0.883582 0.987487
Si Si2 0.635618 0.975269 0.329973
Si Si3 0.283486 0.545906 0.365148
Si Si4 0.057047 0.376164 0.158229
Si Si5 0.441872 0.744497 0.927125
Si Si6 0.027235 0.330009 0.478397
O O1 0.157289 0.648867 0.098575
O O2 0.333681 0.066462 0.995052
O O3 0.912129 0.804630 0.860050
O O4 0.000000 0.000000 0.000000
O O5 0.611309 0.158311 0.205874
O O6 0.783169 0.122964 0.426093
O O7 0.374112 0.823012 0.300302
O O8 0.771695 0.789932 0.393440
O O9 0.500000 0.500000 0.500000
O O10 0.081830 0.490856 0.373769
O O11 0.190304 0.361248 0.297989
O O12 0.779892 0.303782 0.084159
O O13 0.500000 0.500000 0.000000
O O14 0.000000 0.500000 0.500000
#
# Coordination Sequence:
#
# PCOD8016002 Si02
#       6
#     2   2   2   2   2   2
#     4  11  24  45  65  97 133 178 232 282 336 404
#     4  10  22  43  65  93 139 170 224 285 331 405
#     4  10  21  43  68  96 133 173 222 282 345 398
#     4  11  23  44  68  94 135 181 225 287 342 400
#     4  12  23  43  67  98 138 185 225 274 338 407
#     4  10  22  44  69  98 128 176 228 282 348 398
#
# _framework density 22.352872999999999
#
# number of rings (size 3 to 8) (size 9 to 14) (size 15 to 20)
#    0.000    1.333    5.000    0.500    0.000    0.667 
#   15.000    0.000    0.000    0.000    0.000    0.000 
#    0.000    0.000    0.000    0.000    0.000    0.000 
#
# Total GULP energy -148714.045343 kJ/mol
# GULP energy per Si atom -12392.837112 kJ/mol
# Density = 2.230200 g / cm^3
# Si number density = 22.352873 Si / 1000 Ang^3
#
#
#
# Elastic Constant Matrix: (Units=GPa)
#
#
# Indices 1 2 3 4 5 6 
#
# 1 84.1946 71.6528 29.8166 14.2099 -18.0477 -1.2054
# 2 71.6528 169.5245 61.2294 21.2903 -9.4794 -8.2313
# 3 29.8166 61.2294 114.4202 12.4436 -18.2100 -16.1790
# 4 14.2099 21.2903 12.4436 52.1972 -0.4539 -10.1166
# 5 -18.0477 -9.4794 -18.2100 -0.4539 29.5542 5.4155
# 6 -1.2054 -8.2313 -16.1790 -10.1166 5.4155 51.7962
#
#
#
# Elastic Compliance Matrix: (Units=1/GPa)
#
#
# Indices 1 2 3 4 5 6 
#
# 1 0.021864 -0.008600 0.000706 -0.002981 0.011424 -0.002414
# 2 -0.008600 0.010937 -0.004123 -0.001078 -0.004392 0.000499
# 3 0.000706 -0.004123 0.012173 -0.000905 0.006166 0.002342
# 4 -0.002981 -0.001078 -0.000905 0.021369 -0.003124 0.003977
# 5 0.011424 -0.004392 0.006166 -0.003124 0.043833 -0.003699
# 6 -0.002414 0.000499 0.002342 0.003977 -0.003699 0.021225
#
#
# Mechanical properties :
#
#
# Convention : Reuss Voigt Hill
#
# Bulk Modulus (GPa) = 47.75686 77.05967 62.40827
# Shear Modulus (GPa) = 30.78552 40.40556 35.59554
#
# Velocity S-wave (km/s) = 3.71516 4.25623 3.99486
# Velocity P-wave (km/s) = 6.30988 7.66179 7.01846
#
# Compressibility (1/GPa) = 0.02093940
#
# Stress axis : x y z
#
# Youngs Moduli (GPa) = 45.73788 91.43313 82.14949
#
# Poissons Ratio (x) = 0.78633 -0.05797
# Poissons Ratio (y) = 0.39335 0.33868
# Poissons Ratio (z) = -0.03228 0.37696
#
# Static dielectric constant tensor:
#      x y z
#    x 4.428580 0.671500 -0.257030 
#    y 0.671500 4.600460 0.094160 
#    z -0.257030 0.094160 3.931280 
# 
# 
# High freq. dielectric constant tensor:
#      x y z
#    x 1.866470 0.029410 -0.015120 
#    y 0.029410 1.895660 0.013710 
#    z -0.015120 0.013710 1.877130 
# 
# From -- ./inp_files/22529.got.cif
#   From: 2010.06.25/outbox.cif.g09.slc.cpg/sg2_12_cif.got.tgz:22529.got - 2010.06.27 13:26:56.
