data_PCOD8016875
_publ_section_title
;
Structure prediction by ZEFSAII (Michael W. Deem and Ramdas Pophale) SiO2 
 PCOD8016875
Probable space group: P -1
;
_chemical_formula_sum "Si O2"
_cell_formula_units_Z 16
_cell_length_a 11.611461
_cell_length_b 8.560497
_cell_length_c 14.416602
_cell_angle_alpha 105.148124
_cell_angle_beta 138.898137
_cell_angle_gamma 53.105232
_cell_volume 701.886323
_symmetry_space_group_name_H-M "P -1"
_symmetry_group_IT_number 2
_symmetry_cell_setting 'triclinic'
loop_
_space_group_symop_operation_xyz
x,y,z
-x,-y,-z
loop_
_atom_site_type_symbol
_atom_site_label
_atom_site_fract_x
_atom_site_fract_y
_atom_site_fract_z
Si Si1 0.938701 0.971396 0.856028
Si Si2 0.216097 0.987451 0.636973
Si Si3 0.607966 0.431273 0.287763
Si Si4 0.515488 0.627985 0.451426
Si Si5 0.106135 0.351171 0.280394
Si Si6 0.959082 0.692665 0.555630
Si Si7 0.413927 0.689617 0.044283
Si Si8 0.304551 0.203041 0.857592
O O1 0.892180 0.804934 0.810376
O O2 0.728299 0.179485 0.708282
O O3 0.148484 0.885435 0.899203
O O4 0.000000 0.000000 0.000000
O O5 0.248243 0.079385 0.578689
O O6 0.169324 0.140759 0.714612
O O7 0.429432 0.741652 0.747193
O O8 0.000000 0.000000 0.500000
O O9 0.654615 0.483391 0.423948
O O10 0.405156 0.632309 0.138051
O O11 0.816727 0.333252 0.328564
O O12 0.500000 0.500000 0.500000
O O13 0.658060 0.690043 0.594031
O O14 0.093511 0.294670 0.368095
O O15 0.881257 0.592769 0.160965
O O16 0.000000 0.500000 0.500000
O O17 0.575798 0.748819 0.137259
O O18 0.500000 0.500000 0.000000
O O19 0.500000 0.000000 0.000000
#
# Coordination Sequence:
#
# PCOD8016875 Si02
#       8
#     2   2   2   2   2   2   2   2
#     4  12  28  51  77 104 147 203 255 310 374 458
#     4  10  22  36  64 107 147 181 227 296 374 436
#     4  11  21  42  69 105 148 186 246 304 373 444
#     4  12  29  50  72 104 153 207 256 305 369 461
#     4  12  25  48  76 108 146 194 259 303 383 455
#     4  11  18  39  72 107 139 182 239 316 371 431
#     4  12  23  47  77 108 148 191 250 319 389 444
#     4  12  25  41  73 112 149 187 240 317 384 439
#
# _framework density 22.795715000000001
#
# number of rings (size 3 to 8) (size 9 to 14) (size 15 to 20)
#    0.000    0.500    6.250    1.875    3.500    1.000 
#    4.500    0.625    0.000    0.000    0.000    0.000 
#    0.000    0.000    0.000    0.000    0.000    0.000 
#
# Total GULP energy -198246.904887 kJ/mol
# GULP energy per Si atom -12390.431555 kJ/mol
# Density = 2.274383 g / cm^3
# Si number density = 22.795715 Si / 1000 Ang^3
#
#
#
# Elastic Constant Matrix: (Units=GPa)
#
#
# Indices 1 2 3 4 5 6 
#
# 1 95.3277 46.1649 53.6021 0.5323 -1.8545 10.1062
# 2 46.1649 146.7485 74.9023 2.6200 -4.4484 26.3863
# 3 53.6021 74.9023 133.2650 -1.4986 2.5478 12.4440
# 4 0.5323 2.6200 -1.4986 57.4759 6.5988 -2.5152
# 5 -1.8545 -4.4484 2.5478 6.5988 43.5212 -6.2001
# 6 10.1062 26.3863 12.4440 -2.5152 -6.2001 36.7823
#
#
#
# Elastic Compliance Matrix: (Units=1/GPa)
#
#
# Indices 1 2 3 4 5 6 
#
# 1 0.014067 -0.001955 -0.004493 -0.000263 0.000580 -0.000863
# 2 -0.001955 0.010967 -0.004875 -0.000931 0.000662 -0.005633
# 3 -0.004493 -0.004875 0.012044 0.000764 -0.001444 0.000466
# 4 -0.000263 -0.000931 0.000764 0.017825 -0.002676 0.001250
# 5 0.000580 0.000662 -0.001444 -0.002676 0.024092 0.003733
# 6 -0.000863 -0.005633 0.000466 0.001250 0.003733 0.032022
#
#
# Mechanical properties :
#
#
# Convention : Reuss Voigt Hill
#
# Bulk Modulus (GPa) = 69.28629 80.51999 74.90314
# Shear Modulus (GPa) = 36.10789 40.93401 38.52095
#
# Velocity S-wave (km/s) = 3.98424 4.24215 4.11522
# Velocity P-wave (km/s) = 7.18512 7.70672 7.45049
#
# Compressibility (1/GPa) = 0.01443287
#
# Stress axis : x y z
#
# Youngs Moduli (GPa) = 71.08654 91.18135 83.03032
#
# Poissons Ratio (x) = 0.17823 0.37306
# Poissons Ratio (y) = 0.13895 0.40478
# Poissons Ratio (z) = 0.31939 0.44451
#
# Static dielectric constant tensor:
#      x y z
#    x 4.199630 0.083960 -0.275540 
#    y 0.083960 4.278210 -0.379370 
#    z -0.275540 -0.379370 5.054170 
# 
# 
# High freq. dielectric constant tensor:
#      x y z
#    x 1.874090 0.019420 -0.004070 
#    y 0.019420 1.915070 -0.005030 
#    z -0.004070 -0.005030 1.910990 
# 
# From -- ./inp_files/516003.got.cif
#   From: 2010.06.25/outbox.cif.g09.slc.cpg/sg2_259_cif.got.tgz:516003.got - 2010.06.27 13:26:56.
