data_PCOD8016849
_publ_section_title
;
Structure prediction by ZEFSAII (Michael W. Deem and Ramdas Pophale) SiO2 
 PCOD8016849
Probable space group: P -1
;
_chemical_formula_sum "Si O2"
_cell_formula_units_Z 16
_cell_length_a 11.725871
_cell_length_b 6.490933
_cell_length_c 12.422145
_cell_angle_alpha 124.041658
_cell_angle_beta 101.296824
_cell_angle_gamma 76.170188
_cell_volume 758.467754
_symmetry_space_group_name_H-M "P -1"
_symmetry_group_IT_number 2
_symmetry_cell_setting 'triclinic'
loop_
_space_group_symop_operation_xyz
x,y,z
-x,-y,-z
loop_
_atom_site_type_symbol
_atom_site_label
_atom_site_fract_x
_atom_site_fract_y
_atom_site_fract_z
Si Si1 0.749751 0.303638 0.828016
Si Si2 0.188497 0.306681 0.734327
Si Si3 0.442115 0.766454 0.380762
Si Si4 0.269015 0.759713 0.527011
Si Si5 0.913270 0.411778 0.702691
Si Si6 0.658458 0.362591 0.260068
Si Si7 0.728726 0.825424 0.056854
Si Si8 0.874082 0.954466 0.926656
O O1 0.655156 0.154687 0.708435
O O2 0.862636 0.309215 0.773481
O O3 0.797588 0.178740 0.911765
O O4 0.679787 0.587575 0.924591
O O5 0.244126 0.546676 0.773650
O O6 0.199148 0.282484 0.856915
O O7 0.051503 0.326459 0.688845
O O8 0.259312 0.061303 0.617596
O O9 0.376421 0.655924 0.436261
O O10 0.535992 0.547197 0.283024
O O11 0.500000 0.000000 0.500000
O O12 0.146862 0.688927 0.441840
O O13 0.292986 0.629092 0.607894
O O14 0.883892 0.712312 0.781753
O O15 0.635511 0.077620 0.142685
O O16 0.815945 0.923267 0.019902
O O17 0.000000 0.000000 0.000000
#
# Coordination Sequence:
#
# PCOD8016849 Si02
#       8
#     2   2   2   2   2   2   2   2
#     4  10  23  41  63  91 126 160 205 253 300 363
#     4  11  21  39  61  91 129 162 198 249 308 364
#     4  11  23  44  66  87 119 165 206 257 306 353
#     4  10  23  40  61  91 122 159 209 252 304 363
#     4  10  22  36  61  93 125 160 200 253 304 364
#     4  11  23  39  66  87 121 167 202 252 302 366
#     4  10  22  40  59  92 123 158 206 247 304 363
#     4  11  21  38  64  91 125 163 202 250 302 367
#
# _framework density 21.095161000000001
#
# number of rings (size 3 to 8) (size 9 to 14) (size 15 to 20)
#    0.000    1.500    1.250    3.750    1.750    4.000 
#    2.250    2.500    0.000    0.000    0.000    0.000 
#    0.000    0.000    0.000    0.000    0.000    0.000 
#
# Total GULP energy -198357.267763 kJ/mol
# GULP energy per Si atom -12397.329235 kJ/mol
# Density = 2.104715 g / cm^3
# Si number density = 21.095161 Si / 1000 Ang^3
#
#
#
# Elastic Constant Matrix: (Units=GPa)
#
#
# Indices 1 2 3 4 5 6 
#
# 1 109.4059 44.0655 35.5193 -7.2855 4.3611 -3.5305
# 2 44.0655 108.8332 42.5678 -15.1111 9.1041 4.7877
# 3 35.5193 42.5678 99.4397 -6.3370 9.8126 3.8019
# 4 -7.2855 -15.1111 -6.3370 35.8063 7.2442 -2.7950
# 5 4.3611 9.1041 9.8126 7.2442 27.2905 0.9419
# 6 -3.5305 4.7877 3.8019 -2.7950 0.9419 24.4274
#
#
#
# Elastic Compliance Matrix: (Units=1/GPa)
#
#
# Indices 1 2 3 4 5 6 
#
# 1 0.011626 -0.003737 -0.002639 0.000526 0.000099 0.002880
# 2 -0.003737 0.013144 -0.003551 0.004763 -0.003711 -0.001876
# 3 -0.002639 -0.003551 0.012942 0.000787 -0.003205 -0.001486
# 4 0.000526 0.004763 0.000787 0.032600 -0.010719 0.003163
# 5 0.000099 -0.003711 -0.003205 -0.010719 0.041918 -0.001602
# 6 0.002880 -0.001876 -0.001486 0.003163 -0.001602 0.042377
#
#
# Mechanical properties :
#
#
# Convention : Reuss Voigt Hill
#
# Bulk Modulus (GPa) = 55.99385 62.44267 59.21826
# Shear Modulus (GPa) = 27.71393 30.53991 29.12692
#
# Velocity S-wave (km/s) = 3.62851 3.80902 3.71986
# Velocity P-wave (km/s) = 6.64499 7.00068 6.82515
#
# Compressibility (1/GPa) = 0.01785911
#
# Stress axis : x y z
#
# Youngs Moduli (GPa) = 86.01140 76.07820 77.26560
#
# Poissons Ratio (x) = 0.28430 0.20394
# Poissons Ratio (y) = 0.32142 0.27434
# Poissons Ratio (z) = 0.22703 0.27012
#
# Static dielectric constant tensor:
#      x y z
#    x 3.618570 0.001060 -0.123000 
#    y 0.001060 3.861130 0.193720 
#    z -0.123000 0.193720 4.097100 
# 
# 
# High freq. dielectric constant tensor:
#      x y z
#    x 1.814470 0.002250 -0.006470 
#    y 0.002250 1.826000 0.005710 
#    z -0.006470 0.005710 1.846160 
# 
# From -- ./inp_files/68440.got.cif
#   From: 2010.06.25/outbox.cif.g09.slc.cpg/sg2_35_cif.got.tgz:68440.got - 2010.06.27 13:26:56.
