data_PCOD8016863
_publ_section_title
;
Structure prediction by ZEFSAII (Michael W. Deem and Ramdas Pophale) SiO2 
 PCOD8016863
Probable space group: P -1
;
_chemical_formula_sum "Si O2"
_cell_formula_units_Z 16
_cell_length_a 8.191660
_cell_length_b 12.043077
_cell_length_c 7.466634
_cell_angle_alpha 69.687274
_cell_angle_beta 84.243715
_cell_angle_gamma 111.240140
_cell_volume 621.965913
_symmetry_space_group_name_H-M "P -1"
_symmetry_group_IT_number 2
_symmetry_cell_setting 'triclinic'
loop_
_space_group_symop_operation_xyz
x,y,z
-x,-y,-z
loop_
_atom_site_type_symbol
_atom_site_label
_atom_site_fract_x
_atom_site_fract_y
_atom_site_fract_z
Si Si1 0.075107 0.609410 0.583370
Si Si2 0.014468 0.376936 0.911932
Si Si3 0.976693 0.794050 0.668063
Si Si4 0.658023 0.991946 0.371311
Si Si5 0.426076 0.302422 0.190874
Si Si6 0.592661 0.553159 0.242495
Si Si7 0.369237 0.813172 0.984692
Si Si8 0.477272 0.734252 0.364626
O O1 0.033421 0.526725 0.824515
O O2 0.987197 0.715121 0.531440
O O3 0.286999 0.693625 0.500774
O O4 0.000000 0.500000 0.500000
O O5 0.192957 0.387414 0.777270
O O6 0.001617 0.305187 0.138019
O O7 0.829039 0.293340 0.871656
O O8 0.144371 0.936326 0.595001
O O9 0.784893 0.801058 0.703218
O O10 0.650478 0.055466 0.142578
O O11 0.500000 0.000000 0.500000
O O12 0.624265 0.839830 0.426709
O O13 0.500847 0.393402 0.311601
O O14 0.549108 0.225676 0.180887
O O15 0.449528 0.394198 0.967147
O O16 0.495035 0.397283 0.612988
O O17 0.496571 0.821934 0.134428
#
# Coordination Sequence:
#
# PCOD8016863 Si02
#       8
#     2   2   2   2   2   2   2   2
#     4  12  22  35  62  91 127 152 195 252 305 362
#     4  10  22  36  62  95 117 162 196 245 308 357
#     4  10  22  40  61  87 120 162 205 244 296 360
#     4  11  23  42  63  86 118 165 211 245 289 358
#     4   9  19  36  61  92 119 156 198 252 311 349
#     4   9  20  35  59  91 128 152 196 252 304 365
#     4  10  22  40  65  88 120 161 204 248 300 364
#     4  11  22  41  59  90 125 162 198 247 304 353
#
# _framework density 25.724883999999999
#
# number of rings (size 3 to 8) (size 9 to 14) (size 15 to 20)
#    0.000    1.750    2.500    1.500    8.750    0.500 
#    0.000   13.125    0.000    0.000    0.000    0.000 
#    0.000    0.000    0.000    0.000    0.000    0.000 
#
# Total GULP energy -198266.385638 kJ/mol
# GULP energy per Si atom -12391.649102 kJ/mol
# Density = 2.566633 g / cm^3
# Si number density = 25.724884 Si / 1000 Ang^3
#
#
#
# Elastic Constant Matrix: (Units=GPa)
#
#
# Indices 1 2 3 4 5 6 
#
# 1 93.2225 46.3003 -3.2697 -8.3053 -28.2906 12.0470
# 2 46.3003 181.7564 33.2939 -13.7999 -20.9695 1.1700
# 3 -3.2697 33.2939 46.9153 -9.6768 -6.9257 7.5229
# 4 -8.3053 -13.7999 -9.6768 38.4213 6.4071 7.5087
# 5 -28.2906 -20.9695 -6.9257 6.4071 43.1490 -6.6695
# 6 12.0470 1.1700 7.5229 7.5087 -6.6695 31.7640
#
#
#
# Elastic Compliance Matrix: (Units=1/GPa)
#
#
# Indices 1 2 3 4 5 6 
#
# 1 0.017063 -0.004394 0.007558 0.004005 0.008550 -0.007251
# 2 -0.004394 0.007780 -0.006345 -0.000424 0.000419 0.003071
# 3 0.007558 -0.006345 0.030442 0.008556 0.003776 -0.011073
# 4 0.004005 -0.000424 0.008556 0.031604 -0.002687 -0.011565
# 5 0.008550 0.000419 0.003776 -0.002687 0.030434 0.002873
# 6 -0.007251 0.003071 -0.011073 -0.011565 0.002873 0.040079
#
#
# Mechanical properties :
#
#
# Convention : Reuss Voigt Hill
#
# Bulk Modulus (GPa) = 20.44000 52.72702 36.58351
# Shear Modulus (GPa) = 27.76673 39.03817 33.40245
#
# Velocity S-wave (km/s) = 3.28894 3.89977 3.60731
# Velocity P-wave (km/s) = 4.73136 6.38894 5.62158
#
# Compressibility (1/GPa) = 0.04892368
#
# Stress axis : x y z
#
# Youngs Moduli (GPa) = 58.60666 128.53620 32.84882
#
# Poissons Ratio (x) = 0.56478 -0.24828
# Poissons Ratio (y) = 0.25752 0.20843
# Poissons Ratio (z) = -0.44297 0.81559
#
# Static dielectric constant tensor:
#      x y z
#    x 4.639630 0.016230 0.160080 
#    y 0.016230 4.684390 -0.122370 
#    z 0.160080 -0.122370 4.987190 
# 
# 
# High freq. dielectric constant tensor:
#      x y z
#    x 2.021780 -0.000460 0.009950 
#    y -0.000460 2.019800 -0.004000 
#    z 0.009950 -0.004000 2.060830 
# 
# From -- ./inp_files/200291.got.cif
#   From: 2010.06.25/outbox.cif.g09.slc.cpg/sg2_101_cif.got.tgz:200291.got - 2010.06.27 13:26:56.
