data_PCOD8016615
_publ_section_title
;
Structure prediction by ZEFSAII (Michael W. Deem and Ramdas Pophale) SiO2 
 PCOD8016615
Probable space group: P -1
;
_chemical_formula_sum "Si O2"
_cell_formula_units_Z 16
_cell_length_a 6.948209
_cell_length_b 10.162674
_cell_length_c 11.394792
_cell_angle_alpha 116.366421
_cell_angle_beta 82.073263
_cell_angle_gamma 91.709674
_cell_volume 713.575665
_symmetry_space_group_name_H-M "P -1"
_symmetry_group_IT_number 2
_symmetry_cell_setting 'triclinic'
loop_
_space_group_symop_operation_xyz
x,y,z
-x,-y,-z
loop_
_atom_site_type_symbol
_atom_site_label
_atom_site_fract_x
_atom_site_fract_y
_atom_site_fract_z
Si Si1 0.054053 0.147571 0.488553
Si Si2 0.349656 0.648212 0.675266
Si Si3 0.455236 0.359510 0.115109
Si Si4 0.253014 0.660173 0.283105
Si Si5 0.574728 0.687990 0.438966
Si Si6 0.861054 0.363401 0.969146
Si Si7 0.969154 0.123794 0.219646
Si Si8 0.161535 0.150940 0.980260
O O1 0.911592 0.285960 0.589272
O O2 0.058006 0.117537 0.338441
O O3 0.270168 0.186803 0.522789
O O4 0.000000 0.000000 0.500000
O O5 0.492293 0.706538 0.787591
O O6 0.428108 0.700411 0.564819
O O7 0.325058 0.474320 0.625872
O O8 0.135425 0.718909 0.732711
O O9 0.284987 0.484173 0.198780
O O10 0.652792 0.417747 0.062778
O O11 0.360559 0.239032 0.990637
O O12 0.457661 0.716534 0.338307
O O13 0.186034 0.715844 0.182347
O O14 0.968035 0.242578 0.992772
O O15 0.000000 0.500000 0.000000
O O16 0.817694 0.992430 0.161247
O O17 0.137697 0.104001 0.100016
#
# Coordination Sequence:
#
# PCOD8016615 Si02
#       8
#     2   2   2   2   2   2   2   2
#     4  12  27  47  70 102 141 183 223 284 350 413
#     4  10  21  45  70 104 132 176 231 283 343 402
#     4  11  24  43  70 103 133 181 228 282 344 400
#     4  11  25  41  69 102 134 179 225 277 344 399
#     4  10  24  44  72 101 138 175 228 286 341 412
#     4  12  25  43  68 103 140 177 230 285 335 411
#     4  11  24  47  68 102 140 180 232 281 344 407
#     4  11  25  45  71  98 141 186 226 284 339 408
#
# _framework density 22.422291999999999
#
# number of rings (size 3 to 8) (size 9 to 14) (size 15 to 20)
#    0.000    1.000    3.750    1.875    5.250    2.500 
#    4.500    0.000    0.000    0.000    0.000    0.000 
#    0.000    0.000    0.000    0.000    0.000    0.000 
#
# Total GULP energy -198349.516644 kJ/mol
# GULP energy per Si atom -12396.844790 kJ/mol
# Density = 2.237126 g / cm^3
# Si number density = 22.422292 Si / 1000 Ang^3
#
#
#
# Elastic Constant Matrix: (Units=GPa)
#
#
# Indices 1 2 3 4 5 6 
#
# 1 90.6658 45.0880 50.8431 3.0505 24.5472 17.1471
# 2 45.0880 77.6078 33.1714 -5.3326 12.4884 16.3731
# 3 50.8431 33.1714 133.7999 -6.7379 25.9433 10.4394
# 4 3.0505 -5.3326 -6.7379 29.2941 -6.9100 10.0222
# 5 24.5472 12.4884 25.9433 -6.9100 45.7017 4.3938
# 6 17.1471 16.3731 10.4394 10.0222 4.3938 34.3092
#
#
#
# Elastic Compliance Matrix: (Units=1/GPa)
#
#
# Indices 1 2 3 4 5 6 
#
# 1 0.020189 -0.008739 -0.004331 -0.005520 -0.006626 -0.002140
# 2 -0.008739 0.020186 -0.001059 0.007187 0.001563 -0.007243
# 3 -0.004331 -0.001059 0.010070 0.002169 -0.002707 -0.000680
# 4 -0.005520 0.007187 0.002169 0.043501 0.007793 -0.015036
# 5 -0.006626 0.001563 -0.002707 0.007793 0.027965 -0.002468
# 6 -0.002140 -0.007243 -0.000680 -0.015036 -0.002468 0.038588
#
#
# Mechanical properties :
#
#
# Convention : Reuss Voigt Hill
#
# Bulk Modulus (GPa) = 45.07741 62.25316 53.66528
# Shear Modulus (GPa) = 25.49017 33.39238 29.44128
#
# Velocity S-wave (km/s) = 3.37534 3.86327 3.62752
# Velocity P-wave (km/s) = 5.94458 6.90826 6.44446
#
# Compressibility (1/GPa) = 0.02218406
#
# Stress axis : x y z
#
# Youngs Moduli (GPa) = 49.53200 49.53942 99.30979
#
# Poissons Ratio (x) = 0.43295 0.43014
# Poissons Ratio (y) = 0.43288 0.10522
# Poissons Ratio (z) = 0.21454 0.05249
#
# Static dielectric constant tensor:
#      x y z
#    x 3.995250 -0.167950 0.229740 
#    y -0.167950 3.810670 0.042640 
#    z 0.229740 0.042640 4.415700 
# 
# 
# High freq. dielectric constant tensor:
#      x y z
#    x 1.881570 -0.010650 0.016150 
#    y -0.010650 1.862400 -0.000600 
#    z 0.016150 -0.000600 1.902060 
# 
# From -- ./inp_files/365214.got.cif
#   From: 2010.06.25/outbox.cif.g09.slc.cpg/sg2_183_cif.got.tgz:365214.got - 2010.06.27 13:26:56.
