data_PCOD8016050
_publ_section_title
;
Structure prediction by ZEFSAII (Michael W. Deem and Ramdas Pophale) SiO2 
 PCOD8016050
Probable space group: P -1
;
_chemical_formula_sum "Si O2"
_cell_formula_units_Z 16
_cell_length_a 9.037961
_cell_length_b 21.340768
_cell_length_c 18.322729
_cell_angle_alpha 161.151521
_cell_angle_beta 50.074358
_cell_angle_gamma 118.688426
_cell_volume 751.080817
_symmetry_space_group_name_H-M "P -1"
_symmetry_group_IT_number 2
_symmetry_cell_setting 'triclinic'
loop_
_space_group_symop_operation_xyz
x,y,z
-x,-y,-z
loop_
_atom_site_type_symbol
_atom_site_label
_atom_site_fract_x
_atom_site_fract_y
_atom_site_fract_z
Si Si1 0.796787 0.164449 0.518900
Si Si2 0.433861 0.072074 0.182464
Si Si3 0.221940 0.787996 0.726153
Si Si4 0.908306 0.452754 0.219056
Si Si5 0.242487 0.880202 0.137155
Si Si6 0.621861 0.660343 0.063997
Si Si7 0.980019 0.748378 0.893517
Si Si8 0.585754 0.681682 0.929559
O O1 0.715754 0.400295 0.766300
O O2 0.896452 0.976538 0.217602
O O3 0.582508 0.174013 0.636267
O O4 0.990941 0.097580 0.445688
O O5 0.605531 0.126305 0.226606
O O6 0.188899 0.299714 0.509983
O O7 0.409342 0.886138 0.030276
O O8 0.500000 0.000000 0.000000
O O9 0.323604 0.576458 0.406342
O O10 0.167084 0.715034 0.739946
O O11 0.000000 0.000000 0.000000
O O12 0.171947 0.296013 0.940431
O O13 0.761234 0.349563 0.123668
O O14 0.899226 0.463673 0.322602
O O15 0.352122 0.860988 0.160728
O O16 0.537882 0.706650 0.058256
O O17 0.770325 0.748422 0.922061
#
# Coordination Sequence:
#
# PCOD8016050 Si02
#       8
#     2   2   2   2   2   2   2   2
#     4  10  21  43  69  95 123 166 226 260 312 380
#     4  12  25  38  65  92 129 172 214 263 314 375
#     4  12  25  40  62  92 134 172 206 262 324 386
#     4  10  22  41  62  92 126 165 218 261 307 380
#     4  11  23  41  63  97 127 166 211 268 317 379
#     4  10  22  42  70  93 126 171 212 268 315 383
#     4  10  23  39  65  91 127 170 217 259 310 389
#     4  11  24  40  62  95 137 166 208 264 328 378
#
# _framework density 21.302631999999999
#
# number of rings (size 3 to 8) (size 9 to 14) (size 15 to 20)
#    0.000    1.250    2.500    3.375    5.250    6.000 
#    0.000    0.000    0.000    3.750    0.000    0.000 
#    0.000    0.000    0.000    0.000    0.000    0.000 
#
# Total GULP energy -198368.083742 kJ/mol
# GULP energy per Si atom -12398.005234 kJ/mol
# Density = 2.125415 g / cm^3
# Si number density = 21.302632 Si / 1000 Ang^3
#
#
#
# Elastic Constant Matrix: (Units=GPa)
#
#
# Indices 1 2 3 4 5 6 
#
# 1 132.2293 27.9559 18.0663 3.1279 -13.0644 7.2448
# 2 27.9559 96.0657 9.2584 -3.7457 -2.8405 6.9933
# 3 18.0663 9.2584 56.9563 3.9724 -1.9481 -2.9055
# 4 3.1279 -3.7457 3.9724 30.0838 -2.6828 -4.9269
# 5 -13.0644 -2.8405 -1.9481 -2.6828 35.4682 6.6950
# 6 7.2448 6.9933 -2.9055 -4.9269 6.6950 36.1258
#
#
#
# Elastic Compliance Matrix: (Units=1/GPa)
#
#
# Indices 1 2 3 4 5 6 
#
# 1 0.008809 -0.002105 -0.002390 -0.000943 0.003306 -0.002293
# 2 -0.002105 0.011358 -0.001361 0.001569 0.000512 -0.001767
# 3 -0.002390 -0.001361 0.018771 -0.002108 -0.000506 0.002059
# 4 -0.000943 0.001569 -0.002108 0.034627 0.001496 0.004161
# 5 0.003306 0.000512 -0.000506 0.001496 0.030726 -0.006293
# 6 -0.002293 -0.001767 0.002059 0.004161 -0.006293 0.030382
#
#
# Mechanical properties :
#
#
# Convention : Reuss Voigt Hill
#
# Bulk Modulus (GPa) = 36.72870 43.97917 40.35393
# Shear Modulus (GPa) = 32.16238 35.66694 33.91466
#
# Velocity S-wave (km/s) = 3.88981 4.09626 3.99437
# Velocity P-wave (km/s) = 6.11988 6.56218 6.34489
#
# Compressibility (1/GPa) = 0.02722666
#
# Stress axis : x y z
#
# Youngs Moduli (GPa) = 113.52251 88.04182 53.27287
#
# Poissons Ratio (x) = 0.18535 0.12732
# Poissons Ratio (y) = 0.23899 0.07248
# Poissons Ratio (z) = 0.27132 0.11979
#
# Static dielectric constant tensor:
#      x y z
#    x 4.162360 0.146020 -0.264360 
#    y 0.146020 4.090770 0.147580 
#    z -0.264360 0.147580 3.693950 
# 
# 
# High freq. dielectric constant tensor:
#      x y z
#    x 1.845380 0.010960 -0.016680 
#    y 0.010960 1.847710 0.018440 
#    z -0.016680 0.018440 1.821700 
# 
# From -- ./inp_files/353688.got.cif
#   From: 2010.06.25/outbox.cif.g09.slc.cpg/sg2_177_cif.got.tgz:353688.got - 2010.06.27 13:26:56.
