data_PCOD8016130
_publ_section_title
;
Structure prediction by ZEFSAII (Michael W. Deem and Ramdas Pophale) SiO2 
 PCOD8016130
Probable space group: P -1
;
_chemical_formula_sum "Si O2"
_cell_formula_units_Z 10
_cell_length_a 11.652879
_cell_length_b 8.453840
_cell_length_c 9.140361
_cell_angle_alpha 44.970605
_cell_angle_beta 71.147584
_cell_angle_gamma 41.091194
_cell_volume 373.051320
_symmetry_space_group_name_H-M "P -1"
_symmetry_group_IT_number 2
_symmetry_cell_setting 'triclinic'
loop_
_space_group_symop_operation_xyz
x,y,z
-x,-y,-z
loop_
_atom_site_type_symbol
_atom_site_label
_atom_site_fract_x
_atom_site_fract_y
_atom_site_fract_z
Si Si1 0.674877 0.584360 0.729696
Si Si2 0.357182 0.539680 0.869330
Si Si3 0.046647 0.703036 0.756398
Si Si4 0.339760 0.754170 0.272962
Si Si5 0.915895 0.643626 0.599259
O O1 0.719146 0.393283 0.684829
O O2 0.854912 0.479329 0.773060
O O3 0.500000 0.000000 0.500000
O O4 0.619173 0.493770 0.942476
O O5 0.565220 0.223415 0.905960
O O6 0.238429 0.482051 0.916958
O O7 0.257599 0.918689 0.612112
O O8 0.081135 0.472217 0.762900
O O9 0.864182 0.864443 0.821282
O O10 0.000000 0.000000 0.500000
O O11 0.500000 0.500000 0.500000
O O12 0.000000 0.500000 0.500000
#
# Coordination Sequence:
#
# PCOD8016130 Si02
#       5
#     2   2   2   2   2
#     4  12  25  45  69 104 139 180 239 283 341 414
#     4  11  25  46  72 100 144 185 223 288 352 402
#     4  10  21  43  71 101 139 181 228 281 352 412
#     4  12  22  43  75  97 142 185 222 290 351 405
#     4  11  24  43  71 103 139 178 234 286 340 418
#
# _framework density 26.805962999999998
#
# number of rings (size 3 to 8) (size 9 to 14) (size 15 to 20)
#    0.000    0.800    6.000    3.000    0.000    4.000 
#    0.000    6.000    0.000    0.000    0.000    0.000 
#    0.000    0.000    0.000    0.000    0.000    0.000 
#
# Total GULP energy -123940.009959 kJ/mol
# GULP energy per Si atom -12394.000996 kJ/mol
# Density = 2.674495 g / cm^3
# Si number density = 26.805963 Si / 1000 Ang^3
#
#
#
# Elastic Constant Matrix: (Units=GPa)
#
#
# Indices 1 2 3 4 5 6 
#
# 1 188.4578 61.1453 15.4237 18.8752 -5.0708 18.4720
# 2 61.1453 162.1814 18.3677 33.1936 5.5897 0.8510
# 3 15.4237 18.3677 76.5850 30.3222 1.6756 3.4040
# 4 18.8752 33.1936 30.3222 45.8018 -6.4043 1.8957
# 5 -5.0708 5.5897 1.6756 -6.4043 26.6744 20.2673
# 6 18.4720 0.8510 3.4040 1.8957 20.2673 54.5412
#
#
#
# Elastic Compliance Matrix: (Units=1/GPa)
#
#
# Indices 1 2 3 4 5 6 
#
# 1 0.006750 -0.002748 -0.000917 0.000724 0.005254 -0.004163
# 2 -0.002748 0.008734 0.001279 -0.007139 -0.006798 0.003489
# 3 -0.000917 0.001279 0.018420 -0.013724 -0.006415 0.002002
# 4 0.000724 -0.007139 -0.013724 0.038457 0.016993 -0.006929
# 5 0.005254 -0.006798 -0.006415 0.016993 0.063834 -0.025584
# 6 -0.004163 0.003489 0.002002 -0.006929 -0.025584 0.029313
#
#
# Mechanical properties :
#
#
# Convention : Reuss Voigt Hill
#
# Bulk Modulus (GPa) = 34.32654 68.56642 51.44648
# Shear Modulus (GPa) = 27.77892 47.55599 37.66745
#
# Velocity S-wave (km/s) = 3.22265 4.21656 3.75265
# Velocity P-wave (km/s) = 5.16533 7.02425 6.16526
#
# Compressibility (1/GPa) = 0.02913198
#
# Stress axis : x y z
#
# Youngs Moduli (GPa) = 148.14958 114.48932 54.28795
#
# Poissons Ratio (x) = 0.31467 0.04977
# Poissons Ratio (y) = 0.40718 -0.06943
# Poissons Ratio (z) = 0.13582 -0.14642
#
# Static dielectric constant tensor:
#      x y z
#    x 6.261570 -0.121040 -0.636980 
#    y -0.121040 5.125380 0.407110 
#    z -0.636980 0.407110 5.161030 
# 
# 
# High freq. dielectric constant tensor:
#      x y z
#    x 2.110370 0.006430 0.006860 
#    y 0.006430 2.069100 0.028560 
#    z 0.006860 0.028560 2.073110 
# 
# From -- ./inp_files/143829.got.cif
#   From: 2010.06.25/outbox.cif.g09.slc.cpg/sg2_72_cif.got.tgz:143829.got - 2010.06.27 13:26:56.
