data_PCOD8016028
_publ_section_title
;
Structure prediction by ZEFSAII (Michael W. Deem and Ramdas Pophale) SiO2 
 PCOD8016028
Probable space group: P -1
;
_chemical_formula_sum "Si O2"
_cell_formula_units_Z 16
_cell_length_a 8.335289
_cell_length_b 9.306829
_cell_length_c 11.606511
_cell_angle_alpha 73.577004
_cell_angle_beta 110.266316
_cell_angle_gamma 72.135989
_cell_volume 723.613466
_symmetry_space_group_name_H-M "P -1"
_symmetry_group_IT_number 2
_symmetry_cell_setting 'triclinic'
loop_
_space_group_symop_operation_xyz
x,y,z
-x,-y,-z
loop_
_atom_site_type_symbol
_atom_site_label
_atom_site_fract_x
_atom_site_fract_y
_atom_site_fract_z
Si Si1 0.485392 0.246248 0.270401
Si Si2 0.968131 0.260216 0.079593
Si Si3 0.005146 0.621058 0.372986
Si Si4 0.070846 0.500990 0.168670
Si Si5 0.370157 0.969557 0.290892
Si Si6 0.572056 0.310200 0.032584
Si Si7 0.637511 0.327993 0.508685
Si Si8 0.417587 0.156701 0.858428
O O1 0.269821 0.389875 0.179086
O O2 0.575981 0.211537 0.173019
O O3 0.596454 0.317019 0.365878
O O4 0.484514 0.070179 0.345359
O O5 0.783515 0.227045 0.048597
O O6 0.934977 0.414108 0.123587
O O7 0.003996 0.313036 0.947373
O O8 0.145810 0.089631 0.198629
O O9 0.094266 0.504134 0.310283
O O10 0.144134 0.702585 0.423459
O O11 0.000000 0.500000 0.500000
O O12 0.800278 0.774709 0.256257
O O13 0.400604 0.819859 0.416422
O O14 0.444249 0.887374 0.204984
O O15 0.500000 0.500000 0.000000
O O16 0.426953 0.304779 0.901306
O O17 0.500000 0.500000 0.500000
O O18 0.500000 0.000000 0.000000
#
# Coordination Sequence:
#
# PCOD8016028 Si02
#       8
#     2   2   2   2   2   2   2   2
#     4  11  24  47  71 104 145 187 233 296 356 429
#     4  10  23  41  72 105 139 186 234 294 353 429
#     4  12  28  45  72 106 145 190 239 295 364 430
#     4  10  21  43  69 102 143 181 235 286 361 420
#     4  11  26  47  71 101 144 191 238 295 365 425
#     4  12  25  42  75 108 143 184 241 297 354 425
#     4  12  27  48  73 103 140 192 247 292 360 438
#     4  12  27  48  71 104 151 184 238 304 363 420
#
# _framework density 22.111250999999999
#
# number of rings (size 3 to 8) (size 9 to 14) (size 15 to 20)
#    0.000    0.750    3.750    2.625   10.500    0.500 
#    0.000    1.250    0.000    0.000    0.000    0.000 
#    0.000    0.000    0.000    0.000    0.000    0.000 
#
# Total GULP energy -198389.606205 kJ/mol
# GULP energy per Si atom -12399.350388 kJ/mol
# Density = 2.206092 g / cm^3
# Si number density = 22.111251 Si / 1000 Ang^3
#
#
#
# Elastic Constant Matrix: (Units=GPa)
#
#
# Indices 1 2 3 4 5 6 
#
# 1 102.0137 30.3669 38.7395 1.5619 7.7107 10.7500
# 2 30.3669 99.9663 36.7176 8.0205 6.0254 10.0010
# 3 38.7395 36.7176 101.5810 6.7193 3.6512 8.7474
# 4 1.5619 8.0205 6.7193 51.0350 -0.1954 1.3007
# 5 7.7107 6.0254 3.6512 -0.1954 39.5702 5.0857
# 6 10.7500 10.0010 8.7474 1.3007 5.0857 37.3018
#
#
#
# Elastic Compliance Matrix: (Units=1/GPa)
#
#
# Indices 1 2 3 4 5 6 
#
# 1 0.012127 -0.002092 -0.003686 0.000485 -0.001459 -0.001888
# 2 -0.002092 0.012204 -0.003342 -0.001374 -0.000929 -0.001711
# 3 -0.003686 -0.003342 0.012602 -0.000995 0.000186 -0.000988
# 4 0.000485 -0.001374 -0.000995 0.019935 0.000341 -0.000280
# 5 -0.001459 -0.000929 0.000186 0.000341 0.026060 -0.002939
# 6 -0.001888 -0.001711 -0.000988 -0.000280 -0.002939 0.028453
#
#
# Mechanical properties :
#
#
# Convention : Reuss Voigt Hill
#
# Bulk Modulus (GPa) = 53.49440 57.24544 55.36992
# Shear Modulus (GPa) = 36.80521 38.76384 37.78453
#
# Velocity S-wave (km/s) = 4.08431 4.19158 4.13829
# Velocity P-wave (km/s) = 6.81821 7.02650 6.92314
#
# Compressibility (1/GPa) = 0.01869355
#
# Stress axis : x y z
#
# Youngs Moduli (GPa) = 82.46214 81.94228 79.35235
#
# Poissons Ratio (x) = 0.17144 0.29246
# Poissons Ratio (y) = 0.17253 0.26517
# Poissons Ratio (z) = 0.30392 0.27383
#
# Static dielectric constant tensor:
#      x y z
#    x 4.268080 0.070160 -0.243270 
#    y 0.070160 4.107550 0.264640 
#    z -0.243270 0.264640 4.447150 
# 
# 
# High freq. dielectric constant tensor:
#      x y z
#    x 1.876300 0.004610 0.000150 
#    y 0.004610 1.873260 0.006690 
#    z 0.000150 0.006690 1.873110 
# 
# From -- ./inp_files/381764.got.cif
#   From: 2010.06.25/outbox.cif.g09.slc.cpg/sg2_191_cif.got.tgz:381764.got - 2010.06.27 13:26:56.
