data_PCOD8016100
_publ_section_title
;
Structure prediction by ZEFSAII (Michael W. Deem and Ramdas Pophale) SiO2 
 PCOD8016100
Probable space group: P -1
;
_chemical_formula_sum "Si O2"
_cell_formula_units_Z 14
_cell_length_a 8.577304
_cell_length_b 8.650728
_cell_length_c 10.818580
_cell_angle_alpha 87.163215
_cell_angle_beta 95.491389
_cell_angle_gamma 119.520030
_cell_volume 695.320826
_symmetry_space_group_name_H-M "P -1"
_symmetry_group_IT_number 2
_symmetry_cell_setting 'triclinic'
loop_
_space_group_symop_operation_xyz
x,y,z
-x,-y,-z
loop_
_atom_site_type_symbol
_atom_site_label
_atom_site_fract_x
_atom_site_fract_y
_atom_site_fract_z
Si Si1 0.548553 0.355995 0.863867
Si Si2 0.776393 0.286573 0.276093
Si Si3 0.069779 0.589649 0.133818
Si Si4 0.771418 0.940801 0.286315
Si Si5 0.881379 0.070401 0.770239
Si Si6 0.441989 0.279869 0.133759
Si Si7 0.711436 0.083315 0.505391
O O1 0.721554 0.345255 0.833724
O O2 0.388104 0.247795 0.761248
O O3 0.598880 0.559900 0.858490
O O4 0.490592 0.266893 0.997042
O O5 0.607798 0.312665 0.230833
O O6 0.787855 0.268947 0.426830
O O7 0.959453 0.452101 0.238323
O O8 0.750298 0.103183 0.219012
O O9 0.042813 0.761588 0.137908
O O10 0.000000 0.500000 0.000000
O O11 0.960442 0.963598 0.259293
O O12 0.759586 0.951062 0.434866
O O13 0.796732 0.117483 0.644957
O O14 0.735463 0.898879 0.837198
O O15 0.500000 0.000000 0.500000
#
# Coordination Sequence:
#
# PCOD8016100 Si02
#       7
#     2   2   2   2   2   2   2
#     4  11  24  42  63  96 132 167 218 261 324 379
#     4  10  22  42  66  94 132 163 216 262 322 377
#     4  12  25  41  66  96 129 172 215 266 316 385
#     4  10  24  41  67  95 129 170 210 263 319 386
#     4  12  24  42  68  94 134 169 215 264 322 373
#     4  11  23  40  68  93 130 173 211 267 320 383
#     4  10  21  43  70  94 127 169 215 263 318 382
#
# _framework density 20.134588999999998
#
# number of rings (size 3 to 8) (size 9 to 14) (size 15 to 20)
#    0.857    0.286    2.857    3.857    4.000    2.286 
#    0.000    0.714    0.000    0.000    0.000    0.000 
#    0.000    0.000    0.000    0.000    0.000    0.000 
#
# Total GULP energy -173590.913691 kJ/mol
# GULP energy per Si atom -12399.350978 kJ/mol
# Density = 2.008876 g / cm^3
# Si number density = 20.134589 Si / 1000 Ang^3
#
#
#
# Elastic Constant Matrix: (Units=GPa)
#
#
# Indices 1 2 3 4 5 6 
#
# 1 116.6393 33.1181 14.8003 -10.7055 -15.0069 10.7263
# 2 33.1181 122.0382 50.8566 -16.0695 -19.9011 17.1198
# 3 14.8003 50.8566 69.1830 -13.1097 0.0477 3.6355
# 4 -10.7055 -16.0695 -13.1097 32.9611 2.3549 -3.7945
# 5 -15.0069 -19.9011 0.0477 2.3549 32.4217 -1.1203
# 6 10.7263 17.1198 3.6355 -3.7945 -1.1203 36.7440
#
#
#
# Elastic Compliance Matrix: (Units=1/GPa)
#
#
# Indices 1 2 3 4 5 6 
#
# 1 0.009828 -0.001279 -0.000722 0.001807 0.003568 -0.001906
# 2 -0.001279 0.015154 -0.010278 0.001680 0.008422 -0.005240
# 3 -0.000722 -0.010278 0.022903 0.004704 -0.006915 0.003009
# 4 0.001807 0.001680 0.004704 0.033850 -0.000539 0.001704
# 5 0.003568 0.008422 -0.006915 -0.000539 0.037604 -0.003191
# 6 -0.001906 -0.005240 0.003009 0.001704 -0.003191 0.029994
#
#
# Mechanical properties :
#
#
# Convention : Reuss Voigt Hill
#
# Bulk Modulus (GPa) = 42.87073 56.15671 49.51372
# Shear Modulus (GPa) = 27.52270 34.36439 30.94355
#
# Velocity S-wave (km/s) = 3.70122 4.13575 3.92450
# Velocity P-wave (km/s) = 6.29315 7.12440 6.72164
#
# Compressibility (1/GPa) = 0.02332594
#
# Stress axis : x y z
#
# Youngs Moduli (GPa) = 101.74521 65.98833 43.66313
#
# Poissons Ratio (x) = 0.08440 0.03154
# Poissons Ratio (y) = 0.13013 0.44879
# Poissons Ratio (z) = 0.07349 0.67826
#
# Static dielectric constant tensor:
#      x y z
#    x 3.798680 0.013450 -0.109860 
#    y 0.013450 3.629040 -0.176300 
#    z -0.109860 -0.176300 3.814310 
# 
# 
# High freq. dielectric constant tensor:
#      x y z
#    x 1.802140 0.006870 -0.008380 
#    y 0.006870 1.787990 -0.006230 
#    z -0.008380 -0.006230 1.777220 
# 
# From -- ./inp_files/314409.got.cif
#   From: 2010.06.25/outbox.cif.g09.slc.cpg/sg2_158_cif.got.tgz:314409.got - 2010.06.27 13:26:56.
