data_PCOD8016348
_publ_section_title
;
Structure prediction by ZEFSAII (Michael W. Deem and Ramdas Pophale) SiO2 
 PCOD8016348
Probable space group: P -1
;
_chemical_formula_sum "Si O2"
_cell_formula_units_Z 16
_cell_length_a 11.919987
_cell_length_b 9.327855
_cell_length_c 14.784806
_cell_angle_alpha 141.122282
_cell_angle_beta 114.696557
_cell_angle_gamma 47.940518
_cell_volume 746.856518
_symmetry_space_group_name_H-M "P -1"
_symmetry_group_IT_number 2
_symmetry_cell_setting 'triclinic'
loop_
_space_group_symop_operation_xyz
x,y,z
-x,-y,-z
loop_
_atom_site_type_symbol
_atom_site_label
_atom_site_fract_x
_atom_site_fract_y
_atom_site_fract_z
Si Si1 0.616872 0.715637 0.054597
Si Si2 0.216320 0.943606 0.214932
Si Si3 0.320873 0.145473 0.513010
Si Si4 0.263880 0.176154 0.167564
Si Si5 0.371666 0.939883 0.618804
Si Si6 0.838890 0.753559 0.026578
Si Si7 0.125572 0.771653 0.702820
Si Si8 0.714117 0.431207 0.516665
O O1 0.702861 0.749208 0.018691
O O2 0.435867 0.910565 0.065522
O O3 0.646470 0.808470 0.205715
O O4 0.669039 0.396441 0.924544
O O5 0.276776 0.046395 0.362501
O O6 0.202913 0.089780 0.187214
O O7 0.051515 0.028030 0.229433
O O8 0.221203 0.487366 0.655760
O O9 0.500000 0.000000 0.500000
O O10 0.286664 0.052288 0.549082
O O11 0.261951 0.444908 0.325441
O O12 0.150358 0.285300 0.097330
O O13 0.552778 0.681604 0.537004
O O14 0.285239 0.835348 0.590749
O O15 0.800501 0.060674 0.181793
O O16 0.000000 0.500000 0.000000
O O17 0.145586 0.674764 0.557236
#
# Coordination Sequence:
#
# PCOD8016348 Si02
#       8
#     2   2   2   2   2   2   2   2
#     4  11  24  46  70 103 139 182 236 287 339 415
#     4  12  27  46  68 104 146 180 228 284 356 414
#     4  12  25  43  72 104 135 185 236 281 342 412
#     4  11  26  44  72  99 138 186 235 285 343 411
#     4  10  22  40  71 102 135 177 237 287 335 404
#     4  12  27  48  69 104 141 184 233 287 352 410
#     4  12  25  47  69  97 148 180 228 291 346 415
#     4  10  21  44  68 100 137 180 231 288 342 406
#
# _framework density 21.423124999999999
#
# number of rings (size 3 to 8) (size 9 to 14) (size 15 to 20)
#    0.000    0.750    5.000    1.875    5.250    1.500 
#    0.000    1.250    0.000    0.000    0.000    0.000 
#    0.000    0.000    0.000    0.000    0.000    0.000 
#
# Total GULP energy -198465.837106 kJ/mol
# GULP energy per Si atom -12404.114819 kJ/mol
# Density = 2.137437 g / cm^3
# Si number density = 21.423125 Si / 1000 Ang^3
#
#
#
# Elastic Constant Matrix: (Units=GPa)
#
#
# Indices 1 2 3 4 5 6 
#
# 1 86.2845 30.5160 19.7542 -7.6265 -8.0381 8.4812
# 2 30.5160 136.2895 63.8080 -18.6490 0.4598 17.7109
# 3 19.7542 63.8080 104.4061 4.7139 9.5092 12.4654
# 4 -7.6265 -18.6490 4.7139 37.5907 8.1255 -6.1055
# 5 -8.0381 0.4598 9.5092 8.1255 39.0742 2.3279
# 6 8.4812 17.7109 12.4654 -6.1055 2.3279 30.5189
#
#
#
# Elastic Compliance Matrix: (Units=1/GPa)
#
#
# Indices 1 2 3 4 5 6 
#
# 1 0.013143 -0.001915 -0.001390 0.000916 0.002994 -0.002019
# 2 -0.001915 0.012266 -0.007126 0.006181 0.000056 -0.002443
# 3 -0.001390 -0.007126 0.014979 -0.005554 -0.002542 -0.002513
# 4 0.000916 0.006181 -0.005554 0.032646 -0.005642 0.005388
# 5 0.002994 0.000056 -0.002542 -0.005642 0.028185 -0.003105
# 6 -0.002019 -0.002443 -0.002513 0.005388 -0.003105 0.037087
#
#
# Mechanical properties :
#
#
# Convention : Reuss Voigt Hill
#
# Bulk Modulus (GPa) = 51.21372 61.68182 56.44777
# Shear Modulus (GPa) = 30.17960 35.63022 32.90491
#
# Velocity S-wave (km/s) = 3.75739 4.08262 3.92338
# Velocity P-wave (km/s) = 6.54077 7.14691 6.85055
#
# Compressibility (1/GPa) = 0.01952602
#
# Stress axis : x y z
#
# Youngs Moduli (GPa) = 76.08495 81.52940 66.76176
#
# Poissons Ratio (x) = 0.15610 0.09277
# Poissons Ratio (y) = 0.14568 0.47577
# Poissons Ratio (z) = 0.10573 0.58101
#
# Static dielectric constant tensor:
#      x y z
#    x 3.942070 0.152800 0.020960 
#    y 0.152800 3.991290 -0.050860 
#    z 0.020960 -0.050860 4.044430 
# 
# 
# High freq. dielectric constant tensor:
#      x y z
#    x 1.848880 0.015860 -0.000580 
#    y 0.015860 1.834660 0.005340 
#    z -0.000580 0.005340 1.853460 
# 
# From -- ./inp_files/184071.got.cif
#   From: 2010.06.25/outbox.cif.g09.slc.cpg/sg2_93_cif.got.tgz:184071.got - 2010.06.27 13:26:56.
