data_PCOD8016225
_publ_section_title
;
Structure prediction by ZEFSAII (Michael W. Deem and Ramdas Pophale) SiO2 
 PCOD8016225
Probable space group: P -1
;
_chemical_formula_sum "Si O2"
_cell_formula_units_Z 14
_cell_length_a 5.327964
_cell_length_b 16.193713
_cell_length_c 6.851249
_cell_angle_alpha 82.000967
_cell_angle_beta 91.535230
_cell_angle_gamma 84.737183
_cell_volume 582.434270
_symmetry_space_group_name_H-M "P -1"
_symmetry_group_IT_number 2
_symmetry_cell_setting 'triclinic'
loop_
_space_group_symop_operation_xyz
x,y,z
-x,-y,-z
loop_
_atom_site_type_symbol
_atom_site_label
_atom_site_fract_x
_atom_site_fract_y
_atom_site_fract_z
Si Si1 0.625427 0.091487 0.755086
Si Si2 0.203179 0.636324 0.333923
Si Si3 0.258611 0.482937 0.127482
Si Si4 0.501163 0.161485 0.329786
Si Si5 0.207794 0.783524 0.020587
Si Si6 0.701632 0.672244 0.563887
Si Si7 0.780363 0.930049 0.969103
O O1 0.643338 0.104975 0.520691
O O2 0.597020 0.182249 0.831484
O O3 0.858350 0.022393 0.861125
O O4 0.374170 0.051564 0.837873
O O5 0.247752 0.539929 0.302783
O O6 0.158103 0.690442 0.114930
O O7 0.447683 0.660967 0.443600
O O8 0.952289 0.650409 0.451293
O O9 0.288953 0.386716 0.226492
O O10 0.500000 0.500000 0.000000
O O11 0.000000 0.500000 0.000000
O O12 0.296349 0.231648 0.394909
O O13 0.390018 0.096583 0.206792
O O14 0.700309 0.214540 0.201245
O O15 0.975076 0.850958 0.030993
#
# Coordination Sequence:
#
# PCOD8016225 Si02
#       7
#     2   2   2   2   2   2   2
#     4  10  21  44  59  96 129 179 228 290 351 406
#     4  12  26  46  72 100 142 184 232 278 345 415
#     4  12  26  46  74 107 143 177 232 285 338 411
#     4  11  24  39  65  97 134 178 234 281 348 408
#     4  11  24  39  65  96 132 180 231 286 345 407
#     4  12  26  46  72 101 141 187 229 278 347 413
#     4  10  23  38  67  89 135 176 231 291 343 415
#
# _framework density 24.037050000000001
#
# number of rings (size 3 to 8) (size 9 to 14) (size 15 to 20)
#    0.000    0.857    1.429    5.143    6.000    1.714 
#    0.000    0.000    0.000    0.000    0.000    0.000 
#    0.000    0.000    0.000    0.000    0.000    0.000 
#
# Total GULP energy -173535.584914 kJ/mol
# GULP energy per Si atom -12395.398922 kJ/mol
# Density = 2.398234 g / cm^3
# Si number density = 24.037050 Si / 1000 Ang^3
#
#
#
# Elastic Constant Matrix: (Units=GPa)
#
#
# Indices 1 2 3 4 5 6 
#
# 1 106.9029 -0.5258 31.6450 -5.6545 -15.1984 -15.9770
# 2 -0.5258 71.9841 15.3793 -10.3985 7.9483 -18.0832
# 3 31.6450 15.3793 135.5855 -24.9724 -13.0031 -3.6455
# 4 -5.6545 -10.3985 -24.9724 54.8591 -4.0496 -1.7484
# 5 -15.1984 7.9483 -13.0031 -4.0496 34.8619 0.3008
# 6 -15.9770 -18.0832 -3.6455 -1.7484 0.3008 29.3258
#
#
#
# Elastic Compliance Matrix: (Units=1/GPa)
#
#
# Indices 1 2 3 4 5 6 
#
# 1 0.011750 0.002179 -0.002206 0.001145 0.003871 0.007499
# 2 0.002179 0.018305 -0.002086 0.002862 -0.003776 0.012425
# 3 -0.002206 -0.002086 0.009104 0.003732 0.003353 -0.001168
# 4 0.001145 0.002862 0.003732 0.020986 0.003641 0.004066
# 5 0.003871 -0.003776 0.003353 0.003641 0.032906 0.000077
# 6 0.007499 0.012425 -0.001168 0.004066 0.000077 0.045943
#
#
# Mechanical properties :
#
#
# Convention : Reuss Voigt Hill
#
# Bulk Modulus (GPa) = 28.62551 45.27438 36.94995
# Shear Modulus (GPa) = 32.28621 41.67430 36.98025
#
# Velocity S-wave (km/s) = 3.66892 4.16835 3.92659
# Velocity P-wave (km/s) = 5.46651 6.48406 5.99691
#
# Compressibility (1/GPa) = 0.03493387
#
# Stress axis : x y z
#
# Youngs Moduli (GPa) = 85.10896 54.62943 109.83728
#
# Poissons Ratio (x) = -0.11903 0.24227
# Poissons Ratio (y) = -0.18544 0.22910
# Poissons Ratio (z) = 0.18773 0.11395
#
# Static dielectric constant tensor:
#      x y z
#    x 4.517600 0.301800 0.117600 
#    y 0.301800 4.986930 -0.005150 
#    z 0.117600 -0.005150 4.378220 
# 
# 
# High freq. dielectric constant tensor:
#      x y z
#    x 1.948220 -0.003930 0.002630 
#    y -0.003930 1.976630 -0.008000 
#    z 0.002630 -0.008000 1.959470 
# 
# From -- ./inp_files/7060.got.cif
#   From: 2010.06.25/outbox.cif.g09.slc.cpg/sg2_4_cif.got.tgz:7060.got - 2010.06.27 13:26:56.
