data_PCOD8016479
_publ_section_title
;
Structure prediction by ZEFSAII (Michael W. Deem and Ramdas Pophale) SiO2 
 PCOD8016479
Probable space group: P -1
;
_chemical_formula_sum "Si O2"
_cell_formula_units_Z 16
_cell_length_a 7.969653
_cell_length_b 21.791206
_cell_length_c 6.986696
_cell_angle_alpha 139.608477
_cell_angle_beta 100.484334
_cell_angle_gamma 65.520884
_cell_volume 696.985037
_symmetry_space_group_name_H-M "P -1"
_symmetry_group_IT_number 2
_symmetry_cell_setting 'triclinic'
loop_
_space_group_symop_operation_xyz
x,y,z
-x,-y,-z
loop_
_atom_site_type_symbol
_atom_site_label
_atom_site_fract_x
_atom_site_fract_y
_atom_site_fract_z
Si Si1 0.770066 0.984528 0.625083
Si Si2 0.694834 0.139594 0.278709
Si Si3 0.395836 0.332455 0.489970
Si Si4 0.822981 0.528570 0.898783
Si Si5 0.513230 0.107945 0.538198
Si Si6 0.185646 0.324147 0.080158
Si Si7 0.370140 0.599225 0.581563
Si Si8 0.897772 0.229246 0.800361
O O1 0.612728 0.955487 0.621862
O O2 0.951732 0.881664 0.344868
O O3 0.687696 0.060600 0.608663
O O4 0.832147 0.042837 0.943524
O O5 0.526611 0.210743 0.269246
O O6 0.607608 0.095251 0.320908
O O7 0.807565 0.204664 0.532856
O O8 0.207557 0.345660 0.361693
O O9 0.501794 0.386667 0.520355
O O10 0.351088 0.385931 0.815713
O O11 0.845845 0.574140 0.807807
O O12 0.792232 0.424995 0.607722
O O13 0.000000 0.500000 0.000000
O O14 0.385506 0.230499 0.840994
O O15 0.007412 0.299783 0.941521
O O16 0.500000 0.500000 0.500000
O O17 0.271087 0.707480 0.937518
#
# Coordination Sequence:
#
# PCOD8016479 Si02
#       8
#     2   2   2   2   2   2   2   2
#     4  10  23  44  71 101 137 180 223 281 346 402
#     4  12  23  43  71 104 134 180 227 277 342 411
#     4  12  25  45  73  99 135 184 233 278 340 416
#     4  12  27  44  73 104 134 180 231 291 341 401
#     4  10  21  44  72 100 137 181 227 274 341 417
#     4  11  23  47  68 101 142 179 226 282 347 403
#     4  12  26  48  71  97 138 190 227 279 345 404
#     4  11  27  44  67 104 143 175 227 291 333 403
#
# _framework density 22.956016999999999
#
# number of rings (size 3 to 8) (size 9 to 14) (size 15 to 20)
#    0.000    0.750    3.750    3.375    3.500    1.500 
#    2.250    0.000    0.000    0.000    0.000    0.000 
#    0.000    0.000    0.000    0.000    0.000    0.000 
#
# Total GULP energy -198447.970608 kJ/mol
# GULP energy per Si atom -12402.998163 kJ/mol
# Density = 2.290377 g / cm^3
# Si number density = 22.956017 Si / 1000 Ang^3
#
#
#
# Elastic Constant Matrix: (Units=GPa)
#
#
# Indices 1 2 3 4 5 6 
#
# 1 92.9999 29.2396 16.1852 -9.9605 18.4334 -2.6611
# 2 29.2396 114.2376 11.6337 -17.7145 3.5084 1.8329
# 3 16.1852 11.6337 107.6274 -5.7575 14.0434 -6.9398
# 4 -9.9605 -17.7145 -5.7575 32.6622 -7.1845 0.1336
# 5 18.4334 3.5084 14.0434 -7.1845 42.6186 -3.3708
# 6 -2.6611 1.8329 -6.9398 0.1336 -3.3708 34.5056
#
#
#
# Elastic Compliance Matrix: (Units=1/GPa)
#
#
# Indices 1 2 3 4 5 6 
#
# 1 0.012912 -0.002895 -0.000907 0.001146 -0.004815 0.000492
# 2 -0.002895 0.010289 -0.000646 0.004890 0.001380 -0.000784
# 3 -0.000907 -0.000646 0.009979 0.000550 -0.002614 0.001714
# 4 0.001146 0.004890 0.000550 0.034771 0.004804 0.000274
# 5 -0.004815 0.001380 -0.002614 0.004804 0.027236 0.001672
# 6 0.000492 -0.000784 0.001714 0.000274 0.001672 0.029567
#
#
# Mechanical properties :
#
#
# Convention : Reuss Voigt Hill
#
# Bulk Modulus (GPa) = 41.18031 47.66463 44.42247
# Shear Modulus (GPa) = 35.27472 39.14439 37.20956
#
# Velocity S-wave (km/s) = 3.92423 4.13388 4.03042
# Velocity P-wave (km/s) = 6.20568 6.60256 6.40719
#
# Compressibility (1/GPa) = 0.02428345
#
# Stress axis : x y z
#
# Youngs Moduli (GPa) = 77.44711 97.19213 100.21429
#
# Poissons Ratio (x) = 0.28134 0.09094
# Poissons Ratio (y) = 0.22419 0.06473
# Poissons Ratio (z) = 0.07028 0.06277
#
# Static dielectric constant tensor:
#      x y z
#    x 4.106880 -0.126140 0.042420 
#    y -0.126140 4.150910 0.021460 
#    z 0.042420 0.021460 4.543590 
# 
# 
# High freq. dielectric constant tensor:
#      x y z
#    x 1.907180 -0.006630 0.005790 
#    y -0.006630 1.908890 0.004350 
#    z 0.005790 0.004350 1.918510 
# 
# From -- ./inp_files/53970.got.cif
#   From: 2010.06.25/outbox.cif.g09.slc.cpg/sg2_27_cif.got.tgz:53970.got - 2010.06.27 13:26:56.
