data_PCOD8016580
_publ_section_title
;
Structure prediction by ZEFSAII (Michael W. Deem and Ramdas Pophale) SiO2 
 PCOD8016580
Probable space group: P -1
;
_chemical_formula_sum "Si O2"
_cell_formula_units_Z 16
_cell_length_a 12.262960
_cell_length_b 14.418186
_cell_length_c 9.374627
_cell_angle_alpha 115.928690
_cell_angle_beta 76.910250
_cell_angle_gamma 149.340454
_cell_volume 718.537549
_symmetry_space_group_name_H-M "P -1"
_symmetry_group_IT_number 2
_symmetry_cell_setting 'triclinic'
loop_
_space_group_symop_operation_xyz
x,y,z
-x,-y,-z
loop_
_atom_site_type_symbol
_atom_site_label
_atom_site_fract_x
_atom_site_fract_y
_atom_site_fract_z
Si Si1 0.762414 0.569495 0.747368
Si Si2 0.334177 0.337959 0.679268
Si Si3 0.490965 0.984344 0.823857
Si Si4 0.232260 0.981543 0.833169
Si Si5 0.929598 0.080048 0.462176
Si Si6 0.654716 0.450126 0.012467
Si Si7 0.847019 0.454922 0.429327
Si Si8 0.058120 0.708038 0.247692
O O1 0.598693 0.526311 0.699291
O O2 0.789203 0.506226 0.575936
O O3 0.010483 0.810644 0.886025
O O4 0.650858 0.433770 0.832139
O O5 0.323312 0.412993 0.859584
O O6 0.198614 0.270146 0.534449
O O7 0.218096 0.140187 0.632388
O O8 0.337383 0.951633 0.781136
O O9 0.389349 0.790630 0.695057
O O10 0.735943 0.189407 0.815214
O O11 0.500000 0.000000 0.000000
O O12 0.111554 0.901675 0.664113
O O13 0.415588 0.213028 0.980249
O O14 0.862729 0.110977 0.622698
O O15 0.854218 0.542221 0.082999
O O16 0.000000 0.500000 0.500000
O O17 0.973367 0.585699 0.334125
#
# Coordination Sequence:
#
# PCOD8016580 Si02
#       8
#     2   2   2   2   2   2   2   2
#     4  12  24  44  71 103 136 182 230 290 333 417
#     4  10  23  44  73  96 140 183 225 288 348 403
#     4  12  27  45  71 105 138 186 232 286 347 415
#     4  12  25  42  68 101 137 176 238 276 338 415
#     4  10  21  45  68 104 132 177 234 279 345 416
#     4  11  26  46  69 101 141 182 231 285 352 399
#     4  12  26  45  71 105 138 182 236 280 349 414
#     4  11  25  46  71  99 142 185 225 292 345 411
#
# _framework density 22.267451999999999
#
# number of rings (size 3 to 8) (size 9 to 14) (size 15 to 20)
#    0.000    0.750    3.750    2.625    1.750    3.000 
#    0.000    0.000    0.000    0.000    0.000    0.000 
#    0.000    0.000    0.000    0.000    0.000    0.000 
#
# Total GULP energy -198363.202980 kJ/mol
# GULP energy per Si atom -12397.700186 kJ/mol
# Density = 2.221677 g / cm^3
# Si number density = 22.267452 Si / 1000 Ang^3
#
#
#
# Elastic Constant Matrix: (Units=GPa)
#
#
# Indices 1 2 3 4 5 6 
#
# 1 148.0081 66.0108 54.4329 -5.2728 24.6411 24.2587
# 2 66.0108 135.0862 49.4833 14.2290 4.1758 16.6438
# 3 54.4329 49.4833 104.0685 -2.1120 15.5545 2.2518
# 4 -5.2728 14.2290 -2.1120 40.7363 -1.7912 -0.1668
# 5 24.6411 4.1758 15.5545 -1.7912 27.7225 6.8303
# 6 24.2587 16.6438 2.2518 -0.1668 6.8303 45.1530
#
#
#
# Elastic Compliance Matrix: (Units=1/GPa)
#
#
# Indices 1 2 3 4 5 6 
#
# 1 0.011483 -0.004194 -0.002845 0.002483 -0.006977 -0.003417
# 2 -0.004194 0.011586 -0.004038 -0.004609 0.004573 -0.002525
# 3 -0.002845 -0.004038 0.013767 0.001537 -0.005259 0.003132
# 4 0.002483 -0.004609 0.001537 0.026526 -0.000786 0.000505
# 5 -0.006977 0.004573 -0.005259 -0.000786 0.045612 -0.004578
# 6 -0.003417 -0.002525 0.003132 0.000505 -0.004578 0.025452
#
#
# Mechanical properties :
#
#
# Convention : Reuss Voigt Hill
#
# Bulk Modulus (GPa) = 68.10844 80.77964 74.44404
# Shear Modulus (GPa) = 30.96466 37.20475 34.08470
#
# Velocity S-wave (km/s) = 3.73309 4.09199 3.91666
# Velocity P-wave (km/s) = 7.01671 7.66039 7.34561
#
# Compressibility (1/GPa) = 0.01468247
#
# Stress axis : x y z
#
# Youngs Moduli (GPa) = 87.08354 86.30797 72.63968
#
# Poissons Ratio (x) = 0.36198 0.20666
# Poissons Ratio (y) = 0.36524 0.29330
# Poissons Ratio (z) = 0.24775 0.34849
#
# Static dielectric constant tensor:
#      x y z
#    x 5.037840 -0.496470 -0.155620 
#    y -0.496470 5.155930 0.474930 
#    z -0.155620 0.474930 4.135230 
# 
# 
# High freq. dielectric constant tensor:
#      x y z
#    x 1.890500 0.002490 0.011630 
#    y 0.002490 1.879810 0.020670 
#    z 0.011630 0.020670 1.879380 
# 
# From -- ./inp_files/273716.got.cif
#   From: 2010.06.25/outbox.cif.g09.slc.cpg/sg2_137_cif.got.tgz:273716.got - 2010.06.27 13:26:56.
