data_PCOD8016082
_publ_section_title
;
Structure prediction by ZEFSAII (Michael W. Deem and Ramdas Pophale) SiO2 
 PCOD8016082
Probable space group: P -1
;
_chemical_formula_sum "Si O2"
_cell_formula_units_Z 14
_cell_length_a 14.254793
_cell_length_b 11.817870
_cell_length_c 9.456533
_cell_angle_alpha 137.165565
_cell_angle_beta 54.040000
_cell_angle_gamma 148.380569
_cell_volume 564.730860
_symmetry_space_group_name_H-M "P -1"
_symmetry_group_IT_number 2
_symmetry_cell_setting 'triclinic'
loop_
_space_group_symop_operation_xyz
x,y,z
-x,-y,-z
loop_
_atom_site_type_symbol
_atom_site_label
_atom_site_fract_x
_atom_site_fract_y
_atom_site_fract_z
Si Si1 0.029433 0.992121 0.802493
Si Si2 0.410633 0.020030 0.348400
Si Si3 0.622553 0.769784 0.207565
Si Si4 0.069900 0.234501 0.735750
Si Si5 0.998536 0.632767 0.336469
Si Si6 0.484038 0.665751 0.725121
Si Si7 0.682662 0.033910 0.129901
O O1 0.934292 0.721061 0.571939
O O2 0.238701 0.176684 0.766834
O O3 0.991023 0.118044 0.858887
O O4 0.000000 0.000000 0.000000
O O5 0.489291 0.232573 0.592257
O O6 0.468808 0.143659 0.256795
O O7 0.500637 0.942035 0.226521
O O8 0.193612 0.772682 0.331902
O O9 0.726314 0.987829 0.194771
O O10 0.500000 0.500000 0.000000
O O11 0.996844 0.313511 0.786316
O O12 0.283873 0.482972 0.787020
O O13 0.000000 0.000000 0.500000
O O14 0.855088 0.330404 0.207266
O O15 0.500000 0.500000 0.500000
O O16 0.632394 0.843612 0.880451
#
# Coordination Sequence:
#
# PCOD8016082 Si02
#       7
#     2   2   2   2   2   2   2
#     4  10  23  42  69 106 139 185 239 290 343 427
#     4  11  25  46  70 106 144 182 238 296 350 430
#     4  11  25  46  70 103 142 192 238 285 362 423
#     4  10  21  43  70 101 144 181 235 292 351 424
#     4  10  24  46  70 105 141 185 238 286 364 415
#     4  12  24  45  70 103 140 185 243 291 350 431
#     4  12  26  47  71 104 146 187 233 300 358 416
#
# _framework density 24.790569999999999
#
# number of rings (size 3 to 8) (size 9 to 14) (size 15 to 20)
#    0.000    1.143    1.429    5.143    2.000    6.286 
#   10.286    0.000    0.000    0.000    0.000    0.000 
#    0.000    0.000    0.000    0.000    0.000    0.000 
#
# Total GULP energy -173541.909323 kJ/mol
# GULP energy per Si atom -12395.850666 kJ/mol
# Density = 2.473415 g / cm^3
# Si number density = 24.790570 Si / 1000 Ang^3
#
#
#
# Elastic Constant Matrix: (Units=GPa)
#
#
# Indices 1 2 3 4 5 6 
#
# 1 91.5258 23.6336 22.4773 4.7404 8.1051 -15.9205
# 2 23.6336 106.6335 31.0867 10.7787 6.6394 -3.7894
# 3 22.4773 31.0867 110.6833 3.3082 7.2937 -1.5547
# 4 4.7404 10.7787 3.3082 46.9020 -5.9316 12.7330
# 5 8.1051 6.6394 7.2937 -5.9316 37.9843 -5.7765
# 6 -15.9205 -3.7894 -1.5547 12.7330 -5.7765 35.2381
#
#
#
# Elastic Compliance Matrix: (Units=1/GPa)
#
#
# Indices 1 2 3 4 5 6 
#
# 1 0.013260 -0.001773 -0.001917 -0.002750 -0.001600 0.006447
# 2 -0.001773 0.010881 -0.002520 -0.002572 -0.001293 0.000975
# 3 -0.001917 -0.002520 0.010195 0.000155 -0.001228 -0.000944
# 4 -0.002750 -0.002572 0.000155 0.025358 0.003429 -0.010113
# 5 -0.001600 -0.001293 -0.001228 0.003429 0.028036 0.002441
# 6 0.006447 0.000975 -0.000944 -0.010113 0.002441 0.035409
#
#
# Mechanical properties :
#
#
# Convention : Reuss Voigt Hill
#
# Bulk Modulus (GPa) = 45.62969 51.47086 48.55027
# Shear Modulus (GPa) = 34.99826 39.46787 37.23307
#
# Velocity S-wave (km/s) = 3.76141 3.99438 3.87965
# Velocity P-wave (km/s) = 6.10822 6.48697 6.30044
#
# Compressibility (1/GPa) = 0.02191556
#
# Stress axis : x y z
#
# Youngs Moduli (GPa) = 75.41437 91.90542 98.08936
#
# Poissons Ratio (x) = 0.16299 0.18799
# Poissons Ratio (y) = 0.13374 0.24719
# Poissons Ratio (z) = 0.14453 0.23161
#
# Static dielectric constant tensor:
#      x y z
#    x 4.974070 -0.248400 0.150300 
#    y -0.248400 4.416890 -0.171610 
#    z 0.150300 -0.171610 4.337460 
# 
# 
# High freq. dielectric constant tensor:
#      x y z
#    x 1.996610 -0.004480 0.009490 
#    y -0.004480 1.980190 0.005260 
#    z 0.009490 0.005260 1.998750 
# 
# From -- ./inp_files/308487.got.cif
#   From: 2010.06.25/outbox.cif.g09.slc.cpg/sg2_155_cif.got.tgz:308487.got - 2010.06.27 13:26:56.
