data_PCOD8016701
_publ_section_title
;
Structure prediction by ZEFSAII (Michael W. Deem and Ramdas Pophale) SiO2 
 PCOD8016701
Probable space group: P -1
;
_chemical_formula_sum "Si O2"
_cell_formula_units_Z 14
_cell_length_a 10.608722
_cell_length_b 8.945973
_cell_length_c 8.970839
_cell_angle_alpha 128.985791
_cell_angle_beta 62.517113
_cell_angle_gamma 103.778641
_cell_volume 585.415123
_symmetry_space_group_name_H-M "P -1"
_symmetry_group_IT_number 2
_symmetry_cell_setting 'triclinic'
loop_
_space_group_symop_operation_xyz
x,y,z
-x,-y,-z
loop_
_atom_site_type_symbol
_atom_site_label
_atom_site_fract_x
_atom_site_fract_y
_atom_site_fract_z
Si Si1 0.014828 0.673453 0.991307
Si Si2 0.378464 0.134462 0.038674
Si Si3 0.056340 0.178699 0.166154
Si Si4 0.906342 0.038475 0.426688
Si Si5 0.569992 0.465235 0.640764
Si Si6 0.422999 0.855217 0.340753
Si Si7 0.667465 0.281464 0.182872
O O1 0.171253 0.745422 0.972954
O O2 0.903254 0.841428 0.213659
O O3 0.000000 0.500000 0.000000
O O4 0.982264 0.636454 0.808588
O O5 0.223679 0.128679 0.048976
O O6 0.363760 0.324995 0.271233
O O7 0.494519 0.166194 0.871122
O O8 0.408394 0.913630 0.953196
O O9 0.978542 0.199385 0.383794
O O10 0.000000 0.000000 0.000000
O O11 0.740557 0.090231 0.581670
O O12 0.000000 0.000000 0.500000
O O13 0.573768 0.360544 0.730786
O O14 0.651492 0.310334 0.388116
O O15 0.404947 0.519716 0.721618
O O16 0.500000 0.000000 0.500000
#
# Coordination Sequence:
#
# PCOD8016701 Si02
#       7
#     2   2   2   2   2   2   2
#     4  11  25  43  74 101 147 196 248 297 382 445
#     4  12  24  44  78 101 146 196 246 304 368 442
#     4  10  21  46  71 100 146 200 237 298 381 439
#     4  11  26  45  74 110 148 192 250 305 376 444
#     4  11  27  43  72 110 141 192 249 297 376 444
#     4  12  25  46  74 106 153 198 241 308 377 449
#     4  11  24  47  70 103 149 187 243 312 367 436
#
# _framework density 23.914653000000001
#
# number of rings (size 3 to 8) (size 9 to 14) (size 15 to 20)
#    0.000    0.857    4.286    3.429    6.000    3.429 
#    0.000    2.143    0.000    0.000    0.000    0.000 
#    0.000    0.000    0.000    0.000    0.000    0.000 
#
# Total GULP energy -173471.194941 kJ/mol
# GULP energy per Si atom -12390.799639 kJ/mol
# Density = 2.386022 g / cm^3
# Si number density = 23.914653 Si / 1000 Ang^3
#
#
#
# Elastic Constant Matrix: (Units=GPa)
#
#
# Indices 1 2 3 4 5 6 
#
# 1 88.3444 35.6575 46.6261 -11.7303 -14.5821 -5.6218
# 2 35.6575 156.8383 36.4761 -11.2347 1.4519 -11.0287
# 3 46.6261 36.4761 87.1793 -10.1940 -11.2904 14.8745
# 4 -11.7303 -11.2347 -10.1940 44.6463 3.9483 10.5458
# 5 -14.5821 1.4519 -11.2904 3.9483 46.7065 -6.1240
# 6 -5.6218 -11.0287 14.8745 10.5458 -6.1240 34.1940
#
#
#
# Elastic Compliance Matrix: (Units=1/GPa)
#
#
# Indices 1 2 3 4 5 6 
#
# 1 0.018354 -0.001343 -0.010008 -0.000011 0.004366 0.007723
# 2 -0.001343 0.007684 -0.003195 0.000129 -0.000992 0.003430
# 3 -0.010008 -0.003195 0.020918 0.004458 -0.000071 -0.013163
# 4 -0.000011 0.000129 0.004458 0.026125 -0.002502 -0.010405
# 5 0.004366 -0.000992 -0.000071 -0.002502 0.023713 0.005448
# 6 0.007723 0.003430 -0.013163 -0.010405 0.005448 0.041532
#
#
# Mechanical properties :
#
#
# Convention : Reuss Voigt Hill
#
# Bulk Modulus (GPa) = 55.98080 63.32016 59.65048
# Shear Modulus (GPa) = 28.83959 39.34952 34.09456
#
# Velocity S-wave (km/s) = 3.47643 4.06077 3.77991
# Velocity P-wave (km/s) = 6.29075 6.96574 6.63683
#
# Compressibility (1/GPa) = 0.01786327
#
# Stress axis : x y z
#
# Youngs Moduli (GPa) = 54.48359 130.13808 47.80594
#
# Poissons Ratio (x) = 0.17484 0.47843
# Poissons Ratio (y) = 0.07320 0.15275
# Poissons Ratio (z) = 0.54526 0.41582
#
# Static dielectric constant tensor:
#      x y z
#    x -8.018750 6.622890 -4.968080 
#    y 6.622890 1.152520 2.441180 
#    z -4.968080 2.441180 2.453390 
# 
# 
# High freq. dielectric constant tensor:
#      x y z
#    x 1.965360 -0.016290 -0.010410 
#    y -0.016290 1.954970 -0.004610 
#    z -0.010410 -0.004610 1.940780 
# 
# From -- ./inp_files/186314.got.cif
#   From: 2010.06.25/outbox.cif.g09.slc.cpg/sg2_94_cif.got.tgz:186314.got - 2010.06.27 13:26:56.
