data_PCOD8016787
_publ_section_title
;
Structure prediction by ZEFSAII (Michael W. Deem and Ramdas Pophale) SiO2 
 PCOD8016787
Probable space group: P -1
;
_chemical_formula_sum "Si O2"
_cell_formula_units_Z 16
_cell_length_a 21.956900
_cell_length_b 5.323529
_cell_length_c 15.448000
_cell_angle_alpha 98.223772
_cell_angle_beta 151.681832
_cell_angle_gamma 72.271592
_cell_volume 784.027041
_symmetry_space_group_name_H-M "P -1"
_symmetry_group_IT_number 2
_symmetry_cell_setting 'triclinic'
loop_
_space_group_symop_operation_xyz
x,y,z
-x,-y,-z
loop_
_atom_site_type_symbol
_atom_site_label
_atom_site_fract_x
_atom_site_fract_y
_atom_site_fract_z
Si Si1 0.507938 0.539426 0.248299
Si Si2 0.051719 0.812349 0.638409
Si Si3 0.302545 0.293390 0.945291
Si Si4 0.677551 0.085665 0.719440
Si Si5 0.761730 0.871215 0.312040
Si Si6 0.628102 0.588628 0.577335
Si Si7 0.369686 0.516244 0.781387
Si Si8 0.226434 0.014818 0.977323
O O1 0.611898 0.484937 0.456391
O O2 0.585826 0.590368 0.265315
O O3 0.368201 0.794631 0.105750
O O4 0.456980 0.288409 0.154162
O O5 0.193888 0.566595 0.776612
O O6 0.929084 0.714557 0.509286
O O7 0.089529 0.969893 0.773522
O O8 0.000000 0.000000 0.500000
O O9 0.309424 0.064856 0.870575
O O10 0.231326 0.284513 0.949053
O O11 0.719240 0.309191 0.729775
O O12 0.518111 0.248758 0.552073
O O13 0.773013 0.976671 0.918191
O O14 0.701836 0.810345 0.679882
O O15 0.701986 0.681227 0.281457
O O16 0.732885 0.164752 0.334685
O O17 0.500000 0.500000 0.000000
#
# Coordination Sequence:
#
# PCOD8016787 Si02
#       8
#     2   2   2   2   2   2   2   2
#     4  10  23  36  57  86 117 159 191 233 291 345
#     4  11  23  39  57  86 115 156 197 240 289 341
#     4  11  22  36  59  82 119 155 192 238 294 342
#     4   9  19  33  52  84 115 148 180 233 295 343
#     4  12  25  40  58  82 117 158 196 236 276 333
#     4   9  19  33  53  80 118 148 184 231 284 357
#     4  12  25  40  58  82 118 158 197 235 275 341
#     4  10  22  35  60  85 120 151 190 238 294 353
#
# _framework density 20.40746
#
# number of rings (size 3 to 8) (size 9 to 14) (size 15 to 20)
#    0.000    1.500    2.500    2.250   14.000    0.000 
#    0.000    0.000    0.000    0.000    0.000    5.250 
#    0.000    0.000    0.000    0.000    0.000    0.000 
#
# Total GULP energy -198288.665719 kJ/mol
# GULP energy per Si atom -12393.041607 kJ/mol
# Density = 2.036101 g / cm^3
# Si number density = 20.407460 Si / 1000 Ang^3
#
#
#
# Elastic Constant Matrix: (Units=GPa)
#
#
# Indices 1 2 3 4 5 6 
#
# 1 109.4970 37.6636 55.2460 13.2709 -19.2618 15.7998
# 2 37.6636 89.5856 35.1334 14.6300 -14.1145 20.8609
# 3 55.2460 35.1334 92.8072 25.1412 -25.5241 6.5480
# 4 13.2709 14.6300 25.1412 29.6936 1.7577 -0.5719
# 5 -19.2618 -14.1145 -25.5241 1.7577 38.2494 3.9994
# 6 15.7998 20.8609 6.5480 -0.5719 3.9994 35.0150
#
#
#
# Elastic Compliance Matrix: (Units=1/GPa)
#
#
# Indices 1 2 3 4 5 6 
#
# 1 0.014273 -0.001993 -0.006862 0.000195 0.002307 -0.004230
# 2 -0.001993 0.016695 -0.000910 -0.007099 0.005887 -0.009665
# 3 -0.006862 -0.000910 0.023687 -0.017365 0.013082 -0.002569
# 4 0.000195 -0.007099 -0.017365 0.053031 -0.017620 0.010268
# 5 0.002307 0.005887 0.013082 -0.017620 0.040260 -0.011881
# 6 -0.004230 -0.009665 -0.002569 0.010268 -0.011881 0.038231
#
#
# Mechanical properties :
#
#
# Convention : Reuss Voigt Hill
#
# Bulk Modulus (GPa) = 28.46883 60.88620 44.67751
# Shear Modulus (GPa) = 22.99761 31.51473 27.25617
#
# Velocity S-wave (km/s) = 3.36061 3.93399 3.65855
# Velocity P-wave (km/s) = 5.38876 7.10880 6.30769
#
# Compressibility (1/GPa) = 0.03512614
#
# Stress axis : x y z
#
# Youngs Moduli (GPa) = 70.06361 59.89993 42.21687
#
# Poissons Ratio (x) = 0.11938 0.28968
# Poissons Ratio (y) = 0.13963 0.03840
# Poissons Ratio (z) = 0.48076 0.05448
#
# Static dielectric constant tensor:
#      x y z
#    x 3.641470 0.167340 -0.135080 
#    y 0.167340 4.031140 0.177840 
#    z -0.135080 0.177840 3.701540 
# 
# 
# High freq. dielectric constant tensor:
#      x y z
#    x 1.771180 0.019500 -0.023900 
#    y 0.019500 1.805760 0.015610 
#    z -0.023900 0.015610 1.773450 
# 
# From -- ./inp_files/80168.got.cif
#   From: 2010.06.25/outbox.cif.g09.slc.cpg/sg2_41_cif.got.tgz:80168.got - 2010.06.27 13:26:56.
