data_PCOD8016784
_publ_section_title
;
Structure prediction by ZEFSAII (Michael W. Deem and Ramdas Pophale) SiO2 
 PCOD8016784
Probable space group: P -1
;
_chemical_formula_sum "Si O2"
_cell_formula_units_Z 16
_cell_length_a 12.810950
_cell_length_b 5.137464
_cell_length_c 13.508554
_cell_angle_alpha 98.017045
_cell_angle_beta 116.169574
_cell_angle_gamma 79.083219
_cell_volume 781.918962
_symmetry_space_group_name_H-M "P -1"
_symmetry_group_IT_number 2
_symmetry_cell_setting 'triclinic'
loop_
_space_group_symop_operation_xyz
x,y,z
-x,-y,-z
loop_
_atom_site_type_symbol
_atom_site_label
_atom_site_fract_x
_atom_site_fract_y
_atom_site_fract_z
Si Si1 0.361034 0.625778 0.358258
Si Si2 0.674968 0.807391 0.540705
Si Si3 0.148452 0.367807 0.250238
Si Si4 0.559432 0.687477 0.293446
Si Si5 0.678665 0.837639 0.026544
Si Si6 0.094282 0.513065 0.931009
Si Si7 0.437630 0.846858 0.834077
Si Si8 0.161050 0.037810 0.057536
O O1 0.403557 0.368696 0.433433
O O2 0.228979 0.592585 0.262120
O O3 0.439545 0.638457 0.294631
O O4 0.366301 0.884361 0.440552
O O5 0.812403 0.723179 0.625869
O O6 0.659000 0.743752 0.416015
O O7 0.010311 0.476587 0.193030
O O8 0.185957 0.099927 0.185535
O O9 0.607390 0.414581 0.242460
O O10 0.535583 0.940186 0.225217
O O11 0.780338 0.585688 0.076256
O O12 0.719469 0.006608 0.960017
O O13 0.664227 0.017441 0.128277
O O14 0.555290 0.744311 0.940855
O O15 0.076725 0.306163 0.000082
O O16 0.090428 0.796137 0.996702
#
# Coordination Sequence:
#
# PCOD8016784 Si02
#       8
#     2   2   2   2   2   2   2   2
#     4  10  22  35  59  85 124 151 187 231 288 351
#     4  10  23  36  60  86 126 149 194 228 295 349
#     4  10  23  35  61  88 121 152 186 234 291 356
#     4  12  23  40  60  89 117 159 190 244 284 344
#     4   9  25  40  60  88 115 156 195 244 287 342
#     4  10  23  36  59  85 122 148 193 234 292 346
#     4  11  25  38  64  83 119 151 205 238 289 331
#     4  10  22  35  59  83 123 149 190 231 294 343
#
# _framework density 20.462479999999999
#
# number of rings (size 3 to 8) (size 9 to 14) (size 15 to 20)
#    1.500    0.250    0.000    3.750    8.750    1.000 
#    0.000    0.000    0.000    1.500    0.000    0.000 
#    0.000    0.000    0.000    0.000    0.000    0.000 
#
# Total GULP energy -198264.979563 kJ/mol
# GULP energy per Si atom -12391.561223 kJ/mol
# Density = 2.041591 g / cm^3
# Si number density = 20.462480 Si / 1000 Ang^3
#
#
#
# Elastic Constant Matrix: (Units=GPa)
#
#
# Indices 1 2 3 4 5 6 
#
# 1 65.5720 36.4018 41.8299 5.9572 12.7794 -8.3080
# 2 36.4018 138.3558 49.8588 25.6531 17.2899 2.3984
# 3 41.8299 49.8588 116.4769 20.9624 19.6711 -14.1308
# 4 5.9572 25.6531 20.9624 34.1594 2.4995 2.7844
# 5 12.7794 17.2899 19.6711 2.4995 25.3322 0.7938
# 6 -8.3080 2.3984 -14.1308 2.7844 0.7938 21.8167
#
#
#
# Elastic Compliance Matrix: (Units=1/GPa)
#
#
# Indices 1 2 3 4 5 6 
#
# 1 0.022143 -0.003822 -0.005223 0.002133 -0.004885 0.005375
# 2 -0.003822 0.010377 -0.001949 -0.005462 -0.003007 -0.003052
# 3 -0.005223 -0.001949 0.014844 -0.006944 -0.007158 0.008987
# 4 0.002133 -0.005462 -0.006944 0.037586 0.004587 -0.008049
# 5 -0.004885 -0.003007 -0.007158 0.004587 0.049366 -0.008548
# 6 0.005375 -0.003052 0.008987 -0.008049 -0.008548 0.055378
#
#
# Mechanical properties :
#
#
# Convention : Reuss Voigt Hill
#
# Bulk Modulus (GPa) = 39.40633 64.06505 51.73569
# Shear Modulus (GPa) = 22.71279 29.08259 25.89769
#
# Velocity S-wave (km/s) = 3.33524 3.77406 3.56141
# Velocity P-wave (km/s) = 5.84221 7.09703 6.49997
#
# Compressibility (1/GPa) = 0.02537663
#
# Stress axis : x y z
#
# Youngs Moduli (GPa) = 45.16034 96.36761 67.36656
#
# Poissons Ratio (x) = 0.36831 0.35185
# Poissons Ratio (y) = 0.17260 0.13129
# Poissons Ratio (z) = 0.23587 0.18782
#
# Static dielectric constant tensor:
#      x y z
#    x 3.505930 0.020120 0.160110 
#    y 0.020120 3.689100 0.050880 
#    z 0.160110 0.050880 3.627310 
# 
# 
# High freq. dielectric constant tensor:
#      x y z
#    x 1.772990 0.006290 0.019580 
#    y 0.006290 1.812070 0.003780 
#    z 0.019580 0.003780 1.790010 
# 
# From -- ./inp_files/441259.got.cif
#   From: 2010.06.25/outbox.cif.g09.slc.cpg/sg2_221_cif.got.tgz:441259.got - 2010.06.27 13:26:56.
