data_PCOD8016166
_publ_section_title
;
Structure prediction by ZEFSAII (Michael W. Deem and Ramdas Pophale) SiO2 
 PCOD8016166
Probable space group: P -1
;
_chemical_formula_sum "Si O2"
_cell_formula_units_Z 16
_cell_length_a 14.467972
_cell_length_b 9.280491
_cell_length_c 12.333893
_cell_angle_alpha 104.596276
_cell_angle_beta 151.877114
_cell_angle_gamma 85.076236
_cell_volume 720.842310
_symmetry_space_group_name_H-M "P -1"
_symmetry_group_IT_number 2
_symmetry_cell_setting 'triclinic'
loop_
_space_group_symop_operation_xyz
x,y,z
-x,-y,-z
loop_
_atom_site_type_symbol
_atom_site_label
_atom_site_fract_x
_atom_site_fract_y
_atom_site_fract_z
Si Si1 0.856921 0.961747 0.114210
Si Si2 0.382467 0.880705 0.943105
Si Si3 0.294117 0.542241 0.314134
Si Si4 0.104933 0.567742 0.509859
Si Si5 0.817172 0.618585 0.043336
Si Si6 0.477283 0.904072 0.567118
Si Si7 0.645531 0.550102 0.418042
Si Si8 0.688126 0.867780 0.431631
O O1 0.749033 0.035948 0.106605
O O2 0.903594 0.805520 0.172430
O O3 0.707515 0.916741 0.846909
O O4 0.070552 0.092033 0.334827
O O5 0.231057 0.744743 0.692210
O O6 0.542739 0.816519 0.165839
O O7 0.500000 0.000000 0.000000
O O8 0.500000 0.500000 0.500000
O O9 0.138138 0.448224 0.041403
O O10 0.336809 0.726430 0.376408
O O11 0.217031 0.480263 0.344040
O O12 0.258205 0.477632 0.602782
O O13 0.000000 0.500000 0.500000
O O14 0.927549 0.547647 0.234879
O O15 0.577987 0.570926 0.818220
O O16 0.500000 0.000000 0.500000
O O17 0.356727 0.978948 0.541066
O O18 0.631280 0.726611 0.433546
#
# Coordination Sequence:
#
# PCOD8016166 Si02
#       8
#     2   2   2   2   2   2   2   2
#     4  11  24  43  67 103 136 173 234 277 338 418
#     4  11  25  44  68  97 138 180 228 288 345 401
#     4  10  21  43  71  98 136 181 220 278 343 407
#     4  12  27  43  68 101 134 180 239 283 338 406
#     4  11  24  44  72  97 136 182 230 277 347 414
#     4  11  23  43  69 100 143 179 221 280 340 411
#     4  11  24  45  69  98 142 178 227 284 346 410
#     4  11  26  42  68 101 138 179 225 283 347 396
#
# _framework density 22.196258
#
# number of rings (size 3 to 8) (size 9 to 14) (size 15 to 20)
#    0.000    1.000    2.500    4.500    3.500   10.000 
#    0.000    0.000    0.000    0.000    0.000    0.000 
#    0.000    0.000    0.000    0.000    0.000    0.000 
#
# Total GULP energy -198423.204757 kJ/mol
# GULP energy per Si atom -12401.450297 kJ/mol
# Density = 2.214574 g / cm^3
# Si number density = 22.196258 Si / 1000 Ang^3
#
#
#
# Elastic Constant Matrix: (Units=GPa)
#
#
# Indices 1 2 3 4 5 6 
#
# 1 99.6624 30.3631 35.1714 5.6349 -13.9775 17.1959
# 2 30.3631 131.6114 26.4981 5.1057 -12.9702 13.3682
# 3 35.1714 26.4981 107.2266 0.4540 -19.1359 6.8511
# 4 5.6349 5.1057 0.4540 30.3181 10.4625 -8.2836
# 5 -13.9775 -12.9702 -19.1359 10.4625 26.1394 4.0536
# 6 17.1959 13.3682 6.8511 -8.2836 4.0536 40.3392
#
#
#
# Elastic Compliance Matrix: (Units=1/GPa)
#
#
# Indices 1 2 3 4 5 6 
#
# 1 0.014361 -0.000690 -0.002111 -0.008394 0.010440 -0.008308
# 2 -0.000690 0.009106 -0.000625 -0.004692 0.006222 -0.004206
# 3 -0.002111 -0.000625 0.011986 -0.003545 0.009155 -0.002577
# 4 -0.008394 -0.004692 -0.003545 0.052350 -0.033443 0.019846
# 5 0.010440 0.006222 0.009155 -0.033443 0.070427 -0.022012
# 6 -0.008308 -0.004206 -0.002577 0.019846 -0.022012 0.036450
#
#
# Mechanical properties :
#
#
# Convention : Reuss Voigt Hill
#
# Bulk Modulus (GPa) = 34.96261 58.06285 46.51273
# Shear Modulus (GPa) = 23.68938 35.79052 29.73995
#
# Velocity S-wave (km/s) = 3.27045 4.01990 3.66439
# Velocity P-wave (km/s) = 5.48151 6.91099 6.23733
#
# Compressibility (1/GPa) = 0.02860198
#
# Stress axis : x y z
#
# Youngs Moduli (GPa) = 69.63279 109.82321 83.42931
#
# Poissons Ratio (x) = 0.07577 0.17609
# Poissons Ratio (y) = 0.04804 0.05213
# Poissons Ratio (z) = 0.14697 0.06863
#
# Static dielectric constant tensor:
#      x y z
#    x 4.234340 -0.061570 -0.367400 
#    y -0.061570 3.957890 -0.148810 
#    z -0.367400 -0.148810 4.249200 
# 
# 
# High freq. dielectric constant tensor:
#      x y z
#    x 1.881020 -0.001470 -0.004110 
#    y -0.001470 1.884590 -0.002080 
#    z -0.004110 -0.002080 1.879560 
# 
# From -- ./inp_files/447716.got.cif
#   From: 2010.06.25/outbox.cif.g09.slc.cpg/sg2_224_cif.got.tgz:447716.got - 2010.06.27 13:26:56.
