data_PCOD8016834
_publ_section_title
;
Structure prediction by ZEFSAII (Michael W. Deem and Ramdas Pophale) SiO2 
 PCOD8016834
Probable space group: P -1
;
_chemical_formula_sum "Si O2"
_cell_formula_units_Z 16
_cell_length_a 29.307472
_cell_length_b 15.263170
_cell_length_c 9.044599
_cell_angle_alpha 51.004926
_cell_angle_beta 41.250083
_cell_angle_gamma 18.067166
_cell_volume 751.499492
_symmetry_space_group_name_H-M "P -1"
_symmetry_group_IT_number 2
_symmetry_cell_setting 'triclinic'
loop_
_space_group_symop_operation_xyz
x,y,z
-x,-y,-z
loop_
_atom_site_type_symbol
_atom_site_label
_atom_site_fract_x
_atom_site_fract_y
_atom_site_fract_z
Si Si1 0.523014 0.579787 0.660771
Si Si2 0.344067 0.054094 0.462903
Si Si3 0.456072 0.692916 0.016383
Si Si4 0.954203 0.652198 0.664564
Si Si5 0.528477 0.965116 0.292939
Si Si6 0.047680 0.591283 0.176818
Si Si7 0.455102 0.286066 0.970071
Si Si8 0.303611 0.724193 0.724382
O O1 0.355216 0.909533 0.648799
O O2 0.448162 0.564381 0.875063
O O3 0.702448 0.308423 0.398429
O O4 0.576075 0.545090 0.733696
O O5 0.476332 0.927384 0.381560
O O6 0.411066 0.953307 0.236320
O O7 0.125554 0.426664 0.597751
O O8 0.237611 0.001932 0.167225
O O9 0.425278 0.835908 0.061143
O O10 0.943764 0.532176 0.814228
O O11 0.985420 0.656090 0.423771
O O12 0.500000 0.000000 0.500000
O O13 0.389117 0.270980 0.229146
O O14 0.749540 0.654191 0.053007
O O15 0.884990 0.920014 0.155028
O O16 0.298637 0.616357 0.950173
O O17 0.500000 0.500000 0.500000
#
# Coordination Sequence:
#
# PCOD8016834 Si02
#       8
#     2   2   2   2   2   2   2   2
#     4  10  22  36  59  95 136 167 204 265 338 378
#     4  11  24  40  65  96 129 174 219 267 317 393
#     4  11  20  38  61 100 133 168 201 277 333 381
#     4  11  20  37  68 100 126 159 228 273 322 379
#     4  12  26  47  64  93 138 180 216 265 332 389
#     4  11  22  40  68  98 127 175 217 271 324 390
#     4  11  21  40  68  90 129 173 221 262 320 391
#     4  11  20  39  65  99 128 167 218 270 324 384
#
# _framework density 21.290765
#
# number of rings (size 3 to 8) (size 9 to 14) (size 15 to 20)
#    0.000    1.000    5.000    3.375    0.000    0.500 
#    2.250    4.375    0.000    0.000    0.000    0.000 
#    0.000    0.000    0.000    0.000    0.000    0.000 
#
# Total GULP energy -198215.569067 kJ/mol
# GULP energy per Si atom -12388.473067 kJ/mol
# Density = 2.124231 g / cm^3
# Si number density = 21.290765 Si / 1000 Ang^3
#
#
#
# Elastic Constant Matrix: (Units=GPa)
#
#
# Indices 1 2 3 4 5 6 
#
# 1 117.3603 23.1657 36.3301 3.6880 11.2197 -0.6644
# 2 23.1657 125.7095 43.3145 -18.4372 -9.0856 11.2181
# 3 36.3301 43.3145 70.7608 -16.1805 6.9900 1.4561
# 4 3.6880 -18.4372 -16.1805 39.1717 -11.9399 -1.2990
# 5 11.2197 -9.0856 6.9900 -11.9399 31.6972 -1.4660
# 6 -0.6644 11.2181 1.4561 -1.2990 -1.4660 22.8259
#
#
#
# Elastic Compliance Matrix: (Units=1/GPa)
#
#
# Indices 1 2 3 4 5 6 
#
# 1 0.011238 -0.001362 -0.005724 -0.005622 -0.005191 0.000708
# 2 -0.001362 0.011990 -0.006031 0.005257 0.007007 -0.004798
# 3 -0.005724 -0.006031 0.022395 0.006339 -0.002180 0.001590
# 4 -0.005622 0.005257 0.006339 0.035908 0.015620 -0.000105
# 5 -0.005191 0.007007 -0.002180 0.015620 0.041765 0.000116
# 6 0.000708 -0.004798 0.001590 -0.000105 0.000116 0.046089
#
#
# Mechanical properties :
#
#
# Convention : Reuss Voigt Hill
#
# Bulk Modulus (GPa) = 51.57574 57.71679 54.64627
# Shear Modulus (GPa) = 24.74251 32.80697 28.77474
#
# Velocity S-wave (km/s) = 3.41269 3.92969 3.68028
# Velocity P-wave (km/s) = 6.30917 6.91069 6.61677
#
# Compressibility (1/GPa) = 0.01938896
#
# Stress axis : x y z
#
# Youngs Moduli (GPa) = 88.98057 83.40603 44.65291
#
# Poissons Ratio (x) = 0.11358 0.25559
# Poissons Ratio (y) = 0.12117 0.26932
# Poissons Ratio (z) = 0.50931 0.50305
#
# Static dielectric constant tensor:
#      x y z
#    x 3.973880 0.065430 0.214160 
#    y 0.065430 3.993690 -0.341160 
#    z 0.214160 -0.341160 3.762500 
# 
# 
# High freq. dielectric constant tensor:
#      x y z
#    x 1.833160 0.010310 0.023000 
#    y 0.010310 1.843360 -0.036310 
#    z 0.023000 -0.036310 1.801700 
# 
# From -- ./inp_files/357370.got.cif
#   From: 2010.06.25/outbox.cif.g09.slc.cpg/sg2_179_cif.got.tgz:357370.got - 2010.06.27 13:26:56.
