data_PCOD8016402
_publ_section_title
;
Structure prediction by ZEFSAII (Michael W. Deem and Ramdas Pophale) SiO2 
 PCOD8016402
Probable space group: P -1
;
_chemical_formula_sum "Si O2"
_cell_formula_units_Z 14
_cell_length_a 9.020124
_cell_length_b 12.085438
_cell_length_c 15.256182
_cell_angle_alpha 150.224051
_cell_angle_beta 57.481822
_cell_angle_gamma 129.705136
_cell_volume 634.788286
_symmetry_space_group_name_H-M "P -1"
_symmetry_group_IT_number 2
_symmetry_cell_setting 'triclinic'
loop_
_space_group_symop_operation_xyz
x,y,z
-x,-y,-z
loop_
_atom_site_type_symbol
_atom_site_label
_atom_site_fract_x
_atom_site_fract_y
_atom_site_fract_z
Si Si1 0.612830 0.353146 0.091479
Si Si2 0.324719 0.210393 0.743247
Si Si3 0.275463 0.732564 0.352330
Si Si4 0.305794 0.519683 0.381783
Si Si5 0.115993 0.646456 0.842326
Si Si6 0.340124 0.863417 0.760359
Si Si7 0.039922 0.961249 0.817230
O O1 0.702429 0.560755 0.132075
O O2 0.453504 0.398825 0.230925
O O3 0.785205 0.364174 0.105734
O O4 0.528544 0.089238 0.890631
O O5 0.542593 0.296450 0.772753
O O6 0.311268 0.016869 0.537537
O O7 0.156948 0.083762 0.777792
O O8 0.251762 0.629700 0.388055
O O9 0.085274 0.589199 0.258299
O O10 0.396447 0.734524 0.572288
O O11 0.107950 0.317408 0.345569
O O12 0.253857 0.662583 0.727096
O O13 0.081308 0.890991 0.012363
O O14 0.186521 0.970969 0.854076
#
# Coordination Sequence:
#
# PCOD8016402 Si02
#       7
#     2   2   2   2   2   2   2
#     4  11  27  46  62  99 144 176 212 264 335 408
#     4  10  23  43  67  98 130 170 222 275 330 385
#     4  10  21  44  69  97 128 169 228 278 319 385
#     4  11  22  44  73  99 127 172 228 277 324 377
#     4  12  25  42  68  98 140 175 215 271 330 396
#     4  12  23  42  71 100 129 173 225 279 319 384
#     4  12  22  41  71 102 127 167 229 281 321 381
#
# _framework density 22.054597000000001
#
# number of rings (size 3 to 8) (size 9 to 14) (size 15 to 20)
#    0.000    0.857    4.286    3.857    0.000    4.000 
#    2.571    0.000    0.000    0.000    0.000    0.000 
#    0.000    0.000    0.000    0.000    0.000    0.000 
#
# Total GULP energy -173655.856604 kJ/mol
# GULP energy per Si atom -12403.989757 kJ/mol
# Density = 2.200440 g / cm^3
# Si number density = 22.054597 Si / 1000 Ang^3
#
#
#
# Elastic Constant Matrix: (Units=GPa)
#
#
# Indices 1 2 3 4 5 6 
#
# 1 89.0342 20.4926 32.1562 9.4046 42.3224 8.0208
# 2 20.4926 114.8500 19.4845 5.6615 10.0829 14.5863
# 3 32.1562 19.4845 87.5954 6.8473 26.5732 16.6933
# 4 9.4046 5.6615 6.8473 34.9869 4.2849 4.4585
# 5 42.3224 10.0829 26.5732 4.2849 25.3818 3.7431
# 6 8.0208 14.5863 16.6933 4.4585 3.7431 17.3287
#
#
#
# Elastic Compliance Matrix: (Units=1/GPa)
#
#
# Indices 1 2 3 4 5 6 
#
# 1 0.068942 -0.001343 0.018541 -0.003482 -0.130358 -0.019587
# 2 -0.001343 0.009970 -0.000157 -0.000218 -0.000418 -0.007473
# 3 0.018541 -0.000157 0.024975 -0.000612 -0.053841 -0.020722
# 4 -0.003482 -0.000218 -0.000612 0.030138 0.002311 -0.005869
# 5 -0.130358 -0.000418 -0.053841 0.002311 0.306147 0.045833
# 6 -0.019587 -0.007473 -0.020722 -0.005869 0.045833 0.084636
#
#
# Mechanical properties :
#
#
# Convention : Reuss Voigt Hill
#
# Bulk Modulus (GPa) = 7.24799 48.41625 27.83212
# Shear Modulus (GPa) = 9.31592 30.16256 19.73924
#
# Velocity S-wave (km/s) = 2.05747 3.70216 2.99493
# Velocity P-wave (km/s) = 2.98961 6.34628 4.96049
#
# Compressibility (1/GPa) = 0.13796937
#
# Stress axis : x y z
#
# Youngs Moduli (GPa) = 14.50485 100.30311 40.04011
#
# Poissons Ratio (x) = 0.13472 -0.74237
# Poissons Ratio (y) = 0.01948 0.00627
# Poissons Ratio (z) = -0.26893 0.01570
#
# Static dielectric constant tensor:
#      x y z
#    x 3.789270 0.082610 -0.025210 
#    y 0.082610 4.002110 0.159980 
#    z -0.025210 0.159980 4.040370 
# 
# 
# High freq. dielectric constant tensor:
#      x y z
#    x 1.845490 0.006450 0.001740 
#    y 0.006450 1.879170 0.010940 
#    z 0.001740 0.010940 1.870910 
# 
# From -- ./inp_files/183740.got.cif
#   From: 2010.06.25/outbox.cif.g09.slc.cpg/sg2_92_cif.got.tgz:183740.got - 2010.06.27 13:26:56.
