data_PCOD8016639
_publ_section_title
;
Structure prediction by ZEFSAII (Michael W. Deem and Ramdas Pophale) SiO2 
 PCOD8016639
Probable space group: P -1
;
_chemical_formula_sum "Si O2"
_cell_formula_units_Z 16
_cell_length_a 5.242325
_cell_length_b 9.133645
_cell_length_c 17.703997
_cell_angle_alpha 49.910143
_cell_angle_beta 96.592932
_cell_angle_gamma 81.086225
_cell_volume 614.315117
_symmetry_space_group_name_H-M "P -1"
_symmetry_group_IT_number 2
_symmetry_cell_setting 'triclinic'
loop_
_space_group_symop_operation_xyz
x,y,z
-x,-y,-z
loop_
_atom_site_type_symbol
_atom_site_label
_atom_site_fract_x
_atom_site_fract_y
_atom_site_fract_z
Si Si1 0.019114 0.098293 0.047307
Si Si2 0.690213 0.267883 0.111567
Si Si3 0.337945 0.379554 0.910809
Si Si4 0.295686 0.093907 0.244255
Si Si5 0.764194 0.324513 0.581624
Si Si6 0.607891 0.303063 0.794710
Si Si7 0.088214 0.546918 0.606097
Si Si8 0.121137 0.362236 0.279830
O O1 0.719989 0.200918 0.043228
O O2 0.212200 0.909731 0.165595
O O3 0.161526 0.269367 0.987845
O O4 0.000000 0.000000 0.000000
O O5 0.549688 0.501840 0.056979
O O6 0.541900 0.122157 0.193804
O O7 0.011247 0.205507 0.158505
O O8 0.514633 0.247830 0.893045
O O9 0.161082 0.576559 0.794048
O O10 0.324043 0.184272 0.298696
O O11 0.327730 0.863539 0.335784
O O12 0.500000 0.500000 0.500000
O O13 0.919810 0.302841 0.513818
O O14 0.938908 0.381661 0.634988
O O15 0.383049 0.416329 0.689037
O O16 0.792450 0.437974 0.779098
O O17 0.927286 0.697565 0.616075
#
# Coordination Sequence:
#
# PCOD8016639 Si02
#       8
#     2   2   2   2   2   2   2   2
#     4  12  26  43  72 113 145 195 254 309 362 439
#     4  11  27  48  74 106 152 199 246 306 378 444
#     4  10  22  46  69 104 149 196 249 305 367 434
#     4  11  27  48  76 108 144 201 246 306 376 446
#     4  11  26  46  72 108 151 183 250 305 368 453
#     4  11  22  43  75 106 152 193 246 308 369 439
#     4  10  25  44  74 107 147 197 235 312 374 435
#     4  10  21  45  72 102 147 194 246 300 369 438
#
# _framework density 26.045266999999999
#
# number of rings (size 3 to 8) (size 9 to 14) (size 15 to 20)
#    0.000    1.250    2.500    1.500    7.000    2.500 
#    0.000    5.000    0.000    0.000    0.000    0.000 
#    0.000    0.000    0.000    0.000    0.000    0.000 
#
# Total GULP energy -198323.936179 kJ/mol
# GULP energy per Si atom -12395.246011 kJ/mol
# Density = 2.598599 g / cm^3
# Si number density = 26.045267 Si / 1000 Ang^3
#
#
#
# Elastic Constant Matrix: (Units=GPa)
#
#
# Indices 1 2 3 4 5 6 
#
# 1 96.3473 46.6326 25.3621 0.8189 -19.2237 -11.4868
# 2 46.6326 144.0162 82.7822 7.9795 -14.9045 -12.4066
# 3 25.3621 82.7822 87.7437 10.1859 -14.3827 -0.2102
# 4 0.8189 7.9795 10.1859 51.7926 6.4584 -2.5846
# 5 -19.2237 -14.9045 -14.3827 6.4584 52.3947 0.0928
# 6 -11.4868 -12.4066 -0.2102 -2.5846 0.0928 48.6222
#
#
#
# Elastic Compliance Matrix: (Units=1/GPa)
#
#
# Indices 1 2 3 4 5 6 
#
# 1 0.013195 -0.004086 0.000693 -0.000096 0.003877 0.002065
# 2 -0.004086 0.017207 -0.015272 0.000697 -0.000889 0.003398
# 3 0.000693 -0.015272 0.026605 -0.003537 0.003656 -0.003813
# 4 -0.000096 0.000697 -0.003537 0.020373 -0.003321 0.001229
# 5 0.003877 -0.000889 0.003656 -0.003321 0.021668 0.000487
# 6 0.002065 0.003398 -0.003813 0.001229 0.000487 0.021970
#
#
# Mechanical properties :
#
#
# Convention : Reuss Voigt Hill
#
# Bulk Modulus (GPa) = 50.81915 70.85125 60.83520
# Shear Modulus (GPa) = 30.32004 42.11724 36.21864
#
# Velocity S-wave (km/s) = 3.41563 4.02565 3.73313
# Velocity P-wave (km/s) = 5.92534 6.99071 6.47996
#
# Compressibility (1/GPa) = 0.01967762
#
# Stress axis : x y z
#
# Youngs Moduli (GPa) = 75.78501 58.11490 37.58653
#
# Poissons Ratio (x) = 0.23749 -0.02605
# Poissons Ratio (y) = 0.30969 0.57401
# Poissons Ratio (z) = -0.05252 0.88751
#
# Static dielectric constant tensor:
#      x y z
#    x 5.426600 0.230140 -0.087050 
#    y 0.230140 7.070200 0.755370 
#    z -0.087050 0.755370 5.679120 
# 
# 
# High freq. dielectric constant tensor:
#      x y z
#    x 2.053440 -0.005290 0.006970 
#    y -0.005290 2.075890 0.033250 
#    z 0.006970 0.033250 2.044970 
# 
# From -- ./inp_files/547756.got.cif
#   From: 2010.06.25/outbox.cif.g09.slc.cpg/sg2_274_cif.got.tgz:547756.got - 2010.06.27 13:26:56.
