data_PCOD8016853
_publ_section_title
;
Structure prediction by ZEFSAII (Michael W. Deem and Ramdas Pophale) SiO2 
 PCOD8016853
Probable space group: P -1
;
_chemical_formula_sum "Si O2"
_cell_formula_units_Z 16
_cell_length_a 13.442768
_cell_length_b 13.480173
_cell_length_c 11.021872
_cell_angle_alpha 136.216327
_cell_angle_beta 33.998442
_cell_angle_gamma 123.623756
_cell_volume 767.571785
_symmetry_space_group_name_H-M "P -1"
_symmetry_group_IT_number 2
_symmetry_cell_setting 'triclinic'
loop_
_space_group_symop_operation_xyz
x,y,z
-x,-y,-z
loop_
_atom_site_type_symbol
_atom_site_label
_atom_site_fract_x
_atom_site_fract_y
_atom_site_fract_z
Si Si1 0.034926 0.189974 0.959680
Si Si2 0.217523 0.392662 0.254636
Si Si3 0.565063 0.897652 0.451930
Si Si4 0.695108 0.293366 0.550122
Si Si5 0.383611 0.133430 0.001709
Si Si6 0.030680 0.043779 0.371655
Si Si7 0.712275 0.263547 0.792056
Si Si8 0.883162 0.524304 0.832608
O O1 0.220825 0.116076 0.763427
O O2 0.965962 0.097469 0.839791
O O3 0.070177 0.349468 0.011571
O O4 0.878519 0.212470 0.238093
O O5 0.322779 0.532826 0.291494
O O6 0.328404 0.238981 0.035530
O O7 0.163359 0.383634 0.161787
O O8 0.048171 0.405010 0.527150
O O9 0.480284 0.747679 0.381203
O O10 0.500000 0.000000 0.500000
O O11 0.476218 0.975910 0.730284
O O12 0.698841 0.244413 0.643223
O O13 0.218859 0.110725 0.234643
O O14 0.532539 0.216461 0.994481
O O15 0.878624 0.164142 0.588858
O O16 0.000000 0.000000 0.500000
O O17 0.730156 0.431700 0.955294
#
# Coordination Sequence:
#
# PCOD8016853 Si02
#       8
#     2   2   2   2   2   2   2   2
#     4  11  23  40  60  89 127 163 196 248 300 361
#     4   9  19  34  58  93 128 166 187 230 306 376
#     4  12  22  33  56  98 128 162 192 236 309 372
#     4  10  22  36  61  96 135 158 186 240 304 381
#     4  12  23  38  62  88 124 160 205 245 301 362
#     4  12  27  46  62  81 119 168 216 260 298 346
#     4  11  23  39  63  97 120 162 200 242 310 365
#     4   9  19  36  61  91 128 157 192 237 303 375
#
# _framework density 20.844954999999999
#
# number of rings (size 3 to 8) (size 9 to 14) (size 15 to 20)
#    0.000    1.250    5.000    1.500    3.500    2.500 
#    0.000    0.625    0.000    0.750    0.000    0.000 
#    0.000    0.000    0.000    0.000    0.000    0.000 
#
# Total GULP energy -198283.535599 kJ/mol
# GULP energy per Si atom -12392.720975 kJ/mol
# Density = 2.079751 g / cm^3
# Si number density = 20.844955 Si / 1000 Ang^3
#
#
#
# Elastic Constant Matrix: (Units=GPa)
#
#
# Indices 1 2 3 4 5 6 
#
# 1 40.6167 45.9209 31.6894 -13.5784 0.1977 9.0576
# 2 45.9209 142.8943 39.5141 -12.9771 3.1419 25.4558
# 3 31.6894 39.5141 77.3160 -11.7731 -16.3456 4.4304
# 4 -13.5784 -12.9771 -11.7731 39.1553 9.4969 -8.0114
# 5 0.1977 3.1419 -16.3456 9.4969 17.3010 -7.2749
# 6 9.0576 25.4558 4.4304 -8.0114 -7.2749 28.4567
#
#
#
# Elastic Compliance Matrix: (Units=1/GPa)
#
#
# Indices 1 2 3 4 5 6 
#
# 1 0.065065 -0.007985 -0.027770 0.018747 -0.042003 -0.014704
# 2 -0.007985 0.013613 -0.005667 0.000801 -0.013176 -0.011897
# 3 -0.027770 -0.005667 0.034675 -0.008669 0.046406 0.017933
# 4 0.018747 0.000801 -0.008669 0.036336 -0.029620 -0.002676
# 5 -0.042003 -0.013176 0.046406 -0.029620 0.139842 0.045343
# 6 -0.014704 -0.011897 0.017933 -0.002676 0.045343 0.058510
#
#
# Mechanical properties :
#
#
# Convention : Reuss Voigt Hill
#
# Bulk Modulus (GPa) = 32.77598 55.00842 43.89220
# Shear Modulus (GPa) = 11.33647 26.56274 18.94961
#
# Velocity S-wave (km/s) = 2.33458 3.57361 3.01836
# Velocity P-wave (km/s) = 4.79842 6.59349 5.76624
#
# Compressibility (1/GPa) = 0.03051015
#
# Stress axis : x y z
#
# Youngs Moduli (GPa) = 15.36921 73.45942 28.83899
#
# Poissons Ratio (x) = 0.58656 0.80087
# Poissons Ratio (y) = 0.12272 0.16342
# Poissons Ratio (z) = 0.42681 0.41626
#
# Static dielectric constant tensor:
#      x y z
#    x 3.518870 0.493630 -0.223680 
#    y 0.493630 4.643480 -0.050840 
#    z -0.223680 -0.050840 3.973410 
# 
# 
# High freq. dielectric constant tensor:
#      x y z
#    x 1.764780 0.038130 -0.036560 
#    y 0.038130 1.837250 0.011650 
#    z -0.036560 0.011650 1.815520 
# 
# From -- ./inp_files/455027.got.cif
#   From: 2010.06.25/outbox.cif.g09.slc.cpg/sg2_228_cif.got.tgz:455027.got - 2010.06.27 13:26:56.
