data_PCOD8016176
_publ_section_title
;
Structure prediction by ZEFSAII (Michael W. Deem and Ramdas Pophale) SiO2 
 PCOD8016176
Probable space group: P -1
;
_chemical_formula_sum "Si O2"
_cell_formula_units_Z 16
_cell_length_a 7.975680
_cell_length_b 19.795153
_cell_length_c 13.675417
_cell_angle_alpha 21.341386
_cell_angle_beta 108.848684
_cell_angle_gamma 98.874430
_cell_volume 672.827266
_symmetry_space_group_name_H-M "P -1"
_symmetry_group_IT_number 2
_symmetry_cell_setting 'triclinic'
loop_
_space_group_symop_operation_xyz
x,y,z
-x,-y,-z
loop_
_atom_site_type_symbol
_atom_site_label
_atom_site_fract_x
_atom_site_fract_y
_atom_site_fract_z
Si Si1 0.148946 0.269812 0.358600
Si Si2 0.216039 0.459441 0.627290
Si Si3 0.948110 0.080855 0.274395
Si Si4 0.666146 0.935005 0.702942
Si Si5 0.694127 0.247351 0.643364
Si Si6 0.729569 0.848449 0.242409
Si Si7 0.470890 0.709511 0.662437
Si Si8 0.657925 0.522962 0.582172
O O1 0.189329 0.250898 0.505389
O O2 0.340221 0.241764 0.372026
O O3 0.071651 0.099860 0.546652
O O4 0.000000 0.500000 0.000000
O O5 0.173903 0.633167 0.468431
O O6 0.357699 0.478165 0.539304
O O7 0.000000 0.500000 0.500000
O O8 0.346672 0.239205 0.995826
O O9 0.116202 0.150790 0.182318
O O10 0.000000 0.000000 0.500000
O O11 0.750874 0.289332 0.951624
O O12 0.500000 0.000000 0.500000
O O13 0.666174 0.118831 0.521094
O O14 0.619203 0.285017 0.467975
O O15 0.520078 0.346700 0.555803
O O16 0.822077 0.002728 0.015037
O O17 0.787132 0.655122 0.440375
O O18 0.500000 0.000000 0.000000
O O19 0.500000 0.500000 0.000000
#
# Coordination Sequence:
#
# PCOD8016176 Si02
#       8
#     2   2   2   2   2   2   2   2
#     4  12  25  45  73 107 145 185 246 303 357 437
#     4  12  26  47  71 108 150 187 241 301 368 429
#     4  12  27  45  74 107 144 193 250 303 365 435
#     4  12  28  50  73 104 150 195 242 305 376 436
#     4  11  25  46  76 106 143 197 244 296 366 446
#     4  10  21  43  72 102 140 179 244 284 353 426
#     4  12  26  48  74 108 146 194 241 299 375 442
#     4  11  23  46  76 105 144 186 249 295 362 439
#
# _framework density 23.780249000000001
#
# number of rings (size 3 to 8) (size 9 to 14) (size 15 to 20)
#    0.000    0.500    3.750    4.875    7.000    0.000 
#    4.500    1.250    0.000    0.000    0.000    0.000 
#    0.000    0.000    0.000    0.000    0.000    0.000 
#
# Total GULP energy -198273.229094 kJ/mol
# GULP energy per Si atom -12392.076818 kJ/mol
# Density = 2.372612 g / cm^3
# Si number density = 23.780249 Si / 1000 Ang^3
#
#
#
# Elastic Constant Matrix: (Units=GPa)
#
#
# Indices 1 2 3 4 5 6 
#
# 1 47.2906 3.3884 -5.6723 13.6446 -15.7047 2.6683
# 2 3.3884 173.1477 70.2277 -0.1522 -11.2727 0.6621
# 3 -5.6723 70.2277 197.3062 1.5205 -30.8889 0.6699
# 4 13.6446 -0.1522 1.5205 57.4563 0.7892 -10.8738
# 5 -15.7047 -11.2727 -30.8889 0.7892 34.9341 2.5464
# 6 2.6683 0.6621 0.6699 -10.8738 2.5464 36.9777
#
#
#
# Elastic Compliance Matrix: (Units=1/GPa)
#
#
# Indices 1 2 3 4 5 6 
#
# 1 0.030410 -0.001100 0.004106 -0.008715 0.017582 -0.006023
# 2 -0.001100 0.006790 -0.002541 0.000384 -0.000571 0.000156
# 3 0.004106 -0.002541 0.007299 -0.001537 0.007614 -0.001359
# 4 -0.008715 0.000384 -0.001537 0.020971 -0.006154 0.007240
# 5 0.017582 -0.000571 0.007614 -0.006154 0.043669 -0.006213
# 6 -0.006023 0.000156 -0.001359 0.007240 -0.006213 0.030057
#
#
# Mechanical properties :
#
#
# Convention : Reuss Voigt Hill
#
# Bulk Modulus (GPa) = 22.01257 61.51467 41.76362
# Shear Modulus (GPa) = 32.59223 49.19369 40.89296
#
# Velocity S-wave (km/s) = 3.70612 4.55321 4.15133
# Velocity P-wave (km/s) = 5.25267 7.31891 6.37012
#
# Compressibility (1/GPa) = 0.04542859
#
# Stress axis : x y z
#
# Youngs Moduli (GPa) = 32.88350 147.26894 136.99982
#
# Poissons Ratio (x) = 0.16207 -0.56254
# Poissons Ratio (y) = 0.03619 0.34817
# Poissons Ratio (z) = -0.13503 0.37426
#
# Static dielectric constant tensor:
#      x y z
#    x 4.595540 1.183820 -1.380370 
#    y 1.183820 6.488250 -2.343220 
#    z -1.380370 -2.343220 6.930260 
# 
# 
# High freq. dielectric constant tensor:
#      x y z
#    x 1.945390 0.007890 -0.019100 
#    y 0.007890 1.969020 -0.010580 
#    z -0.019100 -0.010580 1.957410 
# 
# From -- ./inp_files/508085.got.cif
#   From: 2010.06.25/outbox.cif.g09.slc.cpg/sg2_255_cif.got.tgz:508085.got - 2010.06.27 13:26:56.
