data_PCOD8016204
_publ_section_title
;
Structure prediction by ZEFSAII (Michael W. Deem and Ramdas Pophale) SiO2 
 PCOD8016204
Probable space group: P -1
;
_chemical_formula_sum "Si O2"
_cell_formula_units_Z 16
_cell_length_a 8.606414
_cell_length_b 14.077301
_cell_length_c 9.762501
_cell_angle_alpha 105.961016
_cell_angle_beta 88.273255
_cell_angle_gamma 138.642487
_cell_volume 721.893994
_symmetry_space_group_name_H-M "P -1"
_symmetry_group_IT_number 2
_symmetry_cell_setting 'triclinic'
loop_
_space_group_symop_operation_xyz
x,y,z
-x,-y,-z
loop_
_atom_site_type_symbol
_atom_site_label
_atom_site_fract_x
_atom_site_fract_y
_atom_site_fract_z
Si Si1 0.562712 0.945801 0.084245
Si Si2 0.579848 0.397201 0.689620
Si Si3 0.403479 0.525967 0.764173
Si Si4 0.472011 0.935478 0.617669
Si Si5 0.279986 0.613756 0.026777
Si Si6 0.910002 0.828775 0.765935
Si Si7 0.927228 0.638398 0.552487
Si Si8 0.793209 0.911603 0.582203
O O1 0.412028 0.769794 0.006688
O O2 0.505149 0.962967 0.239241
O O3 0.848840 0.060543 0.103498
O O4 0.500000 0.000000 0.000000
O O5 0.420718 0.416448 0.735970
O O6 0.616294 0.354007 0.810957
O O7 0.834961 0.547765 0.664376
O O8 0.441076 0.263862 0.529770
O O9 0.674748 0.703304 0.817373
O O10 0.238554 0.475309 0.617007
O O11 0.294113 0.520262 0.901311
O O12 0.704860 0.978664 0.643184
O O13 0.212249 0.749327 0.566300
O O14 0.500000 0.000000 0.500000
O O15 0.000000 0.500000 0.000000
O O16 0.907381 0.746729 0.611119
O O17 0.902933 0.930223 0.730970
O O18 0.000000 0.000000 0.500000
#
# Coordination Sequence:
#
# PCOD8016204 Si02
#       8
#     2   2   2   2   2   2   2   2
#     4  11  28  51  69  97 145 192 230 287 350 422
#     4  11  23  45  68 105 140 178 230 295 352 411
#     4  11  23  44  74 103 136 185 226 288 352 412
#     4  11  26  44  71 102 139 185 235 286 351 409
#     4  12  30  44  67 102 147 186 235 281 347 425
#     4  10  21  45  71 101 131 171 242 285 343 409
#     4  10  21  43  74 102 135 178 229 288 350 414
#     4  12  23  39  71 103 135 176 235 295 343 407
#
# _framework density 22.163920000000001
#
# number of rings (size 3 to 8) (size 9 to 14) (size 15 to 20)
#    0.000    1.000    2.500    4.125   10.500    1.000 
#    2.250    0.000    0.000    0.000    0.000    0.000 
#    0.000    0.000    0.000    0.000    0.000    0.000 
#
# Total GULP energy -198401.656771 kJ/mol
# GULP energy per Si atom -12400.103548 kJ/mol
# Density = 2.211347 g / cm^3
# Si number density = 22.163920 Si / 1000 Ang^3
#
#
#
# Elastic Constant Matrix: (Units=GPa)
#
#
# Indices 1 2 3 4 5 6 
#
# 1 112.4527 26.5222 23.4694 -8.4583 10.2969 9.6562
# 2 26.5222 79.1315 16.3410 -2.1927 3.0053 7.1321
# 3 23.4694 16.3410 83.7430 -7.5827 12.9100 -0.2875
# 4 -8.4583 -2.1927 -7.5827 35.2098 -4.6780 4.7461
# 5 10.2969 3.0053 12.9100 -4.6780 42.2721 -9.6354
# 6 9.6562 7.1321 -0.2875 4.7461 -9.6354 45.6814
#
#
#
# Elastic Compliance Matrix: (Units=1/GPa)
#
#
# Indices 1 2 3 4 5 6 
#
# 1 0.010497 -0.002769 -0.001903 0.001988 -0.002118 -0.002452
# 2 -0.002769 0.014125 -0.001970 -0.000001 -0.000105 -0.001655
# 3 -0.001903 -0.001970 0.013548 0.001908 -0.003347 -0.000109
# 4 0.001988 -0.000001 0.001908 0.029922 0.001516 -0.003197
# 5 -0.002118 -0.000105 -0.003347 0.001516 0.026719 0.005921
# 6 -0.002452 -0.001655 -0.000109 -0.003197 0.005921 0.024248
#
#
# Mechanical properties :
#
#
# Convention : Reuss Voigt Hill
#
# Bulk Modulus (GPa) = 40.18386 45.33248 42.75817
# Shear Modulus (GPa) = 35.55237 38.56563 37.05900
#
# Velocity S-wave (km/s) = 4.00942 4.17588 4.09350
# Velocity P-wave (km/s) = 6.29314 6.61425 6.45569
#
# Compressibility (1/GPa) = 0.02488561
#
# Stress axis : x y z
#
# Youngs Moduli (GPa) = 95.26647 70.79626 73.81415
#
# Poissons Ratio (x) = 0.19601 0.14050
# Poissons Ratio (y) = 0.26376 0.14540
# Poissons Ratio (z) = 0.18134 0.13946
#
# Static dielectric constant tensor:
#      x y z
#    x 4.245230 0.151810 0.150200 
#    y 0.151810 4.176540 0.189880 
#    z 0.150200 0.189880 4.080660 
# 
# 
# High freq. dielectric constant tensor:
#      x y z
#    x 1.884390 0.005200 0.000650 
#    y 0.005200 1.875800 -0.003900 
#    z 0.000650 -0.003900 1.864350 
# 
# From -- ./inp_files/207828.got.cif
#   From: 2010.06.25/outbox.cif.g09.slc.cpg/sg2_104_cif.got.tgz:207828.got - 2010.06.27 13:26:56.
