data_PCOD8016133
_publ_section_title
;
Structure prediction by ZEFSAII (Michael W. Deem and Ramdas Pophale) SiO2 
 PCOD8016133
Probable space group: P -1
;
_chemical_formula_sum "Si O2"
_cell_formula_units_Z 16
_cell_length_a 7.980080
_cell_length_b 8.809007
_cell_length_c 22.269664
_cell_angle_alpha 129.016421
_cell_angle_beta 152.238020
_cell_angle_gamma 50.615556
_cell_volume 553.440035
_symmetry_space_group_name_H-M "P -1"
_symmetry_group_IT_number 2
_symmetry_cell_setting 'triclinic'
loop_
_space_group_symop_operation_xyz
x,y,z
-x,-y,-z
loop_
_atom_site_type_symbol
_atom_site_label
_atom_site_fract_x
_atom_site_fract_y
_atom_site_fract_z
Si Si1 0.635404 0.701170 0.099929
Si Si2 0.548864 0.846627 0.234271
Si Si3 0.430607 0.437511 0.374182
Si Si4 0.151156 0.215941 0.138198
Si Si5 0.622765 0.797831 0.581574
Si Si6 0.796434 0.794092 0.045812
Si Si7 0.225457 0.238046 0.592919
Si Si8 0.437544 0.635438 0.792205
O O1 0.755490 0.719629 0.211976
O O2 0.500000 0.500000 0.000000
O O3 0.880779 0.738772 0.130015
O O4 0.232040 0.859980 0.006486
O O5 0.860465 0.820627 0.379298
O O6 0.452577 0.073744 0.239007
O O7 0.184357 0.797066 0.137695
O O8 0.148865 0.427833 0.226635
O O9 0.415925 0.672049 0.440018
O O10 0.321957 0.315807 0.365482
O O11 0.851037 0.329931 0.462342
O O12 0.277426 0.251788 0.120911
O O13 0.044189 0.780522 0.691709
O O14 0.444766 0.034452 0.580729
O O15 0.593260 0.629295 0.908900
O O16 0.500000 0.000000 0.000000
O O17 0.455485 0.413342 0.716900
#
# Coordination Sequence:
#
# PCOD8016133 Si02
#       8
#     2   2   2   2   2   2   2   2
#     4  12  27  44  70 110 146 187 241 293 365 435
#     4  12  25  45  73 104 145 187 245 293 357 437
#     4  10  23  44  76 100 143 186 241 303 357 426
#     4  12  24  48  67 104 147 186 237 304 358 426
#     4  10  21  43  71 102 131 187 242 287 365 426
#     4  12  23  44  74 100 145 198 236 294 365 430
#     4  11  24  44  74 105 138 194 242 296 365 429
#     4  11  25  43  70 103 149 186 238 303 363 424
#
# _framework density 28.910088999999999
#
# number of rings (size 3 to 8) (size 9 to 14) (size 15 to 20)
#    0.000    0.750    3.750    3.750    1.750    5.000 
#    0.000    1.250    2.750    0.000    0.000    0.000 
#    0.000    0.000    0.000    0.000    0.000    0.000 
#
# Total GULP energy -198216.671393 kJ/mol
# GULP energy per Si atom -12388.541962 kJ/mol
# Density = 2.884429 g / cm^3
# Si number density = 28.910089 Si / 1000 Ang^3
#
#
#
# Elastic Constant Matrix: (Units=GPa)
#
#
# Indices 1 2 3 4 5 6 
#
# 1 135.6376 19.6443 26.0791 5.0793 0.0489 2.1997
# 2 19.6443 121.2977 -3.7489 19.9344 16.3690 -21.8094
# 3 26.0791 -3.7489 93.7204 6.5044 -11.7249 -10.4666
# 4 5.0793 19.9344 6.5044 33.3461 -0.6285 -5.3788
# 5 0.0489 16.3690 -11.7249 -0.6285 26.8537 -3.3898
# 6 2.1997 -21.8094 -10.4666 -5.3788 -3.3898 41.7325
#
#
#
# Elastic Compliance Matrix: (Units=1/GPa)
#
#
# Indices 1 2 3 4 5 6 
#
# 1 0.008155 -0.001706 -0.002605 -0.000046 -0.000367 -0.002010
# 2 -0.001706 0.011228 0.001167 -0.005983 -0.005839 0.005005
# 3 -0.002605 0.001167 0.012704 -0.002017 0.005311 0.004105
# 4 -0.000046 -0.005983 -0.002017 0.034209 0.003703 0.001080
# 5 -0.000367 -0.005839 0.005311 0.003703 0.043496 0.002310
# 6 -0.002010 0.005005 0.004105 0.001080 0.002310 0.028040
#
#
# Mechanical properties :
#
#
# Convention : Reuss Voigt Hill
#
# Bulk Modulus (GPa) = 38.75832 48.28941 43.52386
# Shear Modulus (GPa) = 32.73996 40.96520 36.85258
#
# Velocity S-wave (km/s) = 3.36888 3.76837 3.57421
# Velocity P-wave (km/s) = 5.34491 5.97275 5.66753
#
# Compressibility (1/GPa) = 0.02580091
#
# Stress axis : x y z
#
# Youngs Moduli (GPa) = 122.62641 89.06668 78.71275
#
# Poissons Ratio (x) = 0.15191 0.20502
# Poissons Ratio (y) = 0.20914 -0.09188
# Poissons Ratio (z) = 0.31941 -0.10397
#
# Static dielectric constant tensor:
#      x y z
#    x 4.494130 0.634780 -1.214960 
#    y 0.634780 4.524840 1.053870 
#    z -1.214960 1.053870 4.204720 
# 
# 
# High freq. dielectric constant tensor:
#      x y z
#    x 2.161450 -0.022490 -0.000590 
#    y -0.022490 2.199600 -0.005230 
#    z -0.000590 -0.005230 2.189790 
# 
# From -- ./inp_files/606828.got.cif
#   From: 2010.06.25/outbox.cif.g09.slc.cpg/sg2_304_cif.got.tgz:606828.got - 2010.06.27 13:26:56.
