data_PCOD8016855
_publ_section_title
;
Structure prediction by ZEFSAII (Michael W. Deem and Ramdas Pophale) SiO2 
 PCOD8016855
Probable space group: P -1
;
_chemical_formula_sum "Si O2"
_cell_formula_units_Z 14
_cell_length_a 14.165930
_cell_length_b 14.139525
_cell_length_c 9.759331
_cell_angle_alpha 31.685666
_cell_angle_beta 109.413035
_cell_angle_gamma 129.131610
_cell_volume 688.698188
_symmetry_space_group_name_H-M "P -1"
_symmetry_group_IT_number 2
_symmetry_cell_setting 'triclinic'
loop_
_space_group_symop_operation_xyz
x,y,z
-x,-y,-z
loop_
_atom_site_type_symbol
_atom_site_label
_atom_site_fract_x
_atom_site_fract_y
_atom_site_fract_z
Si Si1 0.310910 0.860914 0.822389
Si Si2 0.960649 0.446839 0.763614
Si Si3 0.522235 0.669364 0.482699
Si Si4 0.501438 0.764061 0.058400
Si Si5 0.969857 0.173474 0.890497
Si Si6 0.789800 0.783074 0.064028
Si Si7 0.257972 0.894397 0.452472
O O1 0.322013 0.911079 0.605240
O O2 0.389175 0.121888 0.615002
O O3 0.148672 0.651370 0.047617
O O4 0.376172 0.748867 0.023994
O O5 0.913829 0.209022 0.951669
O O6 0.960338 0.611449 0.455427
O O7 0.114204 0.606644 0.705167
O O8 0.562947 0.805129 0.188520
O O9 0.551736 0.491614 0.718409
O O10 0.358174 0.504414 0.636217
O O11 0.629286 0.008441 0.731052
O O12 0.837876 0.903654 0.092021
O O13 0.092174 0.193730 0.974729
O O14 0.773753 0.932757 0.770952
#
# Coordination Sequence:
#
# PCOD8016855 Si02
#       7
#     2   2   2   2   2   2   2
#     4  12  24  40  61  90 125 160 190 247 305 350
#     4  10  22  36  62  86 119 154 205 240 295 354
#     4  10  23  38  65  91 119 149 207 250 291 350
#     4  10  23  41  63  88 120 156 201 248 291 353
#     4   9  19  36  63  89 114 157 199 249 294 342
#     4   9  19  38  60  88 122 151 198 250 294 347
#     4  10  23  42  58  85 125 157 198 239 296 365
#
# _framework density 20.328209000000001
#
# number of rings (size 3 to 8) (size 9 to 14) (size 15 to 20)
#    0.000    2.000    0.000    2.143   12.000    2.286 
#    2.571    0.714    0.000    0.000    0.000    0.000 
#    0.000    0.000    0.000    0.000    0.000    0.000 
#
# Total GULP energy -173644.475525 kJ/mol
# GULP energy per Si atom -12403.176823 kJ/mol
# Density = 2.028194 g / cm^3
# Si number density = 20.328209 Si / 1000 Ang^3
#
#
#
# Elastic Constant Matrix: (Units=GPa)
#
#
# Indices 1 2 3 4 5 6 
#
# 1 96.0455 25.6575 26.0012 -3.0668 -0.5696 1.7628
# 2 25.6575 95.4142 36.7587 -6.5910 -1.8151 0.4774
# 3 26.0012 36.7587 65.3898 -2.5561 -18.4847 0.5942
# 4 -3.0668 -6.5910 -2.5561 25.7676 1.5723 -2.8068
# 5 -0.5696 -1.8151 -18.4847 1.5723 35.2611 -2.8815
# 6 1.7628 0.4774 0.5942 -2.8068 -2.8815 15.7977
#
#
#
# Elastic Compliance Matrix: (Units=1/GPa)
#
#
# Indices 1 2 3 4 5 6 
#
# 1 0.012091 -0.001460 -0.004647 0.000594 -0.002463 -0.001474
# 2 -0.001460 0.014229 -0.008388 0.002852 -0.003827 -0.000143
# 3 -0.004647 -0.008388 0.025501 -0.000741 0.013063 0.002064
# 4 0.000594 0.002852 -0.000741 0.040363 -0.001478 0.006777
# 5 -0.002463 -0.003827 0.013063 -0.001478 0.035537 0.006119
# 6 -0.001474 -0.000143 0.002064 0.006777 0.006119 0.065711
#
#
# Mechanical properties :
#
#
# Convention : Reuss Voigt Hill
#
# Bulk Modulus (GPa) = 43.79633 48.18713 45.99173
# Shear Modulus (GPa) = 21.73607 26.59410 24.16509
#
# Velocity S-wave (km/s) = 3.27350 3.62088 3.45156
# Velocity P-wave (km/s) = 5.98992 6.42161 6.20951
#
# Compressibility (1/GPa) = 0.02283296
#
# Stress axis : x y z
#
# Youngs Moduli (GPa) = 82.70581 70.27698 39.21451
#
# Poissons Ratio (x) = 0.10257 0.18222
# Poissons Ratio (y) = 0.12071 0.32892
# Poissons Ratio (z) = 0.38432 0.58946
#
# Static dielectric constant tensor:
#      x y z
#    x 3.773720 0.004740 0.033570 
#    y 0.004740 3.548110 -0.104960 
#    z 0.033570 -0.104960 3.554550 
# 
# 
# High freq. dielectric constant tensor:
#      x y z
#    x 1.803410 0.005420 -0.002840 
#    y 0.005420 1.782460 -0.010520 
#    z -0.002840 -0.010520 1.783490 
# 
# From -- ./inp_files/199656.got.cif
#   From: 2010.06.25/outbox.cif.g09.slc.cpg/sg2_100_cif.got.tgz:199656.got - 2010.06.27 13:26:56.
