data_PCOD8016845
_publ_section_title
;
Structure prediction by ZEFSAII (Michael W. Deem and Ramdas Pophale) SiO2 
 PCOD8016845
Probable space group: P -1
;
_chemical_formula_sum "Si O2"
_cell_formula_units_Z 16
_cell_length_a 14.117020
_cell_length_b 14.002875
_cell_length_c 9.499825
_cell_angle_alpha 127.157648
_cell_angle_beta 97.038835
_cell_angle_gamma 41.146327
_cell_volume 761.823230
_symmetry_space_group_name_H-M "P -1"
_symmetry_group_IT_number 2
_symmetry_cell_setting 'triclinic'
loop_
_space_group_symop_operation_xyz
x,y,z
-x,-y,-z
loop_
_atom_site_type_symbol
_atom_site_label
_atom_site_fract_x
_atom_site_fract_y
_atom_site_fract_z
Si Si1 0.238308 0.487635 0.815045
Si Si2 0.761860 0.195727 0.219527
Si Si3 0.351494 0.937465 0.503773
Si Si4 0.153272 0.730336 0.277999
Si Si5 0.921423 0.646486 0.980429
Si Si6 0.991991 0.328144 0.610910
Si Si7 0.571912 0.394455 0.650326
Si Si8 0.920992 0.269096 0.270360
O O1 0.451242 0.212898 0.636688
O O2 0.084363 0.551510 0.861082
O O3 0.243653 0.517352 0.676626
O O4 0.186768 0.656114 0.056126
O O5 0.652040 0.271677 0.403350
O O6 0.642579 0.344611 0.187693
O O7 0.871199 0.200190 0.281094
O O8 0.901426 0.937872 0.982624
O O9 0.397139 0.747444 0.362823
O O10 0.208712 0.108846 0.500524
O O11 0.264346 0.081735 0.763680
O O12 0.341623 0.578646 0.243957
O O13 0.097351 0.670363 0.296420
O O14 0.000000 0.000000 0.500000
O O15 0.882139 0.574261 0.808885
O O16 0.000000 0.500000 0.000000
O O17 0.971720 0.312795 0.432714
#
# Coordination Sequence:
#
# PCOD8016845 Si02
#       8
#     2   2   2   2   2   2   2   2
#     4  12  25  42  69  96 126 170 220 263 316 380
#     4  10  22  36  61  89 139 168 198 261 325 387
#     4  11  23  41  69  95 124 170 221 265 312 375
#     4  12  22  38  65  94 130 168 208 260 317 381
#     4  10  22  46  66  91 128 169 213 272 320 364
#     4  11  24  42  65  93 129 168 214 263 321 376
#     4  11  21  38  60  96 129 169 211 255 322 386
#     4  11  23  40  60  95 128 169 206 261 325 379
#
# _framework density 21.002248000000002
#
# number of rings (size 3 to 8) (size 9 to 14) (size 15 to 20)
#    0.000    1.000    6.250    1.500    3.500    3.000 
#    0.000    0.625    0.000    0.000    0.000    0.000 
#    0.000    0.000    0.000    0.000    0.000    0.000 
#
# Total GULP energy -198326.603759 kJ/mol
# GULP energy per Si atom -12395.412735 kJ/mol
# Density = 2.095445 g / cm^3
# Si number density = 21.002248 Si / 1000 Ang^3
#
#
#
# Elastic Constant Matrix: (Units=GPa)
#
#
# Indices 1 2 3 4 5 6 
#
# 1 91.8730 13.1540 50.8471 4.2638 10.3766 -11.4830
# 2 13.1540 80.6625 33.1091 -10.9777 12.8134 -17.6634
# 3 50.8471 33.1091 93.7944 -5.6845 10.4726 -21.1899
# 4 4.2638 -10.9777 -5.6845 35.6138 -7.7793 -0.7889
# 5 10.3766 12.8134 10.4726 -7.7793 36.0172 -7.4307
# 6 -11.4830 -17.6634 -21.1899 -0.7889 -7.4307 28.4053
#
#
#
# Elastic Compliance Matrix: (Units=1/GPa)
#
#
# Indices 1 2 3 4 5 6 
#
# 1 0.016308 0.000979 -0.009191 -0.003861 -0.003339 -0.000636
# 2 0.000979 0.016427 -0.004253 0.003841 -0.002646 0.006852
# 3 -0.009191 -0.004253 0.019090 0.003239 0.001009 0.008234
# 4 -0.003861 0.003841 0.003239 0.031885 0.006916 0.005939
# 5 -0.003339 -0.002646 0.001009 0.006916 0.032182 0.006368
# 6 -0.000636 0.006852 0.008234 0.005939 0.006368 0.047182
#
#
# Mechanical properties :
#
#
# Convention : Reuss Voigt Hill
#
# Bulk Modulus (GPa) = 37.18291 51.17225 44.17758
# Shear Modulus (GPa) = 25.38470 31.28856 28.33663
#
# Velocity S-wave (km/s) = 3.48036 3.86394 3.67716
# Velocity P-wave (km/s) = 5.82179 6.65769 6.25372
#
# Compressibility (1/GPa) = 0.02689407
#
# Stress axis : x y z
#
# Youngs Moduli (GPa) = 61.31874 60.87518 52.38472
#
# Poissons Ratio (x) = -0.05959 0.48148
# Poissons Ratio (y) = -0.06003 0.22279
# Poissons Ratio (z) = 0.56360 0.25891
#
# Static dielectric constant tensor:
#      x y z
#    x 3.600780 -0.276910 0.006690 
#    y -0.276910 3.773210 0.044160 
#    z 0.006690 0.044160 4.391890 
# 
# 
# High freq. dielectric constant tensor:
#      x y z
#    x 1.821510 -0.007080 -0.001090 
#    y -0.007080 1.812930 -0.000260 
#    z -0.001090 -0.000260 1.819960 
# 
# From -- ./inp_files/315931.got.cif
#   From: 2010.06.25/outbox.cif.g09.slc.cpg/sg2_158_cif.got.tgz:315931.got - 2010.06.27 13:26:56.
