data_PCOD8016998
_publ_section_title
;
Structure prediction by ZEFSAII (Michael W. Deem and Ramdas Pophale) SiO2 
 PCOD8016998
Probable space group: P -1
;
_chemical_formula_sum "Si O2"
_cell_formula_units_Z 16
_cell_length_a 8.666083
_cell_length_b 11.389333
_cell_length_c 9.047380
_cell_angle_alpha 80.031285
_cell_angle_beta 98.406942
_cell_angle_gamma 118.284259
_cell_volume 772.373638
_symmetry_space_group_name_H-M "P -1"
_symmetry_group_IT_number 2
_symmetry_cell_setting 'triclinic'
loop_
_space_group_symop_operation_xyz
x,y,z
-x,-y,-z
loop_
_atom_site_type_symbol
_atom_site_label
_atom_site_fract_x
_atom_site_fract_y
_atom_site_fract_z
Si Si1 0.014352 0.263337 0.622411
Si Si2 0.146779 0.930267 0.629602
Si Si3 0.698479 0.296123 0.659581
Si Si4 0.311624 0.443254 0.416542
Si Si5 0.854609 0.861803 0.073648
Si Si6 0.214127 0.197345 0.240506
Si Si7 0.439419 0.117120 0.454979
Si Si8 0.419795 0.055437 0.857234
O O1 0.181283 0.385916 0.549180
O O2 0.070018 0.189795 0.771525
O O3 0.897846 0.168141 0.493693
O O4 0.897389 0.321169 0.673576
O O5 0.975496 0.915417 0.697019
O O6 0.269470 0.081546 0.549363
O O7 0.287716 0.924631 0.768263
O O8 0.708129 0.434417 0.689761
O O9 0.601094 0.258567 0.493552
O O10 0.586027 0.166533 0.770517
O O11 0.500000 0.500000 0.500000
O O12 0.276686 0.333688 0.310454
O O13 0.686833 0.872656 0.105932
O O14 0.797543 0.766554 0.940253
O O15 0.000000 0.000000 0.000000
O O16 0.357571 0.138590 0.285043
O O17 0.500000 0.000000 0.500000
O O18 0.500000 0.000000 0.000000
#
# Coordination Sequence:
#
# PCOD8016998 Si02
#       8
#     2   2   2   2   2   2   2   2
#     4  11  24  41  68  94 130 170 223 267 324 387
#     4  10  22  37  63  94 126 169 212 261 324 389
#     4  11  23  41  66  96 129 172 217 272 318 386
#     4  11  23  46  68  92 128 174 233 266 310 389
#     4  12  24  40  63  99 136 169 209 272 338 389
#     4  11  24  40  66  93 132 172 220 262 330 385
#     4  11  21  35  64  97 127 161 217 270 322 378
#     4  11  25  39  64  99 140 165 209 273 342 386
#
# _framework density 20.715361999999999
#
# number of rings (size 3 to 8) (size 9 to 14) (size 15 to 20)
#    0.000    1.000    3.750    3.000    8.750    0.000 
#    0.000    3.125    0.000    0.000    0.000    0.000 
#    0.000    0.000    0.000    0.000    0.000    0.000 
#
# Total GULP energy -198208.829257 kJ/mol
# GULP energy per Si atom -12388.051829 kJ/mol
# Density = 2.066821 g / cm^3
# Si number density = 20.715362 Si / 1000 Ang^3
#
#
#
# Elastic Constant Matrix: (Units=GPa)
#
#
# Indices 1 2 3 4 5 6 
#
# 1 135.3291 54.0787 63.6438 1.6589 13.6453 2.5878
# 2 54.0787 100.5320 48.0286 3.2105 13.4433 1.5286
# 3 63.6438 48.0286 135.8980 10.7414 20.8486 -3.5182
# 4 1.6589 3.2105 10.7414 24.4472 -2.0526 0.1537
# 5 13.6453 13.4433 20.8486 -2.0526 39.9689 -5.4144
# 6 2.5878 1.5286 -3.5182 0.1537 -5.4144 37.1216
#
#
#
# Elastic Compliance Matrix: (Units=1/GPa)
#
#
# Indices 1 2 3 4 5 6 
#
# 1 0.010775 -0.003995 -0.003697 0.001385 -0.000472 -0.001012
# 2 -0.003995 0.013647 -0.002625 -0.000530 -0.001995 -0.000821
# 3 -0.003697 -0.002625 0.010965 -0.004537 -0.003687 0.000886
# 4 0.001385 -0.000530 -0.004537 0.043234 0.004285 -0.000059
# 5 -0.000472 -0.001995 -0.003687 0.004285 0.028525 0.003908
# 6 -0.001012 -0.000821 0.000886 -0.000059 0.003908 0.027697
#
#
# Mechanical properties :
#
#
# Convention : Reuss Voigt Hill
#
# Bulk Modulus (GPa) = 67.79263 78.14015 72.96639
# Shear Modulus (GPa) = 31.17324 34.04140 32.60732
#
# Velocity S-wave (km/s) = 3.88343 4.05815 3.97175
# Velocity P-wave (km/s) = 7.27357 7.73052 7.50552
#
# Compressibility (1/GPa) = 0.01475087
#
# Stress axis : x y z
#
# Youngs Moduli (GPa) = 92.80991 73.27819 91.19972
#
# Poissons Ratio (x) = 0.29278 0.33718
# Poissons Ratio (y) = 0.37081 0.23941
# Poissons Ratio (z) = 0.34314 0.19236
#
# Static dielectric constant tensor:
#      x y z
#    x 4.107880 0.213390 -0.001020 
#    y 0.213390 3.742230 0.187810 
#    z -0.001020 0.187810 4.265580 
# 
# 
# High freq. dielectric constant tensor:
#      x y z
#    x 1.833450 0.014320 0.005920 
#    y 0.014320 1.786630 0.010370 
#    z 0.005920 0.010370 1.809900 
# 
# From -- ./inp_files/177952.got.cif
#   From: 2010.06.25/outbox.cif.g09.slc.cpg/sg2_89_cif.got.tgz:177952.got - 2010.06.27 13:26:56.
