data_PCOD8016646
_publ_section_title
;
Structure prediction by ZEFSAII (Michael W. Deem and Ramdas Pophale) SiO2 
 PCOD8016646
Probable space group: P -1
;
_chemical_formula_sum "Si O2"
_cell_formula_units_Z 16
_cell_length_a 12.296861
_cell_length_b 7.851679
_cell_length_c 9.547276
_cell_angle_alpha 127.873409
_cell_angle_beta 102.347587
_cell_angle_gamma 84.371420
_cell_volume 710.148961
_symmetry_space_group_name_H-M "P -1"
_symmetry_group_IT_number 2
_symmetry_cell_setting 'triclinic'
loop_
_space_group_symop_operation_xyz
x,y,z
-x,-y,-z
loop_
_atom_site_type_symbol
_atom_site_label
_atom_site_fract_x
_atom_site_fract_y
_atom_site_fract_z
Si Si1 0.400246 0.079952 0.104464
Si Si2 0.009189 0.100148 0.406055
Si Si3 0.532066 0.694705 0.502150
Si Si4 0.750819 0.311131 0.033818
Si Si5 0.139083 0.545738 0.348860
Si Si6 0.331873 0.547600 0.207905
Si Si7 0.012759 0.813195 0.016789
Si Si8 0.228625 0.359863 0.549799
O O1 0.450809 0.105057 0.287440
O O2 0.349548 0.295434 0.129112
O O3 0.500000 0.000000 0.000000
O O4 0.307305 0.888386 0.998479
O O5 0.927718 0.298833 0.487947
O O6 0.138005 0.163253 0.441356
O O7 0.000000 0.000000 0.500000
O O8 0.963537 0.909594 0.194677
O O9 0.500000 0.500000 0.500000
O O10 0.433979 0.706326 0.367222
O O11 0.641765 0.689869 0.432597
O O12 0.793178 0.474356 0.248735
O O13 0.678085 0.424636 0.949746
O O14 0.859348 0.233966 0.946302
O O15 0.223950 0.642337 0.303862
O O16 0.216210 0.428723 0.420254
O O17 0.053475 0.398301 0.161203
O O18 0.000000 0.000000 0.000000
#
# Coordination Sequence:
#
# PCOD8016646 Si02
#       8
#     2   2   2   2   2   2   2   2
#     4  11  24  45  73 105 141 190 247 296 366 443
#     4  12  27  44  68 109 145 188 242 299 367 438
#     4  10  21  45  72  98 141 184 238 301 358 433
#     4  12  26  44  73 109 144 187 245 306 364 437
#     4  12  24  47  72 102 143 191 240 296 366 435
#     4  11  26  47  73 104 145 193 238 305 373 427
#     4  12  24  45  74 102 144 195 244 296 362 440
#     4  12  23  46  72 100 141 188 240 296 364 432
#
# _framework density 22.530483
#
# number of rings (size 3 to 8) (size 9 to 14) (size 15 to 20)
#    0.000    0.500    5.000    4.875    1.750    3.500 
#    0.000    1.250    0.000    0.000    0.000    0.000 
#    0.000    0.000    0.000    0.000    0.000    0.000 
#
# Total GULP energy -198258.021373 kJ/mol
# GULP energy per Si atom -12391.126336 kJ/mol
# Density = 2.247920 g / cm^3
# Si number density = 22.530483 Si / 1000 Ang^3
#
#
#
# Elastic Constant Matrix: (Units=GPa)
#
#
# Indices 1 2 3 4 5 6 
#
# 1 143.2728 17.1460 34.1547 3.3573 -6.3327 -0.3448
# 2 17.1460 68.7609 25.1058 -16.6615 2.4267 -7.0372
# 3 34.1547 25.1058 146.9615 -4.8661 -11.9496 -13.1197
# 4 3.3573 -16.6615 -4.8661 31.1110 -4.9467 -5.5591
# 5 -6.3327 2.4267 -11.9496 -4.9467 41.6722 -5.6305
# 6 -0.3448 -7.0372 -13.1197 -5.5591 -5.6305 19.4177
#
#
#
# Elastic Compliance Matrix: (Units=1/GPa)
#
#
# Indices 1 2 3 4 5 6 
#
# 1 0.007721 -0.002227 -0.001724 -0.002735 0.000136 -0.002578
# 2 -0.002227 0.019630 -0.001465 0.012441 0.000914 0.009912
# 3 -0.001724 -0.001465 0.008431 0.002496 0.003463 0.006854
# 4 -0.002735 0.012441 0.002496 0.044491 0.007710 0.021119
# 5 0.000136 0.000914 0.003463 0.007710 0.027614 0.012888
# 6 -0.002578 0.009912 0.006854 0.021119 0.012888 0.069460
#
#
# Mechanical properties :
#
#
# Convention : Reuss Voigt Hill
#
# Bulk Modulus (GPa) = 40.07807 56.86758 48.47282
# Shear Modulus (GPa) = 25.44587 37.27944 31.36265
#
# Velocity S-wave (km/s) = 3.36430 4.07212 3.73501
# Velocity P-wave (km/s) = 5.73745 6.88510 6.33731
#
# Compressibility (1/GPa) = 0.02495130
#
# Stress axis : x y z
#
# Youngs Moduli (GPa) = 129.51684 50.94262 118.60378
#
# Poissons Ratio (x) = 0.11346 0.20442
# Poissons Ratio (y) = 0.28847 0.17372
# Poissons Ratio (z) = 0.22323 0.07461
#
# Static dielectric constant tensor:
#      x y z
#    x 3.821540 0.177790 0.061450 
#    y 0.177790 3.822850 -0.069190 
#    z 0.061450 -0.069190 4.134600 
# 
# 
# High freq. dielectric constant tensor:
#      x y z
#    x 1.901000 0.009230 0.000410 
#    y 0.009230 1.870290 -0.009200 
#    z 0.000410 -0.009200 1.910630 
# 
# From -- ./inp_files/246102.got.cif
#   From: 2010.06.25/outbox.cif.g09.slc.cpg/sg2_124_cif.got.tgz:246102.got - 2010.06.27 13:26:56.
