data_PCOD8016595
_publ_section_title
;
Structure prediction by ZEFSAII (Michael W. Deem and Ramdas Pophale) SiO2 
 PCOD8016595
Probable space group: P -1
;
_chemical_formula_sum "Si O2"
_cell_formula_units_Z 16
_cell_length_a 9.023557
_cell_length_b 8.978277
_cell_length_c 16.909706
_cell_angle_alpha 145.396792
_cell_angle_beta 106.500251
_cell_angle_gamma 80.257941
_cell_volume 740.683234
_symmetry_space_group_name_H-M "P -1"
_symmetry_group_IT_number 2
_symmetry_cell_setting 'triclinic'
loop_
_space_group_symop_operation_xyz
x,y,z
-x,-y,-z
loop_
_atom_site_type_symbol
_atom_site_label
_atom_site_fract_x
_atom_site_fract_y
_atom_site_fract_z
Si Si1 0.377287 0.391736 0.870632
Si Si2 0.390240 0.608656 0.317706
Si Si3 0.134458 0.161170 0.378766
Si Si4 0.925262 0.379546 0.313066
Si Si5 0.063678 0.306451 0.144848
Si Si6 0.541467 0.975975 0.621894
Si Si7 0.383980 0.734928 0.866603
Si Si8 0.044765 0.378170 0.870999
O O1 0.441206 0.127997 0.733093
O O2 0.354100 0.610839 0.895664
O O3 0.221261 0.309540 0.861599
O O4 0.500000 0.500000 0.000000
O O5 0.248915 0.372789 0.189650
O O6 0.371670 0.830734 0.346373
O O7 0.547652 0.484479 0.271051
O O8 0.414279 0.750248 0.468062
O O9 0.123284 0.370163 0.538353
O O10 0.023172 0.206212 0.307885
O O11 0.313912 0.157092 0.374976
O O12 0.071156 0.878416 0.280615
O O13 0.773322 0.206759 0.176773
O O14 0.030911 0.461147 0.288303
O O15 0.969706 0.406688 0.102932
O O16 0.000000 0.000000 0.000000
O O17 0.500000 0.000000 0.000000
O O18 0.000000 0.500000 0.000000
#
# Coordination Sequence:
#
# PCOD8016595 Si02
#       8
#     2   2   2   2   2   2   2   2
#     4  11  26  42  68 102 134 178 232 283 340 418
#     4  10  22  39  70  98 130 179 225 284 348 405
#     4  11  24  46  71  98 141 182 229 287 347 413
#     4  11  25  45  69 102 139 181 233 284 346 414
#     4  12  25  43  67 102 138 182 233 284 347 416
#     4  10  21  45  68  98 133 175 231 283 342 412
#     4  11  23  44  68  97 140 181 224 282 348 408
#     4  12  26  44  70  99 139 184 231 287 344 409
#
# _framework density 21.601676000000001
#
# number of rings (size 3 to 8) (size 9 to 14) (size 15 to 20)
#    0.000    1.000    3.750    2.250    5.250    0.500 
#    0.000    0.625    0.000    0.000    0.000    0.000 
#    0.000    0.000    0.000    0.000    0.000    0.000 
#
# Total GULP energy -198340.460652 kJ/mol
# GULP energy per Si atom -12396.278791 kJ/mol
# Density = 2.155251 g / cm^3
# Si number density = 21.601676 Si / 1000 Ang^3
#
#
#
# Elastic Constant Matrix: (Units=GPa)
#
#
# Indices 1 2 3 4 5 6 
#
# 1 146.7577 29.7686 59.1722 -11.0341 -2.3849 -11.3131
# 2 29.7686 82.3739 48.9777 -7.7285 -4.8235 -12.4674
# 3 59.1722 48.9777 133.9560 -8.9842 2.8715 -2.0653
# 4 -11.0341 -7.7285 -8.9842 37.7568 4.3049 4.6914
# 5 -2.3849 -4.8235 2.8715 4.3049 46.6740 -3.0679
# 6 -11.3131 -12.4674 -2.0653 4.6914 -3.0679 36.0384
#
#
#
# Elastic Compliance Matrix: (Units=1/GPa)
#
#
# Indices 1 2 3 4 5 6 
#
# 1 0.008608 -0.000543 -0.003501 0.001225 0.000631 0.002208
# 2 -0.000543 0.016840 -0.005819 0.000967 0.002336 0.005395
# 3 -0.003501 -0.005819 0.011201 0.000991 -0.001741 -0.002748
# 4 0.001225 0.000967 0.000991 0.027967 -0.002681 -0.003093
# 5 0.000631 0.002336 -0.001741 -0.002681 0.022260 0.003151
# 6 0.002208 0.005395 -0.002748 -0.003093 0.003151 0.030821
#
#
# Mechanical properties :
#
#
# Convention : Reuss Voigt Hill
#
# Bulk Modulus (GPa) = 59.09475 70.99162 65.04319
# Shear Modulus (GPa) = 34.94891 39.10512 37.02701
#
# Velocity S-wave (km/s) = 4.02665 4.25936 4.14464
# Velocity P-wave (km/s) = 7.00246 7.55809 7.28558
#
# Compressibility (1/GPa) = 0.01692198
#
# Stress axis : x y z
#
# Youngs Moduli (GPa) = 116.16524 59.38212 89.27842
#
# Poissons Ratio (x) = 0.03224 0.31260
# Poissons Ratio (y) = 0.06308 0.51954
# Poissons Ratio (z) = 0.40674 0.34557
#
# Static dielectric constant tensor:
#      x y z
#    x 5.338340 -0.221300 -0.816110 
#    y -0.221300 3.824950 -0.012200 
#    z -0.816110 -0.012200 4.296050 
# 
# 
# High freq. dielectric constant tensor:
#      x y z
#    x 1.865130 -0.015890 0.000100 
#    y -0.015890 1.835190 -0.004080 
#    z 0.000100 -0.004080 1.860560 
# 
# From -- ./inp_files/495931.got.cif
#   From: 2010.06.25/outbox.cif.g09.slc.cpg/sg2_248_cif.got.tgz:495931.got - 2010.06.27 13:26:56.
