data_PCOD8016487
_publ_section_title
;
Structure prediction by ZEFSAII (Michael W. Deem and Ramdas Pophale) SiO2 
 PCOD8016487
Probable space group: P -1
;
_chemical_formula_sum "Si O2"
_cell_formula_units_Z 16
_cell_length_a 8.461978
_cell_length_b 11.807300
_cell_length_c 9.181234
_cell_angle_alpha 73.619461
_cell_angle_beta 60.536091
_cell_angle_gamma 59.584406
_cell_volume 688.100503
_symmetry_space_group_name_H-M "P -1"
_symmetry_group_IT_number 2
_symmetry_cell_setting 'triclinic'
loop_
_space_group_symop_operation_xyz
x,y,z
-x,-y,-z
loop_
_atom_site_type_symbol
_atom_site_label
_atom_site_fract_x
_atom_site_fract_y
_atom_site_fract_z
Si Si1 0.328622 0.111853 0.789013
Si Si2 0.036325 0.851015 0.545247
Si Si3 0.733960 0.513841 0.737340
Si Si4 0.654003 0.524762 0.104137
Si Si5 0.144056 0.280156 0.537400
Si Si6 0.772075 0.109063 0.047538
Si Si7 0.402114 0.792095 0.224957
Si Si8 0.062857 0.752322 0.887214
O O1 0.294435 0.184188 0.624257
O O2 0.532808 0.101035 0.775939
O O3 0.365808 0.960141 0.808651
O O4 0.139706 0.192512 0.949006
O O5 0.260133 0.763346 0.413064
O O6 0.014409 0.826341 0.731445
O O7 0.881580 0.814924 0.536949
O O8 0.000000 0.000000 0.500000
O O9 0.543472 0.497771 0.768608
O O10 0.749609 0.636205 0.609820
O O11 0.931741 0.377353 0.671225
O O12 0.699672 0.545623 0.910850
O O13 0.610294 0.659304 0.158947
O O14 0.850728 0.403666 0.124948
O O15 0.756898 0.229434 0.112796
O O16 0.719585 0.157985 0.888621
O O17 0.000000 0.000000 0.000000
#
# Coordination Sequence:
#
# PCOD8016487 Si02
#       8
#     2   2   2   2   2   2   2   2
#     4  11  24  44  69 103 139 179 234 281 340 418
#     4  12  26  47  68 101 141 183 233 287 346 409
#     4  10  22  41  72 100 134 183 231 283 335 419
#     4  11  23  43  70 101 143 175 236 282 348 412
#     4  11  23  45  70  99 137 183 230 280 349 396
#     4  10  21  44  72  92 132 185 229 277 340 408
#     4  12  26  44  70 103 139 181 230 288 346 407
#     4  11  24  43  71 101 136 190 230 278 352 406
#
# _framework density 23.252417999999999
#
# number of rings (size 3 to 8) (size 9 to 14) (size 15 to 20)
#    0.000    1.000    2.500    5.625    3.500    3.000 
#    2.250    1.250    0.000    0.000    0.000    0.000 
#    0.000    0.000    0.000    0.000    0.000    0.000 
#
# Total GULP energy -198413.717496 kJ/mol
# GULP energy per Si atom -12400.857344 kJ/mol
# Density = 2.319949 g / cm^3
# Si number density = 23.252418 Si / 1000 Ang^3
#
#
#
# Elastic Constant Matrix: (Units=GPa)
#
#
# Indices 1 2 3 4 5 6 
#
# 1 96.3235 -1.5994 41.6844 -6.0862 20.1481 17.1532
# 2 -1.5994 58.5832 13.0486 -6.9226 8.2886 6.0164
# 3 41.6844 13.0486 108.1195 -15.9407 3.7501 8.0120
# 4 -6.0862 -6.9226 -15.9407 30.6508 1.0516 1.1307
# 5 20.1481 8.2886 3.7501 1.0516 34.1505 -0.8586
# 6 17.1532 6.0164 8.0120 1.1307 -0.8586 34.6813
#
#
#
# Elastic Compliance Matrix: (Units=1/GPa)
#
#
# Indices 1 2 3 4 5 6 
#
# 1 0.016657 0.004260 -0.005691 0.001965 -0.010498 -0.007987
# 2 0.004260 0.019886 -0.002760 0.004346 -0.007302 -0.005242
# 3 -0.005691 -0.002760 0.012334 0.004561 0.002541 0.000358
# 4 0.001965 0.004346 0.004561 0.036655 -0.003946 -0.004072
# 5 -0.010498 -0.007302 0.002541 -0.003946 0.037264 0.006923
# 6 -0.007987 -0.005242 0.000358 -0.004072 0.006923 0.033915
#
#
# Mechanical properties :
#
#
# Convention : Reuss Voigt Hill
#
# Bulk Modulus (GPa) = 24.69387 41.03260 32.86324
# Shear Modulus (GPa) = 27.99700 33.88936 30.94318
#
# Velocity S-wave (km/s) = 3.47370 3.82180 3.65190
# Velocity P-wave (km/s) = 5.17028 6.09589 5.65206
#
# Compressibility (1/GPa) = 0.04049587
#
# Stress axis : x y z
#
# Youngs Moduli (GPa) = 60.03368 50.28734 81.07822
#
# Poissons Ratio (x) = -0.21422 0.46138
# Poissons Ratio (y) = -0.25574 0.22377
# Poissons Ratio (z) = 0.34162 0.13879
#
# Static dielectric constant tensor:
#      x y z
#    x 4.330310 0.429120 -0.031870 
#    y 0.429120 4.621430 0.056830 
#    z -0.031870 0.056830 4.320700 
# 
# 
# High freq. dielectric constant tensor:
#      x y z
#    x 1.914830 0.010770 -0.005730 
#    y 0.010770 1.931880 -0.003840 
#    z -0.005730 -0.003840 1.922850 
# 
# From -- ./inp_files/185696.got.cif
#   From: 2010.06.25/outbox.cif.g09.slc.cpg/sg2_93_cif.got.tgz:185696.got - 2010.06.27 13:26:56.
