data_PCOD8016763
_publ_section_title
;
Structure prediction by ZEFSAII (Michael W. Deem and Ramdas Pophale) SiO2 
 PCOD8016763
Probable space group: P -1
;
_chemical_formula_sum "Si O2"
_cell_formula_units_Z 14
_cell_length_a 15.113033
_cell_length_b 12.100975
_cell_length_c 10.432675
_cell_angle_alpha 94.757475
_cell_angle_beta 139.981175
_cell_angle_gamma 53.685615
_cell_volume 690.913141
_symmetry_space_group_name_H-M "P -1"
_symmetry_group_IT_number 2
_symmetry_cell_setting 'triclinic'
loop_
_space_group_symop_operation_xyz
x,y,z
-x,-y,-z
loop_
_atom_site_type_symbol
_atom_site_label
_atom_site_fract_x
_atom_site_fract_y
_atom_site_fract_z
Si Si1 0.151271 0.731716 0.212040
Si Si2 0.826282 0.713425 0.294013
Si Si3 0.998592 0.353459 0.788953
Si Si4 0.988201 0.953080 0.805450
Si Si5 0.491945 0.318571 0.610966
Si Si6 0.683810 0.988742 0.346901
Si Si7 0.459360 0.132889 0.382574
O O1 0.969085 0.783750 0.109416
O O2 0.403207 0.492614 0.460398
O O3 0.027153 0.831807 0.945562
O O4 0.189214 0.830157 0.321239
O O5 0.834736 0.788825 0.432219
O O6 0.000000 0.500000 0.500000
O O7 0.923831 0.716171 0.278808
O O8 0.561087 0.834464 0.991026
O O9 0.716057 0.582333 0.508785
O O10 0.173907 0.329472 0.044640
O O11 0.855256 0.984974 0.538781
O O12 0.252716 0.827347 0.048602
O O13 0.535037 0.196913 0.539589
O O14 0.621203 0.004082 0.425048
O O15 0.500000 0.000000 0.500000
#
# Coordination Sequence:
#
# PCOD8016763 Si02
#       7
#     2   2   2   2   2   2   2
#     4   9  21  35  58  90 126 153 186 234 292 359
#     4  10  23  45  62  79 111 157 202 248 286 335
#     4   9  21  38  57  88 118 150 202 235 286 342
#     4  11  19  38  58  89 123 156 186 231 305 353
#     4  10  22  34  57  91 126 153 184 237 290 358
#     4  10  24  38  61  86 111 151 201 240 287 350
#     4  11  20  35  61  92 120 151 188 243 303 344
#
# _framework density 20.263038999999999
#
# number of rings (size 3 to 8) (size 9 to 14) (size 15 to 20)
#    0.857    1.143    0.000    4.286    2.000    3.429 
#    2.571    1.429    0.000    0.000    0.000    0.000 
#    0.000    0.000    0.000    0.000    0.000    0.000 
#
# Total GULP energy -173470.044469 kJ/mol
# GULP energy per Si atom -12390.717462 kJ/mol
# Density = 2.021692 g / cm^3
# Si number density = 20.263039 Si / 1000 Ang^3
#
#
#
# Elastic Constant Matrix: (Units=GPa)
#
#
# Indices 1 2 3 4 5 6 
#
# 1 63.1490 27.3295 31.2109 5.6615 19.1463 -11.1954
# 2 27.3295 147.1692 68.3138 9.4553 -0.0983 -7.5170
# 3 31.2109 68.3138 111.1822 28.0820 16.0842 -5.5058
# 4 5.6615 9.4553 28.0820 36.2866 6.2412 -3.4474
# 5 19.1463 -0.0983 16.0842 6.2412 16.2164 -0.5908
# 6 -11.1954 -7.5170 -5.5058 -3.4474 -0.5908 31.4460
#
#
#
# Elastic Compliance Matrix: (Units=1/GPa)
#
#
# Indices 1 2 3 4 5 6 
#
# 1 0.031080 -0.005253 -0.000741 0.004416 -0.037347 0.009462
# 2 -0.005253 0.011300 -0.007820 0.001611 0.013402 -0.000110
# 3 -0.000741 -0.007820 0.018452 -0.009790 -0.013715 -0.000233
# 4 0.004416 0.001611 -0.009790 0.035990 -0.009198 0.004016
# 5 -0.037347 0.013402 -0.013715 -0.009198 0.122577 -0.011199
# 6 0.009462 -0.000110 -0.000233 0.004016 -0.011199 0.035332
#
#
# Mechanical properties :
#
#
# Convention : Reuss Voigt Hill
#
# Bulk Modulus (GPa) = 30.11598 63.91210 47.01404
# Shear Modulus (GPa) = 17.03999 29.76622 23.40310
#
# Velocity S-wave (km/s) = 2.90304 3.83690 3.40216
# Velocity P-wave (km/s) = 5.11191 7.15813 6.21974
#
# Compressibility (1/GPa) = 0.03320496
#
# Stress axis : x y z
#
# Youngs Moduli (GPa) = 32.17476 88.49545 54.19406
#
# Poissons Ratio (x) = 0.46486 0.04016
# Poissons Ratio (y) = 0.16901 0.42378
# Poissons Ratio (z) = 0.02384 0.69201
#
# Static dielectric constant tensor:
#      x y z
#    x 3.796150 -0.122540 0.044390 
#    y -0.122540 3.629130 0.080000 
#    z 0.044390 0.080000 4.070060 
# 
# 
# High freq. dielectric constant tensor:
#      x y z
#    x 1.773620 -0.001840 0.025720 
#    y -0.001840 1.787550 -0.005220 
#    z 0.025720 -0.005220 1.794460 
# 
# From -- ./inp_files/464702.got.cif
#   From: 2010.06.25/outbox.cif.g09.slc.cpg/sg2_233_cif.got.tgz:464702.got - 2010.06.27 13:26:56.
