data_PCOD8016819
_publ_section_title
;
Structure prediction by ZEFSAII (Michael W. Deem and Ramdas Pophale) SiO2 
 PCOD8016819
Probable space group: P -1
;
_chemical_formula_sum "Si O2"
_cell_formula_units_Z 14
_cell_length_a 8.274355
_cell_length_b 15.117804
_cell_length_c 14.870477
_cell_angle_alpha 29.334466
_cell_angle_beta 144.022040
_cell_angle_gamma 146.159156
_cell_volume 482.136460
_symmetry_space_group_name_H-M "P -1"
_symmetry_group_IT_number 2
_symmetry_cell_setting 'triclinic'
loop_
_space_group_symop_operation_xyz
x,y,z
-x,-y,-z
loop_
_atom_site_type_symbol
_atom_site_label
_atom_site_fract_x
_atom_site_fract_y
_atom_site_fract_z
Si Si1 0.917503 0.600221 0.293291
Si Si2 0.600660 0.321797 0.709676
Si Si3 0.984183 0.051916 0.840631
Si Si4 0.722444 0.224280 0.214702
Si Si5 0.667314 0.588186 0.905055
Si Si6 0.155135 0.957424 0.402957
Si Si7 0.622652 0.091431 0.091570
O O1 0.108436 0.614525 0.278482
O O2 0.954722 0.812536 0.162800
O O3 0.000000 0.500000 0.500000
O O4 0.571294 0.449427 0.249276
O O5 0.500000 0.500000 0.500000
O O6 0.707974 0.277229 0.895166
O O7 0.321472 0.106140 0.739454
O O8 0.252371 0.978454 0.030854
O O9 0.645122 0.867550 0.849393
O O10 0.023744 0.164540 0.660846
O O11 0.915365 0.160093 0.429709
O O12 0.858464 0.464429 0.073411
O O13 0.783989 0.168378 0.191863
O O14 0.883030 0.829530 0.793004
O O15 0.500000 0.500000 0.000000
O O16 0.500000 0.000000 0.500000
#
# Coordination Sequence:
#
# PCOD8016819 Si02
#       7
#     2   2   2   2   2   2   2
#     4  12  24  40  72 103 131 169 228 277 327 391
#     4  11  26  42  61 100 139 173 220 276 328 390
#     4  11  20  40  68 101 126 171 221 277 325 385
#     4  11  21  38  64  96 132 166 217 270 332 388
#     4  12  23  37  63 104 132 167 212 280 338 384
#     4  10  22  36  57 101 141 159 204 277 339 382
#     4  11  23  43  69  94 132 178 221 271 331 390
#
# _framework density 29.037421999999999
#
# number of rings (size 3 to 8) (size 9 to 14) (size 15 to 20)
#    0.000    0.857    5.714    3.857    0.000    0.000 
#    0.000    0.000    0.000    6.000    7.429    0.000 
#    0.000    0.000    0.000    0.000    0.000    0.000 
#
# Total GULP energy -173544.186770 kJ/mol
# GULP energy per Si atom -12396.013341 kJ/mol
# Density = 2.897133 g / cm^3
# Si number density = 29.037422 Si / 1000 Ang^3
#
#
#
# Elastic Constant Matrix: (Units=GPa)
#
#
# Indices 1 2 3 4 5 6 
#
# 1 153.4522 43.4615 70.6824 3.8420 -15.3632 -34.0122
# 2 43.4615 169.5079 64.5961 1.5412 -8.5363 -10.7224
# 3 70.6824 64.5961 226.3632 3.3635 -12.5196 -23.2590
# 4 3.8420 1.5412 3.3635 62.7991 -20.6363 -14.2807
# 5 -15.3632 -8.5363 -12.5196 -20.6363 60.1120 7.6456
# 6 -34.0122 -10.7224 -23.2590 -14.2807 7.6456 54.4891
#
#
#
# Elastic Compliance Matrix: (Units=1/GPa)
#
#
# Indices 1 2 3 4 5 6 
#
# 1 0.008862 -0.001197 -0.001889 0.001123 0.001505 0.004573
# 2 -0.001197 0.006813 -0.001561 0.000091 0.000381 -0.000103
# 3 -0.001889 -0.001561 0.005563 0.000190 0.000407 0.000881
# 4 0.001123 0.000091 0.000190 0.019009 0.006241 0.004906
# 5 0.001505 0.000381 0.000407 0.006241 0.019287 0.000118
# 6 0.004573 -0.000103 0.000881 0.004906 0.000118 0.022832
#
#
# Mechanical properties :
#
#
# Convention : Reuss Voigt Hill
#
# Bulk Modulus (GPa) = 83.72977 100.75593 92.24285
# Shear Modulus (GPa) = 52.27753 60.18559 56.23156
#
# Velocity S-wave (km/s) = 4.24766 4.55762 4.40537
# Velocity P-wave (km/s) = 7.27698 7.90379 7.59685
#
# Compressibility (1/GPa) = 0.01194318
#
# Stress axis : x y z
#
# Youngs Moduli (GPa) = 112.83972 146.77273 179.75002
#
# Poissons Ratio (x) = 0.17576 0.33956
# Poissons Ratio (y) = 0.13512 0.28062
# Poissons Ratio (z) = 0.21316 0.22914
#
# Static dielectric constant tensor:
#      x y z
#    x 5.927600 0.178250 0.119140 
#    y 0.178250 5.207870 0.606940 
#    z 0.119140 0.606940 5.673540 
# 
# 
# High freq. dielectric constant tensor:
#      x y z
#    x 2.215160 0.004690 0.000660 
#    y 0.004690 2.200710 0.016580 
#    z 0.000660 0.016580 2.204060 
# 
# From -- ./inp_files/505181.got.cif
#   From: 2010.06.25/outbox.cif.g09.slc.cpg/sg2_253_cif.got.tgz:505181.got - 2010.06.27 13:26:56.
