data_PCOD8016452
_publ_section_title
;
Structure prediction by ZEFSAII (Michael W. Deem and Ramdas Pophale) SiO2 
 PCOD8016452
Probable space group: P -1
;
_chemical_formula_sum "Si O2"
_cell_formula_units_Z 14
_cell_length_a 11.461036
_cell_length_b 9.590035
_cell_length_c 14.675262
_cell_angle_alpha 61.622833
_cell_angle_beta 150.769213
_cell_angle_gamma 130.907802
_cell_volume 574.718665
_symmetry_space_group_name_H-M "P -1"
_symmetry_group_IT_number 2
_symmetry_cell_setting 'triclinic'
loop_
_space_group_symop_operation_xyz
x,y,z
-x,-y,-z
loop_
_atom_site_type_symbol
_atom_site_label
_atom_site_fract_x
_atom_site_fract_y
_atom_site_fract_z
Si Si1 0.749288 0.882532 0.200526
Si Si2 0.725814 0.864892 0.637491
Si Si3 0.982418 0.671696 0.966905
Si Si4 0.841756 0.225421 0.668613
Si Si5 0.259967 0.712683 0.618676
Si Si6 0.622592 0.555241 0.935269
Si Si7 0.439160 0.982166 0.812432
O O1 0.652755 0.662112 0.196314
O O2 0.710287 0.928322 0.263338
O O3 0.541679 0.896145 0.985036
O O4 0.085041 0.030403 0.357488
O O5 0.380037 0.762667 0.418821
O O6 0.772940 0.701180 0.751810
O O7 0.830284 0.029738 0.735677
O O8 0.863235 0.621749 0.002119
O O9 0.000000 0.500000 0.000000
O O10 0.299699 0.862871 0.120563
O O11 0.714781 0.193327 0.490089
O O12 0.176530 0.407210 0.849982
O O13 0.537804 0.707474 0.830771
O O14 0.216123 0.819517 0.639672
O O15 0.000000 0.500000 0.500000
#
# Coordination Sequence:
#
# PCOD8016452 Si02
#       7
#     2   2   2   2   2   2   2
#     4  10  21  44  71 103 139 190 236 287 362 419
#     4  10  23  44  69 103 147 183 241 294 351 432
#     4  11  22  43  73 107 142 190 241 293 359 425
#     4  11  25  44  72 108 141 187 241 293 360 424
#     4  12  26  46  74 111 143 185 245 297 354 425
#     4  12  24  44  76 103 145 188 238 299 354 421
#     4  10  23  41  73 101 142 188 234 295 355 423
#
# _framework density 24.359743999999999
#
# number of rings (size 3 to 8) (size 9 to 14) (size 15 to 20)
#    0.000    1.143    2.857    3.429    4.000    2.857 
#    0.000    5.000    0.000    0.000    0.000    0.000 
#    0.000    0.000    0.000    0.000    0.000    0.000 
#
# Total GULP energy -173528.693608 kJ/mol
# GULP energy per Si atom -12394.906686 kJ/mol
# Density = 2.430430 g / cm^3
# Si number density = 24.359744 Si / 1000 Ang^3
#
#
#
# Elastic Constant Matrix: (Units=GPa)
#
#
# Indices 1 2 3 4 5 6 
#
# 1 108.1908 20.5182 31.6260 -8.9257 -10.7511 -21.0508
# 2 20.5182 115.9143 35.8506 -10.8720 -8.3796 -22.1574
# 3 31.6260 35.8506 102.9306 4.2068 1.8634 -16.0095
# 4 -8.9257 -10.8720 4.2068 39.4341 -9.6771 3.4311
# 5 -10.7511 -8.3796 1.8634 -9.6771 32.1821 -5.4653
# 6 -21.0508 -22.1574 -16.0095 3.4311 -5.4653 39.3648
#
#
#
# Elastic Compliance Matrix: (Units=1/GPa)
#
#
# Indices 1 2 3 4 5 6 
#
# 1 0.012399 0.001060 -0.003506 0.004662 0.007107 0.006382
# 2 0.001060 0.011640 -0.003751 0.004816 0.006072 0.006017
# 3 -0.003506 -0.003751 0.012484 -0.004216 -0.003985 0.000906
# 4 0.004662 0.004816 -0.004216 0.031122 0.012848 0.002560
# 5 0.007107 0.006072 -0.003985 0.012848 0.040846 0.010149
# 6 0.006382 0.006017 0.000906 0.002560 0.010149 0.033757
#
#
# Mechanical properties :
#
#
# Convention : Reuss Voigt Hill
#
# Bulk Modulus (GPa) = 41.44015 55.89170 48.66592
# Shear Modulus (GPa) = 30.73424 38.13225 34.43325
#
# Velocity S-wave (km/s) = 3.55587 3.96078 3.76377
# Velocity P-wave (km/s) = 5.82302 6.62655 6.23774
#
# Compressibility (1/GPa) = 0.02413119
#
# Stress axis : x y z
#
# Youngs Moduli (GPa) = 80.65082 85.90816 80.10149
#
# Poissons Ratio (x) = -0.09109 0.28080
# Poissons Ratio (y) = -0.08552 0.30046
# Poissons Ratio (z) = 0.28273 0.32225
#
# Static dielectric constant tensor:
#      x y z
#    x 4.661300 0.199900 -0.053490 
#    y 0.199900 4.359480 -0.303920 
#    z -0.053490 -0.303920 4.661120 
# 
# 
# High freq. dielectric constant tensor:
#      x y z
#    x 1.977520 0.003000 0.020550 
#    y 0.003000 1.965690 -0.013520 
#    z 0.020550 -0.013520 1.959700 
# 
# From -- ./inp_files/515258.got.cif
#   From: 2010.06.25/outbox.cif.g09.slc.cpg/sg2_258_cif.got.tgz:515258.got - 2010.06.27 13:26:56.
