data_PCOD8016428
_publ_section_title
;
Structure prediction by ZEFSAII (Michael W. Deem and Ramdas Pophale) SiO2 
 PCOD8016428
Probable space group: P -1
;
_chemical_formula_sum "Si O2"
_cell_formula_units_Z 14
_cell_length_a 9.215696
_cell_length_b 10.288307
_cell_length_c 13.685039
_cell_angle_alpha 148.668122
_cell_angle_beta 70.276644
_cell_angle_gamma 105.974850
_cell_volume 634.900577
_symmetry_space_group_name_H-M "P -1"
_symmetry_group_IT_number 2
_symmetry_cell_setting 'triclinic'
loop_
_space_group_symop_operation_xyz
x,y,z
-x,-y,-z
loop_
_atom_site_type_symbol
_atom_site_label
_atom_site_fract_x
_atom_site_fract_y
_atom_site_fract_z
Si Si1 0.348114 0.684665 0.387210
Si Si2 0.676066 0.552053 0.146923
Si Si3 0.937773 0.128595 0.195027
Si Si4 0.821111 0.979931 0.506176
Si Si5 0.792689 0.621152 0.606060
Si Si6 0.650060 0.025133 0.774619
Si Si7 0.658995 0.876731 0.187056
O O1 0.504444 0.563746 0.235441
O O2 0.235729 0.771595 0.380120
O O3 0.262574 0.486412 0.347156
O O4 0.395034 0.925577 0.591734
O O5 0.669667 0.612190 0.070430
O O6 0.794565 0.729341 0.288449
O O7 0.734904 0.263095 0.955809
O O8 0.845925 0.397044 0.375635
O O9 0.071445 0.186508 0.279693
O O10 0.825399 0.928612 0.138326
O O11 0.000000 0.000000 0.000000
O O12 0.728044 0.949502 0.606976
O O13 0.000000 0.000000 0.500000
O O14 0.658262 0.784055 0.688613
O O15 0.470567 0.109960 0.858584
#
# Coordination Sequence:
#
# PCOD8016428 Si02
#       7
#     2   2   2   2   2   2   2
#     4  10  21  46  70  92 135 179 221 271 335 399
#     4  11  23  44  69  98 133 174 227 271 332 404
#     4  10  24  45  68  92 133 184 220 263 342 396
#     4  11  25  43  69  98 131 176 225 281 332 383
#     4  10  26  44  64 100 139 169 221 281 327 396
#     4  12  25  42  65 104 134 171 227 275 330 393
#     4  10  21  44  70  96 132 177 225 275 323 397
#
# _framework density 22.050698000000001
#
# number of rings (size 3 to 8) (size 9 to 14) (size 15 to 20)
#    0.000    1.429    2.857    1.286   10.000    4.571 
#    0.000    0.000    0.000    0.000    0.000    0.000 
#    0.000    0.000    0.000    0.000    0.000    0.000 
#
# Total GULP energy -173582.812108 kJ/mol
# GULP energy per Si atom -12398.772293 kJ/mol
# Density = 2.200051 g / cm^3
# Si number density = 22.050698 Si / 1000 Ang^3
#
#
#
# Elastic Constant Matrix: (Units=GPa)
#
#
# Indices 1 2 3 4 5 6 
#
# 1 102.6077 37.0142 17.3669 3.9360 10.2157 4.6444
# 2 37.0142 129.0424 34.3986 6.4467 -8.6073 -2.8142
# 3 17.3669 34.3986 104.2388 -0.2787 2.0007 -2.0797
# 4 3.9360 6.4467 -0.2787 28.2055 0.3814 -6.5759
# 5 10.2157 -8.6073 2.0007 0.3814 21.3507 -0.7430
# 6 4.6444 -2.8142 -2.0797 -6.5759 -0.7430 35.6019
#
#
#
# Elastic Compliance Matrix: (Units=1/GPa)
#
#
# Indices 1 2 3 4 5 6 
#
# 1 0.012098 -0.003761 -0.000684 -0.001274 -0.007298 -0.002303
# 2 -0.003761 0.010095 -0.002809 -0.001674 0.006195 0.000945
# 3 -0.000684 -0.002809 0.010684 0.001017 -0.001802 0.000641
# 4 -0.001274 -0.001674 0.001017 0.037674 -0.000589 0.007040
# 5 -0.007298 0.006195 -0.001802 -0.000589 0.053087 0.002336
# 6 -0.002303 0.000945 0.000641 0.007040 0.002336 0.029850
#
#
# Mechanical properties :
#
#
# Convention : Reuss Voigt Hill
#
# Bulk Modulus (GPa) = 54.43985 57.04980 55.74483
# Shear Modulus (GPa) = 28.71599 33.50555 31.11077
#
# Velocity S-wave (km/s) = 3.61261 3.90228 3.76024
# Velocity P-wave (km/s) = 6.49179 6.79941 6.64738
#
# Compressibility (1/GPa) = 0.01836890
#
# Stress axis : x y z
#
# Youngs Moduli (GPa) = 82.65714 99.06337 93.59482
#
# Poissons Ratio (x) = 0.37262 0.06399
# Poissons Ratio (y) = 0.31091 0.26291
# Poissons Ratio (z) = 0.05651 0.27827
#
# Static dielectric constant tensor:
#      x y z
#    x 4.045370 0.125280 -0.049990 
#    y 0.125280 4.072860 -0.110350 
#    z -0.049990 -0.110350 4.300770 
# 
# 
# High freq. dielectric constant tensor:
#      x y z
#    x 1.861040 0.010300 0.004680 
#    y 0.010300 1.865770 0.003360 
#    z 0.004680 0.003360 1.875260 
# 
# From -- ./inp_files/383670.got.cif
#   From: 2010.06.25/outbox.cif.g09.slc.cpg/sg2_192_cif.got.tgz:383670.got - 2010.06.27 13:26:56.
