data_PCOD8016992
_publ_section_title
;
Structure prediction by ZEFSAII (Michael W. Deem and Ramdas Pophale) SiO2 
 PCOD8016992
Probable space group: P -1
;
_chemical_formula_sum "Si O2"
_cell_formula_units_Z 14
_cell_length_a 5.784632
_cell_length_b 5.299026
_cell_length_c 21.896204
_cell_angle_alpha 76.170479
_cell_angle_beta 116.353488
_cell_angle_gamma 81.173902
_cell_volume 557.406513
_symmetry_space_group_name_H-M "P -1"
_symmetry_group_IT_number 2
_symmetry_cell_setting 'triclinic'
loop_
_space_group_symop_operation_xyz
x,y,z
-x,-y,-z
loop_
_atom_site_type_symbol
_atom_site_label
_atom_site_fract_x
_atom_site_fract_y
_atom_site_fract_z
Si Si1 0.749726 0.368071 0.579690
Si Si2 0.609868 0.384717 0.695048
Si Si3 0.928766 0.217451 0.366953
Si Si4 0.778191 0.958419 0.828770
Si Si5 0.266591 0.871978 0.961550
Si Si6 0.562591 0.542075 0.903567
Si Si7 0.074095 0.593823 0.775214
O O1 0.500000 0.500000 0.500000
O O2 0.639796 0.274838 0.635552
O O3 0.905570 0.590644 0.596777
O O4 0.939596 0.100819 0.582246
O O5 0.903424 0.391427 0.751316
O O6 0.378370 0.675573 0.650176
O O7 0.541069 0.192823 0.751677
O O8 0.915675 0.223587 0.292427
O O9 0.666004 0.764453 0.868836
O O10 0.943901 0.798435 0.801206
O O11 0.977514 0.071043 0.890763
O O12 0.369114 0.666066 0.930092
O O13 0.205568 0.710703 0.024314
O O14 0.500000 0.000000 0.000000
O O15 0.381252 0.425867 0.841235
#
# Coordination Sequence:
#
# PCOD8016992 Si02
#       7
#     2   2   2   2   2   2   2
#     4  11  26  48  72 108 149 187 236 295 353 430
#     4  11  25  41  71 103 140 186 238 287 362 421
#     4  11  25  43  76 103 147 187 239 292 358 425
#     4  11  22  39  65  93 135 178 238 293 354 422
#     4  10  22  39  58  89 136 177 232 290 353 418
#     4  10  22  37  63  92 127 181 232 291 351 416
#     4  10  22  41  62  96 138 174 237 292 350 416
#
# _framework density 25.116322
#
# number of rings (size 3 to 8) (size 9 to 14) (size 15 to 20)
#    0.000    1.429    1.429    2.571    4.000    5.143 
#    0.000    0.000    0.000    0.000    0.000    0.000 
#    0.000    0.000    0.000    0.000    0.000    0.000 
#
# Total GULP energy -173451.722798 kJ/mol
# GULP energy per Si atom -12389.408771 kJ/mol
# Density = 2.505916 g / cm^3
# Si number density = 25.116322 Si / 1000 Ang^3
#
#
#
# Elastic Constant Matrix: (Units=GPa)
#
#
# Indices 1 2 3 4 5 6 
#
# 1 73.0763 12.5501 47.9709 2.0477 10.1365 12.7101
# 2 12.5501 96.1976 54.6122 -9.3583 6.4436 2.8575
# 3 47.9709 54.6122 185.7184 -7.1333 27.6725 10.3099
# 4 2.0477 -9.3583 -7.1333 40.2998 -6.7136 8.8660
# 5 10.1365 6.4436 27.6725 -6.7136 25.1612 -5.8315
# 6 12.7101 2.8575 10.3099 8.8660 -5.8315 29.4301
#
#
#
# Elastic Compliance Matrix: (Units=1/GPa)
#
#
# Indices 1 2 3 4 5 6 
#
# 1 0.018018 0.000151 -0.003522 -0.000768 -0.005342 -0.007390
# 2 0.000151 0.012750 -0.003898 0.002615 0.001562 -0.000416
# 3 -0.003522 -0.003898 0.008765 0.000129 -0.007828 -0.002761
# 4 -0.000768 0.002615 0.000129 0.027977 0.005259 -0.007353
# 5 -0.005342 0.001562 -0.007828 0.005259 0.054793 0.014171
# 6 -0.007390 -0.000416 -0.002761 -0.007353 0.014171 0.043201
#
#
# Mechanical properties :
#
#
# Convention : Reuss Voigt Hill
#
# Bulk Modulus (GPa) = 40.00469 65.02873 52.51671
# Shear Modulus (GPa) = 26.54313 34.96885 30.75599
#
# Velocity S-wave (km/s) = 3.25439 3.73537 3.50314
# Velocity P-wave (km/s) = 5.48486 6.67467 6.10880
#
# Compressibility (1/GPa) = 0.02499707
#
# Stress axis : x y z
#
# Youngs Moduli (GPa) = 55.50009 78.42909 114.09030
#
# Poissons Ratio (x) = -0.01187 0.40182
# Poissons Ratio (y) = -0.00840 0.44468
# Poissons Ratio (z) = 0.19547 0.30568
#
# Static dielectric constant tensor:
#      x y z
#    x 4.481750 -0.061380 0.111690 
#    y -0.061380 4.321320 -0.081800 
#    z 0.111690 -0.081800 5.387690 
# 
# 
# High freq. dielectric constant tensor:
#      x y z
#    x 1.989880 -0.007500 0.000680 
#    y -0.007500 1.984570 0.004380 
#    z 0.000680 0.004380 2.028770 
# 
# From -- ./inp_files/7546.got.cif
#   From: 2010.06.25/outbox.cif.g09.slc.cpg/sg2_4_cif.got.tgz:7546.got - 2010.06.27 13:26:56.
