data_PCOD8016216
_publ_section_title
;
Structure prediction by ZEFSAII (Michael W. Deem and Ramdas Pophale) SiO2 
 PCOD8016216
Probable space group: P -1
;
_chemical_formula_sum "Si O2"
_cell_formula_units_Z 16
_cell_length_a 11.475327
_cell_length_b 14.754982
_cell_length_c 9.525104
_cell_angle_alpha 127.077864
_cell_angle_beta 59.483023
_cell_angle_gamma 151.701192
_cell_volume 608.850907
_symmetry_space_group_name_H-M "P -1"
_symmetry_group_IT_number 2
_symmetry_cell_setting 'triclinic'
loop_
_space_group_symop_operation_xyz
x,y,z
-x,-y,-z
loop_
_atom_site_type_symbol
_atom_site_label
_atom_site_fract_x
_atom_site_fract_y
_atom_site_fract_z
Si Si1 0.664965 0.723368 0.562151
Si Si2 0.479494 0.601063 0.267073
Si Si3 0.216523 0.793717 0.525642
Si Si4 0.257863 0.814588 0.060921
Si Si5 0.412763 0.676029 0.892024
Si Si6 0.035382 0.421452 0.246103
Si Si7 0.273911 0.220871 0.995514
Si Si8 0.987574 0.220170 0.605055
O O1 0.500000 0.500000 0.500000
O O2 0.582411 0.719834 0.461328
O O3 0.641577 0.812002 0.769636
O O4 0.943124 0.865505 0.510820
O O5 0.291970 0.556789 0.272639
O O6 0.348490 0.390167 0.183187
O O7 0.704819 0.748047 0.156112
O O8 0.064487 0.576912 0.366251
O O9 0.073093 0.795195 0.535084
O O10 0.182382 0.775986 0.699184
O O11 0.500000 0.000000 0.500000
O O12 0.284445 0.708103 0.011417
O O13 0.026535 0.662878 0.952574
O O14 0.242832 0.902318 0.270967
O O15 0.500000 0.000000 0.000000
O O16 0.528775 0.734537 0.029376
O O17 0.205561 0.445561 0.750618
O O18 0.000000 0.000000 0.000000
#
# Coordination Sequence:
#
# PCOD8016216 Si02
#       8
#     2   2   2   2   2   2   2   2
#     4  10  21  43  75  96 130 182 231 282 350 416
#     4  11  24  44  70  97 140 184 230 291 358 412
#     4  11  25  44  69 100 138 182 232 289 353 418
#     4  12  27  43  69 102 140 184 236 289 347 419
#     4  11  23  46  71  98 138 182 233 285 352 418
#     4  11  25  43  69  99 140 182 229 292 350 418
#     4  11  26  43  68 102 138 183 236 291 348 423
#     4  11  22  45  71  95 134 181 228 282 350 411
#
# _framework density 26.279014
#
# number of rings (size 3 to 8) (size 9 to 14) (size 15 to 20)
#    0.000    1.000    3.750    3.375    7.000    1.000 
#    0.000    1.250    0.000    0.000    0.000    0.000 
#    0.000    0.000    0.000    0.000    0.000    0.000 
#
# Total GULP energy -198322.786922 kJ/mol
# GULP energy per Si atom -12395.174183 kJ/mol
# Density = 2.621920 g / cm^3
# Si number density = 26.279014 Si / 1000 Ang^3
#
#
#
# Elastic Constant Matrix: (Units=GPa)
#
#
# Indices 1 2 3 4 5 6 
#
# 1 156.2199 11.4283 30.3623 -7.8272 15.8824 14.2036
# 2 11.4283 98.0109 2.0146 -17.3784 4.0553 6.7031
# 3 30.3623 2.0146 96.3297 -25.7554 5.3665 -8.2051
# 4 -7.8272 -17.3784 -25.7554 25.0771 12.4348 -0.1747
# 5 15.8824 4.0553 5.3665 12.4348 51.8102 -8.5014
# 6 14.2036 6.7031 -8.2051 -0.1747 -8.5014 25.0457
#
#
#
# Elastic Compliance Matrix: (Units=1/GPa)
#
#
# Indices 1 2 3 4 5 6 
#
# 1 0.007917 0.000066 -0.002331 0.001923 -0.003722 -0.006521
# 2 0.000066 0.013656 0.004184 0.016866 -0.006282 -0.004336
# 3 -0.002331 0.004184 0.018216 0.024201 -0.006638 0.004086
# 4 0.001923 0.016866 0.024201 0.090440 -0.027150 -0.006261
# 5 -0.003722 -0.006282 -0.006638 -0.027150 0.030046 0.011627
# 6 -0.006521 -0.004336 0.004086 -0.006261 0.011627 0.050027
#
#
# Mechanical properties :
#
#
# Convention : Reuss Voigt Hill
#
# Bulk Modulus (GPa) = 22.92130 48.68566 35.80348
# Shear Modulus (GPa) = 22.62368 40.83695 31.73032
#
# Velocity S-wave (km/s) = 2.93730 3.94633 3.47859
# Velocity P-wave (km/s) = 4.49943 6.27147 5.45785
#
# Compressibility (1/GPa) = 0.04362754
#
# Stress axis : x y z
#
# Youngs Moduli (GPa) = 126.30885 73.22658 54.89541
#
# Poissons Ratio (x) = -0.00482 0.12794
# Poissons Ratio (y) = -0.00831 -0.22966
# Poissons Ratio (z) = 0.29437 -0.30635
#
# Static dielectric constant tensor:
#      x y z
#    x 2.177680 0.054280 1.044200 
#    y 0.054280 4.698930 -0.500920 
#    z 1.044200 -0.500920 5.326250 
# 
# 
# High freq. dielectric constant tensor:
#      x y z
#    x 2.063920 0.009540 0.008670 
#    y 0.009540 2.042570 -0.025670 
#    z 0.008670 -0.025670 2.055710 
# 
# From -- ./inp_files/273680.got.cif
#   From: 2010.06.25/outbox.cif.g09.slc.cpg/sg2_137_cif.got.tgz:273680.got - 2010.06.27 13:26:56.
