data_PCOD8016072
_publ_section_title
;
Structure prediction by ZEFSAII (Michael W. Deem and Ramdas Pophale) SiO2 
 PCOD8016072
Probable space group: P -1
;
_chemical_formula_sum "Si O2"
_cell_formula_units_Z 16
_cell_length_a 11.489898
_cell_length_b 15.884797
_cell_length_c 8.346168
_cell_angle_alpha 119.213649
_cell_angle_beta 72.460090
_cell_angle_gamma 57.198541
_cell_volume 711.447605
_symmetry_space_group_name_H-M "P -1"
_symmetry_group_IT_number 2
_symmetry_cell_setting 'triclinic'
loop_
_space_group_symop_operation_xyz
x,y,z
-x,-y,-z
loop_
_atom_site_type_symbol
_atom_site_label
_atom_site_fract_x
_atom_site_fract_y
_atom_site_fract_z
Si Si1 0.514716 0.272201 0.335304
Si Si2 0.918740 0.351625 0.257295
Si Si3 0.202585 0.811566 0.318397
Si Si4 0.418060 0.335593 0.804682
Si Si5 0.592941 0.029749 0.900853
Si Si6 0.647575 0.825816 0.187374
Si Si7 0.713400 0.314552 0.165193
Si Si8 0.924360 0.293798 0.570642
O O1 0.300641 0.444144 0.486079
O O2 0.475352 0.310234 0.573231
O O3 0.724404 0.199931 0.129257
O O4 0.577637 0.123706 0.125337
O O5 0.915349 0.251142 0.070306
O O6 0.943909 0.312254 0.396353
O O7 0.116559 0.284291 0.044866
O O8 0.367251 0.784312 0.290321
O O9 0.147218 0.771558 0.444613
O O10 0.311556 0.676307 0.007278
O O11 0.000000 0.000000 0.500000
O O12 0.329542 0.285291 0.819399
O O13 0.233599 0.532628 0.106868
O O14 0.840477 0.849247 0.577850
O O15 0.455986 0.142182 0.905157
O O16 0.500000 0.000000 0.000000
O O17 0.500000 0.000000 0.500000
O O18 0.500000 0.500000 0.500000
#
# Coordination Sequence:
#
# PCOD8016072 Si02
#       8
#     2   2   2   2   2   2   2   2
#     4  11  25  47  72 105 141 186 239 294 355 423
#     4  11  25  44  74 101 143 192 232 295 356 424
#     4  12  26  46  75 109 142 184 234 300 355 424
#     4  12  27  46  74 107 144 188 240 293 354 426
#     4  12  26  47  70 102 144 185 239 292 356 421
#     4  12  28  47  70 104 147 187 244 291 356 423
#     4  10  21  43  69  99 136 176 228 284 348 413
#     4  12  25  45  75 107 141 190 236 294 358 422
#
# _framework density 22.489357999999999
#
# number of rings (size 3 to 8) (size 9 to 14) (size 15 to 20)
#    0.000    0.500    1.250    7.875    7.000    1.500 
#    0.000    2.500    0.000    0.000    0.000    0.000 
#    0.000    0.000    0.000    0.000    0.000    0.000 
#
# Total GULP energy -198445.703507 kJ/mol
# GULP energy per Si atom -12402.856469 kJ/mol
# Density = 2.243817 g / cm^3
# Si number density = 22.489358 Si / 1000 Ang^3
#
#
#
# Elastic Constant Matrix: (Units=GPa)
#
#
# Indices 1 2 3 4 5 6 
#
# 1 156.1747 44.9884 43.8056 2.1508 -10.8923 23.6993
# 2 44.9884 93.3669 20.9462 -2.3084 -8.8841 23.2554
# 3 43.8056 20.9462 87.0392 11.1666 -1.9113 10.0738
# 4 2.1508 -2.3084 11.1666 42.4602 1.1252 0.9416
# 5 -10.8923 -8.8841 -1.9113 1.1252 43.3907 -0.7359
# 6 23.6993 23.2554 10.0738 0.9416 -0.7359 45.3165
#
#
#
# Elastic Compliance Matrix: (Units=1/GPa)
#
#
# Indices 1 2 3 4 5 6 
#
# 1 0.008572 -0.002634 -0.003420 0.000337 0.001413 -0.002355
# 2 -0.002634 0.013891 -0.001522 0.001356 0.001989 -0.005409
# 3 -0.003420 -0.001522 0.014084 -0.003590 -0.000465 -0.000494
# 4 0.000337 0.001356 -0.003590 0.024577 -0.000443 -0.000592
# 5 0.001413 0.001989 -0.000465 -0.000443 0.023778 -0.001261
# 6 -0.002355 -0.005409 -0.000494 -0.000592 -0.001261 0.026176
#
#
# Mechanical properties :
#
#
# Convention : Reuss Voigt Hill
#
# Bulk Modulus (GPa) = 46.73704 61.78459 54.26081
# Shear Modulus (GPa) = 37.49191 41.35618 39.42405
#
# Velocity S-wave (km/s) = 4.08744 4.29292 4.19144
# Velocity P-wave (km/s) = 6.56530 7.21835 6.89956
#
# Compressibility (1/GPa) = 0.02139631
#
# Stress axis : x y z
#
# Youngs Moduli (GPa) = 116.65237 71.98976 71.00175
#
# Poissons Ratio (x) = 0.18961 0.24284
# Poissons Ratio (y) = 0.30725 0.10804
# Poissons Ratio (z) = 0.39897 0.10954
#
# Static dielectric constant tensor:
#      x y z
#    x 4.897030 0.076550 0.205310 
#    y 0.076550 4.412870 -0.163180 
#    z 0.205310 -0.163180 4.456720 
# 
# 
# High freq. dielectric constant tensor:
#      x y z
#    x 1.901820 0.012960 0.001170 
#    y 0.012960 1.897460 -0.009580 
#    z 0.001170 -0.009580 1.893130 
# 
# From -- ./inp_files/217908.got.cif
#   From: 2010.06.25/outbox.cif.g09.slc.cpg/sg2_109_cif.got.tgz:217908.got - 2010.06.27 13:26:56.
