data_PCOD8016044
_publ_section_title
;
Structure prediction by ZEFSAII (Michael W. Deem and Ramdas Pophale) SiO2 
 PCOD8016044
Probable space group: P -1
;
_chemical_formula_sum "Si O2"
_cell_formula_units_Z 16
_cell_length_a 9.849821
_cell_length_b 14.236899
_cell_length_c 8.711940
_cell_angle_alpha 61.631087
_cell_angle_beta 78.763405
_cell_angle_gamma 118.256415
_cell_volume 795.947562
_symmetry_space_group_name_H-M "P -1"
_symmetry_group_IT_number 2
_symmetry_cell_setting 'triclinic'
loop_
_space_group_symop_operation_xyz
x,y,z
-x,-y,-z
loop_
_atom_site_type_symbol
_atom_site_label
_atom_site_fract_x
_atom_site_fract_y
_atom_site_fract_z
Si Si1 0.594449 0.452672 0.106579
Si Si2 0.004395 0.724744 0.457246
Si Si3 0.995813 0.616773 0.851921
Si Si4 0.665629 0.131961 0.958227
Si Si5 0.146267 0.991930 0.416897
Si Si6 0.697722 0.080110 0.326351
Si Si7 0.503809 0.266615 0.007248
Si Si8 0.410631 0.471513 0.380843
O O1 0.489273 0.406037 0.326948
O O2 0.500000 0.500000 0.000000
O O3 0.568910 0.327783 0.119324
O O4 0.811546 0.583245 0.977216
O O5 0.999479 0.624183 0.658420
O O6 0.150927 0.775183 0.254343
O O7 0.051567 0.852438 0.446713
O O8 0.809352 0.641242 0.482360
O O9 0.171493 0.758248 0.778498
O O10 0.000000 0.500000 0.000000
O O11 0.627541 0.234297 0.937598
O O12 0.691062 0.070120 0.150612
O O13 0.500000 0.000000 0.000000
O O14 0.233696 0.994103 0.554515
O O15 0.000000 0.000000 0.500000
O O16 0.294097 0.122434 0.172601
O O17 0.500000 0.000000 0.500000
O O18 0.517727 0.378964 0.814033
O O19 0.500000 0.500000 0.500000
#
# Coordination Sequence:
#
# PCOD8016044 Si02
#       8
#     2   2   2   2   2   2   2   2
#     4  10  21  43  69  92 137 171 227 273 328 397
#     4  11  24  45  66 100 139 176 220 290 343 389
#     4  11  23  41  69 100 128 178 233 271 331 410
#     4  12  24  46  67  99 145 173 221 291 341 401
#     4  11  24  43  73  99 130 180 237 277 333 407
#     4  11  24  43  68  98 131 178 230 276 331 404
#     4  11  22  44  70  95 132 186 225 268 344 396
#     4  11  26  44  67 103 140 176 222 284 346 403
#
# _framework density 20.101827
#
# number of rings (size 3 to 8) (size 9 to 14) (size 15 to 20)
#    0.000    1.000    5.000    2.250    7.000    1.500 
#    4.500    1.250    0.000    0.000    0.000    0.000 
#    0.000    0.000    0.000    0.000    0.000    0.000 
#
# Total GULP energy -198347.078028 kJ/mol
# GULP energy per Si atom -12396.692377 kJ/mol
# Density = 2.005607 g / cm^3
# Si number density = 20.101827 Si / 1000 Ang^3
#
#
#
# Elastic Constant Matrix: (Units=GPa)
#
#
# Indices 1 2 3 4 5 6 
#
# 1 155.8058 73.2071 89.6825 6.7760 -18.7408 4.9818
# 2 73.2071 130.0586 62.3229 11.5065 -4.4980 9.8614
# 3 89.6825 62.3229 151.7406 9.1888 -24.1343 7.7253
# 4 6.7760 11.5065 9.1888 45.4749 0.3391 -3.8941
# 5 -18.7408 -4.4980 -24.1343 0.3391 39.2824 1.6503
# 6 4.9818 9.8614 7.7253 -3.8941 1.6503 46.8151
#
#
#
# Elastic Compliance Matrix: (Units=1/GPa)
#
#
# Indices 1 2 3 4 5 6 
#
# 1 0.011248 -0.004069 -0.004699 0.000322 0.001994 0.000392
# 2 -0.004069 0.011341 -0.002374 -0.001910 -0.002015 -0.001652
# 3 -0.004699 -0.002374 0.011163 -0.001081 0.004400 -0.001087
# 4 0.000322 -0.001910 -0.001081 0.022864 -0.001031 0.002485
# 5 0.001994 -0.002015 0.004400 -0.001031 0.028957 -0.001620
# 6 0.000392 -0.001652 -0.001087 0.002485 -0.001620 0.022110
#
#
# Mechanical properties :
#
#
# Convention : Reuss Voigt Hill
#
# Bulk Modulus (GPa) = 87.19430 98.66999 92.93214
# Shear Modulus (GPa) = 37.37171 40.47398 38.92284
#
# Velocity S-wave (km/s) = 4.31643 4.49201 4.40510
# Velocity P-wave (km/s) = 8.26514 8.72330 8.49731
#
# Compressibility (1/GPa) = 0.01146864
#
# Stress axis : x y z
#
# Youngs Moduli (GPa) = 88.90350 88.17358 89.58093
#
# Poissons Ratio (x) = 0.35876 0.42095
# Poissons Ratio (y) = 0.36173 0.21267
# Poissons Ratio (z) = 0.41776 0.20933
#
# Static dielectric constant tensor:
#      x y z
#    x 3.693940 0.043600 -0.089420 
#    y 0.043600 5.211430 0.653180 
#    z -0.089420 0.653180 4.160380 
# 
# 
# High freq. dielectric constant tensor:
#      x y z
#    x 1.792630 0.008390 -0.010490 
#    y 0.008390 1.787390 -0.006070 
#    z -0.010490 -0.006070 1.793910 
# 
# From -- ./inp_files/205895.got.cif
#   From: 2010.06.25/outbox.cif.g09.slc.cpg/sg2_103_cif.got.tgz:205895.got - 2010.06.27 13:26:56.
