data_PCOD8016544
_publ_section_title
;
Structure prediction by ZEFSAII (Michael W. Deem and Ramdas Pophale) SiO2 
 PCOD8016544
Probable space group: P -1
;
_chemical_formula_sum "Si O2"
_cell_formula_units_Z 16
_cell_length_a 23.621830
_cell_length_b 6.852693
_cell_length_c 12.032726
_cell_angle_alpha 52.155232
_cell_angle_beta 149.469726
_cell_angle_gamma 117.673053
_cell_volume 771.329781
_symmetry_space_group_name_H-M "P -1"
_symmetry_group_IT_number 2
_symmetry_cell_setting 'triclinic'
loop_
_space_group_symop_operation_xyz
x,y,z
-x,-y,-z
loop_
_atom_site_type_symbol
_atom_site_label
_atom_site_fract_x
_atom_site_fract_y
_atom_site_fract_z
Si Si1 0.208904 0.329405 0.607417
Si Si2 0.566863 0.432049 0.794957
Si Si3 0.929990 0.225765 0.647933
Si Si4 0.589398 0.832260 0.522083
Si Si5 0.113518 0.326956 0.217139
Si Si6 0.162662 0.373388 0.039161
Si Si7 0.184048 0.793072 0.765170
Si Si8 0.543325 0.633239 0.921230
O O1 0.136377 0.576014 0.448638
O O2 0.206311 0.340224 0.465005
O O3 0.153064 0.088975 0.635239
O O4 0.336596 0.290120 0.876967
O O5 0.561697 0.707567 0.635705
O O6 0.464272 0.303336 0.622163
O O7 0.555054 0.445427 0.902788
O O8 0.683877 0.261043 0.021562
O O9 0.888227 0.289569 0.430159
O O10 0.907858 0.954297 0.742341
O O11 0.062351 0.234022 0.876208
O O12 0.723064 0.804436 0.740176
O O13 0.544229 0.124887 0.345529
O O14 0.159751 0.426238 0.147124
O O15 0.000000 0.500000 0.000000
O O16 0.154488 0.645814 0.874782
O O17 0.500000 0.500000 0.000000
#
# Coordination Sequence:
#
# PCOD8016544 Si02
#       8
#     2   2   2   2   2   2   2   2
#     4  11  24  43  66  93 132 173 207 266 331 374
#     4  10  21  45  66  90 130 168 212 264 324 369
#     4  11  23  44  68  94 134 167 212 264 325 385
#     4  10  24  43  65  93 129 167 212 269 315 376
#     4  11  25  44  65  93 133 173 208 263 322 381
#     4  11  24  43  67  97 128 169 220 265 315 385
#     4  10  22  44  68  95 127 169 216 270 317 378
#     4  12  26  39  66  98 127 170 219 259 317 388
#
# _framework density 20.743397000000002
#
# number of rings (size 3 to 8) (size 9 to 14) (size 15 to 20)
#    0.000    1.250    3.750    1.125    3.500    1.000 
#    2.250    0.000    0.000    0.000    0.000    0.000 
#    0.000    0.000    0.000    0.000    0.000    0.000 
#
# Total GULP energy -198491.270523 kJ/mol
# GULP energy per Si atom -12405.704408 kJ/mol
# Density = 2.069618 g / cm^3
# Si number density = 20.743397 Si / 1000 Ang^3
#
#
#
# Elastic Constant Matrix: (Units=GPa)
#
#
# Indices 1 2 3 4 5 6 
#
# 1 125.5647 50.5977 32.3138 -0.3641 -20.9501 -3.1593
# 2 50.5977 108.1756 38.8891 -6.8506 -5.4756 -12.2279
# 3 32.3138 38.8891 102.6047 10.0056 -5.6081 -0.7715
# 4 -0.3641 -6.8506 10.0056 46.2555 2.3140 -1.7437
# 5 -20.9501 -5.4756 -5.6081 2.3140 34.1179 3.1487
# 6 -3.1593 -12.2279 -0.7715 -1.7437 3.1487 17.2270
#
#
#
# Elastic Compliance Matrix: (Units=1/GPa)
#
#
# Indices 1 2 3 4 5 6 
#
# 1 0.011199 -0.004793 -0.001319 -0.000744 0.006182 -0.002613
# 2 -0.004793 0.014236 -0.004290 0.003495 -0.002510 0.009846
# 3 -0.001319 -0.004290 0.012156 -0.003451 0.001036 -0.003281
# 4 -0.000744 0.003495 -0.003451 0.023190 -0.002497 0.004994
# 5 0.006182 -0.002510 0.001036 -0.002497 0.033690 -0.007012
# 6 -0.002613 0.009846 -0.003281 0.004994 -0.007012 0.066198
#
#
# Mechanical properties :
#
#
# Convention : Reuss Voigt Hill
#
# Bulk Modulus (GPa) = 59.57591 64.43847 62.00719
# Shear Modulus (GPa) = 26.72797 33.82303 30.27550
#
# Velocity S-wave (km/s) = 3.59347 4.04238 3.82452
# Velocity P-wave (km/s) = 6.78234 7.27460 7.03278
#
# Compressibility (1/GPa) = 0.01678531
#
# Stress axis : x y z
#
# Youngs Moduli (GPa) = 89.29698 70.24540 82.26314
#
# Poissons Ratio (x) = 0.33671 0.10853
# Poissons Ratio (y) = 0.42803 0.35291
# Poissons Ratio (z) = 0.11781 0.30136
#
# Static dielectric constant tensor:
#      x y z
#    x 3.817620 0.016210 -0.210990 
#    y 0.016210 3.685220 0.066570 
#    z -0.210990 0.066570 4.103720 
# 
# 
# High freq. dielectric constant tensor:
#      x y z
#    x 1.805350 -0.001780 -0.010030 
#    y -0.001780 1.811260 0.001700 
#    z -0.010030 0.001700 1.834910 
# 
# From -- ./inp_files/68575.got.cif
#   From: 2010.06.25/outbox.cif.g09.slc.cpg/sg2_35_cif.got.tgz:68575.got - 2010.06.27 13:26:56.
