data_PCOD8016021
_publ_section_title
;
Structure prediction by ZEFSAII (Michael W. Deem and Ramdas Pophale) SiO2 
 PCOD8016021
Probable space group: P -1
;
_chemical_formula_sum "Si O2"
_cell_formula_units_Z 16
_cell_length_a 12.356834
_cell_length_b 12.196964
_cell_length_c 12.368310
_cell_angle_alpha 93.646823
_cell_angle_beta 65.486751
_cell_angle_gamma 37.422035
_cell_volume 724.769098
_symmetry_space_group_name_H-M "P -1"
_symmetry_group_IT_number 2
_symmetry_cell_setting 'triclinic'
loop_
_space_group_symop_operation_xyz
x,y,z
-x,-y,-z
loop_
_atom_site_type_symbol
_atom_site_label
_atom_site_fract_x
_atom_site_fract_y
_atom_site_fract_z
Si Si1 0.278690 0.809332 0.184217
Si Si2 0.171209 0.636364 0.641055
Si Si3 0.206497 0.212241 0.684685
Si Si4 0.174857 0.262886 0.133759
Si Si5 0.349518 0.541060 0.800944
Si Si6 0.798857 0.373203 0.799477
Si Si7 0.825504 0.863283 0.090550
Si Si8 0.516258 0.638771 0.721975
O O1 0.369389 0.730740 0.269364
O O2 0.177765 0.773441 0.185596
O O3 0.526426 0.647154 0.993375
O O4 0.008118 0.108127 0.298239
O O5 0.327979 0.515713 0.684551
O O6 0.402144 0.427167 0.441356
O O7 0.968085 0.701048 0.720812
O O8 0.267396 0.145446 0.781267
O O9 0.970826 0.498380 0.776877
O O10 0.086606 0.195055 0.694919
O O11 0.500000 0.000000 0.500000
O O12 0.121698 0.258430 0.039116
O O13 0.500000 0.000000 0.000000
O O14 0.313133 0.703618 0.827191
O O15 0.111885 0.688123 0.985550
O O16 0.771465 0.409394 0.683737
O O17 0.605308 0.142722 0.178615
#
# Coordination Sequence:
#
# PCOD8016021 Si02
#       8
#     2   2   2   2   2   2   2   2
#     4  10  21  43  69 101 130 180 227 276 341 414
#     4  11  24  42  65 101 140 172 220 284 349 395
#     4  12  25  44  66 103 138 173 227 289 342 393
#     4  11  25  46  70  91 131 189 236 272 328 418
#     4  10  22  40  68  96 136 176 225 272 342 420
#     4  10  22  41  68  97 134 176 226 272 337 420
#     4  11  23  42  68  93 128 178 230 272 338 405
#     4  11  23  41  64 104 135 172 213 285 351 402
#
# _framework density 22.075996
#
# number of rings (size 3 to 8) (size 9 to 14) (size 15 to 20)
#    0.000    1.250    1.250    4.875    1.750    3.000 
#   11.250    2.500    0.000    0.000    0.000    0.000 
#    0.000    0.000    0.000    0.000    0.000    0.000 
#
# Total GULP energy -198339.174943 kJ/mol
# GULP energy per Si atom -12396.198434 kJ/mol
# Density = 2.202575 g / cm^3
# Si number density = 22.075996 Si / 1000 Ang^3
#
#
#
# Elastic Constant Matrix: (Units=GPa)
#
#
# Indices 1 2 3 4 5 6 
#
# 1 106.6169 36.2274 42.4989 2.6515 -25.6623 2.0012
# 2 36.2274 92.9127 32.4178 -9.6463 -1.0034 5.6541
# 3 42.4989 32.4178 93.1532 -14.6434 -14.5996 -0.2156
# 4 2.6515 -9.6463 -14.6434 29.6066 1.9150 1.6318
# 5 -25.6623 -1.0034 -14.5996 1.9150 34.0550 -2.9190
# 6 2.0012 5.6541 -0.2156 1.6318 -2.9190 29.1839
#
#
#
# Elastic Compliance Matrix: (Units=1/GPa)
#
#
# Indices 1 2 3 4 5 6 
#
# 1 0.015470 -0.004980 -0.004716 -0.006049 0.009932 0.001201
# 2 -0.004980 0.014268 -0.002833 0.004196 -0.005056 -0.003184
# 3 -0.004716 -0.002833 0.015370 0.006883 0.002639 0.000865
# 4 -0.006049 0.004196 0.006883 0.039508 -0.003959 -0.002952
# 5 0.009932 -0.005056 0.002639 -0.003959 0.038429 0.004383
# 6 0.001201 -0.003184 0.000865 -0.002952 0.004383 0.035410
#
#
# Mechanical properties :
#
#
# Convention : Reuss Voigt Hill
#
# Bulk Modulus (GPa) = 49.87893 57.21899 53.54896
# Shear Modulus (GPa) = 26.28836 30.67170 28.48003
#
# Velocity S-wave (km/s) = 3.45456 3.73147 3.59568
# Velocity P-wave (km/s) = 6.20928 6.67387 6.44576
#
# Compressibility (1/GPa) = 0.02004855
#
# Stress axis : x y z
#
# Youngs Moduli (GPa) = 64.64101 70.08693 65.06046
#
# Poissons Ratio (x) = 0.34905 0.30684
# Poissons Ratio (y) = 0.32193 0.18434
# Poissons Ratio (z) = 0.30486 0.19859
#
# Static dielectric constant tensor:
#      x y z
#    x 4.669010 0.187490 -0.197850 
#    y 0.187490 3.994190 -0.273360 
#    z -0.197850 -0.273360 3.971350 
# 
# 
# High freq. dielectric constant tensor:
#      x y z
#    x 1.875540 0.003970 -0.004880 
#    y 0.003970 1.875800 -0.016950 
#    z -0.004880 -0.016950 1.856150 
# 
# From -- ./inp_files/428377.got.cif
#   From: 2010.06.25/outbox.cif.g09.slc.cpg/sg2_215_cif.got.tgz:428377.got - 2010.06.27 13:26:56.
