data_PCOD8016911
_publ_section_title
;
Structure prediction by ZEFSAII (Michael W. Deem and Ramdas Pophale) SiO2 
 PCOD8016911
Probable space group: P -1
;
_chemical_formula_sum "Si O2"
_cell_formula_units_Z 14
_cell_length_a 5.021463
_cell_length_b 16.158537
_cell_length_c 11.984944
_cell_angle_alpha 51.740766
_cell_angle_beta 61.833367
_cell_angle_gamma 69.138864
_cell_volume 670.295198
_symmetry_space_group_name_H-M "P -1"
_symmetry_group_IT_number 2
_symmetry_cell_setting 'triclinic'
loop_
_space_group_symop_operation_xyz
x,y,z
-x,-y,-z
loop_
_atom_site_type_symbol
_atom_site_label
_atom_site_fract_x
_atom_site_fract_y
_atom_site_fract_z
Si Si1 0.429123 0.396728 0.039041
Si Si2 0.194779 0.196890 0.028485
Si Si3 0.137968 0.710172 0.791681
Si Si4 0.461657 0.410198 0.776096
Si Si5 0.330753 0.651483 0.568843
Si Si6 0.864383 0.116590 0.956767
Si Si7 0.007314 0.692891 0.377188
O O1 0.069327 0.388342 0.101403
O O2 0.583680 0.304874 0.164120
O O3 0.500000 0.500000 0.000000
O O4 0.591817 0.394782 0.888619
O O5 0.238748 0.317296 0.878015
O O6 0.502251 0.120771 0.022645
O O7 0.080762 0.196909 0.181338
O O8 0.954199 0.150824 0.033611
O O9 0.269666 0.726158 0.628660
O O10 0.286766 0.527048 0.700066
O O11 0.751937 0.396008 0.649860
O O12 0.672349 0.658522 0.454079
O O13 0.088208 0.699054 0.486782
O O14 0.980878 0.192972 0.775859
O O15 0.000000 0.000000 0.000000
#
# Coordination Sequence:
#
# PCOD8016911 Si02
#       7
#     2   2   2   2   2   2   2
#     4  11  21  34  55  80 115 163 219 236 264 323
#     4  10  22  38  64  95 115 148 205 254 286 349
#     4  11  22  37  55  86 124 161 202 238 286 334
#     4  10  22  37  58  85 128 163 200 239 280 336
#     4  12  24  36  57  83 134 171 186 223 286 366
#     4  11  23  45  70  88 110 144 198 268 317 341
#     4  11  24  39  55  88 116 158 206 237 291 363
#
# _framework density 20.886320000000001
#
# number of rings (size 3 to 8) (size 9 to 14) (size 15 to 20)
#    0.000    1.143    1.429    6.857    2.000    3.429 
#    0.000    0.000    0.000    5.143    0.000    0.000 
#    0.000    0.000    0.000    0.000    0.000    0.000 
#
# Total GULP energy -173525.016331 kJ/mol
# GULP energy per Si atom -12394.644024 kJ/mol
# Density = 2.083878 g / cm^3
# Si number density = 20.886320 Si / 1000 Ang^3
#
#
#
# Elastic Constant Matrix: (Units=GPa)
#
#
# Indices 1 2 3 4 5 6 
#
# 1 72.4329 -0.7636 12.3837 -5.0473 10.9905 4.9466
# 2 -0.7636 95.5841 40.9615 0.7136 2.8068 7.1944
# 3 12.3837 40.9615 64.9304 12.8895 14.1838 4.8940
# 4 -5.0473 0.7136 12.8895 31.3759 -2.7466 3.9762
# 5 10.9905 2.8068 14.1838 -2.7466 28.1823 8.8934
# 6 4.9466 7.1944 4.8940 3.9762 8.8934 29.4770
#
#
#
# Elastic Compliance Matrix: (Units=1/GPa)
#
#
# Indices 1 2 3 4 5 6 
#
# 1 0.015468 0.002213 -0.004381 0.004241 -0.002977 -0.002082
# 2 0.002213 0.016127 -0.012851 0.006430 0.006172 -0.004903
# 3 -0.004381 -0.012851 0.030255 -0.014890 -0.015429 0.005512
# 4 0.004241 0.006430 -0.014890 0.040703 0.011980 -0.008914
# 5 -0.002977 0.006172 -0.015429 0.011980 0.049715 -0.015060
# 6 -0.002082 -0.004903 0.005512 -0.008914 -0.015060 0.040302
#
#
# Mechanical properties :
#
#
# Convention : Reuss Voigt Hill
#
# Bulk Modulus (GPa) = 31.43460 37.56783 34.50122
# Shear Modulus (GPa) = 21.43993 29.83143 25.63568
#
# Velocity S-wave (km/s) = 3.20739 3.78335 3.50721
# Velocity P-wave (km/s) = 5.36651 6.09187 5.74066
#
# Compressibility (1/GPa) = 0.03181208
#
# Stress axis : x y z
#
# Youngs Moduli (GPa) = 64.65096 62.00926 33.05279
#
# Poissons Ratio (x) = -0.13726 0.14480
# Poissons Ratio (y) = -0.14310 0.42476
# Poissons Ratio (z) = 0.28323 0.79688
#
# Static dielectric constant tensor:
#      x y z
#    x 3.906340 -0.179550 0.191970 
#    y -0.179550 3.846560 0.335660 
#    z 0.191970 0.335660 3.756920 
# 
# 
# High freq. dielectric constant tensor:
#      x y z
#    x 1.832910 -0.006000 0.016420 
#    y -0.006000 1.804400 0.040390 
#    z 0.016420 0.040390 1.791140 
# 
# From -- ./inp_files/78755.got.cif
#   From: 2010.06.25/outbox.cif.g09.slc.cpg/sg2_40_cif.got.tgz:78755.got - 2010.06.27 13:26:56.
