data_PCOD8016332
_publ_section_title
;
Structure prediction by ZEFSAII (Michael W. Deem and Ramdas Pophale) SiO2 
 PCOD8016332
Probable space group: P -1
;
_chemical_formula_sum "Si O2"
_cell_formula_units_Z 14
_cell_length_a 8.916327
_cell_length_b 14.072615
_cell_length_c 13.793778
_cell_angle_alpha 32.357403
_cell_angle_beta 98.432019
_cell_angle_gamma 119.918079
_cell_volume 646.984592
_symmetry_space_group_name_H-M "P -1"
_symmetry_group_IT_number 2
_symmetry_cell_setting 'triclinic'
loop_
_space_group_symop_operation_xyz
x,y,z
-x,-y,-z
loop_
_atom_site_type_symbol
_atom_site_label
_atom_site_fract_x
_atom_site_fract_y
_atom_site_fract_z
Si Si1 0.283361 0.525453 0.306170
Si Si2 0.018167 0.638373 0.746336
Si Si3 0.805904 0.115399 0.254116
Si Si4 0.318572 0.772593 0.498871
Si Si5 0.272975 0.043309 0.118071
Si Si6 0.906954 0.969613 0.213941
Si Si7 0.094315 0.726862 0.191402
O O1 0.236810 0.672682 0.227785
O O2 0.115401 0.356648 0.347595
O O3 0.246445 0.330848 0.543495
O O4 0.524640 0.718704 0.126469
O O5 0.099107 0.830197 0.675833
O O6 0.224910 0.721578 0.642114
O O7 0.857893 0.354792 0.014561
O O8 0.914555 0.059893 0.243865
O O9 0.549717 0.872217 0.440950
O O10 0.156974 0.512936 0.647033
O O11 0.341124 0.981541 0.268916
O O12 0.147207 0.111450 0.085076
O O13 0.120934 0.799470 0.243546
O O14 0.817454 0.038974 0.069085
#
# Coordination Sequence:
#
# PCOD8016332 Si02
#       7
#     2   2   2   2   2   2   2
#     4  11  24  44  68  93 130 171 215 263 317 377
#     4  10  21  44  67  93 126 169 215 261 320 382
#     4  11  23  41  70  92 129 171 209 266 324 374
#     4  11  21  43  69  94 127 171 211 263 318 380
#     4  12  24  43  66  95 134 171 211 264 318 375
#     4  12  25  43  64  99 131 165 219 265 311 386
#     4  11  24  46  64  95 134 169 215 262 314 383
#
# _framework density 21.638845
#
# number of rings (size 3 to 8) (size 9 to 14) (size 15 to 20)
#    0.000    0.857    7.143    1.714    2.000    1.143 
#    0.000    0.714    0.000    0.000    0.000    0.000 
#    0.000    0.000    0.000    0.000    0.000    0.000 
#
# Total GULP energy -173653.418459 kJ/mol
# GULP energy per Si atom -12403.815604 kJ/mol
# Density = 2.158959 g / cm^3
# Si number density = 21.638845 Si / 1000 Ang^3
#
#
#
# Elastic Constant Matrix: (Units=GPa)
#
#
# Indices 1 2 3 4 5 6 
#
# 1 113.6270 50.0482 36.8206 -19.3156 -18.6062 -24.3580
# 2 50.0482 93.4156 0.7943 -4.0461 -12.6088 -21.4643
# 3 36.8206 0.7943 107.8101 -6.2016 -6.2023 5.2531
# 4 -19.3156 -4.0461 -6.2016 24.0684 8.2404 -1.4908
# 5 -18.6062 -12.6088 -6.2023 8.2404 48.6244 3.5701
# 6 -24.3580 -21.4643 5.2531 -1.4908 3.5701 20.5450
#
#
#
# Elastic Compliance Matrix: (Units=1/GPa)
#
#
# Indices 1 2 3 4 5 6 
#
# 1 0.020991 -0.005255 -0.007256 0.014913 0.001598 0.022057
# 2 -0.005255 0.015923 0.001237 -0.001229 0.001772 0.009691
# 3 -0.007256 0.001237 0.012101 -0.003310 0.000436 -0.010720
# 4 0.014913 -0.001229 -0.003310 0.055951 -0.006159 0.022373
# 5 0.001598 0.001772 0.000436 -0.006159 0.022793 -0.000773
# 6 0.022057 0.009691 -0.010720 0.022373 -0.000773 0.089448
#
#
# Mechanical properties :
#
#
# Convention : Reuss Voigt Hill
#
# Bulk Modulus (GPa) = 37.78233 54.46434 46.12333
# Shear Modulus (GPa) = 20.11440 33.79352 26.95396
#
# Velocity S-wave (km/s) = 3.05216 3.95613 3.53318
# Velocity P-wave (km/s) = 5.46985 6.78913 6.16488
#
# Compressibility (1/GPa) = 0.02646740
#
# Stress axis : x y z
#
# Youngs Moduli (GPa) = 47.63862 62.80374 82.63452
#
# Poissons Ratio (x) = 0.33004 0.59956
# Poissons Ratio (y) = 0.25034 -0.10218
# Poissons Ratio (z) = 0.34564 -0.07766
#
# Static dielectric constant tensor:
#      x y z
#    x 3.729380 -0.096370 -0.094160 
#    y -0.096370 3.914200 0.138990 
#    z -0.094160 0.138990 4.021020 
# 
# 
# High freq. dielectric constant tensor:
#      x y z
#    x 1.841230 -0.008720 -0.009480 
#    y -0.008720 1.841410 0.011070 
#    z -0.009480 0.011070 1.860330 
# 
# From -- ./inp_files/208529.got.cif
#   From: 2010.06.25/outbox.cif.g09.slc.cpg/sg2_105_cif.got.tgz:208529.got - 2010.06.27 13:26:56.
