data_PCOD8016042
_publ_section_title
;
Structure prediction by ZEFSAII (Michael W. Deem and Ramdas Pophale) SiO2 
 PCOD8016042
Probable space group: P -1
;
_chemical_formula_sum "Si O2"
_cell_formula_units_Z 12
_cell_length_a 11.960225
_cell_length_b 5.526205
_cell_length_c 9.813091
_cell_angle_alpha 97.211296
_cell_angle_beta 115.355759
_cell_angle_gamma 101.777469
_cell_volume 556.902760
_symmetry_space_group_name_H-M "P -1"
_symmetry_group_IT_number 2
_symmetry_cell_setting 'triclinic'
loop_
_space_group_symop_operation_xyz
x,y,z
-x,-y,-z
loop_
_atom_site_type_symbol
_atom_site_label
_atom_site_fract_x
_atom_site_fract_y
_atom_site_fract_z
Si Si1 0.073719 0.986677 0.399478
Si Si2 0.424990 0.086185 0.301945
Si Si3 0.022121 0.415129 0.208882
Si Si4 0.554851 0.557678 0.883477
Si Si5 0.788486 0.389996 0.911492
Si Si6 0.372604 0.179079 0.558413
O O1 0.036354 0.191527 0.297936
O O2 0.224900 0.085337 0.518744
O O3 0.039278 0.696290 0.303922
O O4 0.000000 0.000000 0.500000
O O5 0.425322 0.161443 0.147421
O O6 0.392949 0.270064 0.415707
O O7 0.302543 0.840719 0.237207
O O8 0.564551 0.052462 0.406384
O O9 0.123558 0.425438 0.141165
O O10 0.878161 0.312678 0.065479
O O11 0.695403 0.519399 0.953355
O O12 0.449417 0.401871 0.711431
O O13 0.500000 0.500000 0.000000
#
# Coordination Sequence:
#
# PCOD8016042 Si02
#       6
#     2   2   2   2   2   2
#     4  12  27  44  70 101 139 181 221 280 343 402
#     4  10  21  43  69  92 130 173 232 273 337 400
#     4  11  26  45  70 101 135 180 229 275 335 407
#     4  11  25  39  66  99 134 174 220 289 343 398
#     4  10  24  42  69  95 130 179 227 283 332 407
#     4  10  23  41  67  96 127 179 225 279 332 409
#
# _framework density 21.547747999999999
#
# number of rings (size 3 to 8) (size 9 to 14) (size 15 to 20)
#    0.000    1.333    1.667    2.000    7.000    5.333 
#    0.000    0.000    0.000    0.000    0.000    0.000 
#    0.000    0.000    0.000    0.000    0.000    0.000 
#
# Total GULP energy -148659.701436 kJ/mol
# GULP energy per Si atom -12388.308453 kJ/mol
# Density = 2.149870 g / cm^3
# Si number density = 21.547748 Si / 1000 Ang^3
#
#
#
# Elastic Constant Matrix: (Units=GPa)
#
#
# Indices 1 2 3 4 5 6 
#
# 1 173.4767 42.8573 70.2542 -23.7475 8.4510 3.9822
# 2 42.8573 92.5641 38.2036 -22.6194 0.1122 -4.4838
# 3 70.2542 38.2036 102.9106 -27.4698 11.7554 2.6218
# 4 -23.7475 -22.6194 -27.4698 31.0703 3.3953 -10.4349
# 5 8.4510 0.1122 11.7554 3.3953 49.8623 -2.6692
# 6 3.9822 -4.4838 2.6218 -10.4349 -2.6692 24.4985
#
#
#
# Elastic Compliance Matrix: (Units=1/GPa)
#
#
# Indices 1 2 3 4 5 6 
#
# 1 0.008242 -0.001772 -0.004769 0.000504 -0.000355 -0.000978
# 2 -0.001772 0.015438 -0.001868 0.010873 0.000393 0.007988
# 3 -0.004769 -0.001868 0.017124 0.011604 -0.003847 0.003124
# 4 0.000504 0.010873 0.011604 0.059949 -0.005558 0.025596
# 5 -0.000355 0.000393 -0.003847 -0.005558 0.021427 0.000509
# 6 -0.000978 0.007988 0.003124 0.025596 0.000509 0.053063
#
#
# Mechanical properties :
#
#
# Convention : Reuss Voigt Hill
#
# Bulk Modulus (GPa) = 41.68885 74.62020 58.15452
# Shear Modulus (GPa) = 24.99306 35.59531 30.29418
#
# Velocity S-wave (km/s) = 3.40941 4.06880 3.75361
# Velocity P-wave (km/s) = 5.90661 7.53517 6.77004
#
# Compressibility (1/GPa) = 0.02398723
#
# Stress axis : x y z
#
# Youngs Moduli (GPa) = 121.32614 64.77574 58.39887
#
# Poissons Ratio (x) = 0.11476 0.27851
# Poissons Ratio (y) = 0.21495 0.10906
# Poissons Ratio (z) = 0.57861 0.12097
#
# Static dielectric constant tensor:
#      x y z
#    x 4.039910 -0.008320 0.099070 
#    y -0.008320 3.942340 -0.092240 
#    z 0.099070 -0.092240 4.191230 
# 
# 
# High freq. dielectric constant tensor:
#      x y z
#    x 1.859560 0.004370 0.012080 
#    y 0.004370 1.837770 -0.004500 
#    z 0.012080 -0.004500 1.858080 
# 
# From -- ./inp_files/20310.got.cif
#   From: 2010.06.25/outbox.cif.g09.slc.cpg/sg2_11_cif.got.tgz:20310.got - 2010.06.27 13:26:56.
