data_PCOD8016601
_publ_section_title
;
Structure prediction by ZEFSAII (Michael W. Deem and Ramdas Pophale) SiO2 
 PCOD8016601
Probable space group: P -1
;
_chemical_formula_sum "Si O2"
_cell_formula_units_Z 16
_cell_length_a 11.908121
_cell_length_b 8.515396
_cell_length_c 7.721964
_cell_angle_alpha 127.518082
_cell_angle_beta 103.701691
_cell_angle_gamma 76.090914
_cell_volume 598.677971
_symmetry_space_group_name_H-M "P -1"
_symmetry_group_IT_number 2
_symmetry_cell_setting 'triclinic'
loop_
_space_group_symop_operation_xyz
x,y,z
-x,-y,-z
loop_
_atom_site_type_symbol
_atom_site_label
_atom_site_fract_x
_atom_site_fract_y
_atom_site_fract_z
Si Si1 0.382862 0.113557 0.107058
Si Si2 0.003694 0.906747 0.694540
Si Si3 0.812152 0.103979 0.961101
Si Si4 0.906965 0.688671 0.072223
Si Si5 0.537139 0.779431 0.425634
Si Si6 0.762572 0.550231 0.225376
Si Si7 0.384376 0.528610 0.359251
Si Si8 0.149292 0.524300 0.418095
O O1 0.396465 0.206305 0.361388
O O2 0.356934 0.317441 0.120874
O O3 0.279460 0.977177 0.993326
O O4 0.500000 0.000000 0.000000
O O5 0.043948 0.099881 0.743134
O O6 0.864729 0.955651 0.723963
O O7 0.038808 0.698856 0.461239
O O8 0.075855 0.854821 0.861324
O O9 0.759862 0.319498 0.010616
O O10 0.812478 0.679866 0.181107
O O11 0.860500 0.665372 0.840413
O O12 0.000000 0.500000 0.000000
O O13 0.628615 0.646568 0.250743
O O14 0.416226 0.680800 0.325142
O O15 0.500000 0.000000 0.500000
O O16 0.838725 0.557901 0.435998
O O17 0.500000 0.500000 0.500000
O O18 0.268599 0.621400 0.483509
#
# Coordination Sequence:
#
# PCOD8016601 Si02
#       8
#     2   2   2   2   2   2   2   2
#     4  11  23  40  74 101 135 195 243 297 369 449
#     4  10  24  45  73 107 153 191 252 310 360 459
#     4  10  22  45  71 107 142 193 251 299 370 444
#     4  12  27  48  71 115 150 192 256 309 374 448
#     4  11  26  43  67 107 145 188 238 311 379 432
#     4  11  24  49  72 102 156 188 247 320 357 457
#     4  10  21  45  69 101 142 188 251 294 371 451
#     4  11  25  47  78 105 147 212 240 308 386 438
#
# _framework density 26.725555
#
# number of rings (size 3 to 8) (size 9 to 14) (size 15 to 20)
#    0.000    1.250    3.750    1.500    7.000    4.000 
#    0.000    1.875    0.000    0.000    0.000    0.000 
#    0.000    0.000    0.000    0.000    0.000    0.000 
#
# Total GULP energy -198235.033794 kJ/mol
# GULP energy per Si atom -12389.689612 kJ/mol
# Density = 2.666473 g / cm^3
# Si number density = 26.725555 Si / 1000 Ang^3
#
#
#
# Elastic Constant Matrix: (Units=GPa)
#
#
# Indices 1 2 3 4 5 6 
#
# 1 149.1307 42.6585 36.3358 17.0189 -43.0483 23.7622
# 2 42.6585 120.5408 29.0759 33.8589 -16.4880 27.2021
# 3 36.3358 29.0759 96.7644 13.7317 -26.2692 11.5338
# 4 17.0189 33.8589 13.7317 52.6260 -9.9333 -1.8439
# 5 -43.0483 -16.4880 -26.2692 -9.9333 50.4352 5.6521
# 6 23.7622 27.2021 11.5338 -1.8439 5.6521 51.4772
#
#
#
# Elastic Compliance Matrix: (Units=1/GPa)
#
#
# Indices 1 2 3 4 5 6 
#
# 1 0.010640 -0.000862 -0.000504 -0.001265 0.008889 -0.005364
# 2 -0.000862 0.012737 -0.001079 -0.007463 0.002135 -0.006593
# 3 -0.000504 -0.001079 0.013036 -0.001506 0.006027 -0.002833
# 4 -0.001265 -0.007463 -0.001506 0.024795 -0.000065 0.005760
# 5 0.008889 0.002135 0.006027 -0.000065 0.032375 -0.010139
# 6 -0.005364 -0.006593 -0.002833 0.005760 -0.010139 0.027341
#
#
# Mechanical properties :
#
#
# Convention : Reuss Voigt Hill
#
# Bulk Modulus (GPa) = 31.72376 64.73069 48.22723
# Shear Modulus (GPa) = 36.67779 48.13207 42.40493
#
# Velocity S-wave (km/s) = 3.70859 4.24839 3.98764
# Velocity P-wave (km/s) = 5.49856 6.95257 6.26787
#
# Compressibility (1/GPa) = 0.03152212
#
# Stress axis : x y z
#
# Youngs Moduli (GPa) = 93.98446 78.50911 76.71251
#
# Poissons Ratio (x) = 0.06768 0.03869
# Poissons Ratio (y) = 0.08102 0.08278
# Poissons Ratio (z) = 0.04740 0.08472
#
# Static dielectric constant tensor:
#      x y z
#    x 5.459690 0.401480 -0.402620 
#    y 0.401480 5.424940 -0.019980 
#    z -0.402620 -0.019980 5.298370 
# 
# 
# High freq. dielectric constant tensor:
#      x y z
#    x 2.086220 0.007290 -0.016910 
#    y 0.007290 2.079100 0.020470 
#    z -0.016910 0.020470 2.061300 
# 
# From -- ./inp_files/245943.got.cif
#   From: 2010.06.25/outbox.cif.g09.slc.cpg/sg2_123_cif.got.tgz:245943.got - 2010.06.27 13:26:56.
