data_PCOD8016365
_publ_section_title
;
Structure prediction by ZEFSAII (Michael W. Deem and Ramdas Pophale) SiO2 
 PCOD8016365
Probable space group: P -1
;
_chemical_formula_sum "Si O2"
_cell_formula_units_Z 16
_cell_length_a 9.020852
_cell_length_b 15.641023
_cell_length_c 8.645519
_cell_angle_alpha 111.380902
_cell_angle_beta 50.503942
_cell_angle_gamma 79.935192
_cell_volume 722.674396
_symmetry_space_group_name_H-M "P -1"
_symmetry_group_IT_number 2
_symmetry_cell_setting 'triclinic'
loop_
_space_group_symop_operation_xyz
x,y,z
-x,-y,-z
loop_
_atom_site_type_symbol
_atom_site_label
_atom_site_fract_x
_atom_site_fract_y
_atom_site_fract_z
Si Si1 0.520275 0.085521 0.147474
Si Si2 0.926047 0.456611 0.381287
Si Si3 0.639835 0.396871 0.725232
Si Si4 0.888683 0.602084 0.252649
Si Si5 0.925384 0.084364 0.747510
Si Si6 0.656721 0.042175 0.380284
Si Si7 0.018817 0.746618 0.354582
Si Si8 0.370156 0.291504 0.780563
O O1 0.655958 0.037974 0.190628
O O2 0.256911 0.189875 0.399574
O O3 0.665305 0.124155 0.987676
O O4 0.500000 0.000000 0.000000
O O5 0.749620 0.424792 0.529677
O O6 0.792813 0.566899 0.434637
O O7 0.000000 0.500000 0.500000
O O8 0.150123 0.347765 0.080486
O O9 0.465587 0.368360 0.759980
O O10 0.841112 0.280248 0.596935
O O11 0.500000 0.500000 0.000000
O O12 0.087646 0.624131 0.176032
O O13 0.693179 0.710771 0.358548
O O14 0.000000 0.500000 0.000000
O O15 0.916480 0.192239 0.769532
O O16 0.000000 0.000000 0.500000
O O17 0.089475 0.035040 0.758876
O O18 0.552966 0.161822 0.609539
O O19 0.500000 0.000000 0.500000
#
# Coordination Sequence:
#
# PCOD8016365 Si02
#       8
#     2   2   2   2   2   2   2   2
#     4  12  26  47  73 104 141 191 243 298 357 426
#     4  11  22  44  71  99 137 186 230 289 357 418
#     4  12  25  43  72 107 140 182 239 294 348 431
#     4  10  21  44  68  96 140 178 227 290 347 423
#     4  12  25  47  72 107 146 190 236 296 356 427
#     4  12  24  49  73 105 149 189 239 300 357 427
#     4  12  24  46  70 100 144 184 235 289 362 412
#     4  11  24  44  68 103 141 180 233 291 354 424
#
# _framework density 22.139983999999998
#
# number of rings (size 3 to 8) (size 9 to 14) (size 15 to 20)
#    0.000    0.500    6.250    1.875    0.000    4.500 
#    6.750    0.000    0.000    0.000    0.000    0.000 
#    0.000    0.000    0.000    0.000    0.000    0.000 
#
# Total GULP energy -198215.594471 kJ/mol
# GULP energy per Si atom -12388.474654 kJ/mol
# Density = 2.208959 g / cm^3
# Si number density = 22.139984 Si / 1000 Ang^3
#
#
#
# Elastic Constant Matrix: (Units=GPa)
#
#
# Indices 1 2 3 4 5 6 
#
# 1 90.2094 30.2202 40.9624 -11.0943 2.6655 0.9538
# 2 30.2202 156.4083 59.9225 -23.7801 -4.4795 16.0317
# 3 40.9624 59.9225 90.8479 -29.6817 -4.4470 15.5927
# 4 -11.0943 -23.7801 -29.6817 40.7214 9.8841 -1.9816
# 5 2.6655 -4.4795 -4.4470 9.8841 39.5785 -4.5548
# 6 0.9538 16.0317 15.5927 -1.9816 -4.5548 57.8888
#
#
#
# Elastic Compliance Matrix: (Units=1/GPa)
#
#
# Indices 1 2 3 4 5 6 
#
# 1 0.014213 -0.000517 -0.006701 -0.000907 -0.001361 0.001576
# 2 -0.000517 0.008668 -0.004878 0.001310 0.000022 -0.001031
# 3 -0.006701 -0.004878 0.021490 0.011013 -0.000899 -0.004021
# 4 -0.000907 0.001310 0.011013 0.034804 -0.007558 -0.002717
# 5 -0.001361 0.000022 -0.000899 -0.007558 0.027395 0.002155
# 6 0.001576 -0.001031 -0.004021 -0.002717 0.002155 0.018694
#
#
# Mechanical properties :
#
#
# Convention : Reuss Voigt Hill
#
# Bulk Modulus (GPa) = 49.55576 66.63063 58.09319
# Shear Modulus (GPa) = 32.01376 41.39510 36.70443
#
# Velocity S-wave (km/s) = 3.80672 4.32869 4.07607
# Velocity P-wave (km/s) = 6.46165 7.42590 6.96049
#
# Compressibility (1/GPa) = 0.02017929
#
# Stress axis : x y z
#
# Youngs Moduli (GPa) = 70.35631 115.36996 46.53267
#
# Poissons Ratio (x) = 0.05970 0.31181
# Poissons Ratio (y) = 0.03641 0.22698
# Poissons Ratio (z) = 0.47144 0.56275
#
# Static dielectric constant tensor:
#      x y z
#    x 4.286790 -0.890080 -0.299590 
#    y -0.890080 5.021800 0.181950 
#    z -0.299590 0.181950 4.331780 
# 
# 
# High freq. dielectric constant tensor:
#      x y z
#    x 1.895550 0.004440 0.006160 
#    y 0.004440 1.890390 0.002300 
#    z 0.006160 0.002300 1.856580 
# 
# From -- ./inp_files/208140.got.cif
#   From: 2010.06.25/outbox.cif.g09.slc.cpg/sg2_105_cif.got.tgz:208140.got - 2010.06.27 13:26:56.
