data_PCOD8016350
_publ_section_title
;
Structure prediction by ZEFSAII (Michael W. Deem and Ramdas Pophale) SiO2 
 PCOD8016350
Probable space group: P -1
;
_chemical_formula_sum "Si O2"
_cell_formula_units_Z 16
_cell_length_a 20.706095
_cell_length_b 8.516775
_cell_length_c 23.556380
_cell_angle_alpha 148.749207
_cell_angle_beta 160.917143
_cell_angle_gamma 29.231925
_cell_volume 651.259747
_symmetry_space_group_name_H-M "P -1"
_symmetry_group_IT_number 2
_symmetry_cell_setting 'triclinic'
loop_
_space_group_symop_operation_xyz
x,y,z
-x,-y,-z
loop_
_atom_site_type_symbol
_atom_site_label
_atom_site_fract_x
_atom_site_fract_y
_atom_site_fract_z
Si Si1 0.873477 0.585775 0.496930
Si Si2 0.382790 0.661961 0.508575
Si Si3 0.323949 0.605026 0.616884
Si Si4 0.025446 0.456704 0.867202
Si Si5 0.698262 0.328054 0.763260
Si Si6 0.381420 0.201847 0.907021
Si Si7 0.029616 0.383424 0.248234
Si Si8 0.766146 0.286909 0.209668
O O1 0.774112 0.551715 0.463738
O O2 0.854314 0.317989 0.355054
O O3 0.128859 0.535339 0.693560
O O4 0.740217 0.948932 0.475187
O O5 0.500000 0.500000 0.500000
O O6 0.549802 0.591596 0.677139
O O7 0.223083 0.472818 0.322491
O O8 0.558836 0.359672 0.715047
O O9 0.153381 0.638257 0.434521
O O10 0.324931 0.953872 0.742511
O O11 0.072705 0.617428 0.898731
O O12 0.169372 0.079784 0.869896
O O13 0.091042 0.604377 0.023307
O O14 0.787853 0.974521 0.698317
O O15 0.165798 0.507930 0.836808
O O16 0.510749 0.388666 0.037136
O O17 0.500000 0.000000 0.000000
#
# Coordination Sequence:
#
# PCOD8016350 Si02
#       8
#     2   2   2   2   2   2   2   2
#     4  10  23  42  72 103 145 190 240 299 367 432
#     4  11  26  47  71 100 149 197 234 296 376 438
#     4  12  23  44  77 108 141 195 245 301 363 432
#     4  11  23  44  72 103 144 185 244 306 355 426
#     4  12  26  46  76 107 145 191 249 299 363 435
#     4  12  22  42  73 106 143 188 245 299 360 427
#     4  12  25  41  69 112 143 184 247 306 355 431
#     4  10  21  44  68 101 145 190 236 298 370 425
#
# _framework density 24.567769999999999
#
# number of rings (size 3 to 8) (size 9 to 14) (size 15 to 20)
#    0.000    0.750    5.000    1.875    1.750    1.500 
#    2.250    3.750    0.000    0.000    0.000    0.000 
#    0.000    0.000    0.000    0.000    0.000    0.000 
#
# Total GULP energy -198233.161583 kJ/mol
# GULP energy per Si atom -12389.572599 kJ/mol
# Density = 2.451185 g / cm^3
# Si number density = 24.567770 Si / 1000 Ang^3
#
#
#
# Elastic Constant Matrix: (Units=GPa)
#
#
# Indices 1 2 3 4 5 6 
#
# 1 117.1545 44.1919 55.8945 1.2456 15.6653 -20.9012
# 2 44.1919 77.8278 42.4796 5.4650 15.4028 -30.0085
# 3 55.8945 42.4796 164.4191 0.1744 -3.1961 -1.2900
# 4 1.2456 5.4650 0.1744 24.1364 -4.1893 3.2748
# 5 15.6653 15.4028 -3.1961 -4.1893 44.3314 -2.0942
# 6 -20.9012 -30.0085 -1.2900 3.2748 -2.0942 39.3271
#
#
#
# Elastic Compliance Matrix: (Units=1/GPa)
#
#
# Indices 1 2 3 4 5 6 
#
# 1 0.012558 -0.002592 -0.003635 -0.001287 -0.003709 0.004486
# 2 -0.002592 0.028321 -0.006448 -0.010637 -0.009430 0.020405
# 3 -0.003635 -0.006448 0.009009 0.003201 0.004165 -0.006601
# 4 -0.001287 -0.010637 0.003201 0.046965 0.008245 -0.012168
# 5 -0.003709 -0.009430 0.004165 0.008245 0.027835 -0.008234
# 6 0.004486 0.020405 -0.006601 -0.012168 -0.008234 0.043740
#
#
# Mechanical properties :
#
#
# Convention : Reuss Voigt Hill
#
# Bulk Modulus (GPa) = 40.75273 71.61485 56.18379
# Shear Modulus (GPa) = 24.75776 36.01466 30.38621
#
# Velocity S-wave (km/s) = 3.17793 3.83290 3.52068
# Velocity P-wave (km/s) = 5.48539 6.98580 6.28056
#
# Compressibility (1/GPa) = 0.02453823
#
# Stress axis : x y z
#
# Youngs Moduli (GPa) = 79.63199 35.30964 110.99658
#
# Poissons Ratio (x) = 0.09154 0.40345
# Poissons Ratio (y) = 0.20643 0.71567
# Poissons Ratio (z) = 0.28945 0.22767
#
# Static dielectric constant tensor:
#      x y z
#    x 4.713470 -0.182650 0.274440 
#    y -0.182650 4.244280 0.125730 
#    z 0.274440 0.125730 4.889710 
# 
# 
# High freq. dielectric constant tensor:
#      x y z
#    x 1.981980 -0.026920 -0.000290 
#    y -0.026920 1.959750 -0.002170 
#    z -0.000290 -0.002170 1.995940 
# 
# From -- ./inp_files/613638.got.cif
#   From: 2010.06.25/outbox.cif.g09.slc.cpg/sg2_307_cif.got.tgz:613638.got - 2010.06.27 13:26:56.
