data_PCOD8016239
_publ_section_title
;
Structure prediction by ZEFSAII (Michael W. Deem and Ramdas Pophale) SiO2 
 PCOD8016239
Probable space group: P -1
;
_chemical_formula_sum "Si O2"
_cell_formula_units_Z 16
_cell_length_a 8.894310
_cell_length_b 23.852342
_cell_length_c 20.817578
_cell_angle_alpha 23.065894
_cell_angle_beta 28.617567
_cell_angle_gamma 31.792412
_cell_volume 807.420186
_symmetry_space_group_name_H-M "P -1"
_symmetry_group_IT_number 2
_symmetry_cell_setting 'triclinic'
loop_
_space_group_symop_operation_xyz
x,y,z
-x,-y,-z
loop_
_atom_site_type_symbol
_atom_site_label
_atom_site_fract_x
_atom_site_fract_y
_atom_site_fract_z
Si Si1 0.392809 0.911828 0.690561
Si Si2 0.786416 0.390460 0.415627
Si Si3 0.216520 0.920241 0.199355
Si Si4 0.338045 0.417130 0.094702
Si Si5 0.367760 0.942864 0.435696
Si Si6 0.082791 0.569854 0.460484
Si Si7 0.930875 0.897723 0.189183
Si Si8 0.652413 0.606393 0.701409
O O1 0.447822 0.743392 0.828635
O O2 0.500000 0.000000 0.500000
O O3 0.566273 0.939468 0.661998
O O4 0.016561 0.968271 0.784241
O O5 0.708768 0.233822 0.627743
O O6 0.438898 0.500936 0.427054
O O7 0.975190 0.400191 0.266451
O O8 0.028737 0.433717 0.331063
O O9 0.087085 0.901465 0.196726
O O10 0.500000 0.000000 0.000000
O O11 0.500000 0.500000 0.000000
O O12 0.376762 0.514282 0.914924
O O13 0.549037 0.943668 0.298481
O O14 0.479189 0.777416 0.596302
O O15 0.000000 0.000000 0.500000
O O16 0.000000 0.500000 0.500000
O O17 0.064034 0.739464 0.275539
O O18 0.791785 0.560299 0.627609
O O19 0.000000 0.000000 0.000000
#
# Coordination Sequence:
#
# PCOD8016239 Si02
#       8
#     2   2   2   2   2   2   2   2
#     4  11  20  40  61  92 125 161 206 262 303 373
#     4  11  21  43  64  93 130 162 215 261 314 376
#     4  11  24  38  66  97 123 164 217 262 314 371
#     4  10  22  36  65  95 127 158 205 262 314 370
#     4  10  22  41  65  88 126 169 208 258 316 368
#     4  11  25  39  66  93 132 172 204 262 321 373
#     4  10  24  44  59  92 133 161 214 263 309 380
#     4  10  21  44  63  92 128 166 211 262 315 372
#
# _framework density 19.816199999999998
#
# number of rings (size 3 to 8) (size 9 to 14) (size 15 to 20)
#    0.000    1.500    5.000    1.125    3.500    6.000 
#    0.000    1.250    0.000    0.000    0.000    0.000 
#    0.000    0.000    0.000    0.000    0.000    0.000 
#
# Total GULP energy -198210.206687 kJ/mol
# GULP energy per Si atom -12388.137918 kJ/mol
# Density = 1.977110 g / cm^3
# Si number density = 19.816200 Si / 1000 Ang^3
#
#
#
# Elastic Constant Matrix: (Units=GPa)
#
#
# Indices 1 2 3 4 5 6 
#
# 1 65.1357 58.4446 38.0120 -7.7936 2.5022 1.6808
# 2 58.4446 158.4097 78.8532 -4.2966 -1.7941 1.9724
# 3 38.0120 78.8532 189.6579 8.4573 14.4101 7.4960
# 4 -7.7936 -4.2966 8.4573 38.0877 5.9019 -8.3853
# 5 2.5022 -1.7941 14.4101 5.9019 30.0803 0.3491
# 6 1.6808 1.9724 7.4960 -8.3853 0.3491 36.2996
#
#
#
# Elastic Compliance Matrix: (Units=1/GPa)
#
#
# Indices 1 2 3 4 5 6 
#
# 1 0.024156 -0.008052 -0.001540 0.004980 -0.002738 0.000814
# 2 -0.008052 0.010867 -0.003131 -0.000081 0.002829 0.000383
# 3 -0.001540 -0.003131 0.007285 -0.002188 -0.003099 -0.001739
# 4 0.004980 -0.000081 -0.002188 0.030180 -0.005376 0.007249
# 5 -0.002738 0.002829 -0.003099 -0.005376 0.036192 -0.000977
# 6 0.000814 0.000383 -0.001739 0.007249 -0.000977 0.029533
#
#
# Mechanical properties :
#
#
# Convention : Reuss Voigt Hill
#
# Bulk Modulus (GPa) = 59.30298 84.86919 72.08608
# Shear Modulus (GPa) = 29.53715 36.75309 33.14512
#
# Velocity S-wave (km/s) = 3.86496 4.31129 4.09421
# Velocity P-wave (km/s) = 7.06461 8.22825 7.66854
#
# Compressibility (1/GPa) = 0.01686256
#
# Stress axis : x y z
#
# Youngs Moduli (GPa) = 41.39770 92.02209 137.27315
#
# Poissons Ratio (x) = 0.74094 0.21139
# Poissons Ratio (y) = 0.33332 0.42978
# Poissons Ratio (z) = 0.06375 0.28811
#
# Static dielectric constant tensor:
#      x y z
#    x 3.412950 0.183680 0.176840 
#    y 0.183680 3.919070 0.189150 
#    z 0.176840 0.189150 3.824450 
# 
# 
# High freq. dielectric constant tensor:
#      x y z
#    x 1.750800 0.015250 0.006820 
#    y 0.015250 1.789950 0.006870 
#    z 0.006820 0.006870 1.787580 
# 
# From -- ./inp_files/591929.got.cif
#   From: 2010.06.25/outbox.cif.g09.slc.cpg/sg2_296_cif.got.tgz:591929.got - 2010.06.27 13:26:56.
