data_PCOD8016395
_publ_section_title
;
Structure prediction by ZEFSAII (Michael W. Deem and Ramdas Pophale) SiO2 
 PCOD8016395
Probable space group: P -1
;
_chemical_formula_sum "Si O2"
_cell_formula_units_Z 14
_cell_length_a 12.825414
_cell_length_b 9.727680
_cell_length_c 7.777778
_cell_angle_alpha 78.104349
_cell_angle_beta 121.492845
_cell_angle_gamma 60.258785
_cell_volume 558.851701
_symmetry_space_group_name_H-M "P -1"
_symmetry_group_IT_number 2
_symmetry_cell_setting 'triclinic'
loop_
_space_group_symop_operation_xyz
x,y,z
-x,-y,-z
loop_
_atom_site_type_symbol
_atom_site_label
_atom_site_fract_x
_atom_site_fract_y
_atom_site_fract_z
Si Si1 0.104710 0.309751 0.410865
Si Si2 0.438424 0.197649 0.617224
Si Si3 0.819473 0.763968 0.106114
Si Si4 0.529763 0.354854 0.423344
Si Si5 0.078426 0.025931 0.908620
Si Si6 0.830803 0.045829 0.528468
Si Si7 0.592951 0.293449 0.937752
O O1 0.261566 0.252964 0.452971
O O2 0.173639 0.241170 0.681334
O O3 0.915713 0.545925 0.170521
O O4 0.069506 0.186130 0.331272
O O5 0.425420 0.301279 0.403224
O O6 0.441820 0.302391 0.759387
O O7 0.612946 0.950476 0.825719
O O8 0.944003 0.788614 0.137867
O O9 0.500000 0.500000 0.500000
O O10 0.730422 0.141344 0.603355
O O11 0.464216 0.494121 0.156983
O O12 0.972563 0.055713 0.639565
O O13 0.285365 0.826934 0.099768
O O14 0.000000 0.000000 0.000000
O O15 0.689230 0.168015 0.224002
#
# Coordination Sequence:
#
# PCOD8016395 Si02
#       7
#     2   2   2   2   2   2   2
#     4  11  24  41  69 101 139 182 225 278 339 411
#     4  10  21  44  69  93 143 183 221 278 343 408
#     4  10  23  43  67 101 136 185 226 267 351 410
#     4  10  23  42  64  98 130 176 227 276 351 399
#     4  11  23  42  70  95 137 179 220 289 342 398
#     4  12  23  42  67 103 135 167 238 286 328 410
#     4  10  22  40  67 103 128 178 232 276 339 398
#
# _framework density 25.051366999999999
#
# number of rings (size 3 to 8) (size 9 to 14) (size 15 to 20)
#    0.000    1.429    2.857    3.857    6.000    0.571 
#    2.571    2.857    0.000    0.000    0.000    0.000 
#    0.000    0.000    0.000    0.000    0.000    0.000 
#
# Total GULP energy -173482.065579 kJ/mol
# GULP energy per Si atom -12391.576113 kJ/mol
# Density = 2.499435 g / cm^3
# Si number density = 25.051367 Si / 1000 Ang^3
#
#
#
# Elastic Constant Matrix: (Units=GPa)
#
#
# Indices 1 2 3 4 5 6 
#
# 1 78.5845 14.5502 2.4647 -15.2020 -7.0890 1.5794
# 2 14.5502 130.8922 23.2221 -37.7353 -0.3948 -7.7750
# 3 2.4647 23.2221 48.1112 -21.9467 -5.3618 6.8488
# 4 -15.2020 -37.7353 -21.9467 34.9509 9.6898 3.6216
# 5 -7.0890 -0.3948 -5.3618 9.6898 28.8648 -7.1755
# 6 1.5794 -7.7750 6.8488 3.6216 -7.1755 28.6137
#
#
#
# Elastic Compliance Matrix: (Units=1/GPa)
#
#
# Indices 1 2 3 4 5 6 
#
# 1 0.014395 0.000137 0.003646 0.008794 0.000619 -0.002588
# 2 0.000137 0.011595 0.000218 0.013905 -0.004377 0.000233
# 3 0.003646 0.000218 0.033281 0.025251 -0.004486 -0.012429
# 4 0.008794 0.013905 0.025251 0.070880 -0.020975 -0.016982
# 5 0.000619 -0.004377 -0.004486 -0.020975 0.044331 0.013622
# 6 -0.002588 0.000233 -0.012429 -0.016982 0.013622 0.043695
#
#
# Mechanical properties :
#
#
# Convention : Reuss Voigt Hill
#
# Bulk Modulus (GPa) = 14.86509 37.56242 26.21375
# Shear Modulus (GPa) = 21.49618 32.97594 27.23606
#
# Velocity S-wave (km/s) = 2.93249 3.63207 3.30086
# Velocity P-wave (km/s) = 4.17285 5.71103 5.00143
#
# Compressibility (1/GPa) = 0.06727169
#
# Stress axis : x y z
#
# Youngs Moduli (GPa) = 69.47042 86.24193 30.04706
#
# Poissons Ratio (x) = -0.01178 -0.10954
# Poissons Ratio (y) = -0.00949 -0.00655
# Poissons Ratio (z) = -0.25327 -0.01881
#
# Static dielectric constant tensor:
#      x y z
#    x 4.583080 0.130170 -0.335830 
#    y 0.130170 4.875760 -0.260910 
#    z -0.335830 -0.260910 4.982810 
# 
# 
# High freq. dielectric constant tensor:
#      x y z
#    x 1.997860 -0.002400 -0.018670 
#    y -0.002400 1.998600 -0.012440 
#    z -0.018670 -0.012440 2.001200 
# 
# From -- ./inp_files/183840.got.cif
#   From: 2010.06.25/outbox.cif.g09.slc.cpg/sg2_92_cif.got.tgz:183840.got - 2010.06.27 13:26:56.
