data_PCOD8016330
_publ_section_title
;
Structure prediction by ZEFSAII (Michael W. Deem and Ramdas Pophale) SiO2 
 PCOD8016330
Probable space group: P -1
;
_chemical_formula_sum "Si O2"
_cell_formula_units_Z 16
_cell_length_a 29.786730
_cell_length_b 9.700161
_cell_length_c 5.091794
_cell_angle_alpha 96.105143
_cell_angle_beta 88.576455
_cell_angle_gamma 150.823331
_cell_volume 706.094532
_symmetry_space_group_name_H-M "P -1"
_symmetry_group_IT_number 2
_symmetry_cell_setting 'triclinic'
loop_
_space_group_symop_operation_xyz
x,y,z
-x,-y,-z
loop_
_atom_site_type_symbol
_atom_site_label
_atom_site_fract_x
_atom_site_fract_y
_atom_site_fract_z
Si Si1 0.939148 0.708309 0.525918
Si Si2 0.153677 0.877143 0.033302
Si Si3 0.657723 0.127486 0.022612
Si Si4 0.181752 0.654636 0.030064
Si Si5 0.413522 0.665871 0.438812
Si Si6 0.974095 0.315861 0.663777
Si Si7 0.537523 0.752036 0.473369
Si Si8 0.302413 0.448122 0.903800
O O1 0.895840 0.602930 0.800699
O O2 0.019494 0.809312 0.519804
O O3 0.855230 0.458691 0.284258
O O4 0.000000 0.000000 0.500000
O O5 0.054759 0.536794 0.917723
O O6 0.203361 0.098683 0.837881
O O7 0.212526 0.900272 0.127256
O O8 0.129676 0.931748 0.263163
O O9 0.610607 0.947121 0.261903
O O10 0.705692 0.408332 0.115015
O O11 0.582751 0.942259 0.764512
O O12 0.730462 0.209325 0.929611
O O13 0.449429 0.607096 0.371955
O O14 0.366436 0.547585 0.703802
O O15 0.500000 0.000000 0.500000
O O16 0.340678 0.516348 0.200956
O O17 0.000000 0.500000 0.500000
O O18 0.500000 0.500000 0.500000
#
# Coordination Sequence:
#
# PCOD8016330 Si02
#       8
#     2   2   2   2   2   2   2   2
#     4  11  24  42  66  94 128 178 217 263 333 388
#     4  10  25  41  66 100 128 178 220 274 336 384
#     4  12  25  46  66 101 136 168 221 279 324 396
#     4  11  25  43  63  95 137 167 214 278 322 391
#     4  12  24  47  69  96 137 171 223 277 327 392
#     4  10  21  44  67  91 135 168 225 275 319 398
#     4  12  27  45  71  97 131 180 219 264 339 394
#     4  12  26  42  72 101 131 177 223 278 333 388
#
# _framework density 22.659856000000001
#
# number of rings (size 3 to 8) (size 9 to 14) (size 15 to 20)
#    0.000    0.750    3.750    2.625    7.000    1.000 
#    0.000    0.000    0.000    0.000    0.000    0.000 
#    0.000    0.000    0.000    0.000    0.000    0.000 
#
# Total GULP energy -198320.289275 kJ/mol
# GULP energy per Si atom -12395.018080 kJ/mol
# Density = 2.260828 g / cm^3
# Si number density = 22.659856 Si / 1000 Ang^3
#
#
#
# Elastic Constant Matrix: (Units=GPa)
#
#
# Indices 1 2 3 4 5 6 
#
# 1 188.9142 55.3322 18.7651 -29.3808 -16.4616 -11.1524
# 2 55.3322 108.1939 20.8745 -45.7674 -13.6549 -18.1093
# 3 18.7651 20.8745 85.8112 -28.1683 -6.6038 -1.7662
# 4 -29.3808 -45.7674 -28.1683 45.1866 7.1561 5.6410
# 5 -16.4616 -13.6549 -6.6038 7.1561 36.7229 -8.9657
# 6 -11.1524 -18.1093 -1.7662 5.6410 -8.9657 35.9772
#
#
#
# Elastic Compliance Matrix: (Units=1/GPa)
#
#
# Indices 1 2 3 4 5 6 
#
# 1 0.006420 -0.002246 -0.000260 0.001272 0.002030 0.001153
# 2 -0.002246 0.019415 0.002154 0.017802 0.004995 0.007636
# 3 -0.000260 0.002154 0.014927 0.011073 0.001289 0.000321
# 4 0.001272 0.017802 0.011073 0.047479 0.000563 0.002595
# 5 0.002030 0.004995 0.001289 0.000563 0.032882 0.011313
# 6 0.001153 0.007636 0.000321 0.002595 0.011313 0.034424
#
#
# Mechanical properties :
#
#
# Convention : Reuss Voigt Hill
#
# Bulk Modulus (GPa) = 24.96429 63.65143 44.30786
# Shear Modulus (GPa) = 29.48053 42.77384 36.12718
#
# Velocity S-wave (km/s) = 3.61085 4.34942 3.99723
# Velocity P-wave (km/s) = 5.33153 7.30577 6.39529
#
# Compressibility (1/GPa) = 0.04005722
#
# Stress axis : x y z
#
# Youngs Moduli (GPa) = 155.76849 51.50742 66.99200
#
# Poissons Ratio (x) = 0.11567 0.01742
# Poissons Ratio (y) = 0.34981 -0.14427
# Poissons Ratio (z) = 0.04051 -0.11093
#
# Static dielectric constant tensor:
#      x y z
#    x 4.572090 -0.030400 -0.061370 
#    y -0.030400 4.124750 -0.008810 
#    z -0.061370 -0.008810 4.213250 
# 
# 
# High freq. dielectric constant tensor:
#      x y z
#    x 1.915900 -0.003690 -0.003920 
#    y -0.003690 1.885440 -0.018300 
#    z -0.003920 -0.018300 1.897810 
# 
# From -- ./inp_files/122925.got.cif
#   From: 2010.06.25/outbox.cif.g09.slc.cpg/sg2_62_cif.got.tgz:122925.got - 2010.06.27 13:26:56.
