data_PCOD8016494
_publ_section_title
;
Structure prediction by ZEFSAII (Michael W. Deem and Ramdas Pophale) SiO2 
 PCOD8016494
Probable space group: P -1
;
_chemical_formula_sum "Si O2"
_cell_formula_units_Z 16
_cell_length_a 11.817905
_cell_length_b 9.075207
_cell_length_c 9.256945
_cell_angle_alpha 105.448418
_cell_angle_beta 117.800329
_cell_angle_gamma 55.732621
_cell_volume 725.764176
_symmetry_space_group_name_H-M "P -1"
_symmetry_group_IT_number 2
_symmetry_cell_setting 'triclinic'
loop_
_space_group_symop_operation_xyz
x,y,z
-x,-y,-z
loop_
_atom_site_type_symbol
_atom_site_label
_atom_site_fract_x
_atom_site_fract_y
_atom_site_fract_z
Si Si1 0.704695 0.620917 0.363328
Si Si2 0.969251 0.238787 0.411560
Si Si3 0.490228 0.534877 0.717691
Si Si4 0.060336 0.075145 0.716340
Si Si5 0.298840 0.084546 0.050740
Si Si6 0.711758 0.236789 0.580457
Si Si7 0.579851 0.732290 0.023780
Si Si8 0.243252 0.116374 0.363918
O O1 0.860561 0.442214 0.446710
O O2 0.567280 0.596093 0.307808
O O3 0.678736 0.789778 0.484332
O O4 0.705768 0.655914 0.202426
O O5 0.084070 0.130716 0.584200
O O6 0.067588 0.227770 0.329366
O O7 0.878683 0.137709 0.295875
O O8 0.631208 0.421531 0.668380
O O9 0.361319 0.716017 0.610841
O O10 0.547927 0.582974 0.907648
O O11 0.883888 0.178999 0.668610
O O12 0.145014 0.126279 0.895583
O O13 0.356705 0.209479 0.056548
O O14 0.265377 0.123314 0.209222
O O15 0.426585 0.884170 0.042567
O O16 0.684743 0.086848 0.594042
#
# Coordination Sequence:
#
# PCOD8016494 Si02
#       8
#     2   2   2   2   2   2   2   2
#     4  12  24  44  69 101 136 179 226 276 336 404
#     4  10  22  41  70 100 131 180 226 274 333 401
#     4  11  24  43  70 101 137 172 228 279 336 401
#     4  10  21  44  72  97 136 180 221 274 337 402
#     4  11  26  44  66 102 137 179 226 275 340 397
#     4  10  24  42  70 103 134 178 222 278 335 402
#     4  11  27  43  68 100 137 177 223 284 334 397
#     4  11  26  42  67 101 137 180 223 278 335 399
#
# _framework density 22.045726999999999
#
# number of rings (size 3 to 8) (size 9 to 14) (size 15 to 20)
#    0.000    1.250    1.250    3.000   10.500    5.000 
#    0.000    1.875    0.000    0.000    0.000    0.000 
#    0.000    0.000    0.000    0.000    0.000    0.000 
#
# Total GULP energy -198427.525228 kJ/mol
# GULP energy per Si atom -12401.720327 kJ/mol
# Density = 2.199555 g / cm^3
# Si number density = 22.045727 Si / 1000 Ang^3
#
#
#
# Elastic Constant Matrix: (Units=GPa)
#
#
# Indices 1 2 3 4 5 6 
#
# 1 115.0631 39.3342 63.9009 10.4544 -13.7008 5.0747
# 2 39.3342 90.4629 48.0400 7.5854 7.2866 3.1506
# 3 63.9009 48.0400 150.3107 24.1468 -5.1626 10.4302
# 4 10.4544 7.5854 24.1468 34.4678 3.1915 1.5798
# 5 -13.7008 7.2866 -5.1626 3.1915 40.9854 1.2109
# 6 5.0747 3.1506 10.4302 1.5798 1.2109 19.4764
#
#
#
# Elastic Compliance Matrix: (Units=1/GPa)
#
#
# Indices 1 2 3 4 5 6 
#
# 1 0.012787 -0.003762 -0.003907 -0.000693 0.004530 -0.000856
# 2 -0.003762 0.014786 -0.003429 0.000666 -0.004389 0.000643
# 3 -0.003907 -0.003429 0.010577 -0.005408 0.001167 -0.003726
# 4 -0.000693 0.000666 -0.005408 0.033178 -0.003630 0.000503
# 5 0.004530 -0.004389 0.001167 -0.003630 0.027197 -0.002492
# 6 -0.000856 0.000643 -0.003726 0.000503 -0.002492 0.053572
#
#
# Mechanical properties :
#
#
# Convention : Reuss Voigt Hill
#
# Bulk Modulus (GPa) = 62.67959 73.15410 67.91685
# Shear Modulus (GPa) = 27.83783 32.62335 30.23059
#
# Velocity S-wave (km/s) = 3.55735 3.85099 3.70708
# Velocity P-wave (km/s) = 6.73545 7.28207 7.01409
#
# Compressibility (1/GPa) = 0.01595416
#
# Stress axis : x y z
#
# Youngs Moduli (GPa) = 78.20384 67.63101 94.54330
#
# Poissons Ratio (x) = 0.25442 0.36942
# Poissons Ratio (y) = 0.29420 0.32417
# Poissons Ratio (z) = 0.30557 0.23189
#
# Static dielectric constant tensor:
#      x y z
#    x 4.020620 0.106210 -0.129830 
#    y 0.106210 4.010260 -0.030700 
#    z -0.129830 -0.030700 3.861960 
# 
# 
# High freq. dielectric constant tensor:
#      x y z
#    x 1.878880 0.002230 -0.007180 
#    y 0.002230 1.873240 0.002800 
#    z -0.007180 0.002800 1.856520 
# 
# From -- ./inp_files/244734.got.cif
#   From: 2010.06.25/outbox.cif.g09.slc.cpg/sg2_123_cif.got.tgz:244734.got - 2010.06.27 13:26:56.
