data_PCOD8016678
_publ_section_title
;
Structure prediction by ZEFSAII (Michael W. Deem and Ramdas Pophale) SiO2 
 PCOD8016678
Probable space group: P -1
;
_chemical_formula_sum "Si O2"
_cell_formula_units_Z 12
_cell_length_a 15.170682
_cell_length_b 11.424295
_cell_length_c 11.638832
_cell_angle_alpha 65.726501
_cell_angle_beta 27.081087
_cell_angle_gamma 47.542655
_cell_volume 558.780837
_symmetry_space_group_name_H-M "P -1"
_symmetry_group_IT_number 2
_symmetry_cell_setting 'triclinic'
loop_
_space_group_symop_operation_xyz
x,y,z
-x,-y,-z
loop_
_atom_site_type_symbol
_atom_site_label
_atom_site_fract_x
_atom_site_fract_y
_atom_site_fract_z
Si Si1 0.266894 0.977644 0.434142
Si Si2 0.019643 0.602537 0.026005
Si Si3 0.591941 0.094813 0.454204
Si Si4 0.827574 0.205960 0.239888
Si Si5 0.203360 0.586011 0.266318
Si Si6 0.196972 0.399633 0.142849
O O1 0.025345 0.187297 0.576185
O O2 0.390438 0.980763 0.408551
O O3 0.124907 0.906797 0.656684
O O4 0.523159 0.830752 0.103066
O O5 0.681968 0.817067 0.338577
O O6 0.135341 0.496424 0.054614
O O7 0.230382 0.615707 0.734426
O O8 0.000000 0.500000 0.000000
O O9 0.574034 0.259880 0.437472
O O10 0.885744 0.924716 0.116163
O O11 0.265325 0.479010 0.120632
O O12 0.078468 0.548498 0.520328
O O13 0.500000 0.500000 0.000000
#
# Coordination Sequence:
#
# PCOD8016678 Si02
#       6
#     2   2   2   2   2   2
#     4  10  21  46  67  96 137 170 221 279 327 394
#     4  12  22  38  65 104 134 170 213 267 347 402
#     4   9  20  38  62  97 132 174 207 272 332 396
#     4   9  21  37  60  97 135 175 211 265 329 401
#     4  11  27  48  69  93 128 185 231 277 328 383
#     4  11  26  44  68 100 136 171 227 279 322 409
#
# _framework density 21.475325000000002
#
# number of rings (size 3 to 8) (size 9 to 14) (size 15 to 20)
#    1.000    0.667    1.667    2.000    2.333    4.667 
#    3.000    0.000    0.000    0.000    0.000    0.000 
#    0.000    0.000    0.000    0.000    0.000    0.000 
#
# Total GULP energy -148670.670455 kJ/mol
# GULP energy per Si atom -12389.222538 kJ/mol
# Density = 2.142645 g / cm^3
# Si number density = 21.475325 Si / 1000 Ang^3
#
#
#
# Elastic Constant Matrix: (Units=GPa)
#
#
# Indices 1 2 3 4 5 6 
#
# 1 93.3852 35.0352 45.7776 -7.3139 -14.5932 7.9876
# 2 35.0352 98.0827 21.8062 -6.4018 -18.0250 -0.5879
# 3 45.7776 21.8062 75.2521 3.3394 -18.8669 6.7022
# 4 -7.3139 -6.4018 3.3394 40.8796 3.0488 -9.6935
# 5 -14.5932 -18.0250 -18.8669 3.0488 46.6256 -0.8649
# 6 7.9876 -0.5879 6.7022 -9.6935 -0.8649 25.3145
#
#
#
# Elastic Compliance Matrix: (Units=1/GPa)
#
#
# Indices 1 2 3 4 5 6 
#
# 1 0.017056 -0.003897 -0.009219 0.002731 -0.000114 -0.001990
# 2 -0.003897 0.012467 -0.000720 0.001654 0.003246 0.002454
# 3 -0.009219 -0.000720 0.021128 -0.004953 0.005628 -0.004406
# 4 0.002731 0.001654 -0.004953 0.028457 -0.002161 0.011311
# 5 -0.000114 0.003246 0.005628 -0.002161 0.025060 -0.001350
# 6 -0.001990 0.002454 -0.004406 0.011311 -0.001350 0.045640
#
#
# Mechanical properties :
#
#
# Convention : Reuss Voigt Hill
#
# Bulk Modulus (GPa) = 43.51786 52.43977 47.97882
# Shear Modulus (GPa) = 27.00662 33.50402 30.25532
#
# Velocity S-wave (km/s) = 3.55006 3.95412 3.75753
# Velocity P-wave (km/s) = 6.09197 6.73189 6.41991
#
# Compressibility (1/GPa) = 0.02297907
#
# Stress axis : x y z
#
# Youngs Moduli (GPa) = 58.63118 80.21289 47.32958
#
# Poissons Ratio (x) = 0.31263 0.43632
# Poissons Ratio (y) = 0.22851 0.03407
# Poissons Ratio (z) = 0.54050 0.05774
#
# Static dielectric constant tensor:
#      x y z
#    x 3.709820 0.408850 -0.047260 
#    y 0.408850 4.034050 0.096330 
#    z -0.047260 0.096330 4.348020 
# 
# 
# High freq. dielectric constant tensor:
#      x y z
#    x 1.834220 0.023880 0.005380 
#    y 0.023880 1.844410 0.006370 
#    z 0.005380 0.006370 1.859290 
# 
# From -- ./inp_files/448692.got.cif
#   From: 2010.06.25/outbox.cif.g09.slc.cpg/sg2_225_cif.got.tgz:448692.got - 2010.06.27 13:26:56.
