data_PCOD8016578
_publ_section_title
;
Structure prediction by ZEFSAII (Michael W. Deem and Ramdas Pophale) SiO2 
 PCOD8016578
Probable space group: P -1
;
_chemical_formula_sum "Si O2"
_cell_formula_units_Z 14
_cell_length_a 9.062291
_cell_length_b 14.547645
_cell_length_c 15.643987
_cell_angle_alpha 39.220436
_cell_angle_beta 40.069908
_cell_angle_gamma 27.489727
_cell_volume 580.050622
_symmetry_space_group_name_H-M "P -1"
_symmetry_group_IT_number 2
_symmetry_cell_setting 'triclinic'
loop_
_space_group_symop_operation_xyz
x,y,z
-x,-y,-z
loop_
_atom_site_type_symbol
_atom_site_label
_atom_site_fract_x
_atom_site_fract_y
_atom_site_fract_z
Si Si1 0.314449 0.328161 0.349727
Si Si2 0.010067 0.210616 0.826580
Si Si3 0.761693 0.189140 0.403323
Si Si4 0.685568 0.433132 0.555246
Si Si5 0.420200 0.834513 0.151562
Si Si6 0.793187 0.124545 0.132715
Si Si7 0.659715 0.918475 0.850723
O O1 0.605119 0.168720 0.407323
O O2 0.456769 0.271410 0.230870
O O3 0.118619 0.566384 0.289830
O O4 0.073373 0.298216 0.472673
O O5 0.040690 0.108985 0.797019
O O6 0.393219 0.018322 0.823023
O O7 0.754534 0.244400 0.979677
O O8 0.456903 0.374217 0.462783
O O9 0.972584 0.226736 0.244941
O O10 0.000000 0.000000 0.500000
O O11 0.500000 0.500000 0.500000
O O12 0.612566 0.321564 0.719820
O O13 0.485193 0.870241 0.190484
O O14 0.688105 0.766840 0.011494
O O15 0.070640 0.069969 0.109554
#
# Coordination Sequence:
#
# PCOD8016578 Si02
#       7
#     2   2   2   2   2   2   2
#     4  12  25  46  71 102 145 192 229 296 353 420
#     4  10  22  43  70 108 141 179 235 292 354 425
#     4  12  26  46  69 102 139 188 237 289 357 413
#     4  12  28  45  68 103 143 184 240 292 345 432
#     4  10  21  45  68 101 133 182 232 282 354 418
#     4  10  22  41  73 105 139 183 234 290 355 426
#     4  10  22  44  74  94 140 178 225 299 347 416
#
# _framework density 24.135825000000001
#
# number of rings (size 3 to 8) (size 9 to 14) (size 15 to 20)
#    0.000    1.143    1.429    4.286    2.000    2.286 
#    5.143    0.000    0.000    0.000    0.000    0.000 
#    0.000    0.000    0.000    0.000    0.000    0.000 
#
# Total GULP energy -173475.685432 kJ/mol
# GULP energy per Si atom -12391.120388 kJ/mol
# Density = 2.408089 g / cm^3
# Si number density = 24.135825 Si / 1000 Ang^3
#
#
#
# Elastic Constant Matrix: (Units=GPa)
#
#
# Indices 1 2 3 4 5 6 
#
# 1 119.6475 27.4609 56.5405 9.8018 3.0163 -14.9731
# 2 27.4609 62.3229 42.3699 16.0008 -2.0167 1.3173
# 3 56.5405 42.3699 137.5706 19.2800 -15.4992 -9.0147
# 4 9.8018 16.0008 19.2800 49.3447 -0.2176 -6.8588
# 5 3.0163 -2.0167 -15.4992 -0.2176 37.9111 2.5365
# 6 -14.9731 1.3173 -9.0147 -6.8588 2.5365 37.5716
#
#
#
# Elastic Compliance Matrix: (Units=1/GPa)
#
#
# Indices 1 2 3 4 5 6 
#
# 1 0.011388 -0.002633 -0.004041 0.000713 -0.002961 0.003991
# 2 -0.002633 0.022250 -0.005375 -0.005153 -0.000565 -0.004022
# 3 -0.004041 -0.005375 0.011404 -0.001796 0.004643 0.000673
# 4 0.000713 -0.005153 -0.001796 0.023094 -0.001222 0.004332
# 5 -0.002961 -0.000565 0.004643 -0.001222 0.028621 -0.002202
# 6 0.003991 -0.004022 0.000673 0.004332 -0.002202 0.029448
#
#
# Mechanical properties :
#
#
# Convention : Reuss Voigt Hill
#
# Bulk Modulus (GPa) = 47.75090 63.58707 55.66899
# Shear Modulus (GPa) = 31.78926 37.84347 34.81636
#
# Velocity S-wave (km/s) = 3.63312 3.96402 3.80217
# Velocity P-wave (km/s) = 6.11773 6.88142 6.51078
#
# Compressibility (1/GPa) = 0.02094201
#
# Stress axis : x y z
#
# Youngs Moduli (GPa) = 87.81399 44.94386 87.68611
#
# Poissons Ratio (x) = 0.11836 0.35435
# Poissons Ratio (y) = 0.23125 0.47135
# Poissons Ratio (z) = 0.35487 0.24159
#
# Static dielectric constant tensor:
#      x y z
#    x 5.092500 -0.720560 -0.065930 
#    y -0.720560 4.657410 0.365800 
#    z -0.065930 0.365800 4.607220 
# 
# 
# High freq. dielectric constant tensor:
#      x y z
#    x 1.979460 -0.004990 0.003700 
#    y -0.004990 1.922440 0.016640 
#    z 0.003700 0.016640 1.970410 
# 
# From -- ./inp_files/202209.got.cif
#   From: 2010.06.25/outbox.cif.g09.slc.cpg/sg2_102_cif.got.tgz:202209.got - 2010.06.27 13:26:56.
