data_PCOD8016308
_publ_section_title
;
Structure prediction by ZEFSAII (Michael W. Deem and Ramdas Pophale) SiO2 
 PCOD8016308
Probable space group: P -1
;
_chemical_formula_sum "Si O2"
_cell_formula_units_Z 14
_cell_length_a 6.676243
_cell_length_b 7.628854
_cell_length_c 15.209291
_cell_angle_alpha 117.446963
_cell_angle_beta 110.554712
_cell_angle_gamma 99.839624
_cell_volume 589.826101
_symmetry_space_group_name_H-M "P -1"
_symmetry_group_IT_number 2
_symmetry_cell_setting 'triclinic'
loop_
_space_group_symop_operation_xyz
x,y,z
-x,-y,-z
loop_
_atom_site_type_symbol
_atom_site_label
_atom_site_fract_x
_atom_site_fract_y
_atom_site_fract_z
Si Si1 0.722645 0.576782 0.333348
Si Si2 0.776089 0.620796 0.071293
Si Si3 0.040843 0.731033 0.955284
Si Si4 0.665654 0.824085 0.834423
Si Si5 0.685413 0.261761 0.384704
Si Si6 0.550969 0.803698 0.495733
Si Si7 0.935045 0.948094 0.322054
O O1 0.551787 0.377836 0.199500
O O2 0.847131 0.478887 0.403819
O O3 0.545669 0.653496 0.378205
O O4 0.908128 0.766637 0.350165
O O5 0.889447 0.468044 0.097927
O O6 0.850247 0.837828 0.189744
O O7 0.500000 0.500000 0.000000
O O8 0.874595 0.689063 0.005134
O O9 0.895759 0.767657 0.859268
O O10 0.275414 0.948533 0.054993
O O11 0.572947 0.838168 0.725214
O O12 0.644235 0.326104 0.491935
O O13 0.782049 0.077067 0.357618
O O14 0.500000 0.000000 0.500000
O O15 0.799888 0.890143 0.602361
#
# Coordination Sequence:
#
# PCOD8016308 Si02
#       7
#     2   2   2   2   2   2   2
#     4  10  24  45  68  98 137 176 223 278 336 396
#     4  11  24  40  70  98 135 178 224 272 342 396
#     4  10  21  44  66  94 137 176 225 278 330 402
#     4   9  21  41  67  96 130 177 221 277 330 396
#     4  10  24  46  67  96 141 170 227 278 328 409
#     4  12  25  45  73  97 136 182 228 277 338 402
#     4  12  25  45  68 104 134 180 223 281 341 395
#
# _framework density 23.735811000000002
#
# number of rings (size 3 to 8) (size 9 to 14) (size 15 to 20)
#    0.857    0.571    1.429    3.429    2.000    2.857 
#   10.286    4.286    0.000    0.000    0.000    0.000 
#    0.000    0.000    0.000    0.000    0.000    0.000 
#
# Total GULP energy -173478.935386 kJ/mol
# GULP energy per Si atom -12391.352528 kJ/mol
# Density = 2.368179 g / cm^3
# Si number density = 23.735811 Si / 1000 Ang^3
#
#
#
# Elastic Constant Matrix: (Units=GPa)
#
#
# Indices 1 2 3 4 5 6 
#
# 1 80.3096 25.8486 17.3426 -0.9513 -10.3039 1.1069
# 2 25.8486 106.0564 -0.7834 2.6539 -1.7220 -0.4684
# 3 17.3426 -0.7834 44.9643 9.5429 -13.4275 5.2275
# 4 -0.9513 2.6539 9.5429 39.7859 0.5920 5.2153
# 5 -10.3039 -1.7220 -13.4275 0.5920 26.4429 -1.6143
# 6 1.1069 -0.4684 5.2275 5.2153 -1.6143 34.0590
#
#
#
# Elastic Compliance Matrix: (Units=1/GPa)
#
#
# Indices 1 2 3 4 5 6 
#
# 1 0.015236 -0.003754 -0.005500 0.001872 0.002867 0.000147
# 2 -0.003754 0.010395 0.001953 -0.001278 0.000245 0.000172
# 3 -0.005500 0.001953 0.030256 -0.007367 0.013349 -0.002678
# 4 0.001872 -0.001278 -0.007367 0.027529 -0.003915 -0.003349
# 5 0.002867 0.000245 0.013349 -0.003915 0.045855 0.000634
# 6 0.000147 0.000172 -0.002678 -0.003349 0.000634 0.030312
#
#
# Mechanical properties :
#
#
# Convention : Reuss Voigt Hill
#
# Bulk Modulus (GPa) = 24.22119 35.12733 29.67426
# Shear Modulus (GPa) = 26.60339 32.65239 29.62789
#
# Velocity S-wave (km/s) = 3.35149 3.71301 3.53687
# Velocity P-wave (km/s) = 5.02028 5.76310 5.40447
#
# Compressibility (1/GPa) = 0.04128617
#
# Stress axis : x y z
#
# Youngs Moduli (GPa) = 65.63569 96.20068 33.05084
#
# Poissons Ratio (x) = 0.36110 0.18178
# Poissons Ratio (y) = 0.24637 -0.06456
# Poissons Ratio (z) = 0.36100 -0.18790
#
# Static dielectric constant tensor:
#      x y z
#    x 4.455900 -0.044350 0.194500 
#    y -0.044350 4.507860 0.158000 
#    z 0.194500 0.158000 4.265900 
# 
# 
# High freq. dielectric constant tensor:
#      x y z
#    x 1.923190 -0.008840 0.011980 
#    y -0.008840 1.958640 0.007420 
#    z 0.011980 0.007420 1.934510 
# 
# From -- ./inp_files/548441.got.cif
#   From: 2010.06.25/outbox.cif.g09.slc.cpg/sg2_275_cif.got.tgz:548441.got - 2010.06.27 13:26:56.
