data_PCOD8016729
_publ_section_title
;
Structure prediction by ZEFSAII (Michael W. Deem and Ramdas Pophale) SiO2 
 PCOD8016729
Probable space group: P -1
;
_chemical_formula_sum "Si O2"
_cell_formula_units_Z 16
_cell_length_a 6.824446
_cell_length_b 24.092300
_cell_length_c 12.400651
_cell_angle_alpha 26.681260
_cell_angle_beta 125.405660
_cell_angle_gamma 129.883919
_cell_volume 702.389555
_symmetry_space_group_name_H-M "P -1"
_symmetry_group_IT_number 2
_symmetry_cell_setting 'triclinic'
loop_
_space_group_symop_operation_xyz
x,y,z
-x,-y,-z
loop_
_atom_site_type_symbol
_atom_site_label
_atom_site_fract_x
_atom_site_fract_y
_atom_site_fract_z
Si Si1 0.404386 0.092703 0.030676
Si Si2 0.727858 0.960261 0.689529
Si Si3 0.765531 0.594768 0.072505
Si Si4 0.999884 0.623803 0.503382
Si Si5 0.004874 0.747857 0.686789
Si Si6 0.002917 0.768978 0.042521
Si Si7 0.041154 0.819060 0.346686
Si Si8 0.773963 0.453423 0.920904
O O1 0.382775 0.126865 0.089368
O O2 0.301863 0.935126 0.259741
O O3 0.694633 0.156337 0.971844
O O4 0.209391 0.142422 0.816705
O O5 0.500000 0.000000 0.500000
O O6 0.945566 0.099205 0.542310
O O7 0.854007 0.874609 0.805558
O O8 0.813227 0.456799 0.321539
O O9 0.961544 0.692841 0.048320
O O10 0.480593 0.560309 0.076480
O O11 0.780788 0.662682 0.842436
O O12 0.896580 0.663266 0.289273
O O13 0.134867 0.759099 0.376211
O O14 0.786724 0.542682 0.663142
O O15 0.944080 0.718869 0.590276
O O16 0.236844 0.689859 0.881634
O O17 0.000000 0.500000 0.000000
#
# Coordination Sequence:
#
# PCOD8016729 Si02
#       8
#     2   2   2   2   2   2   2   2
#     4  10  24  43  70 101 137 176 220 281 339 399
#     4  11  23  43  70  97 136 178 217 279 339 399
#     4  11  27  44  67  99 138 179 229 275 327 402
#     4  11  25  45  68 101 132 183 223 277 334 398
#     4  10  23  43  67 100 132 173 224 277 335 394
#     4  12  26  45  69 103 133 180 229 271 339 405
#     4  10  21  47  67 101 140 173 222 279 341 394
#     4  11  24  45  66  98 134 181 222 276 338 391
#
# _framework density 22.779381999999998
#
# number of rings (size 3 to 8) (size 9 to 14) (size 15 to 20)
#    0.000    1.250    2.500    1.875    1.750    9.000 
#    2.250    0.000    0.000    0.000    0.000    0.000 
#    0.000    0.000    0.000    0.000    0.000    0.000 
#
# Total GULP energy -198245.820310 kJ/mol
# GULP energy per Si atom -12390.363769 kJ/mol
# Density = 2.272754 g / cm^3
# Si number density = 22.779382 Si / 1000 Ang^3
#
#
#
# Elastic Constant Matrix: (Units=GPa)
#
#
# Indices 1 2 3 4 5 6 
#
# 1 151.1589 41.4761 49.0271 -6.2113 6.1043 2.8656
# 2 41.4761 71.3505 14.9858 2.4198 3.8530 -1.6092
# 3 49.0271 14.9858 110.1612 -0.0391 -11.0630 1.1600
# 4 -6.2113 2.4198 -0.0391 31.2257 -14.9727 6.4596
# 5 6.1043 3.8530 -11.0630 -14.9727 36.5163 2.8148
# 6 2.8656 -1.6092 1.1600 6.4596 2.8148 40.6230
#
#
#
# Elastic Compliance Matrix: (Units=1/GPa)
#
#
# Indices 1 2 3 4 5 6 
#
# 1 0.009181 -0.004588 -0.003589 0.001708 -0.001368 -0.000904
# 2 -0.004588 0.017159 -0.000621 -0.004099 -0.003058 0.001885
# 3 -0.003589 -0.000621 0.011259 0.001842 0.004887 -0.000724
# 4 0.001708 -0.004099 0.001842 0.043722 0.019297 -0.008625
# 5 -0.001368 -0.003058 0.004887 0.019297 0.037780 -0.005850
# 6 -0.000904 0.001885 -0.000724 -0.008625 -0.005850 0.026553
#
#
# Mechanical properties :
#
#
# Convention : Reuss Voigt Hill
#
# Bulk Modulus (GPa) = 49.99169 60.40540 55.19855
# Shear Modulus (GPa) = 29.42622 36.81843 33.12232
#
# Velocity S-wave (km/s) = 3.59805 4.02469 3.81734
# Velocity P-wave (km/s) = 6.26538 6.94065 6.61164
#
# Compressibility (1/GPa) = 0.02000332
#
# Stress axis : x y z
#
# Youngs Moduli (GPa) = 108.92043 58.27800 88.82148
#
# Poissons Ratio (x) = 0.26735 0.31880
# Poissons Ratio (y) = 0.49968 0.05515
# Poissons Ratio (z) = 0.39094 0.03619
#
# Static dielectric constant tensor:
#      x y z
#    x 4.352230 -0.628410 0.683530 
#    y -0.628410 4.372420 -0.635870 
#    z 0.683530 -0.635870 5.924420 
# 
# 
# High freq. dielectric constant tensor:
#      x y z
#    x 1.893410 -0.027480 -0.002140 
#    y -0.027480 1.889700 -0.007670 
#    z -0.002140 -0.007670 1.922590 
# 
# From -- ./inp_files/371024.got.cif
#   From: 2010.06.25/outbox.cif.g09.slc.cpg/sg2_186_cif.got.tgz:371024.got - 2010.06.27 13:26:56.
