data_PCOD8016858
_publ_section_title
;
Structure prediction by ZEFSAII (Michael W. Deem and Ramdas Pophale) SiO2 
 PCOD8016858
Probable space group: P -1
;
_chemical_formula_sum "Si O2"
_cell_formula_units_Z 16
_cell_length_a 15.261360
_cell_length_b 26.162353
_cell_length_c 17.177632
_cell_angle_alpha 158.104601
_cell_angle_beta 23.237035
_cell_angle_gamma 160.887896
_cell_volume 785.916992
_symmetry_space_group_name_H-M "P -1"
_symmetry_group_IT_number 2
_symmetry_cell_setting 'triclinic'
loop_
_space_group_symop_operation_xyz
x,y,z
-x,-y,-z
loop_
_atom_site_type_symbol
_atom_site_label
_atom_site_fract_x
_atom_site_fract_y
_atom_site_fract_z
Si Si1 0.238369 0.426434 0.512444
Si Si2 0.159851 0.519697 0.166272
Si Si3 0.985913 0.089817 0.527436
Si Si4 0.043842 0.594565 0.517998
Si Si5 0.658924 0.064733 0.156123
Si Si6 0.177825 0.864236 0.047620
Si Si7 0.270158 0.219694 0.315550
Si Si8 0.522918 0.537788 0.282920
O O1 0.134061 0.258800 0.413101
O O2 0.418707 0.602617 0.665748
O O3 0.433207 0.443867 0.307580
O O4 0.965825 0.400058 0.664312
O O5 0.250449 0.597941 0.291131
O O6 0.426626 0.568767 0.967965
O O7 0.940277 0.309093 0.053148
O O8 0.056894 0.141702 0.452238
O O9 0.203800 0.257878 0.641899
O O10 0.009811 0.937535 0.312221
O O11 0.667946 0.015708 0.700590
O O12 0.737848 0.476798 0.559529
O O13 0.000000 0.500000 0.500000
O O14 0.186703 0.796435 0.703075
O O15 0.836380 0.166626 0.076987
O O16 0.678281 0.912455 0.945203
O O17 0.500000 0.000000 0.000000
#
# Coordination Sequence:
#
# PCOD8016858 Si02
#       8
#     2   2   2   2   2   2   2   2
#     4   9  19  38  61  90 119 151 192 248 297 346
#     4  11  22  36  57  83 116 158 200 232 287 352
#     4  10  22  36  62  92 115 151 198 245 290 353
#     4  11  24  41  56  81 123 163 195 237 288 351
#     4  11  23  39  59  88 120 155 195 243 293 341
#     4  11  21  34  56  85 120 150 187 241 297 344
#     4   9  19  38  62  88 121 150 193 247 299 342
#     4  10  22  39  59  86 118 157 198 238 296 347
#
# _framework density 20.358384000000001
#
# number of rings (size 3 to 8) (size 9 to 14) (size 15 to 20)
#    0.000    1.750    1.250    4.500    1.750    4.500 
#    0.000    6.250    0.000    4.500    0.000    0.000 
#    0.000    0.000    0.000    0.000    0.000    0.000 
#
# Total GULP energy -198390.731418 kJ/mol
# GULP energy per Si atom -12399.420714 kJ/mol
# Density = 2.031205 g / cm^3
# Si number density = 20.358384 Si / 1000 Ang^3
#
#
#
# Elastic Constant Matrix: (Units=GPa)
#
#
# Indices 1 2 3 4 5 6 
#
# 1 106.4545 19.7637 52.2168 14.2577 0.4366 -3.6802
# 2 19.7637 52.0313 28.8966 5.5612 0.1220 7.1923
# 3 52.2168 28.8966 137.1341 7.1391 13.8171 -7.9809
# 4 14.2577 5.5612 7.1391 26.5919 -0.7367 1.4231
# 5 0.4366 0.1220 13.8171 -0.7367 44.2709 8.3114
# 6 -3.6802 7.1923 -7.9809 1.4231 8.3114 25.2489
#
#
#
# Elastic Compliance Matrix: (Units=1/GPa)
#
#
# Indices 1 2 3 4 5 6 
#
# 1 0.012514 -0.002096 -0.004071 -0.005216 0.000850 0.001148
# 2 -0.002096 0.024462 -0.005173 -0.001979 0.003396 -0.009915
# 3 -0.004071 -0.005173 0.010705 -0.000035 -0.004357 0.005700
# 4 -0.005216 -0.001979 -0.000035 0.041020 0.001304 -0.002949
# 5 0.000850 0.003396 -0.004357 0.001304 0.025989 -0.010849
# 6 0.001148 -0.009915 0.005700 -0.002949 -0.010849 0.048137
#
#
# Mechanical properties :
#
#
# Convention : Reuss Voigt Hill
#
# Bulk Modulus (GPa) = 39.99609 55.26379 47.62994
# Shear Modulus (GPa) = 25.79449 32.20519 28.99984
#
# Velocity S-wave (km/s) = 3.56338 3.98164 3.77831
# Velocity P-wave (km/s) = 6.05136 6.95287 6.51772
#
# Compressibility (1/GPa) = 0.02500244
#
# Stress axis : x y z
#
# Youngs Moduli (GPa) = 79.90781 40.87930 93.41633
#
# Poissons Ratio (x) = 0.08568 0.38028
# Poissons Ratio (y) = 0.16748 0.48322
# Poissons Ratio (z) = 0.32529 0.21146
#
# Static dielectric constant tensor:
#      x y z
#    x 4.124580 -0.195320 0.232640 
#    y -0.195320 3.540850 0.119330 
#    z 0.232640 0.119330 4.046810 
# 
# 
# High freq. dielectric constant tensor:
#      x y z
#    x 1.800760 -0.007140 0.015710 
#    y -0.007140 1.766960 0.000720 
#    z 0.015710 0.000720 1.805490 
# 
# From -- ./inp_files/349529.got.cif
#   From: 2010.06.25/outbox.cif.g09.slc.cpg/sg2_175_cif.got.tgz:349529.got - 2010.06.27 13:26:56.
