data_PCOD8016524
_publ_section_title
;
Structure prediction by ZEFSAII (Michael W. Deem and Ramdas Pophale) SiO2 
 PCOD8016524
Probable space group: P -1
;
_chemical_formula_sum "Si O2"
_cell_formula_units_Z 12
_cell_length_a 8.267958
_cell_length_b 10.887754
_cell_length_c 10.923903
_cell_angle_alpha 44.548867
_cell_angle_beta 112.515836
_cell_angle_gamma 121.591044
_cell_volume 587.541742
_symmetry_space_group_name_H-M "P -1"
_symmetry_group_IT_number 2
_symmetry_cell_setting 'triclinic'
loop_
_space_group_symop_operation_xyz
x,y,z
-x,-y,-z
loop_
_atom_site_type_symbol
_atom_site_label
_atom_site_fract_x
_atom_site_fract_y
_atom_site_fract_z
Si Si1 0.341301 0.014012 0.101435
Si Si2 0.686475 0.686531 0.939463
Si Si3 0.869856 0.642037 0.473351
Si Si4 0.028390 0.028344 0.343736
Si Si5 0.986022 0.658799 0.225819
Si Si6 0.357935 0.130179 0.754457
O O1 0.372674 0.162772 0.112549
O O2 0.468560 0.890065 0.255311
O O3 0.404859 0.128764 0.912325
O O4 0.121444 0.878631 0.121421
O O5 0.785460 0.785534 0.769740
O O6 0.500000 0.500000 0.000000
O O7 0.837249 0.627502 0.097266
O O8 0.871268 0.595185 0.363764
O O9 0.673637 0.673606 0.424220
O O10 0.890064 0.468475 0.676872
O O11 0.044744 0.838730 0.423505
O O12 0.000000 0.000000 0.500000
O O13 0.838794 0.044699 0.217477
#
# Coordination Sequence:
#
# PCOD8016524 Si02
#       6
#     2   2   2   2   2   2
#     4  11  19  40  68  91 121 167 214 265 312 374
#     4  12  24  42  65  95 129 169 214 255 317 387
#     4   9  20  38  66  91 121 163 215 260 315 369
#     4  10  21  45  61  89 134 171 201 264 319 373
#     4  11  19  40  68  91 121 167 214 265 312 374
#     4   9  20  38  66  91 121 163 215 260 315 369
#
# _framework density 20.424081000000001
#
# number of rings (size 3 to 8) (size 9 to 14) (size 15 to 20)
#    1.000    0.667    5.000    0.500    0.000    2.000 
#   12.000    3.333    0.000    0.000    0.000    0.000 
#    0.000    0.000    0.000    0.000    0.000    0.000 
#
# Total GULP energy -148666.279389 kJ/mol
# GULP energy per Si atom -12388.856616 kJ/mol
# Density = 2.037759 g / cm^3
# Si number density = 20.424081 Si / 1000 Ang^3
#
#
#
# Elastic Constant Matrix: (Units=GPa)
#
#
# Indices 1 2 3 4 5 6 
#
# 1 106.8927 44.0836 64.2543 5.3222 22.8226 -0.9853
# 2 44.0836 117.6636 48.6747 -4.9391 -6.4406 11.8888
# 3 64.2543 48.6747 92.9404 -1.0240 6.5328 -14.7095
# 4 5.3222 -4.9391 -1.0240 26.0156 -4.0888 -6.9071
# 5 22.8226 -6.4406 6.5328 -4.0888 49.8696 -9.0389
# 6 -0.9853 11.8888 -14.7095 -6.9071 -9.0389 26.1310
#
#
#
# Elastic Compliance Matrix: (Units=1/GPa)
#
#
# Indices 1 2 3 4 5 6 
#
# 1 0.023255 -0.001191 -0.017190 -0.011750 -0.012342 -0.015633
# 2 -0.001191 0.013258 -0.007797 0.000047 0.001481 -0.009941
# 3 -0.017190 -0.007797 0.030365 0.011468 0.008530 0.025974
# 4 -0.011750 0.000047 0.011468 0.049383 0.012143 0.023245
# 5 -0.012342 0.001481 0.008530 0.012143 0.028822 0.016842
# 6 -0.015633 -0.009941 0.025974 0.023245 0.016842 0.068794
#
#
# Mechanical properties :
#
#
# Convention : Reuss Voigt Hill
#
# Bulk Modulus (GPa) = 68.85938 70.16909 69.51424
# Shear Modulus (GPa) = 18.44515 31.10217 24.77366
#
# Velocity S-wave (km/s) = 3.00844 3.90656 3.48654
# Velocity P-wave (km/s) = 6.77167 7.40128 7.09347
#
# Compressibility (1/GPa) = 0.01452235
#
# Stress axis : x y z
#
# Youngs Moduli (GPa) = 43.00073 75.42635 32.93262
#
# Poissons Ratio (x) = 0.08983 0.56611
# Poissons Ratio (y) = 0.05121 0.25678
# Poissons Ratio (z) = 0.73918 0.58810
#
# Static dielectric constant tensor:
#      x y z
#    x 3.730890 -0.051920 0.257500 
#    y -0.051920 3.475400 -0.038280 
#    z 0.257500 -0.038280 3.622580 
# 
# 
# High freq. dielectric constant tensor:
#      x y z
#    x 1.794270 -0.004930 0.013870 
#    y -0.004930 1.776640 -0.000350 
#    z 0.013870 -0.000350 1.789170 
# 
# From -- ./inp_files/166586.got.cif
#   From: 2010.06.25/outbox.cif.g09.slc.cpg/sg2_84_cif.got.tgz:166586.got - 2010.06.27 13:26:56.
