data_PCOD8016654
_publ_section_title
;
Structure prediction by ZEFSAII (Michael W. Deem and Ramdas Pophale) SiO2 
 PCOD8016654
Probable space group: P -1
;
_chemical_formula_sum "Si O2"
_cell_formula_units_Z 14
_cell_length_a 5.416250
_cell_length_b 11.380547
_cell_length_c 11.297619
_cell_angle_alpha 129.796661
_cell_angle_beta 74.544627
_cell_angle_gamma 104.119009
_cell_volume 513.160971
_symmetry_space_group_name_H-M "P -1"
_symmetry_group_IT_number 2
_symmetry_cell_setting 'triclinic'
loop_
_space_group_symop_operation_xyz
x,y,z
-x,-y,-z
loop_
_atom_site_type_symbol
_atom_site_label
_atom_site_fract_x
_atom_site_fract_y
_atom_site_fract_z
Si Si1 0.361988 0.075767 0.423563
Si Si2 0.151172 0.325873 0.739287
Si Si3 0.426537 0.743949 0.187746
Si Si4 0.226612 0.169405 0.001991
Si Si5 0.783055 0.331143 0.470219
Si Si6 0.860558 0.906203 0.781100
Si Si7 0.901653 0.427143 0.276281
O O1 0.135048 0.152488 0.572311
O O2 0.586185 0.215359 0.492629
O O3 0.303866 0.032448 0.264954
O O4 0.432001 0.912465 0.361299
O O5 0.362320 0.347487 0.830583
O O6 0.235640 0.461295 0.722205
O O7 0.860365 0.344073 0.832952
O O8 0.516989 0.755567 0.046934
O O9 0.301888 0.117456 0.091144
O O10 0.998220 0.281107 0.103927
O O11 0.117325 0.021897 0.843848
O O12 0.699380 0.372415 0.372833
O O13 0.052808 0.256681 0.375178
O O14 0.842596 0.481197 0.639742
#
# Coordination Sequence:
#
# PCOD8016654 Si02
#       7
#     2   2   2   2   2   2   2
#     4  12  24  44  78 110 136 188 254 316 356 418
#     4  12  27  47  73 106 151 201 246 297 358 447
#     4  12  27  47  73 106 151 201 246 297 358 447
#     4  10  23  46  72 107 150 191 236 300 375 441
#     4  10  21  45  74 109 142 182 245 312 368 422
#     4  10  21  45  74 109 142 182 245 312 368 422
#     4  10  23  46  72 107 150 191 236 300 375 441
#
# _framework density 27.281886
#
# number of rings (size 3 to 8) (size 9 to 14) (size 15 to 20)
#    0.000    1.143    2.857    2.571    0.000    2.286 
#   10.286    0.000    0.000    0.000    0.000    0.000 
#    0.000    0.000    0.000    0.000    0.000    0.000 
#
# Total GULP energy -173622.001661 kJ/mol
# GULP energy per Si atom -12401.571547 kJ/mol
# Density = 2.721979 g / cm^3
# Si number density = 27.281886 Si / 1000 Ang^3
#
#
#
# Elastic Constant Matrix: (Units=GPa)
#
#
# Indices 1 2 3 4 5 6 
#
# 1 112.4113 38.2259 4.0716 -18.3902 -1.6256 -8.7312
# 2 38.2259 100.2172 -8.7923 -16.5701 -11.4434 -9.6993
# 3 4.0716 -8.7923 50.4159 -9.7362 -5.7987 -2.9161
# 4 -18.3902 -16.5701 -9.7362 43.1311 -0.0066 -6.4922
# 5 -1.6256 -11.4434 -5.7987 -0.0066 24.4548 4.3997
# 6 -8.7312 -9.6993 -2.9161 -6.4922 4.3997 33.9561
#
#
#
# Elastic Compliance Matrix: (Units=1/GPa)
#
#
# Indices 1 2 3 4 5 6 
#
# 1 0.010892 -0.003599 -0.000880 0.003449 -0.001630 0.002568
# 2 -0.003599 0.013754 0.004695 0.005347 0.006670 0.003564
# 3 -0.000880 0.004695 0.023122 0.007186 0.006981 0.003570
# 4 0.003449 0.005347 0.007186 0.029583 0.002949 0.008305
# 5 -0.001630 0.006670 0.006981 0.002949 0.046160 -0.003331
# 6 0.002568 0.003564 0.003570 0.008305 -0.003331 0.033454
#
#
# Mechanical properties :
#
#
# Convention : Reuss Voigt Hill
#
# Bulk Modulus (GPa) = 20.74715 36.67276 28.70996
# Shear Modulus (GPa) = 28.96886 35.61101 32.28994
#
# Velocity S-wave (km/s) = 3.26212 3.61681 3.44403
# Velocity P-wave (km/s) = 4.67009 5.55996 5.13434
#
# Compressibility (1/GPa) = 0.04819939
#
# Stress axis : x y z
#
# Youngs Moduli (GPa) = 91.81275 72.70791 43.24858
#
# Poissons Ratio (x) = 0.26168 0.03807
# Poissons Ratio (y) = 0.33044 -0.20306
# Poissons Ratio (z) = 0.08081 -0.34137
#
# Static dielectric constant tensor:
#      x y z
#    x 4.280910 -0.220960 -0.155210 
#    y -0.220960 5.154190 -0.146000 
#    z -0.155210 -0.146000 4.882200 
# 
# 
# High freq. dielectric constant tensor:
#      x y z
#    x 2.067960 -0.012580 -0.009480 
#    y -0.012580 2.113190 -0.005740 
#    z -0.009480 -0.005740 2.102820 
# 
# From -- ./inp_files/364004.got.cif
#   From: 2010.06.25/outbox.cif.g09.slc.cpg/sg2_183_cif.got.tgz:364004.got - 2010.06.27 13:26:56.
