data_PCOD8016351
_publ_section_title
;
Structure prediction by ZEFSAII (Michael W. Deem and Ramdas Pophale) SiO2 
 PCOD8016351
Probable space group: P -1
;
_chemical_formula_sum "Si O2"
_cell_formula_units_Z 16
_cell_length_a 11.357442
_cell_length_b 8.796469
_cell_length_c 17.353048
_cell_angle_alpha 50.547717
_cell_angle_beta 138.552096
_cell_angle_gamma 100.067547
_cell_volume 715.539249
_symmetry_space_group_name_H-M "P -1"
_symmetry_group_IT_number 2
_symmetry_cell_setting 'triclinic'
loop_
_space_group_symop_operation_xyz
x,y,z
-x,-y,-z
loop_
_atom_site_type_symbol
_atom_site_label
_atom_site_fract_x
_atom_site_fract_y
_atom_site_fract_z
Si Si1 0.705090 0.743072 0.851761
Si Si2 0.931318 0.909322 0.424095
Si Si3 0.919721 0.572766 0.281276
Si Si4 0.635715 0.714539 0.498171
Si Si5 0.900985 0.281264 0.998880
Si Si6 0.458048 0.539966 0.345392
Si Si7 0.058595 0.869850 0.331063
Si Si8 0.444901 0.308405 0.048708
O O1 0.757840 0.558806 0.868536
O O2 0.697593 0.626923 0.964965
O O3 0.470982 0.000140 0.635643
O O4 0.898477 0.779699 0.937349
O O5 0.997391 0.966448 0.357325
O O6 0.051547 0.621386 0.580758
O O7 0.670458 0.040537 0.254978
O O8 0.000000 0.000000 0.500000
O O9 0.916708 0.778006 0.260312
O O10 0.112786 0.433475 0.357473
O O11 0.685824 0.697810 0.085048
O O12 0.486245 0.697750 0.368239
O O13 0.629752 0.601310 0.611757
O O14 0.729755 0.265411 0.869236
O O15 0.002671 0.092323 0.179472
O O16 0.684704 0.347778 0.475077
O O17 0.500000 0.500000 0.000000
#
# Coordination Sequence:
#
# PCOD8016351 Si02
#       8
#     2   2   2   2   2   2   2   2
#     4  11  24  43  66 101 139 176 233 275 340 408
#     4  12  26  45  69  99 137 184 232 285 337 407
#     4  11  25  44  72 101 138 180 227 291 337 410
#     4  10  21  44  68 104 135 178 227 270 346 412
#     4  11  25  43  67 103 138 180 221 290 341 410
#     4  10  23  42  70  98 142 179 214 283 343 407
#     4  11  26  45  68 105 139 177 233 282 351 407
#     4  12  25  44  70 101 135 183 230 278 340 407
#
# _framework density 22.360757
#
# number of rings (size 3 to 8) (size 9 to 14) (size 15 to 20)
#    0.000    1.000    3.750    1.875    3.500    2.500 
#    0.000    0.000    0.000    0.000    0.000    0.000 
#    0.000    0.000    0.000    0.000    0.000    0.000 
#
# Total GULP energy -198489.630364 kJ/mol
# GULP energy per Si atom -12405.601898 kJ/mol
# Density = 2.230986 g / cm^3
# Si number density = 22.360757 Si / 1000 Ang^3
#
#
#
# Elastic Constant Matrix: (Units=GPa)
#
#
# Indices 1 2 3 4 5 6 
#
# 1 142.6867 32.5774 36.2470 12.2284 -13.7343 -3.1311
# 2 32.5774 78.8024 33.1338 4.2365 2.8113 1.5412
# 3 36.2470 33.1338 108.0593 20.1724 4.0113 -1.0327
# 4 12.2284 4.2365 20.1724 42.4862 3.7507 0.1750
# 5 -13.7343 2.8113 4.0113 3.7507 29.4831 -4.8383
# 6 -3.1311 1.5412 -1.0327 0.1750 -4.8383 34.1434
#
#
#
# Elastic Compliance Matrix: (Units=1/GPa)
#
#
# Indices 1 2 3 4 5 6 
#
# 1 0.008860 -0.002985 -0.001894 -0.001816 0.005168 0.001632
# 2 -0.002985 0.015647 -0.003976 0.001438 -0.002771 -0.001500
# 3 -0.001894 -0.003976 0.012033 -0.004638 -0.001521 0.000178
# 4 -0.001816 0.001438 -0.004638 0.026467 -0.003893 -0.001059
# 5 0.005168 -0.002771 -0.001521 -0.003893 0.038276 0.005997
# 6 0.001632 -0.001500 0.000178 -0.001059 0.005997 0.030366
#
#
# Mechanical properties :
#
#
# Convention : Reuss Voigt Hill
#
# Bulk Modulus (GPa) = 53.10979 59.27389 56.19184
# Shear Modulus (GPa) = 32.12649 36.39521 34.26085
#
# Velocity S-wave (km/s) = 3.79454 4.03878 3.91856
# Velocity P-wave (km/s) = 6.55751 6.95086 6.75705
#
# Compressibility (1/GPa) = 0.01882892
#
# Stress axis : x y z
#
# Youngs Moduli (GPa) = 112.86757 63.91076 83.10723
#
# Poissons Ratio (x) = 0.19078 0.15739
# Poissons Ratio (y) = 0.33692 0.33046
# Poissons Ratio (z) = 0.21375 0.25413
#
# Static dielectric constant tensor:
#      x y z
#    x 4.136180 0.114540 0.036200 
#    y 0.114540 3.870830 -0.012810 
#    z 0.036200 -0.012810 4.068280 
# 
# 
# High freq. dielectric constant tensor:
#      x y z
#    x 1.890800 0.004470 0.000080 
#    y 0.004470 1.870450 -0.000880 
#    z 0.000080 -0.000880 1.888460 
# 
# From -- ./inp_files/81401.got.cif
#   From: 2010.06.25/outbox.cif.g09.slc.cpg/sg2_41_cif.got.tgz:81401.got - 2010.06.27 13:26:56.
