data_PCOD8016508
_publ_section_title
;
Structure prediction by ZEFSAII (Michael W. Deem and Ramdas Pophale) SiO2 
 PCOD8016508
Probable space group: P -1
;
_chemical_formula_sum "Si O2"
_cell_formula_units_Z 16
_cell_length_a 20.051568
_cell_length_b 11.856083
_cell_length_c 17.176678
_cell_angle_alpha 149.866454
_cell_angle_beta 159.606769
_cell_angle_gamma 40.373585
_cell_volume 685.960469
_symmetry_space_group_name_H-M "P -1"
_symmetry_group_IT_number 2
_symmetry_cell_setting 'triclinic'
loop_
_space_group_symop_operation_xyz
x,y,z
-x,-y,-z
loop_
_atom_site_type_symbol
_atom_site_label
_atom_site_fract_x
_atom_site_fract_y
_atom_site_fract_z
Si Si1 0.140993 0.974846 0.208061
Si Si2 0.188258 0.680942 0.784042
Si Si3 0.475673 0.421673 0.829990
Si Si4 0.701481 0.703478 0.852634
Si Si5 0.796208 0.830200 0.860201
Si Si6 0.277305 0.789271 0.782258
Si Si7 0.610614 0.365783 0.780512
Si Si8 0.933273 0.723477 0.263327
O O1 0.289193 0.822649 0.258463
O O2 0.268421 0.241035 0.521886
O O3 0.006844 0.849589 0.059679
O O4 0.000000 0.000000 0.000000
O O5 0.136741 0.729226 0.668401
O O6 0.000000 0.500000 0.500000
O O7 0.373712 0.563983 0.922818
O O8 0.243110 0.916292 0.034870
O O9 0.453946 0.668046 0.918419
O O10 0.584245 0.325910 0.820288
O O11 0.500000 0.500000 0.500000
O O12 0.812425 0.754000 0.921594
O O13 0.855112 0.627009 0.034168
O O14 0.643331 0.926774 0.961784
O O15 0.606962 0.655206 0.506751
O O16 0.138926 0.669057 0.485144
O O17 0.754653 0.621822 0.068691
O O18 0.000000 0.000000 0.500000
#
# Coordination Sequence:
#
# PCOD8016508 Si02
#       8
#     2   2   2   2   2   2   2   2
#     4  12  23  39  65 104 144 180 230 274 343 422
#     4  11  22  41  63  96 143 183 224 277 340 413
#     4  12  23  41  67 102 144 183 222 279 342 419
#     4  10  21  44  73  96 134 178 232 297 342 399
#     4  11  23  41  68 102 133 185 231 279 343 408
#     4  10  23  40  66 102 133 177 228 275 351 412
#     4  12  23  41  68  99 140 181 233 284 338 409
#     4  10  22  44  70  94 134 177 231 298 343 396
#
# _framework density 23.324959
#
# number of rings (size 3 to 8) (size 9 to 14) (size 15 to 20)
#    0.000    1.000    3.750    3.750    0.000    0.000 
#    0.000    4.375    2.750    0.000    0.000    0.000 
#    0.000    0.000    0.000    0.000    0.000    0.000 
#
# Total GULP energy -198295.826126 kJ/mol
# GULP energy per Si atom -12393.489133 kJ/mol
# Density = 2.327187 g / cm^3
# Si number density = 23.324959 Si / 1000 Ang^3
#
#
#
# Elastic Constant Matrix: (Units=GPa)
#
#
# Indices 1 2 3 4 5 6 
#
# 1 96.2489 30.6104 44.6735 -5.7330 9.1262 16.0516
# 2 30.6104 97.9491 50.6349 -11.3807 -3.1350 9.8190
# 3 44.6735 50.6349 162.5185 -3.0567 2.0865 22.2021
# 4 -5.7330 -11.3807 -3.0567 38.4828 11.7585 -5.5762
# 5 9.1262 -3.1350 2.0865 11.7585 42.2092 -9.5502
# 6 16.0516 9.8190 22.2021 -5.5762 -9.5502 41.7562
#
#
#
# Elastic Compliance Matrix: (Units=1/GPa)
#
#
# Indices 1 2 3 4 5 6 
#
# 1 0.013469 -0.002562 -0.002245 0.001825 -0.004440 -0.004153
# 2 -0.002562 0.013101 -0.003376 0.002985 0.000933 0.000311
# 3 -0.002245 -0.003376 0.008218 -0.000932 -0.000584 -0.002971
# 4 0.001825 0.002985 -0.000932 0.029726 -0.008136 0.001201
# 5 -0.004440 0.000933 -0.000584 -0.008136 0.028660 0.007266
# 6 -0.004153 0.000311 -0.002971 0.001201 0.007266 0.028874
#
#
# Mechanical properties :
#
#
# Convention : Reuss Voigt Hill
#
# Bulk Modulus (GPa) = 54.28626 67.61713 60.95170
# Shear Modulus (GPa) = 34.58901 39.87616 37.23258
#
# Velocity S-wave (km/s) = 3.85505 4.13921 3.99965
# Velocity P-wave (km/s) = 6.56807 7.20390 6.89332
#
# Compressibility (1/GPa) = 0.01842087
#
# Stress axis : x y z
#
# Youngs Moduli (GPa) = 74.24419 76.33219 121.68524
#
# Poissons Ratio (x) = 0.19558 0.27324
# Poissons Ratio (y) = 0.19023 0.41078
# Poissons Ratio (z) = 0.16671 0.25768
#
# Static dielectric constant tensor:
#      x y z
#    x 4.574680 0.297580 -0.113560 
#    y 0.297580 4.470430 0.053080 
#    z -0.113560 0.053080 4.185330 
# 
# 
# High freq. dielectric constant tensor:
#      x y z
#    x 1.925220 0.016330 -0.009220 
#    y 0.016330 1.921150 0.003830 
#    z -0.009220 0.003830 1.932680 
# 
# From -- ./inp_files/578060.got.cif
#   From: 2010.06.25/outbox.cif.g09.slc.cpg/sg2_290_cif.got.tgz:578060.got - 2010.06.27 13:26:56.
