data_PCOD8016117
_publ_section_title
;
Structure prediction by ZEFSAII (Michael W. Deem and Ramdas Pophale) SiO2 
 PCOD8016117
Probable space group: P -1
;
_chemical_formula_sum "Si O2"
_cell_formula_units_Z 16
_cell_length_a 15.195991
_cell_length_b 9.726323
_cell_length_c 8.095145
_cell_angle_alpha 95.504873
_cell_angle_beta 86.768528
_cell_angle_gamma 36.452120
_cell_volume 689.333475
_symmetry_space_group_name_H-M "P -1"
_symmetry_group_IT_number 2
_symmetry_cell_setting 'triclinic'
loop_
_space_group_symop_operation_xyz
x,y,z
-x,-y,-z
loop_
_atom_site_type_symbol
_atom_site_label
_atom_site_fract_x
_atom_site_fract_y
_atom_site_fract_z
Si Si1 0.885726 0.281479 0.713737
Si Si2 0.682878 0.495001 0.265705
Si Si3 0.139163 0.247672 0.168631
Si Si4 0.536006 0.035911 0.835590
Si Si5 0.907163 0.769688 0.199462
Si Si6 0.003268 0.153344 0.318153
Si Si7 0.426884 0.284974 0.339108
Si Si8 0.616797 0.286272 0.332056
O O1 0.712180 0.546282 0.753123
O O2 0.966396 0.272183 0.842610
O O3 0.960533 0.217423 0.521248
O O4 0.894413 0.112380 0.748594
O O5 0.589600 0.685770 0.150674
O O6 0.604796 0.625649 0.463283
O O7 0.675630 0.337820 0.217423
O O8 0.855272 0.329947 0.236011
O O9 0.108096 0.147762 0.259479
O O10 0.992523 0.533125 0.252613
O O11 0.294668 0.116436 0.203881
O O12 0.157121 0.194995 0.966369
O O13 0.509872 0.952160 0.687026
O O14 0.500000 0.000000 0.000000
O O15 0.769757 0.012254 0.352798
O O16 0.534327 0.265467 0.242346
O O17 0.500000 0.500000 0.500000
#
# Coordination Sequence:
#
# PCOD8016117 Si02
#       8
#     2   2   2   2   2   2   2   2
#     4  10  21  43  70  98 135 168 229 277 333 395
#     4  10  23  42  67  97 131 171 226 275 338 394
#     4  11  27  43  67 100 135 184 223 271 340 399
#     4  12  26  45  63  95 138 180 224 275 328 406
#     4  11  23  46  66  97 137 176 229 275 333 399
#     4  10  23  41  69 103 132 172 220 282 334 399
#     4  10  22  42  67  97 129 176 218 279 339 389
#     4  10  22  42  70 100 130 176 221 280 336 391
#
# _framework density 23.210826999999998
#
# number of rings (size 3 to 8) (size 9 to 14) (size 15 to 20)
#    0.000    1.500    2.500    1.125    8.750    2.000 
#    4.500    1.250    0.000    0.000    0.000    0.000 
#    0.000    0.000    0.000    0.000    0.000    0.000 
#
# Total GULP energy -198257.743034 kJ/mol
# GULP energy per Si atom -12391.108940 kJ/mol
# Density = 2.315800 g / cm^3
# Si number density = 23.210827 Si / 1000 Ang^3
#
#
#
# Elastic Constant Matrix: (Units=GPa)
#
#
# Indices 1 2 3 4 5 6 
#
# 1 174.9557 28.1547 18.5914 -8.3414 -6.9474 18.6211
# 2 28.1547 121.9722 21.2661 -4.9224 -9.7849 10.5007
# 3 18.5914 21.2661 31.3627 -6.8490 -7.6179 2.5639
# 4 -8.3414 -4.9224 -6.8490 23.0786 0.4434 -1.5817
# 5 -6.9474 -9.7849 -7.6179 0.4434 30.2951 -3.7512
# 6 18.6211 10.5007 2.5639 -1.5817 -3.7512 41.0459
#
#
#
# Elastic Compliance Matrix: (Units=1/GPa)
#
#
# Indices 1 2 3 4 5 6 
#
# 1 0.006463 -0.000718 -0.002834 0.001166 0.000210 -0.002507
# 2 -0.000718 0.009593 -0.005630 -0.000023 0.001313 -0.001658
# 3 -0.002834 -0.005630 0.041393 0.009992 0.007949 0.001252
# 4 0.001166 -0.000023 0.009992 0.046728 0.002194 0.000854
# 5 0.000210 0.001313 0.007949 0.002194 0.035748 0.002424
# 6 -0.002507 -0.001658 0.001252 0.000854 0.002424 0.026101
#
#
# Mechanical properties :
#
#
# Convention : Reuss Voigt Hill
#
# Bulk Modulus (GPa) = 25.58461 51.59055 38.58758
# Shear Modulus (GPa) = 25.32706 36.23582 30.78144
#
# Velocity S-wave (km/s) = 3.30688 3.95544 3.64561
# Velocity P-wave (km/s) = 5.06233 6.56779 5.86358
#
# Compressibility (1/GPa) = 0.03908600
#
# Stress axis : x y z
#
# Youngs Moduli (GPa) = 154.72195 104.24270 24.15887
#
# Poissons Ratio (x) = 0.07485 0.06846
# Poissons Ratio (y) = 0.11110 0.13600
# Poissons Ratio (z) = 0.43845 0.58685
#
# Static dielectric constant tensor:
#      x y z
#    x 4.875550 0.271780 0.150080 
#    y 0.271780 4.560690 0.263330 
#    z 0.150080 0.263330 3.742610 
# 
# 
# High freq. dielectric constant tensor:
#      x y z
#    x 1.943720 0.006830 0.007010 
#    y 0.006830 1.931390 0.013680 
#    z 0.007010 0.013680 1.875640 
# 
# From -- ./inp_files/298520.got.cif
#   From: 2010.06.25/outbox.cif.g09.slc.cpg/sg2_150_cif.got.tgz:298520.got - 2010.06.27 13:26:56.
