data_PCOD8016152
_publ_section_title
;
Structure prediction by ZEFSAII (Michael W. Deem and Ramdas Pophale) SiO2 
 PCOD8016152
Probable space group: P -1
;
_chemical_formula_sum "Si O2"
_cell_formula_units_Z 14
_cell_length_a 8.941595
_cell_length_b 8.343114
_cell_length_c 13.011271
_cell_angle_alpha 129.966680
_cell_angle_beta 62.393010
_cell_angle_gamma 103.600593
_cell_volume 656.427810
_symmetry_space_group_name_H-M "P -1"
_symmetry_group_IT_number 2
_symmetry_cell_setting 'triclinic'
loop_
_space_group_symop_operation_xyz
x,y,z
-x,-y,-z
loop_
_atom_site_type_symbol
_atom_site_label
_atom_site_fract_x
_atom_site_fract_y
_atom_site_fract_z
Si Si1 0.079840 0.221261 0.553872
Si Si2 0.325717 0.428036 0.054999
Si Si3 0.968482 0.943826 0.823189
Si Si4 0.593803 0.658582 0.603960
Si Si5 0.730158 0.039947 0.123674
Si Si6 0.186582 0.462457 0.331959
Si Si7 0.022871 0.663907 0.150678
O O1 0.273060 0.208892 0.445681
O O2 0.956954 0.348207 0.563065
O O3 0.091804 0.339588 0.710275
O O4 0.000000 0.000000 0.500000
O O5 0.309722 0.431904 0.183532
O O6 0.208763 0.609223 0.111503
O O7 0.500000 0.500000 0.000000
O O8 0.293562 0.197043 0.930107
O O9 0.141291 0.870386 0.798956
O O10 0.911052 0.742502 0.701730
O O11 0.003320 0.103103 0.788189
O O12 0.819710 0.047170 0.987278
O O13 0.500000 0.500000 0.500000
O O14 0.450925 0.825302 0.767531
O O15 0.692963 0.511952 0.598196
O O16 0.000000 0.500000 0.000000
#
# Coordination Sequence:
#
# PCOD8016152 Si02
#       7
#     2   2   2   2   2   2   2
#     4  11  26  47  69  99 137 184 225 273 349 414
#     4  10  23  38  64  98 134 163 222 280 329 385
#     4  10  21  43  71  95 133 173 228 271 338 402
#     4  12  27  43  67  98 138 175 229 277 334 411
#     4  10  23  40  65 100 130 175 221 277 327 396
#     4  10  24  44  68  92 130 184 219 272 337 408
#     4  11  23  41  70  97 130 179 224 280 334 397
#
# _framework density 21.327556000000001
#
# number of rings (size 3 to 8) (size 9 to 14) (size 15 to 20)
#    0.000    1.429    1.429    2.143   12.000    2.286 
#    0.000    1.429    0.000    0.000    0.000    0.000 
#    0.000    0.000    0.000    0.000    0.000    0.000 
#
# Total GULP energy -173537.174712 kJ/mol
# GULP energy per Si atom -12395.512479 kJ/mol
# Density = 2.127901 g / cm^3
# Si number density = 21.327556 Si / 1000 Ang^3
#
#
#
# Elastic Constant Matrix: (Units=GPa)
#
#
# Indices 1 2 3 4 5 6 
#
# 1 129.1256 51.3732 52.8166 -11.3083 5.1546 -6.5544
# 2 51.3732 91.2013 26.6187 -5.5276 -6.8515 -3.1524
# 3 52.8166 26.6187 96.3507 -10.6409 -13.8491 -1.1219
# 4 -11.3083 -5.5276 -10.6409 31.5610 5.2414 -6.3539
# 5 5.1546 -6.8515 -13.8491 5.2414 42.9811 -0.8304
# 6 -6.5544 -3.1524 -1.1219 -6.3539 -0.8304 42.7682
#
#
#
# Elastic Compliance Matrix: (Units=1/GPa)
#
#
# Indices 1 2 3 4 5 6 
#
# 1 0.012918 -0.005690 -0.005850 0.002779 -0.004647 0.001730
# 2 -0.005690 0.014530 -0.000492 -0.000088 0.002855 0.000229
# 3 -0.005850 -0.000492 0.014662 0.001877 0.005115 -0.000170
# 4 0.002779 -0.000088 0.001877 0.035076 -0.003911 0.005604
# 5 -0.004647 0.002855 0.005115 -0.003911 0.026395 -0.000436
# 6 0.001730 0.000229 -0.000170 0.005604 -0.000436 0.024483
#
#
# Mechanical properties :
#
#
# Convention : Reuss Voigt Hill
#
# Bulk Modulus (GPa) = 55.41187 64.25497 59.83342
# Shear Modulus (GPa) = 31.61681 35.85332 33.73506
#
# Velocity S-wave (km/s) = 3.85442 4.10455 3.98145
# Velocity P-wave (km/s) = 6.77101 7.25645 7.01793
#
# Compressibility (1/GPa) = 0.01804667
#
# Stress axis : x y z
#
# Youngs Moduli (GPa) = 77.41345 68.82078 68.20339
#
# Poissons Ratio (x) = 0.39158 0.39899
# Poissons Ratio (y) = 0.44047 0.03355
# Poissons Ratio (z) = 0.45286 0.03386
#
# Static dielectric constant tensor:
#      x y z
#    x 4.016970 -0.551660 0.116000 
#    y -0.551660 5.358180 -0.266140 
#    z 0.116000 -0.266140 3.947210 
# 
# 
# High freq. dielectric constant tensor:
#      x y z
#    x 1.838200 -0.006260 0.004030 
#    y -0.006260 1.841560 -0.005980 
#    z 0.004030 -0.005980 1.845630 
# 
# From -- ./inp_files/404732.got.cif
#   From: 2010.06.25/outbox.cif.g09.slc.cpg/sg2_203_cif.got.tgz:404732.got - 2010.06.27 13:26:56.
