data_PCOD8016967
_publ_section_title
;
Structure prediction by ZEFSAII (Michael W. Deem and Ramdas Pophale) SiO2 
 PCOD8016967
Probable space group: P -1
;
_chemical_formula_sum "Si O2"
_cell_formula_units_Z 16
_cell_length_a 7.593412
_cell_length_b 24.780868
_cell_length_c 9.626241
_cell_angle_alpha 126.245723
_cell_angle_beta 73.414825
_cell_angle_gamma 61.760392
_cell_volume 779.863955
_symmetry_space_group_name_H-M "P -1"
_symmetry_group_IT_number 2
_symmetry_cell_setting 'triclinic'
loop_
_space_group_symop_operation_xyz
x,y,z
-x,-y,-z
loop_
_atom_site_type_symbol
_atom_site_label
_atom_site_fract_x
_atom_site_fract_y
_atom_site_fract_z
Si Si1 0.800348 0.132501 0.461479
Si Si2 0.969754 0.740799 0.758596
Si Si3 0.819760 0.283802 0.032029
Si Si4 0.555368 0.058189 0.446394
Si Si5 0.223728 0.527517 0.426302
Si Si6 0.665472 0.648318 0.919961
Si Si7 0.199122 0.087396 0.096404
Si Si8 0.255334 0.976882 0.359324
O O1 0.725488 0.076658 0.392982
O O2 0.924586 0.118037 0.259298
O O3 0.477497 0.272173 0.790564
O O4 0.098975 0.062191 0.392993
O O5 0.974621 0.787550 0.693316
O O6 0.159086 0.614538 0.485201
O O7 0.592071 0.837565 0.030145
O O8 0.146168 0.724960 0.823140
O O9 0.164060 0.186310 0.725060
O O10 0.592092 0.416437 0.239767
O O11 0.627588 0.274188 0.011515
O O12 0.677178 0.996363 0.479201
O O13 0.666324 0.969520 0.175220
O O14 0.184815 0.470849 0.256554
O O15 0.950723 0.609099 0.734855
O O16 0.500000 0.000000 0.000000
O O17 0.000000 0.000000 0.500000
#
# Coordination Sequence:
#
# PCOD8016967 Si02
#       8
#     2   2   2   2   2   2   2   2
#     4  11  21  40  58  83 122 157 191 245 296 345
#     4  11  21  35  55  87 120 156 196 236 292 350
#     4   9  19  34  61  90 116 142 197 253 289 337
#     4  10  22  37  62  87 113 155 201 242 296 344
#     4   9  19  36  59  92 115 149 189 251 298 339
#     4   9  19  35  63  89 115 146 192 243 305 340
#     4  12  25  40  56  83 126 163 196 235 289 359
#     4   9  19  34  58  86 113 145 196 244 291 341
#
# _framework density 20.516400000000001
#
# number of rings (size 3 to 8) (size 9 to 14) (size 15 to 20)
#    0.750    1.250    1.250    3.750    1.750    1.000 
#    0.000    0.625    0.000    1.500    0.000    0.000 
#    0.000    0.000    0.000    0.000    0.000    0.000 
#
# Total GULP energy -198278.770672 kJ/mol
# GULP energy per Si atom -12392.423167 kJ/mol
# Density = 2.046970 g / cm^3
# Si number density = 20.516400 Si / 1000 Ang^3
#
#
#
# Elastic Constant Matrix: (Units=GPa)
#
#
# Indices 1 2 3 4 5 6 
#
# 1 55.8282 20.7860 5.9943 11.3426 -8.2327 -3.5856
# 2 20.7860 100.7263 31.0165 14.1751 -2.2195 10.8615
# 3 5.9943 31.0165 79.6545 8.9224 -5.8004 -6.8329
# 4 11.3426 14.1751 8.9224 25.4603 0.7774 2.1102
# 5 -8.2327 -2.2195 -5.8004 0.7774 37.6417 3.6734
# 6 -3.5856 10.8615 -6.8329 2.1102 3.6734 21.6426
#
#
#
# Elastic Compliance Matrix: (Units=1/GPa)
#
#
# Indices 1 2 3 4 5 6 
#
# 1 0.022278 -0.004610 0.002000 -0.008753 0.004432 0.006737
# 2 -0.004610 0.014016 -0.005570 -0.003029 -0.000075 -0.009249
# 3 0.002000 -0.005570 0.015870 -0.004089 0.001836 0.008224
# 4 -0.008753 -0.003029 -0.004089 0.046827 -0.003178 -0.005247
# 5 0.004432 -0.000075 0.001836 -0.003178 0.028185 -0.003122
# 6 0.006737 -0.009249 0.008224 -0.005247 -0.003122 0.055601
#
#
# Mechanical properties :
#
#
# Convention : Reuss Voigt Hill
#
# Bulk Modulus (GPa) = 27.93058 39.08918 33.50988
# Shear Modulus (GPa) = 23.68836 28.84306 26.26571
#
# Velocity S-wave (km/s) = 3.40164 3.75354 3.58191
# Velocity P-wave (km/s) = 5.39180 6.15463 5.78580
#
# Compressibility (1/GPa) = 0.03580305
#
# Stress axis : x y z
#
# Youngs Moduli (GPa) = 44.88640 71.34456 63.01187
#
# Poissons Ratio (x) = 0.32892 -0.12601
# Poissons Ratio (y) = 0.20694 0.35101
# Poissons Ratio (z) = -0.08976 0.39742
#
# Static dielectric constant tensor:
#      x y z
#    x 3.771180 -0.135170 -0.068870 
#    y -0.135170 4.016120 0.066100 
#    z -0.068870 0.066100 3.752810 
# 
# 
# High freq. dielectric constant tensor:
#      x y z
#    x 1.810640 0.007200 -0.006490 
#    y 0.007200 1.772450 0.020660 
#    z -0.006490 0.020660 1.796480 
# 
# From -- ./inp_files/227120.got.cif
#   From: 2010.06.25/outbox.cif.g09.slc.cpg/sg2_114_cif.got.tgz:227120.got - 2010.06.27 13:26:56.
