data_PCOD8016012
_publ_section_title
;
Structure prediction by ZEFSAII (Michael W. Deem and Ramdas Pophale) SiO2 
 PCOD8016012
Probable space group: P -1
;
_chemical_formula_sum "Si O2"
_cell_formula_units_Z 14
_cell_length_a 15.058361
_cell_length_b 9.259716
_cell_length_c 12.329214
_cell_angle_alpha 138.094006
_cell_angle_beta 131.388548
_cell_angle_gamma 31.132708
_cell_volume 592.211439
_symmetry_space_group_name_H-M "P -1"
_symmetry_group_IT_number 2
_symmetry_cell_setting 'triclinic'
loop_
_space_group_symop_operation_xyz
x,y,z
-x,-y,-z
loop_
_atom_site_type_symbol
_atom_site_label
_atom_site_fract_x
_atom_site_fract_y
_atom_site_fract_z
Si Si1 0.800318 0.418969 0.321186
Si Si2 0.139531 0.364013 0.854206
Si Si3 0.207029 0.189446 0.302607
Si Si4 0.108383 0.880672 0.127756
Si Si5 0.455181 0.765580 0.682248
Si Si6 0.486289 0.892402 0.191480
Si Si7 0.644656 0.202720 0.155526
O O1 0.835986 0.583274 0.512105
O O2 0.686702 0.623574 0.237041
O O3 0.702571 0.373959 0.291922
O O4 0.984529 0.086634 0.245518
O O5 0.941107 0.618011 0.801522
O O6 0.253897 0.105976 0.704821
O O7 0.181860 0.169950 0.888957
O O8 0.204829 0.523207 0.021566
O O9 0.233070 0.921871 0.232486
O O10 0.382488 0.020875 0.291590
O O11 0.000000 0.000000 0.000000
O O12 0.500000 0.500000 0.500000
O O13 0.493131 0.655483 0.778035
O O14 0.564010 0.824121 0.757633
O O15 0.442814 0.743941 0.998952
#
# Coordination Sequence:
#
# PCOD8016012 Si02
#       7
#     2   2   2   2   2   2   2
#     4  12  25  43  70 102 137 179 229 278 337 394
#     4   9  23  45  68  95 140 170 229 268 345 399
#     4  11  24  43  69 106 136 177 225 283 339 390
#     4  10  21  43  68  98 136 177 223 276 333 405
#     4  10  23  47  68 100 137 171 227 281 342 399
#     4  12  24  44  68  99 139 180 228 275 334 408
#     4  10  24  44  70  99 135 176 231 271 338 399
#
# _framework density 23.640204000000001
#
# number of rings (size 3 to 8) (size 9 to 14) (size 15 to 20)
#    0.857    0.571    0.000    6.000    0.000    4.000 
#    5.143    0.000    0.000    0.000    0.000    0.000 
#    0.000    0.000    0.000    0.000    0.000    0.000 
#
# Total GULP energy -173527.946182 kJ/mol
# GULP energy per Si atom -12394.853299 kJ/mol
# Density = 2.358640 g / cm^3
# Si number density = 23.640204 Si / 1000 Ang^3
#
#
#
# Elastic Constant Matrix: (Units=GPa)
#
#
# Indices 1 2 3 4 5 6 
#
# 1 131.7910 7.9619 29.3660 10.7154 11.5544 9.5221
# 2 7.9619 60.4591 19.0866 7.3462 -2.7694 15.9580
# 3 29.3660 19.0866 121.0148 21.1669 6.2201 13.4070
# 4 10.7154 7.3462 21.1669 41.2795 -0.3986 -5.6494
# 5 11.5544 -2.7694 6.2201 -0.3986 45.7471 9.2306
# 6 9.5221 15.9580 13.4070 -5.6494 9.2306 36.9136
#
#
#
# Elastic Compliance Matrix: (Units=1/GPa)
#
#
# Indices 1 2 3 4 5 6 
#
# 1 0.008297 -0.000148 -0.001479 -0.001572 -0.001641 -0.001369
# 2 -0.000148 0.020233 -0.001557 -0.004046 0.003377 -0.009607
# 3 -0.001479 -0.001557 0.010126 -0.004983 -0.000482 -0.003265
# 4 -0.001572 -0.004046 -0.004983 0.029076 -0.000647 0.008576
# 5 -0.001641 0.003377 -0.000482 -0.000647 0.023940 -0.006947
# 6 -0.001369 -0.009607 -0.003265 0.008576 -0.006947 0.035832
#
#
# Mechanical properties :
#
#
# Convention : Reuss Voigt Hill
#
# Bulk Modulus (GPa) = 30.97140 47.34377 39.15759
# Shear Modulus (GPa) = 34.56983 41.91140 38.24062
#
# Velocity S-wave (km/s) = 3.82819 4.21513 4.02631
# Velocity P-wave (km/s) = 5.71574 6.61514 6.18182
#
# Compressibility (1/GPa) = 0.03228785
#
# Stress axis : x y z
#
# Youngs Moduli (GPa) = 120.52705 49.42376 98.75608
#
# Poissons Ratio (x) = 0.00734 0.14605
# Poissons Ratio (y) = 0.01789 0.15373
# Poissons Ratio (z) = 0.17825 0.07694
#
# Static dielectric constant tensor:
#      x y z
#    x 4.441130 0.223870 0.315880 
#    y 0.223870 4.124530 0.313580 
#    z 0.315880 0.313580 4.381580 
# 
# 
# High freq. dielectric constant tensor:
#      x y z
#    x 1.946070 0.010840 0.006470 
#    y 0.010840 1.922820 0.015740 
#    z 0.006470 0.015740 1.934920 
# 
# From -- ./inp_files/538098.got.cif
#   From: 2010.06.25/outbox.cif.g09.slc.cpg/sg2_270_cif.got.tgz:538098.got - 2010.06.27 13:26:56.
