data_PCOD8016399
_publ_section_title
;
Structure prediction by ZEFSAII (Michael W. Deem and Ramdas Pophale) SiO2 
 PCOD8016399
Probable space group: P -1
;
_chemical_formula_sum "Si O2"
_cell_formula_units_Z 14
_cell_length_a 6.630574
_cell_length_b 8.118862
_cell_length_c 15.006437
_cell_angle_alpha 56.489800
_cell_angle_beta 116.805664
_cell_angle_gamma 116.026207
_cell_volume 581.300718
_symmetry_space_group_name_H-M "P -1"
_symmetry_group_IT_number 2
_symmetry_cell_setting 'triclinic'
loop_
_space_group_symop_operation_xyz
x,y,z
-x,-y,-z
loop_
_atom_site_type_symbol
_atom_site_label
_atom_site_fract_x
_atom_site_fract_y
_atom_site_fract_z
Si Si1 0.576773 0.813839 0.677007
Si Si2 0.026528 0.778126 0.847898
Si Si3 0.583131 0.792973 0.477004
Si Si4 0.744865 0.578688 0.212593
Si Si5 0.875948 0.519610 0.561910
Si Si6 0.962154 0.319190 0.919581
Si Si7 0.532131 0.919312 0.126940
O O1 0.563490 0.744290 0.592548
O O2 0.473042 0.618972 0.777461
O O3 0.847058 0.900631 0.735009
O O4 0.419648 0.974033 0.611840
O O5 0.946938 0.550534 0.862022
O O6 0.297070 0.892811 0.839767
O O7 0.005322 0.783086 0.949520
O O8 0.814256 0.740045 0.496858
O O9 0.360933 0.654713 0.423478
O O10 0.677297 0.749045 0.207931
O O11 0.960243 0.506330 0.317087
O O12 0.813380 0.673724 0.099497
O O13 0.000000 0.500000 0.500000
O O14 0.730947 0.186129 0.860056
O O15 0.500000 0.000000 0.000000
#
# Coordination Sequence:
#
# PCOD8016399 Si02
#       7
#     2   2   2   2   2   2   2
#     4  11  22  44  67 104 135 180 228 275 348 399
#     4  10  21  44  69  96 136 179 221 276 335 412
#     4  10  24  44  68  94 138 174 230 287 328 408
#     4  12  24  42  69  98 137 178 220 285 336 408
#     4  11  23  44  66  96 128 182 228 280 341 395
#     4  10  23  44  66  97 137 175 224 276 336 399
#     4  10  23  44  66  97 134 176 224 276 329 403
#
# _framework density 24.083918000000001
#
# number of rings (size 3 to 8) (size 9 to 14) (size 15 to 20)
#    0.000    1.429    2.857    1.714    0.000    3.429 
#   10.286    0.000    0.000    0.000    0.000    0.000 
#    0.000    0.000    0.000    0.000    0.000    0.000 
#
# Total GULP energy -173536.445357 kJ/mol
# GULP energy per Si atom -12395.460383 kJ/mol
# Density = 2.402910 g / cm^3
# Si number density = 24.083918 Si / 1000 Ang^3
#
#
#
# Elastic Constant Matrix: (Units=GPa)
#
#
# Indices 1 2 3 4 5 6 
#
# 1 77.6066 25.2035 14.8692 -7.3366 5.9218 -4.4804
# 2 25.2035 104.7407 29.4466 -0.5539 5.7071 24.3075
# 3 14.8692 29.4466 58.6300 0.5704 19.9149 3.5810
# 4 -7.3366 -0.5539 0.5704 35.5176 4.3038 8.4189
# 5 5.9218 5.7071 19.9149 4.3038 41.0158 -2.7781
# 6 -4.4804 24.3075 3.5810 8.4189 -2.7781 45.8964
#
#
#
# Elastic Compliance Matrix: (Units=1/GPa)
#
#
# Indices 1 2 3 4 5 6 
#
# 1 0.014918 -0.003728 -0.001859 0.002416 -0.000777 0.003086
# 2 -0.003728 0.013743 -0.005797 0.001182 0.000818 -0.007358
# 3 -0.001859 -0.005797 0.024018 0.000352 -0.010603 0.000308
# 4 0.002416 0.001182 0.000352 0.030687 -0.004331 -0.006309
# 5 -0.000777 0.000818 -0.010603 -0.004331 0.030181 0.002939
# 6 0.003086 -0.007358 0.000308 -0.006309 0.002939 0.027297
#
#
# Mechanical properties :
#
#
# Convention : Reuss Voigt Hill
#
# Bulk Modulus (GPa) = 33.43187 42.22397 37.82792
# Shear Modulus (GPa) = 28.80440 35.91650 32.36045
#
# Velocity S-wave (km/s) = 3.46208 3.86593 3.66957
# Velocity P-wave (km/s) = 5.46744 6.12351 5.80475
#
# Compressibility (1/GPa) = 0.02991158
#
# Stress axis : x y z
#
# Youngs Moduli (GPa) = 67.03204 72.76194 41.63468
#
# Poissons Ratio (x) = 0.27126 0.07740
# Poissons Ratio (y) = 0.24990 0.24136
# Poissons Ratio (z) = 0.12462 0.42181
#
# Static dielectric constant tensor:
#      x y z
#    x 4.412090 0.281180 0.141470 
#    y 0.281180 4.795530 -0.075360 
#    z 0.141470 -0.075360 4.332380 
# 
# 
# High freq. dielectric constant tensor:
#      x y z
#    x 1.944840 0.012270 0.016620 
#    y 0.012270 1.959630 -0.002330 
#    z 0.016620 -0.002330 1.953620 
# 
# From -- ./inp_files/89842.got.cif
#   From: 2010.06.25/outbox.cif.g09.slc.cpg/sg2_45_cif.got.tgz:89842.got - 2010.06.27 13:26:56.
