data_PCOD8016409
_publ_section_title
;
Structure prediction by ZEFSAII (Michael W. Deem and Ramdas Pophale) SiO2 
 PCOD8016409
Probable space group: P -1
;
_chemical_formula_sum "Si O2"
_cell_formula_units_Z 10
_cell_length_a 9.082854
_cell_length_b 8.540905
_cell_length_c 8.264157
_cell_angle_alpha 88.310072
_cell_angle_beta 135.621144
_cell_angle_gamma 83.436931
_cell_volume 439.705801
_symmetry_space_group_name_H-M "P -1"
_symmetry_group_IT_number 2
_symmetry_cell_setting 'triclinic'
loop_
_space_group_symop_operation_xyz
x,y,z
-x,-y,-z
loop_
_atom_site_type_symbol
_atom_site_label
_atom_site_fract_x
_atom_site_fract_y
_atom_site_fract_z
Si Si1 0.200634 0.630598 0.803948
Si Si2 0.549047 0.713640 0.286482
Si Si3 0.883740 0.418584 0.621366
Si Si4 0.818676 0.131104 0.773749
Si Si5 0.872398 0.919965 0.533041
O O1 0.179264 0.658032 0.593608
O O2 0.116474 0.469169 0.788754
O O3 0.050045 0.784332 0.766088
O O4 0.440162 0.628065 0.058918
O O5 0.699875 0.573623 0.510858
O O6 0.385881 0.820403 0.275571
O O7 0.693897 0.830138 0.315778
O O8 0.902778 0.291866 0.785366
O O9 0.751189 0.049021 0.560564
O O10 0.000000 0.000000 0.000000
O O11 0.000000 0.000000 0.500000
#
# Coordination Sequence:
#
# PCOD8016409 Si02
#       5
#     2   2   2   2   2
#     4  10  21  44  69  99 127 177 220 268 324 390
#     4  11  24  43  68 100 131 173 221 266 336 387
#     4  10  23  43  69  95 137 169 222 268 319 398
#     4  12  24  45  66  99 136 175 213 274 333 383
#     4  11  23  45  67  95 137 171 222 274 320 391
#
# _framework density 22.742478999999999
#
# number of rings (size 3 to 8) (size 9 to 14) (size 15 to 20)
#    0.000    1.200    4.000    1.800    0.000    1.600 
#    7.200    0.000    0.000    0.000    0.000    0.000 
#    0.000    0.000    0.000    0.000    0.000    0.000 
#
# Total GULP energy -123966.277797 kJ/mol
# GULP energy per Si atom -12396.627780 kJ/mol
# Density = 2.269072 g / cm^3
# Si number density = 22.742479 Si / 1000 Ang^3
#
#
#
# Elastic Constant Matrix: (Units=GPa)
#
#
# Indices 1 2 3 4 5 6 
#
# 1 110.9205 62.6283 44.6176 0.9461 6.1874 16.5869
# 2 62.6283 142.5166 64.8262 0.7505 4.5601 22.4923
# 3 44.6176 64.8262 111.3220 12.4885 15.2076 30.8937
# 4 0.9461 0.7505 12.4885 45.1777 3.2051 1.8269
# 5 6.1874 4.5601 15.2076 3.2051 23.9671 2.6573
# 6 16.5869 22.4923 30.8937 1.8269 2.6573 54.6034
#
#
#
# Elastic Compliance Matrix: (Units=1/GPa)
#
#
# Indices 1 2 3 4 5 6 
#
# 1 0.012521 -0.004357 -0.002200 0.000519 -0.000996 -0.000733
# 2 -0.004357 0.011254 -0.005063 0.001179 0.002104 -0.000589
# 3 -0.002200 -0.005063 0.015798 -0.003481 -0.007394 -0.005708
# 4 0.000519 0.001179 -0.003481 0.023135 -0.001311 0.000617
# 5 -0.000996 0.002104 -0.007394 -0.001311 0.046291 0.001410
# 6 -0.000733 -0.000589 -0.005708 0.000617 0.001410 0.021919
#
#
# Mechanical properties :
#
#
# Convention : Reuss Voigt Hill
#
# Bulk Modulus (GPa) = 61.22759 78.76702 69.99731
# Shear Modulus (GPa) = 31.32759 37.59545 34.46152
#
# Velocity S-wave (km/s) = 3.71548 4.07024 3.89690
# Velocity P-wave (km/s) = 6.73699 7.53648 7.14792
#
# Compressibility (1/GPa) = 0.01633251
#
# Stress axis : x y z
#
# Youngs Moduli (GPa) = 79.86506 88.85755 63.29882
#
# Poissons Ratio (x) = 0.38713 0.13926
# Poissons Ratio (y) = 0.34795 0.32051
# Poissons Ratio (z) = 0.17571 0.44993
#
# Static dielectric constant tensor:
#      x y z
#    x 4.075100 -0.283900 0.171370 
#    y -0.283900 4.571820 0.045020 
#    z 0.171370 0.045020 3.850840 
# 
# 
# High freq. dielectric constant tensor:
#      x y z
#    x 1.893750 -0.013670 0.015410 
#    y -0.013670 1.924530 0.003860 
#    z 0.015410 0.003860 1.870690 
# 
# From -- ./inp_files/15362.got.cif
#   From: 2010.06.25/outbox.cif.g09.slc.cpg/sg2_8_cif.got.tgz:15362.got - 2010.06.27 13:26:56.
