data_PCOD8016930
_publ_section_title
;
Structure prediction by ZEFSAII (Michael W. Deem and Ramdas Pophale) SiO2 
 PCOD8016930
Probable space group: P -1
;
_chemical_formula_sum "Si O2"
_cell_formula_units_Z 16
_cell_length_a 13.763652
_cell_length_b 7.926247
_cell_length_c 21.964708
_cell_angle_alpha 118.966500
_cell_angle_beta 157.288631
_cell_angle_gamma 72.827802
_cell_volume 723.442623
_symmetry_space_group_name_H-M "P -1"
_symmetry_group_IT_number 2
_symmetry_cell_setting 'triclinic'
loop_
_space_group_symop_operation_xyz
x,y,z
-x,-y,-z
loop_
_atom_site_type_symbol
_atom_site_label
_atom_site_fract_x
_atom_site_fract_y
_atom_site_fract_z
Si Si1 0.330970 0.925342 0.950268
Si Si2 0.809217 0.543450 0.204392
Si Si3 0.853976 0.720002 0.063615
Si Si4 0.703830 0.697814 0.291380
Si Si5 0.224200 0.661901 0.361441
Si Si6 0.728599 0.782677 0.874651
Si Si7 0.225190 0.245589 0.240653
Si Si8 0.707810 0.095301 0.308243
O O1 0.561493 0.968186 0.141656
O O2 0.140212 0.668289 0.792926
O O3 0.500000 0.000000 0.000000
O O4 0.151219 0.054604 0.884315
O O5 0.871789 0.679145 0.325541
O O6 0.017706 0.680845 0.295578
O O7 0.500000 0.500000 0.000000
O O8 0.143576 0.739917 0.264595
O O9 0.578189 0.516584 0.895041
O O10 0.851981 0.685574 0.982793
O O11 0.966827 0.759645 0.500130
O O12 0.648538 0.906548 0.290759
O O13 0.169477 0.417619 0.276866
O O14 0.540764 0.799667 0.594754
O O15 0.688812 0.672537 0.765686
O O16 0.424891 0.752306 0.716259
O O17 0.933823 0.035077 0.032397
#
# Coordination Sequence:
#
# PCOD8016930 Si02
#       8
#     2   2   2   2   2   2   2   2
#     4  11  20  35  54  87 127 165 191 245 304 365
#     4  12  20  37  64  90 125 165 198 244 312 381
#     4  11  22  37  64  92 131 156 203 264 316 358
#     4  11  21  37  60  92 126 167 198 249 305 386
#     4  11  22  40  65  92 117 162 213 254 304 368
#     4  10  22  42  61  86 119 165 206 265 304 357
#     4  10  23  43  66  83 119 168 216 254 301 369
#     4  10  22  37  60  86 125 162 210 238 308 378
#
# _framework density 22.116475000000001
#
# number of rings (size 3 to 8) (size 9 to 14) (size 15 to 20)
#    0.000    1.250    3.750    3.000    0.000    3.000 
#    2.250    0.000    0.000    0.000    0.000    0.000 
#    0.000    0.000    0.000    0.000    0.000    0.000 
#
# Total GULP energy -198264.265237 kJ/mol
# GULP energy per Si atom -12391.516577 kJ/mol
# Density = 2.206614 g / cm^3
# Si number density = 22.116475 Si / 1000 Ang^3
#
#
#
# Elastic Constant Matrix: (Units=GPa)
#
#
# Indices 1 2 3 4 5 6 
#
# 1 88.7952 -4.7436 5.7745 -15.7483 -13.3890 7.0098
# 2 -4.7436 67.9683 17.3477 -14.9643 -3.4480 4.6691
# 3 5.7745 17.3477 79.7795 -27.8335 -7.8137 2.3748
# 4 -15.7483 -14.9643 -27.8335 37.5220 3.5183 -8.9993
# 5 -13.3890 -3.4480 -7.8137 3.5183 22.3646 -5.0818
# 6 7.0098 4.6691 2.3748 -8.9993 -5.0818 29.7941
#
#
#
# Elastic Compliance Matrix: (Units=1/GPa)
#
#
# Indices 1 2 3 4 5 6 
#
# 1 0.013821 0.002545 0.001810 0.007353 0.008098 -0.000192
# 2 0.002545 0.016814 -0.001363 0.006343 0.002463 -0.000789
# 3 0.001810 -0.001363 0.018001 0.013874 0.005782 0.003530
# 4 0.007353 0.006343 0.013874 0.044572 0.005622 0.010592
# 5 0.008098 0.002463 0.005782 0.005622 0.052887 0.007967
# 6 -0.000192 -0.000789 0.003530 0.010592 0.007967 0.038009
#
#
# Mechanical properties :
#
#
# Convention : Reuss Voigt Hill
#
# Bulk Modulus (GPa) = 18.30759 30.36671 24.33715
# Shear Modulus (GPa) = 25.46789 32.48045 28.97417
#
# Velocity S-wave (km/s) = 3.39711 3.83640 3.62342
# Velocity P-wave (km/s) = 4.86651 5.77790 5.34168
#
# Compressibility (1/GPa) = 0.05462215
#
# Stress axis : x y z
#
# Youngs Moduli (GPa) = 72.35602 59.47483 55.55094
#
# Poissons Ratio (x) = -0.15139 -0.10057
# Poissons Ratio (y) = -0.18418 0.07570
# Poissons Ratio (z) = -0.13100 0.08105
#
# Static dielectric constant tensor:
#      x y z
#    x 4.485830 -0.027740 -0.513370 
#    y -0.027740 3.924260 -0.131740 
#    z -0.513370 -0.131740 4.256100 
# 
# 
# High freq. dielectric constant tensor:
#      x y z
#    x 1.866700 -0.002820 -0.016060 
#    y -0.002820 1.855220 -0.013150 
#    z -0.016060 -0.013150 1.872920 
# 
# From -- ./inp_files/285433.got.cif
#   From: 2010.06.25/outbox.cif.g09.slc.cpg/sg2_143_cif.got.tgz:285433.got - 2010.06.27 13:26:56.
