data_PCOD8016328
_publ_section_title
;
Structure prediction by ZEFSAII (Michael W. Deem and Ramdas Pophale) SiO2 
 PCOD8016328
Probable space group: P -1
;
_chemical_formula_sum "Si O2"
_cell_formula_units_Z 12
_cell_length_a 9.601978
_cell_length_b 10.380718
_cell_length_c 13.061120
_cell_angle_alpha 111.113818
_cell_angle_beta 132.957934
_cell_angle_gamma 40.888522
_cell_volume 590.154948
_symmetry_space_group_name_H-M "P -1"
_symmetry_group_IT_number 2
_symmetry_cell_setting 'triclinic'
loop_
_space_group_symop_operation_xyz
x,y,z
-x,-y,-z
loop_
_atom_site_type_symbol
_atom_site_label
_atom_site_fract_x
_atom_site_fract_y
_atom_site_fract_z
Si Si1 0.283019 0.308476 0.025043
Si Si2 0.727908 0.995914 0.627191
Si Si3 0.349820 0.116523 0.805067
Si Si4 0.356251 0.618312 0.802568
Si Si5 0.674212 0.167227 0.855096
Si Si6 0.975795 0.874905 0.512049
O O1 0.454454 0.346883 0.076894
O O2 0.478168 0.114493 0.144358
O O3 0.196351 0.262270 0.870431
O O4 0.000000 0.500000 0.000000
O O5 0.056079 0.776413 0.761842
O O6 0.749942 0.042642 0.536189
O O7 0.500000 0.000000 0.500000
O O8 0.618266 0.160023 0.705866
O O9 0.552718 0.119133 0.856623
O O10 0.116996 0.200704 0.628254
O O11 0.531755 0.392634 0.865531
O O12 0.272484 0.661368 0.651733
O O13 0.000000 0.000000 0.000000
O O14 0.000000 0.000000 0.500000
#
# Coordination Sequence:
#
# PCOD8016328 Si02
#       6
#     2   2   2   2   2   2
#     4  11  24  43  64  96 130 176 227 265 326 407
#     4  10  22  42  67  95 137 171 223 270 330 402
#     4  11  23  42  66  91 131 173 220 277 325 388
#     4  10  24  42  64  99 133 169 227 274 320 405
#     4  12  24  41  67 100 133 177 219 274 337 389
#     4  10  21  44  67  90 135 173 214 281 327 376
#
# _framework density 20.333642999999999
#
# number of rings (size 3 to 8) (size 9 to 14) (size 15 to 20)
#    1.000    0.333    3.333    2.000    0.000    9.333 
#    3.000    1.667    0.000    0.000    0.000    0.000 
#    0.000    0.000    0.000    0.000    0.000    0.000 
#
# Total GULP energy -148671.420427 kJ/mol
# GULP energy per Si atom -12389.285036 kJ/mol
# Density = 2.028736 g / cm^3
# Si number density = 20.333643 Si / 1000 Ang^3
#
#
#
# Elastic Constant Matrix: (Units=GPa)
#
#
# Indices 1 2 3 4 5 6 
#
# 1 107.1389 34.3595 6.0005 4.0759 10.0894 4.3220
# 2 34.3595 101.2113 13.0906 1.8592 9.7007 1.8178
# 3 6.0005 13.0906 65.7066 17.0187 4.6623 -6.8485
# 4 4.0759 1.8592 17.0187 32.5946 -6.3896 -5.4930
# 5 10.0894 9.7007 4.6623 -6.3896 40.8407 6.3134
# 6 4.3220 1.8178 -6.8485 -5.4930 6.3134 44.2335
#
#
#
# Elastic Compliance Matrix: (Units=1/GPa)
#
#
# Indices 1 2 3 4 5 6 
#
# 1 0.010710 -0.003425 0.000228 -0.001793 -0.002014 -0.000806
# 2 -0.003425 0.011444 -0.002002 0.000491 -0.001541 -0.000165
# 3 0.000228 -0.002002 0.018677 -0.010001 -0.003622 0.002227
# 4 -0.001793 0.000491 -0.010001 0.037866 0.007036 0.002305
# 5 -0.002014 -0.001541 -0.003622 0.007036 0.027379 -0.003335
# 6 -0.000806 -0.000165 0.002227 0.002305 -0.003335 0.023800
#
#
# Mechanical properties :
#
#
# Convention : Reuss Voigt Hill
#
# Bulk Modulus (GPa) = 32.86052 42.32866 37.59459
# Shear Modulus (GPa) = 33.24119 38.24085 35.74102
#
# Velocity S-wave (km/s) = 4.04764 4.34137 4.19708
# Velocity P-wave (km/s) = 6.16768 6.78176 6.48199
#
# Compressibility (1/GPa) = 0.03043166
#
# Stress axis : x y z
#
# Youngs Moduli (GPa) = 93.37369 87.38534 53.54301
#
# Poissons Ratio (x) = 0.29927 -0.01219
# Poissons Ratio (y) = 0.31978 0.10720
# Poissons Ratio (z) = -0.02127 0.17495
#
# Static dielectric constant tensor:
#      x y z
#    x 3.376460 0.167020 0.129610 
#    y 0.167020 3.505540 0.217840 
#    z 0.129610 0.217840 3.989090 
# 
# 
# High freq. dielectric constant tensor:
#      x y z
#    x 1.806510 0.005480 -0.004860 
#    y 0.005480 1.777030 0.017540 
#    z -0.004860 0.017540 1.807010 
# 
# From -- ./inp_files/133246.got.cif
#   From: 2010.06.25/outbox.cif.g09.slc.cpg/sg2_67_cif.got.tgz:133246.got - 2010.06.27 13:26:56.
