data_PCOD8016235
_publ_section_title
;
Structure prediction by ZEFSAII (Michael W. Deem and Ramdas Pophale) SiO2 
 PCOD8016235
Probable space group: P -1
;
_chemical_formula_sum "Si O2"
_cell_formula_units_Z 16
_cell_length_a 10.527462
_cell_length_b 14.903305
_cell_length_c 7.088036
_cell_angle_alpha 77.075708
_cell_angle_beta 45.104010
_cell_angle_gamma 99.571207
_cell_volume 677.948166
_symmetry_space_group_name_H-M "P -1"
_symmetry_group_IT_number 2
_symmetry_cell_setting 'triclinic'
loop_
_space_group_symop_operation_xyz
x,y,z
-x,-y,-z
loop_
_atom_site_type_symbol
_atom_site_label
_atom_site_fract_x
_atom_site_fract_y
_atom_site_fract_z
Si Si1 0.303294 0.725456 0.692445
Si Si2 0.381174 0.651944 0.259643
Si Si3 0.076322 0.005620 0.707489
Si Si4 0.947993 0.492780 0.839569
Si Si5 0.955819 0.170952 0.706865
Si Si6 0.766184 0.641745 0.929685
Si Si7 0.470547 0.842670 0.809896
Si Si8 0.966827 0.783493 0.967765
O O1 0.389722 0.685068 0.453083
O O2 0.481999 0.808475 0.597545
O O3 0.164058 0.630470 0.029725
O O4 0.172140 0.775668 0.716845
O O5 0.160748 0.557859 0.472820
O O6 0.547064 0.611160 0.085584
O O7 0.446303 0.752302 0.018174
O O8 0.320131 0.055728 0.415136
O O9 0.993698 0.074122 0.644534
O O10 0.988427 0.886457 0.786735
O O11 0.000000 0.000000 0.000000
O O12 0.795473 0.539695 0.935321
O O13 0.000000 0.500000 0.000000
O O14 0.065586 0.212326 0.775697
O O15 0.052094 0.264868 0.416085
O O16 0.714794 0.130094 0.990397
O O17 0.783175 0.682301 0.110200
#
# Coordination Sequence:
#
# PCOD8016235 Si02
#       8
#     2   2   2   2   2   2   2   2
#     4  10  23  42  67  92 125 171 208 258 321 371
#     4  11  23  39  67  92 128 167 206 262 310 375
#     4  10  23  41  64  97 128 161 216 263 308 377
#     4  10  21  44  62  96 130 160 214 261 309 378
#     4  10  22  41  64  90 128 164 208 264 303 374
#     4  12  22  41  65  92 131 164 210 259 314 371
#     4  11  22  44  65  91 130 167 209 259 319 371
#     4  10  22  42  63  91 127 169 206 258 318 364
#
# _framework density 23.600624
#
# number of rings (size 3 to 8) (size 9 to 14) (size 15 to 20)
#    0.000    1.500    5.000    0.000    3.500    7.500 
#    0.000    1.875    0.000    0.000    0.000    0.000 
#    0.000    0.000    0.000    0.000    0.000    0.000 
#
# Total GULP energy -198365.270363 kJ/mol
# GULP energy per Si atom -12397.829398 kJ/mol
# Density = 2.354691 g / cm^3
# Si number density = 23.600624 Si / 1000 Ang^3
#
#
#
# Elastic Constant Matrix: (Units=GPa)
#
#
# Indices 1 2 3 4 5 6 
#
# 1 74.8592 28.1804 11.8727 2.8345 -12.4053 -27.7004
# 2 28.1804 74.5679 4.1114 4.5007 -9.4265 -33.9260
# 3 11.8727 4.1114 58.5573 9.7031 -7.8763 -15.6543
# 4 2.8345 4.5007 9.7031 20.5569 -9.5916 -1.2764
# 5 -12.4053 -9.4265 -7.8763 -9.5916 40.6001 0.5371
# 6 -27.7004 -33.9260 -15.6543 -1.2764 0.5371 36.7369
#
#
#
# Elastic Compliance Matrix: (Units=1/GPa)
#
#
# Indices 1 2 3 4 5 6 
#
# 1 0.019881 0.000238 0.000819 0.000698 0.006248 0.015492
# 2 0.000238 0.026394 0.006967 -0.004553 0.006116 0.027275
# 3 0.000819 0.006967 0.022928 -0.009660 0.003816 0.016430
# 4 0.000698 -0.004553 -0.009660 0.059012 0.011302 -0.005910
# 5 0.006248 0.006116 0.003816 0.011302 0.031212 0.011922
# 6 0.015492 0.027275 0.016430 -0.005910 0.011922 0.070711
#
#
# Mechanical properties :
#
#
# Convention : Reuss Voigt Hill
#
# Bulk Modulus (GPa) = 11.73023 32.92371 22.32697
# Shear Modulus (GPa) = 20.61790 30.50010 25.55900
#
# Velocity S-wave (km/s) = 2.95891 3.59882 3.29444
# Velocity P-wave (km/s) = 4.08101 5.59011 4.89407
#
# Compressibility (1/GPa) = 0.08524981
#
# Stress axis : x y z
#
# Youngs Moduli (GPa) = 50.30042 37.88781 43.61394
#
# Poissons Ratio (x) = -0.00901 -0.03571
# Poissons Ratio (y) = -0.01196 -0.30386
# Poissons Ratio (z) = -0.04118 -0.26397
#
# Static dielectric constant tensor:
#      x y z
#    x 4.296830 -0.212300 -0.036230 
#    y -0.212300 4.694340 -0.272710 
#    z -0.036230 -0.272710 4.547730 
# 
# 
# High freq. dielectric constant tensor:
#      x y z
#    x 1.938830 -0.018860 0.006330 
#    y -0.018860 1.933150 -0.000680 
#    z 0.006330 -0.000680 1.921920 
# 
# From -- ./inp_files/272342.got.cif
#   From: 2010.06.25/outbox.cif.g09.slc.cpg/sg2_137_cif.got.tgz:272342.got - 2010.06.27 13:26:56.
