data_PCOD8016667
_publ_section_title
;
Structure prediction by ZEFSAII (Michael W. Deem and Ramdas Pophale) SiO2 
 PCOD8016667
Probable space group: P -1
;
_chemical_formula_sum "Si O2"
_cell_formula_units_Z 12
_cell_length_a 6.959300
_cell_length_b 14.055498
_cell_length_c 10.888066
_cell_angle_alpha 35.699270
_cell_angle_beta 84.277783
_cell_angle_gamma 103.615545
_cell_volume 518.517943
_symmetry_space_group_name_H-M "P -1"
_symmetry_group_IT_number 2
_symmetry_cell_setting 'triclinic'
loop_
_space_group_symop_operation_xyz
x,y,z
-x,-y,-z
loop_
_atom_site_type_symbol
_atom_site_label
_atom_site_fract_x
_atom_site_fract_y
_atom_site_fract_z
Si Si1 0.581308 0.180922 0.607857
Si Si2 0.991524 0.180659 0.469044
Si Si3 0.822382 0.242283 0.908633
Si Si4 0.048244 0.214384 0.147969
Si Si5 0.705878 0.468220 0.520982
Si Si6 0.518098 0.555758 0.800353
O O1 0.763903 0.131310 0.603764
O O2 0.682050 0.329163 0.558115
O O3 0.528846 0.274072 0.398188
O O4 0.353863 0.983434 0.875790
O O5 0.991309 0.236399 0.268364
O O6 0.214419 0.355603 0.345205
O O7 0.014615 0.996893 0.662551
O O8 0.709578 0.366469 0.754365
O O9 0.053267 0.323828 0.726343
O O10 0.893432 0.266712 0.022087
O O11 0.321516 0.363928 0.941743
O O12 0.500000 0.500000 0.500000
O O13 0.500000 0.500000 0.000000
#
# Coordination Sequence:
#
# PCOD8016667 Si02
#       6
#     2   2   2   2   2   2
#     4  12  25  44  70 104 131 179 230 274 340 402
#     4  10  24  42  69 102 142 177 219 274 334 410
#     4  11  25  47  70 103 131 177 232 280 338 401
#     4  10  21  46  66 102 142 178 218 272 342 400
#     4  11  28  50  68  96 133 181 230 287 341 392
#     4  10  22  42  64  99 141 181 221 266 329 401
#
# _framework density 23.142883999999999
#
# number of rings (size 3 to 8) (size 9 to 14) (size 15 to 20)
#    0.000    1.333    3.333    0.500    2.333    8.000 
#    3.000    0.000    0.000    0.000    0.000    0.000 
#    0.000    0.000    0.000    0.000    0.000    0.000 
#
# Total GULP energy -148742.428968 kJ/mol
# GULP energy per Si atom -12395.202414 kJ/mol
# Density = 2.309021 g / cm^3
# Si number density = 23.142884 Si / 1000 Ang^3
#
#
#
# Elastic Constant Matrix: (Units=GPa)
#
#
# Indices 1 2 3 4 5 6 
#
# 1 145.8972 52.7562 66.8956 10.0931 5.0921 18.1445
# 2 52.7562 81.6510 35.7396 -0.7096 0.2347 7.4053
# 3 66.8956 35.7396 153.6093 4.3541 -4.5302 20.1044
# 4 10.0931 -0.7096 4.3541 23.5277 21.2968 -0.4512
# 5 5.0921 0.2347 -4.5302 21.2968 51.2345 2.3734
# 6 18.1445 7.4053 20.1044 -0.4512 2.3734 34.4512
#
#
#
# Elastic Compliance Matrix: (Units=1/GPa)
#
#
# Indices 1 2 3 4 5 6 
#
# 1 0.010883 -0.005550 -0.002875 -0.005292 0.001029 -0.003001
# 2 -0.005550 0.016570 -0.001689 0.004697 -0.001650 0.000522
# 3 -0.002875 -0.001689 0.008743 -0.002581 0.002298 -0.003417
# 4 -0.005292 0.004697 -0.002581 0.072994 -0.030359 0.006332
# 5 0.001029 -0.001650 0.002298 -0.030359 0.032439 -0.004160
# 6 -0.003001 0.000522 -0.003417 0.006332 -0.004160 0.032859
#
#
# Mechanical properties :
#
#
# Convention : Reuss Voigt Hill
#
# Bulk Modulus (GPa) = 62.61917 76.88226 69.75071
# Shear Modulus (GPa) = 24.99533 36.89376 30.94454
#
# Velocity S-wave (km/s) = 3.28997 3.99704 3.66062
# Velocity P-wave (km/s) = 6.44579 7.38882 6.93335
#
# Compressibility (1/GPa) = 0.01596955
#
# Stress axis : x y z
#
# Youngs Moduli (GPa) = 91.89003 60.34849 114.37681
#
# Poissons Ratio (x) = 0.33492 0.32882
# Poissons Ratio (y) = 0.50997 0.19313
# Poissons Ratio (z) = 0.26417 0.10190
#
# Static dielectric constant tensor:
#      x y z
#    x 4.405000 0.584220 -0.103340 
#    y 0.584220 4.104690 0.053790 
#    z -0.103340 0.053790 4.671120 
# 
# 
# High freq. dielectric constant tensor:
#      x y z
#    x 1.920430 0.039570 -0.003390 
#    y 0.039570 1.885850 0.003750 
#    z -0.003390 0.003750 1.942410 
# 
# From -- ./inp_files/48873.got.cif
#   From: 2010.06.25/outbox.cif.g09.slc.cpg/sg2_25_cif.got.tgz:48873.got - 2010.06.27 13:26:56.
