data_PCOD8016981
_publ_section_title
;
Structure prediction by ZEFSAII (Michael W. Deem and Ramdas Pophale) SiO2 
 PCOD8016981
Probable space group: P -1
;
_chemical_formula_sum "Si O2"
_cell_formula_units_Z 16
_cell_length_a 11.247309
_cell_length_b 8.713355
_cell_length_c 13.073326
_cell_angle_alpha 45.453174
_cell_angle_beta 82.892880
_cell_angle_gamma 112.690714
_cell_volume 674.106141
_symmetry_space_group_name_H-M "P -1"
_symmetry_group_IT_number 2
_symmetry_cell_setting 'triclinic'
loop_
_space_group_symop_operation_xyz
x,y,z
-x,-y,-z
loop_
_atom_site_type_symbol
_atom_site_label
_atom_site_fract_x
_atom_site_fract_y
_atom_site_fract_z
Si Si1 0.237002 0.255254 0.645009
Si Si2 0.671504 0.074457 0.207072
Si Si3 0.288574 0.535506 0.714184
Si Si4 0.084396 0.426238 0.449692
Si Si5 0.432466 0.084872 0.340696
Si Si6 0.107317 0.330168 0.018898
Si Si7 0.223342 0.212184 0.244546
Si Si8 0.681416 0.250396 0.902883
O O1 0.282987 0.363589 0.703966
O O2 0.218177 0.442894 0.488885
O O3 0.361228 0.213517 0.618365
O O4 0.074191 0.921787 0.815102
O O5 0.514715 0.019729 0.282306
O O6 0.831854 0.353993 0.115774
O O7 0.701003 0.122716 0.059387
O O8 0.445985 0.677992 0.698713
O O9 0.132172 0.308058 0.907057
O O10 0.291906 0.785041 0.554878
O O11 0.187927 0.665719 0.237127
O O12 0.000000 0.500000 0.500000
O O13 0.949825 0.107106 0.564686
O O14 0.358444 0.190863 0.235595
O O15 0.222291 0.317237 0.083440
O O16 0.273009 0.446949 0.215388
O O17 0.500000 0.000000 0.000000
#
# Coordination Sequence:
#
# PCOD8016981 Si02
#       8
#     2   2   2   2   2   2   2   2
#     4  11  23  41  67  95 136 177 226 283 348 404
#     4  10  24  42  64  97 141 175 233 281 343 408
#     4  10  22  37  62  95 131 169 226 279 338 404
#     4  11  26  48  73 105 140 184 235 288 350 417
#     4  10  23  43  64  98 135 184 223 282 341 411
#     4   9  21  42  64  96 125 178 224 286 339 409
#     4  10  23  46  74  95 140 186 234 283 350 413
#     4  11  27  45  70 107 140 185 234 290 346 417
#
# _framework density 23.735136000000001
#
# number of rings (size 3 to 8) (size 9 to 14) (size 15 to 20)
#    0.000    1.750    0.000    1.875    5.250   12.000 
#    2.250    2.500    0.000    0.000    0.000    0.000 
#    0.000    0.000    0.000    0.000    0.000    0.000 
#
# Total GULP energy -198294.945523 kJ/mol
# GULP energy per Si atom -12393.434095 kJ/mol
# Density = 2.368111 g / cm^3
# Si number density = 23.735136 Si / 1000 Ang^3
#
#
#
# Elastic Constant Matrix: (Units=GPa)
#
#
# Indices 1 2 3 4 5 6 
#
# 1 113.4366 45.9406 27.5430 12.8383 23.6115 -25.1817
# 2 45.9406 123.5397 30.0498 3.3280 0.2886 0.7435
# 3 27.5430 30.0498 95.5096 11.8514 -5.6538 -4.5822
# 4 12.8383 3.3280 11.8514 34.3265 -1.1068 -3.7941
# 5 23.6115 0.2886 -5.6538 -1.1068 35.0241 -2.8680
# 6 -25.1817 0.7435 -4.5822 -3.7941 -2.8680 17.8827
#
#
#
# Elastic Compliance Matrix: (Units=1/GPa)
#
#
# Indices 1 2 3 4 5 6 
#
# 1 0.021663 -0.007378 -0.002915 -0.003791 -0.012907 0.027190
# 2 -0.007378 0.011313 -0.001869 0.001272 0.003762 -0.010465
# 3 -0.002915 -0.001869 0.012456 -0.003001 0.003826 -0.000858
# 4 -0.003791 0.001272 -0.003001 0.031682 0.003149 0.001067
# 5 -0.012907 0.003762 0.003826 0.003149 0.037060 -0.010739
# 6 0.027190 -0.010465 -0.000858 0.001067 -0.010739 0.092927
#
#
# Mechanical properties :
#
#
# Convention : Reuss Voigt Hill
#
# Bulk Modulus (GPa) = 47.37473 59.95030 53.66252
# Shear Modulus (GPa) = 20.96777 32.71017 26.83897
#
# Velocity S-wave (km/s) = 2.97544 3.71635 3.36634
# Velocity P-wave (km/s) = 5.63981 6.61271 6.14554
#
# Compressibility (1/GPa) = 0.02110830
#
# Stress axis : x y z
#
# Youngs Moduli (GPa) = 46.16186 88.39573 80.27989
#
# Poissons Ratio (x) = 0.65219 0.23401
# Poissons Ratio (y) = 0.34059 0.15003
# Poissons Ratio (z) = 0.13456 0.16520
#
# Static dielectric constant tensor:
#      x y z
#    x 4.187770 0.175480 0.056010 
#    y 0.175480 4.420920 -0.140550 
#    z 0.056010 -0.140550 4.477300 
# 
# 
# High freq. dielectric constant tensor:
#      x y z
#    x 1.926470 0.006980 0.002520 
#    y 0.006980 1.952510 -0.010240 
#    z 0.002520 -0.010240 1.944820 
# 
# From -- ./inp_files/418930.got.cif
#   From: 2010.06.25/outbox.cif.g09.slc.cpg/sg2_210_cif.got.tgz:418930.got - 2010.06.27 13:26:56.
