data_PCOD8016891
_publ_section_title
;
Structure prediction by ZEFSAII (Michael W. Deem and Ramdas Pophale) SiO2 
 PCOD8016891
Probable space group: P -1
;
_chemical_formula_sum "Si O2"
_cell_formula_units_Z 16
_cell_length_a 13.221546
_cell_length_b 11.001776
_cell_length_c 8.782897
_cell_angle_alpha 67.813920
_cell_angle_beta 133.362377
_cell_angle_gamma 131.052977
_cell_volume 694.135519
_symmetry_space_group_name_H-M "P -1"
_symmetry_group_IT_number 2
_symmetry_cell_setting 'triclinic'
loop_
_space_group_symop_operation_xyz
x,y,z
-x,-y,-z
loop_
_atom_site_type_symbol
_atom_site_label
_atom_site_fract_x
_atom_site_fract_y
_atom_site_fract_z
Si Si1 0.808729 0.841905 0.843322
Si Si2 0.310932 0.514341 0.119901
Si Si3 0.258598 0.946811 0.766996
Si Si4 0.534978 0.040747 0.770443
Si Si5 0.518258 0.205194 0.385917
Si Si6 0.916676 0.404433 0.305115
Si Si7 0.280102 0.229277 0.560766
Si Si8 0.794264 0.528446 0.623689
O O1 0.776195 0.671641 0.936083
O O2 0.682811 0.868787 0.793625
O O3 0.755694 0.833057 0.618877
O O4 0.000000 0.000000 0.000000
O O5 0.517902 0.623362 0.276077
O O6 0.248393 0.515058 0.223591
O O7 0.245284 0.593635 0.904227
O O8 0.133670 0.775878 0.633441
O O9 0.203373 0.069079 0.662362
O O10 0.428661 0.053847 0.785907
O O11 0.291052 0.911112 0.988078
O O12 0.578911 0.162847 0.621628
O O13 0.438147 0.859621 0.685191
O O14 0.631507 0.399381 0.410091
O O15 0.000000 0.500000 0.500000
O O16 0.048969 0.476855 0.265073
O O17 0.169251 0.297230 0.454680
#
# Coordination Sequence:
#
# PCOD8016891 Si02
#       8
#     2   2   2   2   2   2   2   2
#     4  11  23  38  67 102 133 165 221 286 334 384
#     4  11  22  45  72  98 131 179 226 275 340 397
#     4  11  22  43  61  95 137 178 221 259 341 406
#     4  10  22  36  70  94 126 175 216 278 328 397
#     4  11  20  41  66 100 130 165 233 277 332 391
#     4  12  28  42  64 100 141 177 221 284 334 393
#     4  11  22  44  74  95 132 185 221 276 337 408
#     4  11  22  43  69  97 130 180 227 276 329 402
#
# _framework density 23.050253999999999
#
# number of rings (size 3 to 8) (size 9 to 14) (size 15 to 20)
#    0.000    1.000    3.750    4.125    1.750    4.500 
#    2.250    1.250    0.000    0.000    0.000    0.000 
#    0.000    0.000    0.000    0.000    0.000    0.000 
#
# Total GULP energy -198335.471587 kJ/mol
# GULP energy per Si atom -12395.966974 kJ/mol
# Density = 2.299779 g / cm^3
# Si number density = 23.050254 Si / 1000 Ang^3
#
#
#
# Elastic Constant Matrix: (Units=GPa)
#
#
# Indices 1 2 3 4 5 6 
#
# 1 47.8483 -6.6009 11.2643 -5.8601 -5.7368 -17.2928
# 2 -6.6009 126.8923 37.6531 14.7895 -4.9230 -23.9783
# 3 11.2643 37.6531 102.3123 8.5314 3.7825 -11.8925
# 4 -5.8601 14.7895 8.5314 39.1551 -3.6267 -0.4880
# 5 -5.7368 -4.9230 3.7825 -3.6267 27.7691 5.3984
# 6 -17.2928 -23.9783 -11.8925 -0.4880 5.3984 29.4533
#
#
#
# Elastic Compliance Matrix: (Units=1/GPa)
#
#
# Indices 1 2 3 4 5 6 
#
# 1 0.031506 0.006596 -0.003872 0.003754 0.004508 0.021540
# 2 0.006596 0.011845 -0.003561 -0.002440 0.001336 0.011793
# 3 -0.003872 -0.003561 0.011833 -0.002121 -0.003356 0.000186
# 4 0.003754 -0.002440 -0.002121 0.027887 0.004468 -0.000996
# 5 0.004508 0.001336 -0.003356 0.004468 0.039138 -0.004720
# 6 0.021540 0.011793 0.000186 -0.000996 -0.004720 0.057123
#
#
# Mechanical properties :
#
#
# Convention : Reuss Voigt Hill
#
# Bulk Modulus (GPa) = 18.68806 40.18732 29.43769
# Shear Modulus (GPa) = 25.14564 34.92459 30.03511
#
# Velocity S-wave (km/s) = 3.30647 3.89672 3.61366
# Velocity P-wave (km/s) = 4.76467 6.14153 5.49638
#
# Compressibility (1/GPa) = 0.05351010
#
# Stress axis : x y z
#
# Youngs Moduli (GPa) = 31.74029 84.42396 84.50775
#
# Poissons Ratio (x) = -0.55682 0.32721
# Poissons Ratio (y) = -0.20934 0.30089
# Poissons Ratio (z) = 0.12290 0.30059
#
# Static dielectric constant tensor:
#      x y z
#    x 4.030520 -0.309830 0.010940 
#    y -0.309830 4.360240 0.017900 
#    z 0.010940 0.017900 4.065280 
# 
# 
# High freq. dielectric constant tensor:
#      x y z
#    x 1.897620 -0.023610 -0.000210 
#    y -0.023610 1.924530 0.006440 
#    z -0.000210 0.006440 1.901580 
# 
# From -- ./inp_files/262631.got.cif
#   From: 2010.06.25/outbox.cif.g09.slc.cpg/sg2_132_cif.got.tgz:262631.got - 2010.06.27 13:26:56.
