data_PCOD8016113
_publ_section_title
;
Structure prediction by ZEFSAII (Michael W. Deem and Ramdas Pophale) SiO2 
 PCOD8016113
Probable space group: P -1
;
_chemical_formula_sum "Si O2"
_cell_formula_units_Z 16
_cell_length_a 7.682738
_cell_length_b 19.200901
_cell_length_c 14.385385
_cell_angle_alpha 159.116442
_cell_angle_beta 64.790714
_cell_angle_gamma 113.847405
_cell_volume 684.274037
_symmetry_space_group_name_H-M "P -1"
_symmetry_group_IT_number 2
_symmetry_cell_setting 'triclinic'
loop_
_space_group_symop_operation_xyz
x,y,z
-x,-y,-z
loop_
_atom_site_type_symbol
_atom_site_label
_atom_site_fract_x
_atom_site_fract_y
_atom_site_fract_z
Si Si1 0.966158 0.419400 0.553152
Si Si2 0.731657 0.120481 0.668714
Si Si3 0.151659 0.605285 0.160808
Si Si4 0.376502 0.913617 0.002840
Si Si5 0.442797 0.113584 0.885075
Si Si6 0.094793 0.279131 0.899013
Si Si7 0.967053 0.088435 0.288079
Si Si8 0.306679 0.508569 0.453007
O O1 0.982279 0.220369 0.357974
O O2 0.773520 0.407767 0.521579
O O3 0.144090 0.415127 0.438438
O O4 0.964341 0.617336 0.862467
O O5 0.687020 0.281670 0.798750
O O6 0.546659 0.069802 0.709726
O O7 0.900770 0.211510 0.806863
O O8 0.784949 0.914983 0.351494
O O9 0.037576 0.771696 0.447903
O O10 0.224386 0.438248 0.007467
O O11 0.000000 0.500000 0.000000
O O12 0.413514 0.681945 0.700559
O O13 0.450293 0.992405 0.184907
O O14 0.500000 0.000000 0.000000
O O15 0.151361 0.953450 0.088998
O O16 0.221955 0.047416 0.844621
O O17 0.458463 0.345080 0.187646
#
# Coordination Sequence:
#
# PCOD8016113 Si02
#       8
#     2   2   2   2   2   2   2   2
#     4  10  21  43  70  97 137 180 230 287 351 408
#     4  10  22  39  68  97 142 183 232 288 351 416
#     4   9  21  40  68 101 136 186 230 288 351 410
#     4  12  27  45  73 101 138 186 231 287 350 419
#     4  12  27  44  68 108 139 182 237 282 351 421
#     4   9  20  40  67  99 134 184 232 292 346 418
#     4  11  25  46  70 101 142 179 232 291 345 417
#     4  11  24  41  68 101 137 180 229 290 347 413
#
# _framework density 23.382445000000001
#
# number of rings (size 3 to 8) (size 9 to 14) (size 15 to 20)
#    0.000    1.500    0.000    4.125    8.750    5.000 
#    2.250    1.250    0.000    0.000    0.000    0.000 
#    0.000    0.000    0.000    0.000    0.000    0.000 
#
# Total GULP energy -198358.547331 kJ/mol
# GULP energy per Si atom -12397.409208 kJ/mol
# Density = 2.332923 g / cm^3
# Si number density = 23.382445 Si / 1000 Ang^3
#
#
#
# Elastic Constant Matrix: (Units=GPa)
#
#
# Indices 1 2 3 4 5 6 
#
# 1 80.9829 30.3882 12.5841 3.9704 -3.4851 7.5509
# 2 30.3882 118.2941 16.7758 7.4978 -11.3738 -0.9857
# 3 12.5841 16.7758 110.8328 6.1179 -3.9955 4.1748
# 4 3.9704 7.4978 6.1179 31.9928 -0.4058 3.6439
# 5 -3.4851 -11.3738 -3.9955 -0.4058 25.4659 -2.4026
# 6 7.5509 -0.9857 4.1748 3.6439 -2.4026 29.3058
#
#
#
# Elastic Compliance Matrix: (Units=1/GPa)
#
#
# Indices 1 2 3 4 5 6 
#
# 1 0.014163 -0.003528 -0.000924 -0.000345 -0.000128 -0.003604
# 2 -0.003528 0.010014 -0.000939 -0.001900 0.003995 0.001943
# 3 -0.000924 -0.000939 0.009408 -0.001351 0.000824 -0.000898
# 4 -0.000345 -0.001900 -0.001351 0.032435 -0.000958 -0.003894
# 5 -0.000128 0.003995 0.000824 -0.000958 0.041486 0.003570
# 6 -0.003604 0.001943 -0.000898 -0.003894 0.003570 0.036022
#
#
# Mechanical properties :
#
#
# Convention : Reuss Voigt Hill
#
# Bulk Modulus (GPa) = 43.85492 47.73400 45.79446
# Shear Modulus (GPa) = 30.88130 34.04368 32.46249
#
# Velocity S-wave (km/s) = 3.63809 3.81983 3.73007
# Velocity P-wave (km/s) = 6.03687 6.31772 6.17889
#
# Compressibility (1/GPa) = 0.02280246
#
# Stress axis : x y z
#
# Youngs Moduli (GPa) = 70.60626 99.86302 106.29448
#
# Poissons Ratio (x) = 0.35229 0.09821
# Poissons Ratio (y) = 0.24908 0.09986
# Poissons Ratio (z) = 0.06524 0.09382
#
# Static dielectric constant tensor:
#      x y z
#    x 3.508630 -0.264790 0.330040 
#    y -0.264790 4.684860 0.262400 
#    z 0.330040 0.262400 4.883400 
# 
# 
# High freq. dielectric constant tensor:
#      x y z
#    x 1.904630 -0.018300 0.012890 
#    y -0.018300 1.941050 0.001390 
#    z 0.012890 0.001390 1.938370 
# 
# From -- ./inp_files/507989.got.cif
#   From: 2010.06.25/outbox.cif.g09.slc.cpg/sg2_254_cif.got.tgz:507989.got - 2010.06.27 13:26:56.
