data_PCOD8016256
_publ_section_title
;
Structure prediction by ZEFSAII (Michael W. Deem and Ramdas Pophale) SiO2 
 PCOD8016256
Probable space group: P -1
;
_chemical_formula_sum "Si O2"
_cell_formula_units_Z 16
_cell_length_a 7.341763
_cell_length_b 14.299738
_cell_length_c 14.957619
_cell_angle_alpha 139.643695
_cell_angle_beta 99.538586
_cell_angle_gamma 109.213198
_cell_volume 703.041262
_symmetry_space_group_name_H-M "P -1"
_symmetry_group_IT_number 2
_symmetry_cell_setting 'triclinic'
loop_
_space_group_symop_operation_xyz
x,y,z
-x,-y,-z
loop_
_atom_site_type_symbol
_atom_site_label
_atom_site_fract_x
_atom_site_fract_y
_atom_site_fract_z
Si Si1 0.766506 0.716546 0.342676
Si Si2 0.955430 0.850663 0.644794
Si Si3 0.257939 0.835020 0.926430
Si Si4 0.472430 0.724492 0.991758
Si Si5 0.558205 0.854700 0.694496
Si Si6 0.533302 0.065504 0.705016
Si Si7 0.213228 0.958123 0.430112
Si Si8 0.766897 0.556168 0.559057
O O1 0.970596 0.822832 0.520538
O O2 0.637418 0.804863 0.404003
O O3 0.568243 0.471258 0.153537
O O4 0.908035 0.801943 0.319654
O O5 0.710028 0.817231 0.623624
O O6 0.916793 0.677538 0.567886
O O7 0.223255 0.076928 0.861709
O O8 0.972467 0.693354 0.755985
O O9 0.297179 0.702804 0.884371
O O10 0.500000 0.000000 0.000000
O O11 0.240603 0.949460 0.083097
O O12 0.405053 0.749454 0.104419
O O13 0.327301 0.661985 0.599540
O O14 0.420437 0.892606 0.644556
O O15 0.338077 0.953520 0.523737
O O16 0.793253 0.142137 0.734080
O O17 0.500000 0.500000 0.500000
#
# Coordination Sequence:
#
# PCOD8016256 Si02
#       8
#     2   2   2   2   2   2   2   2
#     4  11  24  42  68  96 129 184 221 278 347 415
#     4  11  22  44  63  99 140 174 225 281 334 416
#     4  11  24  43  64 102 136 177 232 284 332 405
#     4  11  25  41  69  99 138 176 224 286 343 398
#     4  10  24  42  69  93 141 180 225 279 339 409
#     4  10  21  44  65 100 132 171 223 294 334 397
#     4  10  22  43  70  92 134 173 230 280 344 411
#     4  10  24  41  69  98 134 185 223 271 343 410
#
# _framework density 22.758265999999999
#
# number of rings (size 3 to 8) (size 9 to 14) (size 15 to 20)
#    0.000    1.500    3.750    0.000    3.500    5.500 
#    0.000    1.250    0.000    0.000    0.000    0.000 
#    0.000    0.000    0.000    0.000    0.000    0.000 
#
# Total GULP energy -198210.178689 kJ/mol
# GULP energy per Si atom -12388.136168 kJ/mol
# Density = 2.270647 g / cm^3
# Si number density = 22.758266 Si / 1000 Ang^3
#
#
#
# Elastic Constant Matrix: (Units=GPa)
#
#
# Indices 1 2 3 4 5 6 
#
# 1 52.7299 28.1124 33.8089 6.7493 -2.4790 -5.6765
# 2 28.1124 127.9622 47.4089 12.5220 -4.6355 -13.1259
# 3 33.8089 47.4089 90.2944 16.0400 5.3099 -14.6008
# 4 6.7493 12.5220 16.0400 40.9267 -1.6657 0.3719
# 5 -2.4790 -4.6355 5.3099 -1.6657 35.7388 -6.8026
# 6 -5.6765 -13.1259 -14.6008 0.3719 -6.8026 33.0136
#
#
#
# Elastic Compliance Matrix: (Units=1/GPa)
#
#
# Indices 1 2 3 4 5 6 
#
# 1 0.025888 -0.002381 -0.008545 -0.000080 0.002811 0.000306
# 2 -0.002381 0.010264 -0.004053 -0.001093 0.002162 0.002337
# 3 -0.008545 -0.004053 0.018110 -0.004618 -0.003202 0.004321
# 4 -0.000080 -0.001093 -0.004618 0.026667 0.001301 -0.002523
# 5 0.002811 0.002162 -0.003202 0.001301 0.030159 0.006127
# 6 0.000306 0.002337 0.004321 -0.002523 0.006127 0.034474
#
#
# Mechanical properties :
#
#
# Convention : Reuss Voigt Hill
#
# Bulk Modulus (GPa) = 41.14390 54.40521 47.77456
# Shear Modulus (GPa) = 27.23006 32.71289 29.97148
#
# Velocity S-wave (km/s) = 3.46279 3.79543 3.63292
# Velocity P-wave (km/s) = 5.84001 6.56998 6.21572
#
# Compressibility (1/GPa) = 0.02430494
#
# Stress axis : x y z
#
# Youngs Moduli (GPa) = 38.62832 97.42384 55.21902
#
# Poissons Ratio (x) = 0.23192 0.47184
# Poissons Ratio (y) = 0.09196 0.22381
# Poissons Ratio (z) = 0.33007 0.39487
#
# Static dielectric constant tensor:
#      x y z
#    x 4.196700 -0.011000 -0.245490 
#    y -0.011000 4.631290 -0.021100 
#    z -0.245490 -0.021100 3.867570 
# 
# 
# High freq. dielectric constant tensor:
#      x y z
#    x 1.896730 -0.008300 -0.013040 
#    y -0.008300 1.921840 -0.008170 
#    z -0.013040 -0.008170 1.871050 
# 
# From -- ./inp_files/138965.got.cif
#   From: 2010.06.25/outbox.cif.g09.slc.cpg/sg2_70_cif.got.tgz:138965.got - 2010.06.27 13:26:56.
