data_PCOD8016341
_publ_section_title
;
Structure prediction by ZEFSAII (Michael W. Deem and Ramdas Pophale) SiO2 
 PCOD8016341
Probable space group: P -1
;
_chemical_formula_sum "Si O2"
_cell_formula_units_Z 16
_cell_length_a 9.997066
_cell_length_b 8.878077
_cell_length_c 13.756467
_cell_angle_alpha 68.608234
_cell_angle_beta 61.194050
_cell_angle_gamma 112.939101
_cell_volume 718.064407
_symmetry_space_group_name_H-M "P -1"
_symmetry_group_IT_number 2
_symmetry_cell_setting 'triclinic'
loop_
_space_group_symop_operation_xyz
x,y,z
-x,-y,-z
loop_
_atom_site_type_symbol
_atom_site_label
_atom_site_fract_x
_atom_site_fract_y
_atom_site_fract_z
Si Si1 0.312862 0.766639 0.396726
Si Si2 0.472340 0.802163 0.650969
Si Si3 0.810393 0.134918 0.315040
Si Si4 0.599443 0.520574 0.099482
Si Si5 0.092156 0.959183 0.094114
Si Si6 0.872274 0.320691 0.726821
Si Si7 0.740978 0.926679 0.194369
Si Si8 0.260049 0.493492 0.144917
O O1 0.244573 0.771903 0.312862
O O2 0.484900 0.746051 0.334296
O O3 0.110310 0.562703 0.577066
O O4 0.420319 0.997825 0.356518
O O5 0.264299 0.731897 0.692416
O O6 0.409932 0.588457 0.772692
O O7 0.633240 0.889909 0.484603
O O8 0.017686 0.262265 0.276131
O O9 0.848946 0.115201 0.194914
O O10 0.375885 0.447707 0.182902
O O11 0.784428 0.787419 0.979117
O O12 0.635043 0.425703 0.018030
O O13 0.115824 0.852572 0.198403
O O14 0.188230 0.952316 0.963908
O O15 0.843183 0.821876 0.195797
O O16 0.732492 0.325919 0.848881
#
# Coordination Sequence:
#
# PCOD8016341 Si02
#       8
#     2   2   2   2   2   2   2   2
#     4  10  23  45  67 100 127 174 222 266 328 384
#     4  10  23  43  69  97 131 170 220 271 323 392
#     4  10  21  44  67  97 130 172 221 265 327 385
#     4  11  26  43  66  99 134 170 218 273 329 383
#     4  11  25  46  65  99 135 173 216 269 331 385
#     4  11  25  44  71  94 134 173 220 269 324 395
#     4  10  23  44  65  97 132 171 221 266 327 387
#     4  11  24  43  65  99 130 175 218 267 329 385
#
# _framework density 22.282125000000001
#
# number of rings (size 3 to 8) (size 9 to 14) (size 15 to 20)
#    0.000    1.500    2.500    0.750    7.000    4.500 
#    6.750    0.000    0.000    0.000    0.000    0.000 
#    0.000    0.000    0.000    0.000    0.000    0.000 
#
# Total GULP energy -198370.402249 kJ/mol
# GULP energy per Si atom -12398.150141 kJ/mol
# Density = 2.223141 g / cm^3
# Si number density = 22.282125 Si / 1000 Ang^3
#
#
#
# Elastic Constant Matrix: (Units=GPa)
#
#
# Indices 1 2 3 4 5 6 
#
# 1 150.4409 32.7196 78.5033 -1.5835 -2.6271 -16.2512
# 2 32.7196 71.3730 35.0058 5.1026 5.2361 1.9107
# 3 78.5033 35.0058 81.2470 0.2763 9.2119 -11.1575
# 4 -1.5835 5.1026 0.2763 31.1053 -6.2174 6.4419
# 5 -2.6271 5.2361 9.2119 -6.2174 48.4711 -1.0464
# 6 -16.2512 1.9107 -11.1575 6.4419 -1.0464 27.3961
#
#
#
# Elastic Compliance Matrix: (Units=1/GPa)
#
#
# Indices 1 2 3 4 5 6 
#
# 1 0.014185 -0.000223 -0.013638 0.001020 0.003576 0.002772
# 2 -0.000223 0.018489 -0.008237 -0.002250 -0.000825 -0.004279
# 3 -0.013638 -0.008237 0.030388 -0.001811 -0.005748 0.005067
# 4 0.001020 -0.002250 -0.001811 0.035256 0.004990 -0.008075
# 5 0.003576 -0.000825 -0.005748 0.004990 0.022636 -0.000471
# 6 0.002772 -0.004279 0.005067 -0.008075 -0.000471 0.042389
#
#
# Mechanical properties :
#
#
# Convention : Reuss Voigt Hill
#
# Bulk Modulus (GPa) = 53.00529 66.16870 59.58699
# Shear Modulus (GPa) = 23.38343 31.84996 27.61670
#
# Velocity S-wave (km/s) = 3.24300 3.78484 3.52435
# Velocity P-wave (km/s) = 6.15326 6.99002 6.58494
#
# Compressibility (1/GPa) = 0.01886604
#
# Stress axis : x y z
#
# Youngs Moduli (GPa) = 70.49780 54.08606 32.90800
#
# Poissons Ratio (x) = 0.01209 0.44879
# Poissons Ratio (y) = 0.01575 0.27105
# Poissons Ratio (z) = 0.96143 0.44549
#
# Static dielectric constant tensor:
#      x y z
#    x 4.335030 0.117510 -0.232100 
#    y 0.117510 3.845200 0.409600 
#    z -0.232100 0.409600 3.973590 
# 
# 
# High freq. dielectric constant tensor:
#      x y z
#    x 1.899030 0.015530 -0.013680 
#    y 0.015530 1.864020 0.030970 
#    z -0.013680 0.030970 1.868440 
# 
# From -- ./inp_files/494468.got.cif
#   From: 2010.06.25/outbox.cif.g09.slc.cpg/sg2_248_cif.got.tgz:494468.got - 2010.06.27 13:26:56.
