data_PCOD8016873
_publ_section_title
;
Structure prediction by ZEFSAII (Michael W. Deem and Ramdas Pophale) SiO2 
 PCOD8016873
Probable space group: P -1
;
_chemical_formula_sum "Si O2"
_cell_formula_units_Z 12
_cell_length_a 11.407144
_cell_length_b 9.147966
_cell_length_c 14.464280
_cell_angle_alpha 81.054518
_cell_angle_beta 18.589180
_cell_angle_gamma 79.928863
_cell_volume 473.493465
_symmetry_space_group_name_H-M "P -1"
_symmetry_group_IT_number 2
_symmetry_cell_setting 'triclinic'
loop_
_space_group_symop_operation_xyz
x,y,z
-x,-y,-z
loop_
_atom_site_type_symbol
_atom_site_label
_atom_site_fract_x
_atom_site_fract_y
_atom_site_fract_z
Si Si1 0.566829 0.511147 0.805833
Si Si2 0.251798 0.892332 0.386298
Si Si3 0.152457 0.967457 0.165897
Si Si4 0.337789 0.168985 0.588296
Si Si5 0.345456 0.289180 0.122729
Si Si6 0.850943 0.363157 0.070265
O O1 0.428171 0.628969 0.977603
O O2 0.441378 0.568500 0.793949
O O3 0.000000 0.500000 0.500000
O O4 0.379467 0.360693 0.988557
O O5 0.091652 0.727333 0.521358
O O6 0.000000 0.000000 0.500000
O O7 0.195029 0.952618 0.527756
O O8 0.672891 0.903640 0.038920
O O9 0.008460 0.842317 0.219610
O O10 0.456798 0.879043 0.015758
O O11 0.645061 0.263134 0.304712
O O12 0.500000 0.000000 0.500000
O O13 0.186351 0.258617 0.783984
O O14 0.000000 0.500000 0.000000
#
# Coordination Sequence:
#
# PCOD8016873 Si02
#       6
#     2   2   2   2   2   2
#     4  11  25  42  73 105 146 200 242 309 380 458
#     4  10  22  36  64 101 138 181 230 293 374 440
#     4  11  22  42  69  98 144 188 234 312 375 442
#     4  12  27  52  79 108 148 209 266 316 384 461
#     4  10  22  40  64 105 147 184 241 295 385 448
#     4  12  28  54  81 111 158 204 261 323 384 458
#
# _framework density 25.343537999999999
#
# number of rings (size 3 to 8) (size 9 to 14) (size 15 to 20)
#    0.000    1.000    1.667    5.000   11.667    1.333 
#    3.000    0.000    0.000    0.000    0.000    0.000 
#    0.000    0.000    0.000    0.000    0.000    0.000 
#
# Total GULP energy -148708.416572 kJ/mol
# GULP energy per Si atom -12392.368048 kJ/mol
# Density = 2.528586 g / cm^3
# Si number density = 25.343538 Si / 1000 Ang^3
#
#
#
# Elastic Constant Matrix: (Units=GPa)
#
#
# Indices 1 2 3 4 5 6 
#
# 1 87.9200 57.3893 50.8258 1.2731 13.7282 12.9741
# 2 57.3893 162.6975 83.8005 -32.8582 5.3799 0.3721
# 3 50.8258 83.8005 165.2344 -32.0553 33.6798 -6.4226
# 4 1.2731 -32.8582 -32.0553 55.9191 -4.3143 -4.1381
# 5 13.7282 5.3799 33.6798 -4.3143 35.5871 2.9829
# 6 12.9741 0.3721 -6.4226 -4.1381 2.9829 47.6363
#
#
#
# Elastic Compliance Matrix: (Units=1/GPa)
#
#
# Indices 1 2 3 4 5 6 
#
# 1 0.018904 -0.006042 -0.003628 -0.006754 -0.003264 -0.005973
# 2 -0.006042 0.011007 -0.003660 0.004954 0.004630 0.001207
# 3 -0.003628 -0.003660 0.011832 0.004281 -0.009023 0.003549
# 4 -0.006754 0.004954 0.004281 0.023753 0.000314 0.004422
# 5 -0.003264 0.004630 -0.009023 0.000314 0.037462 -0.002682
# 6 -0.005973 0.001207 0.003549 0.004422 -0.002682 0.023640
#
#
# Mechanical properties :
#
#
# Convention : Reuss Voigt Hill
#
# Bulk Modulus (GPa) = 66.29532 88.87588 77.58560
# Shear Modulus (GPa) = 31.58868 42.75091 37.16980
#
# Velocity S-wave (km/s) = 3.53430 4.11159 3.83383
# Velocity P-wave (km/s) = 6.54755 7.59505 7.09067
#
# Compressibility (1/GPa) = 0.01508402
#
# Stress axis : x y z
#
# Youngs Moduli (GPa) = 52.89939 90.84927 84.51975
#
# Poissons Ratio (x) = 0.54891 0.30661
# Poissons Ratio (y) = 0.31962 0.30931
# Poissons Ratio (z) = 0.19190 0.33247
#
# Static dielectric constant tensor:
#      x y z
#    x 4.996860 0.590760 0.061100 
#    y 0.590760 5.193380 -0.436460 
#    z 0.061100 -0.436460 5.112440 
# 
# 
# High freq. dielectric constant tensor:
#      x y z
#    x 2.001690 0.023840 0.022770 
#    y 0.023840 2.029480 -0.015040 
#    z 0.022770 -0.015040 2.015710 
# 
# From -- ./inp_files/515269.got.cif
#   From: 2010.06.25/outbox.cif.g09.slc.cpg/sg2_258_cif.got.tgz:515269.got - 2010.06.27 13:26:56.
