data_PCOD8016165
_publ_section_title
;
Structure prediction by ZEFSAII (Michael W. Deem and Ramdas Pophale) SiO2 
 PCOD8016165
Probable space group: P -1
;
_chemical_formula_sum "Si O2"
_cell_formula_units_Z 16
_cell_length_a 9.050784
_cell_length_b 26.489044
_cell_length_c 9.049092
_cell_angle_alpha 142.188026
_cell_angle_beta 108.762967
_cell_angle_gamma 44.148310
_cell_volume 758.418496
_symmetry_space_group_name_H-M "P -1"
_symmetry_group_IT_number 2
_symmetry_cell_setting 'triclinic'
loop_
_space_group_symop_operation_xyz
x,y,z
-x,-y,-z
loop_
_atom_site_type_symbol
_atom_site_label
_atom_site_fract_x
_atom_site_fract_y
_atom_site_fract_z
Si Si1 0.287628 0.086550 0.757338
Si Si2 0.238687 0.882102 0.697295
Si Si3 0.406522 0.355733 0.261318
Si Si4 0.872227 0.131583 0.684426
Si Si5 0.446031 0.649566 0.388207
Si Si6 0.922955 0.336238 0.805377
Si Si7 0.532098 0.906474 0.703148
Si Si8 0.919231 0.667450 0.836286
O O1 0.028041 0.149584 0.779308
O O2 0.500000 0.000000 0.500000
O O3 0.405670 0.982034 0.682461
O O4 0.196621 0.220174 0.064085
O O5 0.136194 0.879430 0.516093
O O6 0.444773 0.738290 0.514970
O O7 0.378868 0.904700 0.743142
O O8 0.000000 0.000000 0.000000
O O9 0.562873 0.329485 0.389558
O O10 0.296280 0.311385 0.156298
O O11 0.177272 0.514157 0.505213
O O12 0.591945 0.267714 0.977780
O O13 0.000000 0.000000 0.500000
O O14 0.202597 0.698647 0.362921
O O15 0.715282 0.494427 0.069716
O O16 0.171312 0.246581 0.574622
O O17 0.013244 0.306071 0.935169
O O18 0.500000 0.000000 0.000000
#
# Coordination Sequence:
#
# PCOD8016165 Si02
#       8
#     2   2   2   2   2   2   2   2
#     4  12  25  42  69  95 130 176 218 268 331 382
#     4  12  26  44  67  97 132 176 218 266 330 390
#     4  10  23  43  70 100 131 167 224 273 328 387
#     4  12  24  43  66  97 132 168 218 276 321 388
#     4  10  23  42  71  97 130 179 211 273 331 390
#     4  10  21  45  68  96 135 170 222 267 329 392
#     4  12  27  42  64  99 134 171 221 271 316 397
#     4  10  21  43  71  98 130 173 216 275 328 391
#
# _framework density 21.096530999999999
#
# number of rings (size 3 to 8) (size 9 to 14) (size 15 to 20)
#    0.000    1.000    2.500    3.750    5.250    1.000 
#    2.250    0.000    0.000    0.000    0.000    0.000 
#    0.000    0.000    0.000    0.000    0.000    0.000 
#
# Total GULP energy -198332.567798 kJ/mol
# GULP energy per Si atom -12395.785487 kJ/mol
# Density = 2.104851 g / cm^3
# Si number density = 21.096531 Si / 1000 Ang^3
#
#
#
# Elastic Constant Matrix: (Units=GPa)
#
#
# Indices 1 2 3 4 5 6 
#
# 1 155.6073 41.9488 78.0196 17.9731 -5.4245 2.0968
# 2 41.9488 74.6849 47.5252 0.9796 -3.9729 -0.3714
# 3 78.0196 47.5252 150.3468 8.9742 -18.3316 6.2421
# 4 17.9731 0.9796 8.9742 39.0181 2.6892 9.8314
# 5 -5.4245 -3.9729 -18.3316 2.6892 43.5707 2.8632
# 6 2.0968 -0.3714 6.2421 9.8314 2.8632 42.4743
#
#
#
# Elastic Compliance Matrix: (Units=1/GPa)
#
#
# Indices 1 2 3 4 5 6 
#
# 1 0.009560 -0.002827 -0.003961 -0.003625 -0.000574 0.000963
# 2 -0.002827 0.017679 -0.004337 0.001761 -0.000711 0.000572
# 3 -0.003961 -0.004337 0.010616 -0.000369 0.003704 -0.001567
# 4 -0.003625 0.001761 -0.000369 0.029067 -0.001822 -0.006357
# 5 -0.000574 -0.000711 0.003704 -0.001822 0.024601 -0.001759
# 6 0.000963 0.000572 -0.001567 -0.006357 -0.001759 0.025321
#
#
# Mechanical properties :
#
#
# Convention : Reuss Voigt Hill
#
# Bulk Modulus (GPa) = 64.07967 79.51403 71.79685
# Shear Modulus (GPa) = 34.65061 39.22230 36.93646
#
# Velocity S-wave (km/s) = 4.05715 4.31650 4.18883
# Velocity P-wave (km/s) = 7.23794 7.91298 7.58297
#
# Compressibility (1/GPa) = 0.01560557
#
# Stress axis : x y z
#
# Youngs Moduli (GPa) = 104.59851 56.56328 94.19497
#
# Poissons Ratio (x) = 0.15993 0.37310
# Poissons Ratio (y) = 0.29575 0.40850
# Poissons Ratio (z) = 0.41431 0.24530
#
# Static dielectric constant tensor:
#      x y z
#    x 3.893690 -0.084150 0.195950 
#    y -0.084150 4.216770 0.102570 
#    z 0.195950 0.102570 4.057090 
# 
# 
# High freq. dielectric constant tensor:
#      x y z
#    x 1.832240 -0.009590 0.011510 
#    y -0.009590 1.829600 0.008310 
#    z 0.011510 0.008310 1.843390 
# 
# From -- ./inp_files/227757.got.cif
#   From: 2010.06.25/outbox.cif.g09.slc.cpg/sg2_114_cif.got.tgz:227757.got - 2010.06.27 13:26:56.
