data_PCOD8016887
_publ_section_title
;
Structure prediction by ZEFSAII (Michael W. Deem and Ramdas Pophale) SiO2 
 PCOD8016887
Probable space group: P -1
;
_chemical_formula_sum "Si O2"
_cell_formula_units_Z 16
_cell_length_a 8.181984
_cell_length_b 10.149421
_cell_length_c 16.882863
_cell_angle_alpha 58.322456
_cell_angle_beta 127.235046
_cell_angle_gamma 80.707011
_cell_volume 671.494989
_symmetry_space_group_name_H-M "P -1"
_symmetry_group_IT_number 2
_symmetry_cell_setting 'triclinic'
loop_
_space_group_symop_operation_xyz
x,y,z
-x,-y,-z
loop_
_atom_site_type_symbol
_atom_site_label
_atom_site_fract_x
_atom_site_fract_y
_atom_site_fract_z
Si Si1 0.581581 0.873293 0.781769
Si Si2 0.199313 0.327593 0.826006
Si Si3 0.092461 0.796903 0.982131
Si Si4 0.179340 0.741470 0.208713
Si Si5 0.009399 0.241332 0.414378
Si Si6 0.520540 0.415567 0.119798
Si Si7 0.364364 0.055301 0.821544
Si Si8 0.160287 0.582725 0.521243
O O1 0.886272 0.787768 0.874409
O O2 0.630268 0.671427 0.889906
O O3 0.486924 0.032970 0.777711
O O4 0.345447 0.012817 0.597515
O O5 0.018609 0.580052 0.694870
O O6 0.382516 0.196710 0.839588
O O7 0.943391 0.338657 0.754895
O O8 0.445164 0.187888 0.011075
O O9 0.993660 0.025713 0.875308
O O10 0.106951 0.745355 0.094794
O O11 0.396161 0.610569 0.083832
O O12 0.519768 0.592389 0.366235
O O13 0.850265 0.210122 0.315175
O O14 0.837912 0.342589 0.415055
O O15 0.500000 0.500000 0.000000
O O16 0.023106 0.203047 0.658143
O O17 0.000000 0.500000 0.500000
#
# Coordination Sequence:
#
# PCOD8016887 Si02
#       8
#     2   2   2   2   2   2   2   2
#     4  11  24  47  69  95 139 189 235 282 337 407
#     4  11  23  38  66 104 144 171 226 286 348 406
#     4  11  25  44  69 104 136 182 228 286 353 414
#     4  11  24  40  71 105 143 176 222 289 362 411
#     4  11  24  44  71 101 138 183 231 285 342 416
#     4  12  27  46  74  99 133 188 244 282 334 406
#     4  10  22  36  67  97 138 177 223 275 347 402
#     4  11  21  41  65  98 139 182 219 276 359 417
#
# _framework density 23.827432000000002
#
# number of rings (size 3 to 8) (size 9 to 14) (size 15 to 20)
#    0.000    1.000    3.750    3.000    7.000    0.500 
#    0.000    0.625    0.000    0.000    0.000    0.000 
#    0.000    0.000    0.000    0.000    0.000    0.000 
#
# Total GULP energy -198241.818349 kJ/mol
# GULP energy per Si atom -12390.113647 kJ/mol
# Density = 2.377320 g / cm^3
# Si number density = 23.827432 Si / 1000 Ang^3
#
#
#
# Elastic Constant Matrix: (Units=GPa)
#
#
# Indices 1 2 3 4 5 6 
#
# 1 58.3998 19.5881 33.1706 -3.1037 2.9583 17.6842
# 2 19.5881 69.8645 19.6005 2.4204 -1.8530 3.3944
# 3 33.1706 19.6005 169.3975 8.8986 0.9419 1.4276
# 4 -3.1037 2.4204 8.8986 39.9309 -0.7327 -3.5868
# 5 2.9583 -1.8530 0.9419 -0.7327 34.3071 0.5452
# 6 17.6842 3.3944 1.4276 -3.5868 0.5452 31.4175
#
#
#
# Elastic Compliance Matrix: (Units=1/GPa)
#
#
# Indices 1 2 3 4 5 6 
#
# 1 0.025730 -0.005458 -0.004390 0.002064 -0.002136 -0.013421
# 2 -0.005458 0.016068 -0.000750 -0.001097 0.001316 0.001222
# 3 -0.004390 -0.000750 0.006919 -0.001652 0.000080 0.002048
# 4 0.002064 -0.001097 -0.001652 0.025822 0.000328 0.001974
# 5 -0.002136 0.001316 0.000080 0.000328 0.029399 0.000583
# 6 -0.013421 0.001222 0.002048 0.001974 0.000583 0.039374
#
#
# Mechanical properties :
#
#
# Convention : Reuss Voigt Hill
#
# Bulk Modulus (GPa) = 36.33902 49.15336 42.74619
# Shear Modulus (GPa) = 28.78837 36.15129 32.46983
#
# Velocity S-wave (km/s) = 3.47969 3.89937 3.69549
# Velocity P-wave (km/s) = 5.60610 6.39899 6.01562
#
# Compressibility (1/GPa) = 0.02751863
#
# Stress axis : x y z
#
# Youngs Moduli (GPa) = 38.86584 62.23618 144.53299
#
# Poissons Ratio (x) = 0.33970 0.63452
# Poissons Ratio (y) = 0.21214 0.10845
# Poissons Ratio (z) = 0.17063 0.04670
#
# Static dielectric constant tensor:
#      x y z
#    x 3.961120 -0.071210 0.017630 
#    y -0.071210 4.133970 0.048060 
#    z 0.017630 0.048060 4.809180 
# 
# 
# High freq. dielectric constant tensor:
#      x y z
#    x 1.919010 0.005200 0.001270 
#    y 0.005200 1.932650 0.006720 
#    z 0.001270 0.006720 1.968000 
# 
# From -- ./inp_files/559101.got.cif
#   From: 2010.06.25/outbox.cif.g09.slc.cpg/sg2_280_cif.got.tgz:559101.got - 2010.06.27 13:26:56.
