data_PCOD8016085
_publ_section_title
;
Structure prediction by ZEFSAII (Michael W. Deem and Ramdas Pophale) SiO2 
 PCOD8016085
Probable space group: P -1
;
_chemical_formula_sum "Si O2"
_cell_formula_units_Z 14
_cell_length_a 9.228549
_cell_length_b 8.759057
_cell_length_c 15.366240
_cell_angle_alpha 84.626209
_cell_angle_beta 140.400606
_cell_angle_gamma 121.515937
_cell_volume 555.094836
_symmetry_space_group_name_H-M "P -1"
_symmetry_group_IT_number 2
_symmetry_cell_setting 'triclinic'
loop_
_space_group_symop_operation_xyz
x,y,z
-x,-y,-z
loop_
_atom_site_type_symbol
_atom_site_label
_atom_site_fract_x
_atom_site_fract_y
_atom_site_fract_z
Si Si1 0.933517 0.086406 0.734398
Si Si2 0.498869 0.110788 0.621327
Si Si3 0.993444 0.672999 0.511841
Si Si4 0.363912 0.557506 0.200215
Si Si5 0.445034 0.729893 0.046395
Si Si6 0.055572 0.927653 0.945351
Si Si7 0.754722 0.192418 0.200222
O O1 0.821798 0.188083 0.726844
O O2 0.317049 0.290220 0.879030
O O3 0.734393 0.957094 0.562066
O O4 0.868588 0.914157 0.778704
O O5 0.596433 0.307829 0.708907
O O6 0.317044 0.908260 0.613575
O O7 0.969160 0.671112 0.605932
O O8 0.000000 0.500000 0.500000
O O9 0.685594 0.610983 0.332443
O O10 0.286504 0.609982 0.071370
O O11 0.060779 0.302780 0.088756
O O12 0.704198 0.993966 0.157928
O O13 0.167116 0.657267 0.854329
O O14 0.000000 0.000000 0.000000
O O15 0.435424 0.109645 0.099439
#
# Coordination Sequence:
#
# PCOD8016085 Si02
#       7
#     2   2   2   2   2   2   2
#     4  10  22  43  66  96 145 176 223 284 349 399
#     4  11  22  41  70 102 137 178 230 290 333 408
#     4  12  23  42  70 105 135 181 227 286 340 405
#     4  12  24  43  79 100 133 180 243 277 338 407
#     4  10  21  43  70 103 133 182 224 290 336 407
#     4  11  25  46  67  99 142 186 220 283 349 417
#     4  10  22  43  70  97 146 174 224 282 351 403
#
# _framework density 25.220915000000002
#
# number of rings (size 3 to 8) (size 9 to 14) (size 15 to 20)
#    0.000    1.143    2.857    3.857    0.000    1.143 
#    2.571    9.286    0.000    0.000    0.000    0.000 
#    0.000    0.000    0.000    0.000    0.000    0.000 
#
# Total GULP energy -173620.115819 kJ/mol
# GULP energy per Si atom -12401.436844 kJ/mol
# Density = 2.516351 g / cm^3
# Si number density = 25.220915 Si / 1000 Ang^3
#
#
#
# Elastic Constant Matrix: (Units=GPa)
#
#
# Indices 1 2 3 4 5 6 
#
# 1 108.6872 41.6374 12.1083 -13.1893 -25.8013 -7.9469
# 2 41.6374 125.3200 30.2449 -20.7604 -28.2427 -8.5932
# 3 12.1083 30.2449 72.9250 -38.0833 -33.8984 7.8033
# 4 -13.1893 -20.7604 -38.0833 42.0912 7.3417 -11.7339
# 5 -25.8013 -28.2427 -33.8984 7.3417 46.2777 -9.6457
# 6 -7.9469 -8.5932 7.8033 -11.7339 -9.6457 40.0428
#
#
#
# Elastic Compliance Matrix: (Units=1/GPa)
#
#
# Indices 1 2 3 4 5 6 
#
# 1 0.014279 -0.001265 0.011663 0.013997 0.015189 0.008050
# 2 -0.001265 0.011311 0.002987 0.008096 0.008347 0.005977
# 3 0.011663 0.002987 0.059968 0.056493 0.047295 0.019216
# 4 0.013997 0.008096 0.056493 0.083193 0.047016 0.029210
# 5 0.015189 0.008347 0.047295 0.047016 0.067708 0.025676
# 6 0.008050 0.005977 0.019216 0.029210 0.025676 0.038853
#
#
# Mechanical properties :
#
#
# Convention : Reuss Voigt Hill
#
# Bulk Modulus (GPa) = 8.90250 52.76817 30.83534
# Shear Modulus (GPa) = 17.48343 40.54511 29.01427
#
# Velocity S-wave (km/s) = 2.63575 4.01384 3.39544
# Velocity P-wave (km/s) = 3.57776 6.51529 5.25592
#
# Compressibility (1/GPa) = 0.11232794
#
# Stress axis : x y z
#
# Youngs Moduli (GPa) = 70.03282 88.40881 16.67561
#
# Poissons Ratio (x) = 0.11183 -0.19448
# Poissons Ratio (y) = 0.08859 -0.04981
# Poissons Ratio (z) = -0.81678 -0.26409
#
# Static dielectric constant tensor:
#      x y z
#    x 4.899210 0.174140 0.039510 
#    y 0.174140 4.489230 -0.385400 
#    z 0.039510 -0.385400 4.874430 
# 
# 
# High freq. dielectric constant tensor:
#      x y z
#    x 2.030300 -0.002140 -0.001730 
#    y -0.002140 1.992940 -0.031480 
#    z -0.001730 -0.031480 2.010230 
# 
# From -- ./inp_files/159987.got.cif
#   From: 2010.06.25/outbox.cif.g09.slc.cpg/sg2_80_cif.got.tgz:159987.got - 2010.06.27 13:26:56.
