data_PCOD8016776
_publ_section_title
;
Structure prediction by ZEFSAII (Michael W. Deem and Ramdas Pophale) SiO2 
 PCOD8016776
Probable space group: P -1
;
_chemical_formula_sum "Si O2"
_cell_formula_units_Z 14
_cell_length_a 15.746808
_cell_length_b 12.361277
_cell_length_c 15.798438
_cell_angle_alpha 138.017170
_cell_angle_beta 18.571089
_cell_angle_gamma 139.478757
_cell_volume 632.474196
_symmetry_space_group_name_H-M "P -1"
_symmetry_group_IT_number 2
_symmetry_cell_setting 'triclinic'
loop_
_space_group_symop_operation_xyz
x,y,z
-x,-y,-z
loop_
_atom_site_type_symbol
_atom_site_label
_atom_site_fract_x
_atom_site_fract_y
_atom_site_fract_z
Si Si1 0.150572 0.707349 0.385123
Si Si2 0.946189 0.097765 0.981236
Si Si3 0.048749 0.254061 0.150003
Si Si4 0.648221 0.425600 0.725154
Si Si5 0.631705 0.912650 0.557983
Si Si6 0.351187 0.176278 0.325172
Si Si7 0.813243 0.214318 0.788324
O O1 0.347084 0.621847 0.206647
O O2 0.215625 0.686206 0.212501
O O3 0.826565 0.617145 0.655951
O O4 0.187539 0.899528 0.485600
O O5 0.977856 0.230856 0.104407
O O6 0.213974 0.159021 0.704119
O O7 0.676907 0.092966 0.178895
O O8 0.915380 0.914792 0.941187
O O9 0.334972 0.397535 0.973721
O O10 0.797850 0.304685 0.462169
O O11 0.615643 0.799647 0.591294
O O12 0.124793 0.266421 0.558227
O O13 0.275916 0.981832 0.260313
O O14 0.630706 0.266810 0.064655
#
# Coordination Sequence:
#
# PCOD8016776 Si02
#       7
#     2   2   2   2   2   2   2
#     4  10  22  35  56  80 117 143 179 209 272 322
#     4  11  21  35  57  78 108 143 179 229 267 307
#     4  11  22  38  53  77 109 146 188 217 260 313
#     4  11  23  37  53  81 111 152 177 215 252 335
#     4  11  20  35  56  86 108 141 172 227 274 320
#     4   9  18  31  51  75 108 132 176 213 271 315
#     4   9  18  32  48  76 106 143 166 216 259 324
#
# _framework density 22.135290000000001
#
# number of rings (size 3 to 8) (size 9 to 14) (size 15 to 20)
#    0.000    1.714    2.857    1.714    0.000   11.429 
#    0.000    0.000    0.000    0.000    0.000   20.000 
#    0.000    0.000    0.000    0.000    0.000    0.000 
#
# Total GULP energy -173637.435564 kJ/mol
# GULP energy per Si atom -12402.673969 kJ/mol
# Density = 2.208491 g / cm^3
# Si number density = 22.135290 Si / 1000 Ang^3
#
#
#
# Elastic Constant Matrix: (Units=GPa)
#
#
# Indices 1 2 3 4 5 6 
#
# 1 144.6007 31.4277 36.3977 -5.9209 12.6379 -19.3823
# 2 31.4277 39.7560 9.4035 -9.7674 3.6870 -3.8181
# 3 36.3977 9.4035 92.3482 -16.5222 2.2278 -13.2467
# 4 -5.9209 -9.7674 -16.5222 22.2487 -5.6370 5.8453
# 5 12.6379 3.6870 2.2278 -5.6370 31.2483 -7.1306
# 6 -19.3823 -3.8181 -13.2467 5.8453 -7.1306 31.1590
#
#
#
# Elastic Compliance Matrix: (Units=1/GPa)
#
#
# Indices 1 2 3 4 5 6 
#
# 1 0.010054 -0.007720 -0.003420 -0.005072 -0.002880 0.004147
# 2 -0.007720 0.034228 0.001928 0.015328 0.001164 -0.002397
# 3 -0.003420 0.001928 0.014178 0.010405 0.002659 0.002793
# 4 -0.005072 0.015328 0.010405 0.062071 0.009242 -0.006383
# 5 -0.002880 0.001164 0.002659 0.009242 0.035866 0.005956
# 6 0.004147 -0.002397 0.002793 -0.006383 0.005956 0.038127
#
#
# Mechanical properties :
#
#
# Convention : Reuss Voigt Hill
#
# Bulk Modulus (GPa) = 24.97721 47.90698 36.44210
# Shear Modulus (GPa) = 22.09521 30.22959 26.16240
#
# Velocity S-wave (km/s) = 3.16284 3.69951 3.44165
# Velocity P-wave (km/s) = 4.96452 6.31968 5.68264
#
# Compressibility (1/GPa) = 0.04003650
#
# Stress axis : x y z
#
# Youngs Moduli (GPa) = 99.46187 29.21601 70.53052
#
# Poissons Ratio (x) = 0.22554 0.24120
# Poissons Ratio (y) = 0.76783 -0.13597
# Poissons Ratio (z) = 0.34014 -0.05632
#
# Static dielectric constant tensor:
#      x y z
#    x 4.286310 -0.063260 0.194660 
#    y -0.063260 3.657550 -0.176970 
#    z 0.194660 -0.176970 4.006370 
# 
# 
# High freq. dielectric constant tensor:
#      x y z
#    x 1.883370 -0.008050 0.007730 
#    y -0.008050 1.828300 -0.011420 
#    z 0.007730 -0.011420 1.881970 
# 
# From -- ./inp_files/67908.got.cif
#   From: 2010.06.25/outbox.cif.g09.slc.cpg/sg2_34_cif.got.tgz:67908.got - 2010.06.27 13:26:56.
