data_PCOD8016912
_publ_section_title
;
Structure prediction by ZEFSAII (Michael W. Deem and Ramdas Pophale) SiO2 
 PCOD8016912
Probable space group: P -1
;
_chemical_formula_sum "Si O2"
_cell_formula_units_Z 14
_cell_length_a 11.287109
_cell_length_b 14.174187
_cell_length_c 11.384510
_cell_angle_alpha 68.623032
_cell_angle_beta 144.193113
_cell_angle_gamma 84.459893
_cell_volume 688.823208
_symmetry_space_group_name_H-M "P -1"
_symmetry_group_IT_number 2
_symmetry_cell_setting 'triclinic'
loop_
_space_group_symop_operation_xyz
x,y,z
-x,-y,-z
loop_
_atom_site_type_symbol
_atom_site_label
_atom_site_fract_x
_atom_site_fract_y
_atom_site_fract_z
Si Si1 0.627553 0.360546 0.312993
Si Si2 0.165208 0.338440 0.231052
Si Si3 0.530448 0.741501 0.248754
Si Si4 0.057781 0.027660 0.847881
Si Si5 0.363743 0.950128 0.360507
Si Si6 0.586586 0.446718 0.728692
Si Si7 0.925109 0.435311 0.383929
O O1 0.573031 0.413154 0.380219
O O2 0.815080 0.378861 0.391993
O O3 0.319733 0.447761 0.962388
O O4 0.816809 0.191220 0.532236
O O5 0.371286 0.284324 0.528560
O O6 0.381834 0.227585 0.350405
O O7 0.000000 0.500000 0.000000
O O8 0.934207 0.332467 0.071751
O O9 0.483093 0.638822 0.235832
O O10 0.769930 0.701437 0.372100
O O11 0.237938 0.916692 0.931371
O O12 0.261759 0.009296 0.117514
O O13 0.907348 0.985597 0.807959
O O14 0.500000 0.000000 0.500000
O O15 0.500000 0.500000 0.500000
O O16 0.000000 0.500000 0.500000
#
# Coordination Sequence:
#
# PCOD8016912 Si02
#       7
#     2   2   2   2   2   2   2
#     4  11  25  43  67  95 126 166 221 263 310 383
#     4  11  21  35  57  91 126 166 206 252 305 374
#     4  11  23  41  61  91 129 162 210 263 312 374
#     4  10  24  40  59  93 131 165 206 266 316 377
#     4  10  22  37  58  87 136 171 200 247 323 383
#     4  12  23  35  66  97 127 165 210 256 320 378
#     4  11  24  46  69  91 122 171 220 267 312 370
#
# _framework density 20.324518000000001
#
# number of rings (size 3 to 8) (size 9 to 14) (size 15 to 20)
#    0.000    1.143    4.286    1.714    6.000    1.714 
#    0.000    0.714    0.000    0.000    0.000    0.000 
#    0.000    0.000    0.000    0.000    0.000    0.000 
#
# Total GULP energy -173565.896212 kJ/mol
# GULP energy per Si atom -12397.564015 kJ/mol
# Density = 2.027826 g / cm^3
# Si number density = 20.324518 Si / 1000 Ang^3
#
#
#
# Elastic Constant Matrix: (Units=GPa)
#
#
# Indices 1 2 3 4 5 6 
#
# 1 89.5211 34.9655 37.1955 -7.2574 19.9963 -16.8831
# 2 34.9655 111.7895 53.1965 2.8408 7.6750 -17.2685
# 3 37.1955 53.1965 88.5271 -9.9587 18.0353 -8.9245
# 4 -7.2574 2.8408 -9.9587 41.1250 -0.8646 15.0989
# 5 19.9963 7.6750 18.0353 -0.8646 39.0315 -4.1711
# 6 -16.8831 -17.2685 -8.9245 15.0989 -4.1711 31.4569
#
#
#
# Elastic Compliance Matrix: (Units=1/GPa)
#
#
# Indices 1 2 3 4 5 6 
#
# 1 0.015748 -0.001805 -0.003900 -0.000276 -0.005299 0.005784
# 2 -0.001805 0.014839 -0.008605 -0.006363 0.002713 0.008149
# 3 -0.003900 -0.008605 0.019472 0.006378 -0.005712 -0.005112
# 4 -0.000276 -0.006363 0.006378 0.032776 -0.002744 -0.017927
# 5 -0.005299 0.002713 -0.005712 -0.002744 0.030637 0.002405
# 6 0.005784 0.008149 -0.005112 -0.017927 0.002405 0.046841
#
#
# Mechanical properties :
#
#
# Convention : Reuss Voigt Hill
#
# Bulk Modulus (GPa) = 46.64831 60.06139 53.35485
# Shear Modulus (GPa) = 25.49966 33.28803 29.39385
#
# Velocity S-wave (km/s) = 3.54591 4.05140 3.80705
# Velocity P-wave (km/s) = 6.30605 7.17638 6.75525
#
# Compressibility (1/GPa) = 0.02143700
#
# Stress axis : x y z
#
# Youngs Moduli (GPa) = 63.49839 67.38826 51.35676
#
# Poissons Ratio (x) = 0.12166 0.20031
# Poissons Ratio (y) = 0.11464 0.44195
# Poissons Ratio (z) = 0.24766 0.57991
#
# Static dielectric constant tensor:
#      x y z
#    x 3.689460 0.123890 0.044220 
#    y 0.123890 3.062770 1.150840 
#    z 0.044220 1.150840 2.510490 
# 
# 
# High freq. dielectric constant tensor:
#      x y z
#    x 1.786670 -0.007350 0.028490 
#    y -0.007350 1.802890 0.005210 
#    z 0.028490 0.005210 1.796820 
# 
# From -- ./inp_files/77364.got.cif
#   From: 2010.06.25/outbox.cif.g09.slc.cpg/sg2_39_cif.got.tgz:77364.got - 2010.06.27 13:26:56.
