data_PCOD8016081
_publ_section_title
;
Structure prediction by ZEFSAII (Michael W. Deem and Ramdas Pophale) SiO2 
 PCOD8016081
Probable space group: P -1
;
_chemical_formula_sum "Si O2"
_cell_formula_units_Z 16
_cell_length_a 12.019577
_cell_length_b 9.387451
_cell_length_c 11.001676
_cell_angle_alpha 67.756791
_cell_angle_beta 129.182626
_cell_angle_gamma 131.588683
_cell_volume 717.884069
_symmetry_space_group_name_H-M "P -1"
_symmetry_group_IT_number 2
_symmetry_cell_setting 'triclinic'
loop_
_space_group_symop_operation_xyz
x,y,z
-x,-y,-z
loop_
_atom_site_type_symbol
_atom_site_label
_atom_site_fract_x
_atom_site_fract_y
_atom_site_fract_z
Si Si1 0.104722 0.770546 0.029528
Si Si2 0.393327 0.573702 0.844548
Si Si3 0.615601 0.305429 0.723868
Si Si4 0.273217 0.151325 0.147158
Si Si5 0.037802 0.348376 0.541516
Si Si6 0.754127 0.509243 0.988741
Si Si7 0.899552 0.689308 0.674588
Si Si8 0.765236 0.929853 0.570637
O O1 0.947737 0.574613 0.053803
O O2 0.052328 0.754373 0.858240
O O3 0.287464 0.796544 0.163372
O O4 0.125836 0.952946 0.043597
O O5 0.531672 0.765247 0.801895
O O6 0.235143 0.421016 0.695296
O O7 0.500000 0.500000 0.000000
O O8 0.303928 0.608059 0.886611
O O9 0.607472 0.382252 0.825375
O O10 0.718249 0.480850 0.643655
O O11 0.418419 0.145408 0.597040
O O12 0.225357 0.296038 0.038942
O O13 0.276723 0.127059 0.300180
O O14 0.019224 0.308358 0.398376
O O15 0.000000 0.500000 0.500000
O O16 0.894166 0.157043 0.576474
O O17 0.853589 0.840381 0.594677
#
# Coordination Sequence:
#
# PCOD8016081 Si02
#       8
#     2   2   2   2   2   2   2   2
#     4  11  24  41  72 103 140 177 234 284 343 409
#     4  10  25  42  72  98 139 176 228 282 340 413
#     4  11  25  42  72 105 139 180 229 290 344 409
#     4  11  23  42  72 104 132 182 239 275 344 411
#     4  12  30  47  69 104 142 180 227 293 355 402
#     4  10  21  43  70 101 137 179 230 281 346 406
#     4  11  25  47  71 100 141 185 229 279 348 414
#     4  12  26  46  72  99 141 186 233 283 340 419
#
# _framework density 22.287721999999999
#
# number of rings (size 3 to 8) (size 9 to 14) (size 15 to 20)
#    0.000    1.000    2.500    4.125   14.000    1.500 
#    0.000    1.250    0.000    0.000    0.000    0.000 
#    0.000    0.000    0.000    0.000    0.000    0.000 
#
# Total GULP energy -198437.441409 kJ/mol
# GULP energy per Si atom -12402.340088 kJ/mol
# Density = 2.223699 g / cm^3
# Si number density = 22.287722 Si / 1000 Ang^3
#
#
#
# Elastic Constant Matrix: (Units=GPa)
#
#
# Indices 1 2 3 4 5 6 
#
# 1 131.4996 34.1589 58.1020 -7.6437 -25.0420 6.3939
# 2 34.1589 84.2690 27.2293 6.0471 6.0123 2.4444
# 3 58.1020 27.2293 102.0831 18.4257 2.4161 -1.7360
# 4 -7.6437 6.0471 18.4257 31.8067 -0.1880 5.9045
# 5 -25.0420 6.0123 2.4161 -0.1880 49.2769 -4.0736
# 6 6.3939 2.4444 -1.7360 5.9045 -4.0736 41.5757
#
#
#
# Elastic Compliance Matrix: (Units=1/GPa)
#
#
# Indices 1 2 3 4 5 6 
#
# 1 0.015622 -0.004434 -0.009961 0.011026 0.008740 -0.003267
# 2 -0.004434 0.014394 -0.000598 -0.003463 -0.004001 -0.000090
# 3 -0.009961 -0.000598 0.018274 -0.013588 -0.005631 0.003708
# 4 0.011026 -0.003463 -0.013588 0.044088 0.006223 -0.007711
# 5 0.008740 -0.004001 -0.005631 0.006223 0.025546 0.000275
# 6 -0.003267 -0.000090 0.003708 -0.007711 0.000275 0.025837
#
#
# Mechanical properties :
#
#
# Convention : Reuss Voigt Hill
#
# Bulk Modulus (GPa) = 54.63263 61.87022 58.25142
# Shear Modulus (GPa) = 27.80148 37.75596 32.77872
#
# Velocity S-wave (km/s) = 3.53567 4.12032 3.83914
# Velocity P-wave (km/s) = 6.42134 7.10324 6.77088
#
# Compressibility (1/GPa) = 0.01830408
#
# Stress axis : x y z
#
# Youngs Moduli (GPa) = 64.01311 69.47537 54.72295
#
# Poissons Ratio (x) = 0.30803 0.54511
# Poissons Ratio (y) = 0.28381 0.03270
# Poissons Ratio (z) = 0.63765 0.04152
#
# Static dielectric constant tensor:
#      x y z
#    x 4.599650 0.260480 -0.162340 
#    y 0.260480 4.093810 0.039040 
#    z -0.162340 0.039040 3.964200 
# 
# 
# High freq. dielectric constant tensor:
#      x y z
#    x 1.890280 0.001820 -0.006130 
#    y 0.001820 1.870960 0.007940 
#    z -0.006130 0.007940 1.881270 
# 
# From -- ./inp_files/419318.got.cif
#   From: 2010.06.25/outbox.cif.g09.slc.cpg/sg2_210_cif.got.tgz:419318.got - 2010.06.27 13:26:56.
