data_PCOD8016977
_publ_section_title
;
Structure prediction by ZEFSAII (Michael W. Deem and Ramdas Pophale) SiO2 
 PCOD8016977
Probable space group: P -1
;
_chemical_formula_sum "Si O2"
_cell_formula_units_Z 16
_cell_length_a 17.244590
_cell_length_b 16.551813
_cell_length_c 5.174740
_cell_angle_alpha 65.536028
_cell_angle_beta 127.989395
_cell_angle_gamma 142.588948
_cell_volume 698.532212
_symmetry_space_group_name_H-M "P -1"
_symmetry_group_IT_number 2
_symmetry_cell_setting 'triclinic'
loop_
_space_group_symop_operation_xyz
x,y,z
-x,-y,-z
loop_
_atom_site_type_symbol
_atom_site_label
_atom_site_fract_x
_atom_site_fract_y
_atom_site_fract_z
Si Si1 0.639833 0.529579 0.234967
Si Si2 0.420256 0.872701 0.675204
Si Si3 0.301451 0.610601 0.642784
Si Si4 0.709751 0.009934 0.263558
Si Si5 0.826874 0.539298 0.913172
Si Si6 0.817560 0.906928 0.466659
Si Si7 0.164746 0.824185 0.218411
Si Si8 0.852091 0.822139 0.160145
O O1 0.599493 0.413764 0.138187
O O2 0.705119 0.537983 0.634080
O O3 0.779075 0.675566 0.198436
O O4 0.500000 0.500000 0.000000
O O5 0.398197 0.765566 0.615416
O O6 0.261150 0.802918 0.535797
O O7 0.500000 0.000000 0.500000
O O8 0.540957 0.932069 0.069382
O O9 0.184238 0.530879 0.270285
O O10 0.209663 0.546949 0.804529
O O11 0.797830 0.073943 0.630357
O O12 0.694155 0.896490 0.298300
O O13 0.793780 0.120508 0.060790
O O14 0.991812 0.688894 0.072310
O O15 0.774144 0.830973 0.207821
O O16 0.827695 0.841630 0.798017
O O17 0.974092 0.066926 0.554453
#
# Coordination Sequence:
#
# PCOD8016977 Si02
#       8
#     2   2   2   2   2   2   2   2
#     4  10  25  43  67  95 136 177 219 269 324 394
#     4  10  25  46  70  99 135 169 222 274 338 395
#     4  10  25  44  67 100 130 175 223 269 329 393
#     4  11  23  40  68  96 135 169 221 271 335 389
#     4  10  24  42  68  98 133 171 223 269 324 399
#     4  10  22  37  62  94 125 171 214 272 310 388
#     4  11  23  42  69  98 129 175 216 276 335 387
#     4  10  22  38  60  93 128 168 221 259 325 370
#
# _framework density 22.905172
#
# number of rings (size 3 to 8) (size 9 to 14) (size 15 to 20)
#    0.750    1.000    0.000    2.625    5.250    7.500 
#    0.000    0.000    0.000    0.000    0.000    0.000 
#    0.000    0.000    0.000    0.000    0.000    0.000 
#
# Total GULP energy -198267.790281 kJ/mol
# GULP energy per Si atom -12391.736893 kJ/mol
# Density = 2.285304 g / cm^3
# Si number density = 22.905172 Si / 1000 Ang^3
#
#
#
# Elastic Constant Matrix: (Units=GPa)
#
#
# Indices 1 2 3 4 5 6 
#
# 1 84.7758 29.3497 33.7410 -3.6265 0.8548 -7.2314
# 2 29.3497 108.8654 24.1809 -0.5197 1.4597 -26.6826
# 3 33.7410 24.1809 81.6761 14.4857 -7.1682 7.0150
# 4 -3.6265 -0.5197 14.4857 26.0663 1.3428 1.7998
# 5 0.8548 1.4597 -7.1682 1.3428 45.0548 -1.1833
# 6 -7.2314 -26.6826 7.0150 1.7998 -1.1833 29.0474
#
#
#
# Elastic Compliance Matrix: (Units=1/GPa)
#
#
# Indices 1 2 3 4 5 6 
#
# 1 0.016059 -0.001581 -0.007767 0.006326 -0.001574 0.003965
# 2 -0.001581 0.014125 -0.005144 0.002026 -0.000948 0.013659
# 3 -0.007767 -0.005144 0.020326 -0.011928 0.003623 -0.010681
# 4 0.006326 0.002026 -0.011928 0.045855 -0.003362 0.003338
# 5 -0.001574 -0.000948 0.003623 -0.003362 0.022906 -0.000996
# 6 0.003965 0.013659 -0.010681 0.003338 -0.000996 0.050293
#
#
# Mechanical properties :
#
#
# Convention : Reuss Voigt Hill
#
# Bulk Modulus (GPa) = 46.45670 49.98450 48.22060
# Shear Modulus (GPa) = 24.30447 32.57009 28.43728
#
# Velocity S-wave (km/s) = 3.26097 3.77497 3.52735
# Velocity P-wave (km/s) = 5.87408 6.39299 6.13902
#
# Compressibility (1/GPa) = 0.02152542
#
# Stress axis : x y z
#
# Youngs Moduli (GPa) = 62.27021 70.79712 49.19897
#
# Poissons Ratio (x) = 0.11195 0.38211
# Poissons Ratio (y) = 0.09847 0.25309
# Poissons Ratio (z) = 0.48362 0.36420
#
# Static dielectric constant tensor:
#      x y z
#    x 4.101680 -0.091980 0.170020 
#    y -0.091980 4.043310 0.025700 
#    z 0.170020 0.025700 4.208600 
# 
# 
# High freq. dielectric constant tensor:
#      x y z
#    x 1.891990 -0.009890 0.001660 
#    y -0.009890 1.901190 0.001010 
#    z 0.001660 0.001010 1.905640 
# 
# From -- ./inp_files/119849.got.cif
#   From: 2010.06.25/outbox.cif.g09.slc.cpg/sg2_60_cif.got.tgz:119849.got - 2010.06.27 13:26:56.
