data_PCOD8016015
_publ_section_title
;
Structure prediction by ZEFSAII (Michael W. Deem and Ramdas Pophale) SiO2 
 PCOD8016015
Probable space group: P -1
;
_chemical_formula_sum "Si O2"
_cell_formula_units_Z 16
_cell_length_a 14.654941
_cell_length_b 9.523001
_cell_length_c 11.486946
_cell_angle_alpha 76.871087
_cell_angle_beta 28.909703
_cell_angle_gamma 70.583462
_cell_volume 723.708936
_symmetry_space_group_name_H-M "P -1"
_symmetry_group_IT_number 2
_symmetry_cell_setting 'triclinic'
loop_
_space_group_symop_operation_xyz
x,y,z
-x,-y,-z
loop_
_atom_site_type_symbol
_atom_site_label
_atom_site_fract_x
_atom_site_fract_y
_atom_site_fract_z
Si Si1 0.832183 0.824781 0.066487
Si Si2 0.622161 0.265030 0.854991
Si Si3 0.378679 0.873839 0.872823
Si Si4 0.766969 0.169436 0.461459
Si Si5 0.197696 0.648312 0.031572
Si Si6 0.188732 0.137653 0.650852
Si Si7 0.408859 0.386517 0.690352
Si Si8 0.775301 0.499869 0.738870
O O1 0.834973 0.891690 0.180177
O O2 0.727372 0.691263 0.218233
O O3 0.711350 0.950909 0.088435
O O4 0.052544 0.760114 0.779928
O O5 0.705293 0.167736 0.665703
O O6 0.721059 0.404918 0.709881
O O7 0.679247 0.154751 0.923931
O O8 0.382296 0.335296 0.107433
O O9 0.610674 0.828167 0.610324
O O10 0.305856 0.779295 0.869255
O O11 0.579976 0.257117 0.580576
O O12 0.842263 0.999034 0.364251
O O13 0.252093 0.611068 0.110095
O O14 0.970095 0.711053 0.241849
O O15 0.270183 0.488953 0.919724
O O16 0.500000 0.500000 0.500000
O O17 0.000000 0.500000 0.500000
#
# Coordination Sequence:
#
# PCOD8016015 Si02
#       8
#     2   2   2   2   2   2   2   2
#     4  12  27  46  72 104 144 193 237 291 361 422
#     4  10  24  43  68 107 143 182 238 291 353 419
#     4  11  24  45  72 101 141 190 235 289 356 422
#     4  12  26  45  71 105 148 182 237 298 348 432
#     4  11  24  43  69 104 133 183 236 284 359 414
#     4  12  25  45  72 101 140 191 240 289 354 422
#     4  12  27  46  70 105 141 182 239 302 352 416
#     4  10  21  43  68  98 142 185 228 291 351 420
#
# _framework density 22.108333999999999
#
# number of rings (size 3 to 8) (size 9 to 14) (size 15 to 20)
#    0.000    0.750    3.750    3.000    3.500    4.000 
#    0.000    0.000    0.000    0.000    0.000    0.000 
#    0.000    0.000    0.000    0.000    0.000    0.000 
#
# Total GULP energy -198311.450241 kJ/mol
# GULP energy per Si atom -12394.465640 kJ/mol
# Density = 2.205801 g / cm^3
# Si number density = 22.108334 Si / 1000 Ang^3
#
#
#
# Elastic Constant Matrix: (Units=GPa)
#
#
# Indices 1 2 3 4 5 6 
#
# 1 94.2188 25.8647 32.3593 5.3827 6.0931 5.3903
# 2 25.8647 77.5362 16.7356 9.7405 3.9745 12.7340
# 3 32.3593 16.7356 101.6995 -2.3866 -10.7295 17.0535
# 4 5.3827 9.7405 -2.3866 54.0356 8.7413 0.7986
# 5 6.0931 3.9745 -10.7295 8.7413 52.1257 -3.2228
# 6 5.3903 12.7340 17.0535 0.7986 -3.2228 37.4904
#
#
#
# Elastic Compliance Matrix: (Units=1/GPa)
#
#
# Indices 1 2 3 4 5 6 
#
# 1 0.013026 -0.003483 -0.003946 -0.000548 -0.001919 0.000952
# 2 -0.003483 0.015271 -0.000817 -0.002246 -0.000817 -0.004337
# 3 -0.003946 -0.000817 0.012279 0.000721 0.002650 -0.004528
# 4 -0.000548 -0.002246 0.000721 0.019467 -0.002890 -0.000149
# 5 -0.001919 -0.000817 0.002650 -0.002890 0.020574 0.001178
# 6 0.000952 -0.004337 -0.004528 -0.000149 0.001178 0.030174
#
#
# Mechanical properties :
#
#
# Convention : Reuss Voigt Hill
#
# Bulk Modulus (GPa) = 41.51958 47.04152 44.28055
# Shear Modulus (GPa) = 36.95189 41.96334 39.45761
#
# Velocity S-wave (km/s) = 4.09271 4.36142 4.22920
# Velocity P-wave (km/s) = 6.41518 6.83276 6.62726
#
# Compressibility (1/GPa) = 0.02408502
#
# Stress axis : x y z
#
# Youngs Moduli (GPa) = 76.76983 65.48146 81.44128
#
# Poissons Ratio (x) = 0.22804 0.32141
# Poissons Ratio (y) = 0.26736 0.06650
# Poissons Ratio (z) = 0.30297 0.05347
#
# Static dielectric constant tensor:
#      x y z
#    x 4.065520 0.099930 -0.100040 
#    y 0.099930 4.470310 -0.072940 
#    z -0.100040 -0.072940 4.064450 
# 
# 
# High freq. dielectric constant tensor:
#      x y z
#    x 1.878880 -0.000220 -0.012460 
#    y -0.000220 1.870410 -0.000300 
#    z -0.012460 -0.000300 1.873470 
# 
# From -- ./inp_files/246083.got.cif
#   From: 2010.06.25/outbox.cif.g09.slc.cpg/sg2_124_cif.got.tgz:246083.got - 2010.06.27 13:26:56.
