data_PCOD8016657
_publ_section_title
;
Structure prediction by ZEFSAII (Michael W. Deem and Ramdas Pophale) SiO2 
 PCOD8016657
Probable space group: P -1
;
_chemical_formula_sum "Si O2"
_cell_formula_units_Z 16
_cell_length_a 14.740070
_cell_length_b 9.578805
_cell_length_c 11.727933
_cell_angle_alpha 68.027698
_cell_angle_beta 59.336472
_cell_angle_gamma 118.514513
_cell_volume 721.464756
_symmetry_space_group_name_H-M "P -1"
_symmetry_group_IT_number 2
_symmetry_cell_setting 'triclinic'
loop_
_space_group_symop_operation_xyz
x,y,z
-x,-y,-z
loop_
_atom_site_type_symbol
_atom_site_label
_atom_site_fract_x
_atom_site_fract_y
_atom_site_fract_z
Si Si1 0.781188 0.292775 0.683983
Si Si2 0.545090 0.108282 0.561581
Si Si3 0.778703 0.238261 0.945364
Si Si4 0.221428 0.110423 0.006253
Si Si5 0.676409 0.597288 0.356907
Si Si6 0.419892 0.401765 0.209786
Si Si7 0.176000 0.323514 0.521150
Si Si8 0.783889 0.149205 0.509416
O O1 0.677942 0.169056 0.911093
O O2 0.752017 0.418401 0.602833
O O3 0.699670 0.070816 0.716204
O O4 0.000000 0.500000 0.500000
O O5 0.609515 0.355163 0.435367
O O6 0.721004 0.215803 0.455444
O O7 0.500000 0.000000 0.500000
O O8 0.356507 0.866577 0.835247
O O9 0.982883 0.567799 0.729797
O O10 0.794017 0.076152 0.977812
O O11 0.182850 0.172085 0.902848
O O12 0.418891 0.379445 0.863830
O O13 0.055736 0.946985 0.254935
O O14 0.500000 0.500000 0.500000
O O15 0.765889 0.695003 0.395469
O O16 0.260661 0.342126 0.349431
O O17 0.307912 0.113501 0.398187
O O18 0.500000 0.500000 0.000000
#
# Coordination Sequence:
#
# PCOD8016657 Si02
#       8
#     2   2   2   2   2   2   2   2
#     4  10  21  45  75 105 134 177 247 291 340 433
#     4  12  26  43  68 103 145 189 231 287 363 415
#     4  11  24  45  76 103 138 187 238 296 348 426
#     4  12  24  47  77 105 141 193 244 294 358 428
#     4  12  23  46  73 107 144 182 248 301 346 427
#     4  12  29  44  67 110 153 185 233 299 362 426
#     4  12  25  47  77 104 138 197 238 292 363 425
#     4  11  25  46  68 105 143 180 237 293 355 417
#
# _framework density 22.177102999999999
#
# number of rings (size 3 to 8) (size 9 to 14) (size 15 to 20)
#    0.000    0.500    6.250    1.875    3.500    3.500 
#    0.000    0.000    0.000    0.000    0.000    0.000 
#    0.000    0.000    0.000    0.000    0.000    0.000 
#
# Total GULP energy -198329.715759 kJ/mol
# GULP energy per Si atom -12395.607235 kJ/mol
# Density = 2.212663 g / cm^3
# Si number density = 22.177103 Si / 1000 Ang^3
#
#
#
# Elastic Constant Matrix: (Units=GPa)
#
#
# Indices 1 2 3 4 5 6 
#
# 1 81.0389 9.5785 1.3267 -0.2945 16.8294 -4.8252
# 2 9.5785 104.4100 31.9585 1.3112 -0.5125 -5.6135
# 3 1.3267 31.9585 98.0816 9.6544 10.6077 -2.7601
# 4 -0.2945 1.3112 9.6544 50.4127 -0.9557 9.1560
# 5 16.8294 -0.5125 10.6077 -0.9557 32.6587 3.5314
# 6 -4.8252 -5.6135 -2.7601 9.1560 3.5314 38.6308
#
#
#
# Elastic Compliance Matrix: (Units=1/GPa)
#
#
# Indices 1 2 3 4 5 6 
#
# 1 0.014357 -0.001627 0.001367 -0.000759 -0.008169 0.002581
# 2 -0.001627 0.010937 -0.003782 0.000318 0.002157 0.000843
# 3 0.001367 -0.003782 0.012251 -0.002620 -0.004990 0.001574
# 4 -0.000759 0.000318 -0.002620 0.021376 0.002471 -0.005528
# 5 -0.008169 0.002157 -0.004990 0.002471 0.037101 -0.005041
# 6 0.002581 0.000843 0.001574 -0.005528 -0.005041 0.028214
#
#
# Mechanical properties :
#
#
# Convention : Reuss Voigt Hill
#
# Bulk Modulus (GPa) = 33.94478 41.02866 37.48672
# Shear Modulus (GPa) = 35.17597 40.38489 37.78043
#
# Velocity S-wave (km/s) = 3.98696 4.27197 4.13192
# Velocity P-wave (km/s) = 6.04433 6.54779 6.30109
#
# Compressibility (1/GPa) = 0.02945961
#
# Stress axis : x y z
#
# Youngs Moduli (GPa) = 69.65176 91.43641 81.62330
#
# Poissons Ratio (x) = 0.14879 -0.11157
# Poissons Ratio (y) = 0.11334 0.30873
# Poissons Ratio (z) = -0.09521 0.34585
#
# Static dielectric constant tensor:
#      x y z
#    x 4.309100 0.104470 0.212470 
#    y 0.104470 4.063550 0.213670 
#    z 0.212470 0.213670 4.315720 
# 
# 
# High freq. dielectric constant tensor:
#      x y z
#    x 1.885720 -0.001780 0.004200 
#    y -0.001780 1.871990 0.007230 
#    z 0.004200 0.007230 1.880000 
# 
# From -- ./inp_files/447128.got.cif
#   From: 2010.06.25/outbox.cif.g09.slc.cpg/sg2_224_cif.got.tgz:447128.got - 2010.06.27 13:26:56.
