data_PCOD8016958
_publ_section_title
;
Structure prediction by ZEFSAII (Michael W. Deem and Ramdas Pophale) SiO2 
 PCOD8016958
Probable space group: P -1
;
_chemical_formula_sum "Si O2"
_cell_formula_units_Z 16
_cell_length_a 18.557714
_cell_length_b 9.140924
_cell_length_c 12.067632
_cell_angle_alpha 82.715862
_cell_angle_beta 137.994487
_cell_angle_gamma 130.736321
_cell_volume 734.851296
_symmetry_space_group_name_H-M "P -1"
_symmetry_group_IT_number 2
_symmetry_cell_setting 'triclinic'
loop_
_space_group_symop_operation_xyz
x,y,z
-x,-y,-z
loop_
_atom_site_type_symbol
_atom_site_label
_atom_site_fract_x
_atom_site_fract_y
_atom_site_fract_z
Si Si1 0.137107 0.576503 0.808172
Si Si2 0.699966 0.987903 0.899153
Si Si3 0.386402 0.598722 0.041106
Si Si4 0.240209 0.894861 0.697118
Si Si5 0.639629 0.782889 0.508007
Si Si6 0.966270 0.286922 0.975009
Si Si7 0.647481 0.464670 0.603263
Si Si8 0.318212 0.240382 0.893483
O O1 0.207846 0.720233 0.757469
O O2 0.898048 0.279678 0.553720
O O3 0.196331 0.744728 0.963106
O O4 0.247114 0.547983 0.954815
O O5 0.500387 0.796588 0.621669
O O6 0.634200 0.802787 0.939305
O O7 0.856689 0.099188 0.979210
O O8 0.559730 0.722764 0.300192
O O9 0.239130 0.305471 0.845387
O O10 0.523733 0.838496 0.083454
O O11 0.176553 0.975454 0.680248
O O12 0.707167 0.689821 0.595950
O O13 0.454253 0.610706 0.390443
O O14 0.831156 0.100916 0.730175
O O15 0.167721 0.428896 0.175635
O O16 0.000000 0.500000 0.000000
O O17 0.500000 0.500000 0.000000
#
# Coordination Sequence:
#
# PCOD8016958 Si02
#       8
#     2   2   2   2   2   2   2   2
#     4  10  22  37  61  87 124 158 198 249 301 365
#     4  10  22  41  60  92 124 163 200 248 307 362
#     4  11  21  36  65  90 113 161 202 249 302 360
#     4   9  21  40  57  86 124 155 198 251 302 360
#     4  10  23  40  64  91 121 158 208 250 306 365
#     4  11  26  40  63  93 126 162 205 251 307 367
#     4  10  22  44  63  86 125 163 200 259 302 357
#     4   9  19  41  64  87 122 155 203 251 300 361
#
# _framework density 21.773112999999999
#
# number of rings (size 3 to 8) (size 9 to 14) (size 15 to 20)
#    0.000    2.000    1.250    0.750    5.250    1.500 
#    2.250    6.250    0.000    0.000    0.000    0.000 
#    0.000    0.000    0.000    0.000    0.000    0.000 
#
# Total GULP energy -198244.529097 kJ/mol
# GULP energy per Si atom -12390.283069 kJ/mol
# Density = 2.172356 g / cm^3
# Si number density = 21.773113 Si / 1000 Ang^3
#
#
#
# Elastic Constant Matrix: (Units=GPa)
#
#
# Indices 1 2 3 4 5 6 
#
# 1 83.3171 14.5770 31.4687 -0.2005 -2.5788 -20.8388
# 2 14.5770 62.6150 16.0365 1.2673 1.8589 -13.8679
# 3 31.4687 16.0365 74.4641 5.3686 2.9580 -17.5311
# 4 -0.2005 1.2673 5.3686 26.9857 -9.5039 -7.7620
# 5 -2.5788 1.8589 2.9580 -9.5039 41.9561 0.2820
# 6 -20.8388 -13.8679 -17.5311 -7.7620 0.2820 45.0003
#
#
#
# Elastic Compliance Matrix: (Units=1/GPa)
#
#
# Indices 1 2 3 4 5 6 
#
# 1 0.015692 -0.001204 -0.005451 0.003569 0.002174 0.005374
# 2 -0.001204 0.017772 -0.002373 0.000603 -0.000585 0.004103
# 3 -0.005451 -0.002373 0.017255 -0.003305 -0.002215 0.002911
# 4 0.003569 0.000603 -0.003305 0.043628 0.010254 0.008012
# 5 0.002174 -0.000585 -0.002215 0.010254 0.026462 0.001567
# 6 0.005374 0.004103 0.002911 0.008012 0.001567 0.028481
#
#
# Mechanical properties :
#
#
# Convention : Reuss Voigt Hill
#
# Bulk Modulus (GPa) = 30.61401 38.28449 34.44925
# Shear Modulus (GPa) = 28.05302 33.34272 30.69787
#
# Velocity S-wave (km/s) = 3.59336 3.91752 3.75893
# Velocity P-wave (km/s) = 5.59529 6.17124 5.89031
#
# Compressibility (1/GPa) = 0.03266478
#
# Stress axis : x y z
#
# Youngs Moduli (GPa) = 63.72832 56.26692 57.95336
#
# Poissons Ratio (x) = 0.06773 0.31588
# Poissons Ratio (y) = 0.07671 0.13753
# Poissons Ratio (z) = 0.34735 0.13353
#
# Static dielectric constant tensor:
#      x y z
#    x 4.022350 -0.168500 -0.331790 
#    y -0.168500 4.132830 0.221740 
#    z -0.331790 0.221740 3.751510 
# 
# 
# High freq. dielectric constant tensor:
#      x y z
#    x 1.858060 -0.003790 -0.025230 
#    y -0.003790 1.866930 0.010060 
#    z -0.025230 0.010060 1.836380 
# 
# From -- ./inp_files/37436.got.cif
#   From: 2010.06.25/outbox.cif.g09.slc.cpg/sg2_19_cif.got.tgz:37436.got - 2010.06.27 13:26:56.
