data_PCOD8016288
_publ_section_title
;
Structure prediction by ZEFSAII (Michael W. Deem and Ramdas Pophale) SiO2 
 PCOD8016288
Probable space group: P -1
;
_chemical_formula_sum "Si O2"
_cell_formula_units_Z 14
_cell_length_a 23.938128
_cell_length_b 16.399321
_cell_length_c 12.948361
_cell_angle_alpha 26.769113
_cell_angle_beta 25.434613
_cell_angle_gamma 16.159741
_cell_volume 593.679974
_symmetry_space_group_name_H-M "P -1"
_symmetry_group_IT_number 2
_symmetry_cell_setting 'triclinic'
loop_
_space_group_symop_operation_xyz
x,y,z
-x,-y,-z
loop_
_atom_site_type_symbol
_atom_site_label
_atom_site_fract_x
_atom_site_fract_y
_atom_site_fract_z
Si Si1 0.432143 0.275281 0.516404
Si Si2 0.717202 0.146437 0.045052
Si Si3 0.089734 0.855220 0.902477
Si Si4 0.971154 0.699968 0.750358
Si Si5 0.772038 0.162824 0.709238
Si Si6 0.273583 0.024296 0.348347
Si Si7 0.624194 0.787745 0.891278
O O1 0.639460 0.054581 0.343079
O O2 0.420968 0.472277 0.384022
O O3 0.203529 0.542923 0.535185
O O4 0.451658 0.068407 0.782803
O O5 0.500000 0.500000 0.000000
O O6 0.781922 0.033984 0.945423
O O7 0.906912 0.038758 0.912008
O O8 0.251514 0.837139 0.621941
O O9 0.215887 0.526560 0.076857
O O10 0.000000 0.000000 0.000000
O O11 0.912077 0.710865 0.721108
O O12 0.766481 0.039347 0.757308
O O13 0.000000 0.500000 0.000000
O O14 0.000000 0.000000 0.500000
O O15 0.240376 0.191471 0.313576
O O16 0.508773 0.804642 0.156439
#
# Coordination Sequence:
#
# PCOD8016288 Si02
#       7
#     2   2   2   2   2   2   2
#     4  10  21  44  66 100 135 177 230 283 343 404
#     4  10  22  42  69  97 132 179 228 279 345 402
#     4  12  27  47  70 100 140 186 229 278 350 415
#     4  11  22  41  68 104 132 172 232 285 331 406
#     4   9  20  37  69  93 132 175 223 278 336 395
#     4  11  25  45  70 101 137 179 232 283 345 402
#     4  11  26  45  70 101 140 179 231 285 343 412
#
# _framework density 23.581728999999999
#
# number of rings (size 3 to 8) (size 9 to 14) (size 15 to 20)
#    0.000    1.429    1.429    3.857    2.000    9.143 
#    0.000    0.714    0.000    0.000    0.000    0.000 
#    0.000    0.000    0.000    0.000    0.000    0.000 
#
# Total GULP energy -173493.282582 kJ/mol
# GULP energy per Si atom -12392.377327 kJ/mol
# Density = 2.352806 g / cm^3
# Si number density = 23.581729 Si / 1000 Ang^3
#
#
#
# Elastic Constant Matrix: (Units=GPa)
#
#
# Indices 1 2 3 4 5 6 
#
# 1 89.7437 42.7636 14.4290 -1.5775 -2.6114 -1.6684
# 2 42.7636 109.7690 37.4122 -14.8048 -4.9525 6.9415
# 3 14.4290 37.4122 105.4703 1.4874 1.4406 14.3992
# 4 -1.5775 -14.8048 1.4874 45.1480 2.0696 2.0362
# 5 -2.6114 -4.9525 1.4406 2.0696 36.7661 3.1669
# 6 -1.6684 6.9415 14.3992 2.0362 3.1669 35.1313
#
#
#
# Elastic Compliance Matrix: (Units=1/GPa)
#
#
# Indices 1 2 3 4 5 6 
#
# 1 0.013882 -0.005676 -0.000127 -0.001465 0.000145 0.001905
# 2 -0.005676 0.013380 -0.003814 0.004326 0.001454 -0.001732
# 3 -0.000127 -0.003814 0.011397 -0.001434 -0.000562 -0.003790
# 4 -0.001465 0.004326 -0.001434 0.023669 -0.000655 -0.001649
# 5 0.000145 0.001454 -0.000562 -0.000655 0.027680 -0.002507
# 6 0.001905 -0.001732 -0.003790 -0.001649 -0.002507 0.030772
#
#
# Mechanical properties :
#
#
# Convention : Reuss Voigt Hill
#
# Bulk Modulus (GPa) = 51.48208 54.91029 53.19618
# Shear Modulus (GPa) = 34.13228 37.43429 35.78328
#
# Velocity S-wave (km/s) = 3.80860 3.98858 3.89963
# Velocity P-wave (km/s) = 6.42023 6.67438 6.54854
#
# Compressibility (1/GPa) = 0.01942424
#
# Stress axis : x y z
#
# Youngs Moduli (GPa) = 72.03607 74.73891 87.74306
#
# Poissons Ratio (x) = 0.42424 0.01115
# Poissons Ratio (y) = 0.40890 0.33465
# Poissons Ratio (z) = 0.00915 0.28505
#
# Static dielectric constant tensor:
#      x y z
#    x 12.778080 3.040350 2.087190 
#    y 3.040350 5.546280 0.982470 
#    z 2.087190 0.982470 5.507030 
# 
# 
# High freq. dielectric constant tensor:
#      x y z
#    x 1.929720 -0.003920 0.002450 
#    y -0.003920 1.916940 0.008040 
#    z 0.002450 0.008040 1.947550 
# 
# From -- ./inp_files/471836.got.cif
#   From: 2010.06.25/outbox.cif.g09.slc.cpg/sg2_236_cif.got.tgz:471836.got - 2010.06.27 13:26:56.
