data_PCOD8016719
_publ_section_title
;
Structure prediction by ZEFSAII (Michael W. Deem and Ramdas Pophale) SiO2 
 PCOD8016719
Probable space group: P -1
;
_chemical_formula_sum "Si O2"
_cell_formula_units_Z 14
_cell_length_a 4.818706
_cell_length_b 10.604154
_cell_length_c 18.663210
_cell_angle_alpha 147.403493
_cell_angle_beta 71.208565
_cell_angle_gamma 99.103355
_cell_volume 474.244565
_symmetry_space_group_name_H-M "P -1"
_symmetry_group_IT_number 2
_symmetry_cell_setting 'triclinic'
loop_
_space_group_symop_operation_xyz
x,y,z
-x,-y,-z
loop_
_atom_site_type_symbol
_atom_site_label
_atom_site_fract_x
_atom_site_fract_y
_atom_site_fract_z
Si Si1 0.234350 0.358382 0.967736
Si Si2 0.117710 0.260452 0.280191
Si Si3 0.145901 0.854970 0.987654
Si Si4 0.234903 0.780350 0.262797
Si Si5 0.476793 0.839349 0.673530
Si Si6 0.364602 0.327518 0.694931
Si Si7 0.764001 0.242554 0.492893
O O1 0.091283 0.233767 0.983713
O O2 0.385916 0.562123 0.089825
O O3 0.000000 0.500000 0.000000
O O4 0.445821 0.126638 0.798648
O O5 0.212968 0.251604 0.352448
O O6 0.133654 0.520024 0.374673
O O7 0.779124 0.223271 0.283668
O O8 0.305218 0.038570 0.109237
O O9 0.381531 0.610892 0.827397
O O10 0.000000 0.000000 0.000000
O O11 0.500471 0.803093 0.305370
O O12 0.981328 0.692001 0.288417
O O13 0.073387 0.035714 0.361254
O O14 0.440688 0.712217 0.540242
O O15 0.548993 0.182292 0.544440
#
# Coordination Sequence:
#
# PCOD8016719 Si02
#       7
#     2   2   2   2   2   2   2
#     4  10  21  46  75 103 143 186 250 298 364 420
#     4  11  27  45  72 105 145 189 247 302 369 429
#     4  10  25  49  78 108 146 190 252 310 364 434
#     4  11  25  48  68 110 142 193 242 306 361 437
#     4  11  25  48  68 110 142 193 242 306 361 437
#     4  11  27  45  72 105 145 189 247 302 369 429
#     4  12  26  44  76 100 156 192 242 296 374 450
#
# _framework density 29.520633
#
# number of rings (size 3 to 8) (size 9 to 14) (size 15 to 20)
#    0.000    1.143    1.429    2.571    8.000    4.000 
#    0.000    2.857    0.000    0.000    0.000    0.000 
#    0.000    0.000    0.000    0.000    0.000    0.000 
#
# Total GULP energy -173665.103054 kJ/mol
# GULP energy per Si atom -12404.650218 kJ/mol
# Density = 2.945344 g / cm^3
# Si number density = 29.520633 Si / 1000 Ang^3
#
#
#
# Elastic Constant Matrix: (Units=GPa)
#
#
# Indices 1 2 3 4 5 6 
#
# 1 98.1088 30.5705 37.7319 3.8324 1.2607 -8.9272
# 2 30.5705 145.2938 35.6618 1.9688 -0.0592 -13.9893
# 3 37.7319 35.6618 189.0918 3.0808 0.2548 8.8504
# 4 3.8324 1.9688 3.0808 57.9653 8.7943 7.3995
# 5 1.2607 -0.0592 0.2548 8.7943 60.6811 5.1806
# 6 -8.9272 -13.9893 8.8504 7.3995 5.1806 47.3278
#
#
#
# Elastic Compliance Matrix: (Units=1/GPa)
#
#
# Indices 1 2 3 4 5 6 
#
# 1 0.011791 -0.001730 -0.002119 -0.000852 -0.000309 0.002276
# 2 -0.001730 0.007769 -0.001220 -0.000360 -0.000093 0.002264
# 3 -0.002119 -0.001220 0.006030 0.000080 0.000170 -0.001919
# 4 -0.000852 -0.000360 0.000080 0.018036 -0.002354 -0.002844
# 5 -0.000309 -0.000093 0.000170 -0.002354 0.016963 -0.001606
# 6 0.002276 0.002264 -0.001919 -0.002844 -0.001606 0.023207
#
#
# Mechanical properties :
#
#
# Convention : Reuss Voigt Hill
#
# Bulk Modulus (GPa) = 64.71785 71.15810 67.93797
# Shear Modulus (GPa) = 50.46171 55.09685 52.77928
#
# Velocity S-wave (km/s) = 4.13894 4.32485 4.23292
# Velocity P-wave (km/s) = 6.69415 7.00685 6.85228
#
# Compressibility (1/GPa) = 0.01545169
#
# Stress axis : x y z
#
# Youngs Moduli (GPa) = 84.80975 128.71725 165.84959
#
# Poissons Ratio (x) = 0.22272 0.35139
# Poissons Ratio (y) = 0.14675 0.20232
# Poissons Ratio (z) = 0.17969 0.15702
#
# Static dielectric constant tensor:
#      x y z
#    x 5.087080 0.329550 -0.244910 
#    y 0.329550 5.272280 -0.299280 
#    z -0.244910 -0.299280 5.711570 
# 
# 
# High freq. dielectric constant tensor:
#      x y z
#    x 2.206060 0.040740 0.008720 
#    y 0.040740 2.228190 0.008030 
#    z 0.008720 0.008030 2.241400 
# 
# From -- ./inp_files/411197.got.cif
#   From: 2010.06.25/outbox.cif.g09.slc.cpg/sg2_206_cif.got.tgz:411197.got - 2010.06.27 13:26:56.
