data_PCOD8016511
_publ_section_title
;
Structure prediction by ZEFSAII (Michael W. Deem and Ramdas Pophale) SiO2 
 PCOD8016511
Probable space group: P -1
;
_chemical_formula_sum "Si O2"
_cell_formula_units_Z 16
_cell_length_a 11.818888
_cell_length_b 12.139723
_cell_length_c 10.800134
_cell_angle_alpha 116.198955
_cell_angle_beta 84.978360
_cell_angle_gamma 42.998535
_cell_volume 703.302917
_symmetry_space_group_name_H-M "P -1"
_symmetry_group_IT_number 2
_symmetry_cell_setting 'triclinic'
loop_
_space_group_symop_operation_xyz
x,y,z
-x,-y,-z
loop_
_atom_site_type_symbol
_atom_site_label
_atom_site_fract_x
_atom_site_fract_y
_atom_site_fract_z
Si Si1 0.891920 0.268425 0.091268
Si Si2 0.772448 0.125946 0.939930
Si Si3 0.706770 0.805541 0.478012
Si Si4 0.832288 0.959328 0.583787
Si Si5 0.581117 0.298237 0.548192
Si Si6 0.965423 0.614549 0.940916
Si Si7 0.332310 0.520337 0.314068
Si Si8 0.475273 0.849026 0.706746
O O1 0.686712 0.463227 0.303309
O O2 0.897233 0.385330 0.064094
O O3 0.871987 0.170732 0.954066
O O4 0.116411 0.054332 0.047383
O O5 0.828879 0.019266 0.749512
O O6 0.504686 0.375847 0.111664
O O7 0.940243 0.549037 0.265308
O O8 0.656330 0.756593 0.566409
O O9 0.500000 0.000000 0.500000
O O10 0.742036 0.906310 0.580688
O O11 0.676714 0.179662 0.615734
O O12 0.082674 0.735135 0.393046
O O13 0.651500 0.372862 0.546263
O O14 0.660230 0.125628 0.352103
O O15 0.000000 0.500000 0.000000
O O16 0.703034 0.889795 0.088603
O O17 0.388357 0.346258 0.297877
#
# Coordination Sequence:
#
# PCOD8016511 Si02
#       8
#     2   2   2   2   2   2   2   2
#     4  10  21  44  74 101 141 179 241 284 346 423
#     4  10  24  46  70 107 140 184 229 294 358 413
#     4  12  25  49  68 101 138 185 243 283 345 411
#     4  12  26  46  71 100 149 184 229 300 355 414
#     4  11  23  45  71 106 143 183 235 294 352 416
#     4  12  23  40  72 103 130 183 238 289 334 406
#     4  11  26  44  68 108 140 185 232 288 361 422
#     4  12  24  44  74  99 140 186 242 288 338 422
#
# _framework density 22.749797000000001
#
# number of rings (size 3 to 8) (size 9 to 14) (size 15 to 20)
#    0.000    0.750    5.000    1.500    1.750    3.500 
#    6.750    1.250    0.000    0.000    0.000    0.000 
#    0.000    0.000    0.000    0.000    0.000    0.000 
#
# Total GULP energy -198456.497345 kJ/mol
# GULP energy per Si atom -12403.531084 kJ/mol
# Density = 2.269802 g / cm^3
# Si number density = 22.749797 Si / 1000 Ang^3
#
#
#
# Elastic Constant Matrix: (Units=GPa)
#
#
# Indices 1 2 3 4 5 6 
#
# 1 60.4564 11.0143 9.8718 2.7092 1.8980 0.4315
# 2 11.0143 51.0099 21.4297 7.5602 10.2203 13.7380
# 3 9.8718 21.4297 110.1042 9.8747 8.3187 -10.4996
# 4 2.7092 7.5602 9.8747 28.9235 1.1963 0.3331
# 5 1.8980 10.2203 8.3187 1.1963 36.7152 0.3736
# 6 0.4315 13.7380 -10.4996 0.3331 0.3736 41.6704
#
#
#
# Elastic Compliance Matrix: (Units=1/GPa)
#
#
# Indices 1 2 3 4 5 6 
#
# 1 0.017332 -0.003648 -0.000747 -0.000437 0.000294 0.000836
# 2 -0.003648 0.027110 -0.005042 -0.004660 -0.005961 -0.010080
# 3 -0.000747 -0.005042 0.010835 -0.002322 -0.000982 0.004428
# 4 -0.000437 -0.004660 -0.002322 0.036591 0.000647 0.000658
# 5 0.000294 -0.005961 -0.000982 0.000647 0.029068 0.001449
# 6 0.000836 -0.010080 0.004428 0.000658 0.001449 0.028410
#
#
# Mechanical properties :
#
#
# Convention : Reuss Voigt Hill
#
# Bulk Modulus (GPa) = 27.47090 34.02244 30.74667
# Shear Modulus (GPa) = 27.72327 33.41213 30.56770
#
# Velocity S-wave (km/s) = 3.49466 3.83649 3.66956
# Velocity P-wave (km/s) = 5.32775 5.88323 5.61237
#
# Compressibility (1/GPa) = 0.03640216
#
# Stress axis : x y z
#
# Youngs Moduli (GPa) = 57.69741 36.88728 92.29079
#
# Poissons Ratio (x) = 0.13455 0.06898
# Poissons Ratio (y) = 0.21046 0.46535
# Poissons Ratio (z) = 0.04312 0.18599
#
# Static dielectric constant tensor:
#      x y z
#    x 4.200840 0.258980 -0.082860 
#    y 0.258980 3.931320 0.312560 
#    z -0.082860 0.312560 4.382810 
# 
# 
# High freq. dielectric constant tensor:
#      x y z
#    x 1.898980 0.025240 -0.007470 
#    y 0.025240 1.887220 0.018430 
#    z -0.007470 0.018430 1.908110 
# 
# From -- ./inp_files/428722.got.cif
#   From: 2010.06.25/outbox.cif.g09.slc.cpg/sg2_215_cif.got.tgz:428722.got - 2010.06.27 13:26:56.
