data_PCOD8016297
_publ_section_title
;
Structure prediction by ZEFSAII (Michael W. Deem and Ramdas Pophale) SiO2 
 PCOD8016297
Probable space group: P -1
;
_chemical_formula_sum "Si O2"
_cell_formula_units_Z 16
_cell_length_a 8.746889
_cell_length_b 14.538483
_cell_length_c 8.424876
_cell_angle_alpha 80.271001
_cell_angle_beta 51.471679
_cell_angle_gamma 109.041566
_cell_volume 684.591225
_symmetry_space_group_name_H-M "P -1"
_symmetry_group_IT_number 2
_symmetry_cell_setting 'triclinic'
loop_
_space_group_symop_operation_xyz
x,y,z
-x,-y,-z
loop_
_atom_site_type_symbol
_atom_site_label
_atom_site_fract_x
_atom_site_fract_y
_atom_site_fract_z
Si Si1 0.466062 0.546232 0.332485
Si Si2 0.926461 0.666929 0.509512
Si Si3 0.973640 0.630978 0.060182
Si Si4 0.926848 0.439618 0.306789
Si Si5 0.477158 0.034714 0.746940
Si Si6 0.437849 0.843551 0.028036
Si Si7 0.717582 0.738075 0.880826
Si Si8 0.136215 0.862019 0.794397
O O1 0.279793 0.412690 0.458037
O O2 0.346775 0.605536 0.474718
O O3 0.685694 0.561788 0.286693
O O4 0.569788 0.610940 0.079378
O O5 0.862848 0.738643 0.637109
O O6 0.967872 0.581067 0.601188
O O7 0.155700 0.758028 0.235850
O O8 0.042298 0.622077 0.839686
O O9 0.103387 0.763697 0.961610
O O10 0.062497 0.574597 0.141104
O O11 0.237623 0.969499 0.813777
O O12 0.467929 0.109592 0.868071
O O13 0.687693 0.115774 0.468730
O O14 0.521762 0.945394 0.822732
O O15 0.555678 0.779053 0.913753
O O16 0.888495 0.822449 0.885873
#
# Coordination Sequence:
#
# PCOD8016297 Si02
#       8
#     2   2   2   2   2   2   2   2
#     4  11  23  37  62  92 129 166 204 246 306 385
#     4  12  23  41  60  95 132 163 204 254 311 376
#     4  10  23  39  62  92 130 161 206 255 304 378
#     4  11  21  38  62  90 129 168 202 246 310 372
#     4  10  23  44  69  91 122 163 218 268 313 367
#     4  11  24  43  68  94 123 166 212 264 315 365
#     4  11  23  40  67  91 129 165 203 258 316 376
#     4  10  21  44  66  90 128 164 206 266 318 362
#
# _framework density 23.371611999999999
#
# number of rings (size 3 to 8) (size 9 to 14) (size 15 to 20)
#    0.000    1.250    5.000    1.125    1.750    1.000 
#    2.250    0.000    0.000    0.000    0.000    0.000 
#    0.000    0.000    0.000    0.000    0.000    0.000 
#
# Total GULP energy -198382.394953 kJ/mol
# GULP energy per Si atom -12398.899685 kJ/mol
# Density = 2.331842 g / cm^3
# Si number density = 23.371612 Si / 1000 Ang^3
#
#
#
# Elastic Constant Matrix: (Units=GPa)
#
#
# Indices 1 2 3 4 5 6 
#
# 1 79.5450 37.1152 39.2561 1.8903 4.4659 -7.0754
# 2 37.1152 80.5827 37.4129 -5.4392 -17.3143 5.1236
# 3 39.2561 37.4129 106.1246 -7.5309 -11.3644 -0.5213
# 4 1.8903 -5.4392 -7.5309 45.2468 -3.7214 -3.6703
# 5 4.4659 -17.3143 -11.3644 -3.7214 35.3207 -0.5858
# 6 -7.0754 5.1236 -0.5213 -3.6703 -0.5858 37.9863
#
#
#
# Elastic Compliance Matrix: (Units=1/GPa)
#
#
# Indices 1 2 3 4 5 6 
#
# 1 0.020758 -0.009515 -0.005538 -0.003328 -0.009345 0.004608
# 2 -0.009515 0.020714 -0.002428 0.003038 0.010827 -0.004139
# 3 -0.005538 -0.002428 0.012915 0.002392 0.003914 -0.000235
# 4 -0.003328 0.003038 0.002392 0.023540 0.005182 0.001358
# 5 -0.009345 0.010827 0.003914 0.005182 0.036572 -0.002083
# 6 0.004608 -0.004139 -0.000235 0.001358 -0.002083 0.027838
#
#
# Mechanical properties :
#
#
# Convention : Reuss Voigt Hill
#
# Bulk Modulus (GPa) = 51.48165 54.86895 53.17530
# Shear Modulus (GPa) = 27.20732 33.87530 30.54131
#
# Velocity S-wave (km/s) = 3.41562 3.81126 3.61885
# Velocity P-wave (km/s) = 6.13437 6.54945 6.34531
#
# Compressibility (1/GPa) = 0.01942440
#
# Stress axis : x y z
#
# Youngs Moduli (GPa) = 48.17428 48.27643 77.42812
#
# Poissons Ratio (x) = 0.45935 0.42882
# Poissons Ratio (y) = 0.45838 0.18800
# Poissons Ratio (z) = 0.26680 0.11722
#
# Static dielectric constant tensor:
#      x y z
#    x 4.066660 0.067330 0.035500 
#    y 0.067330 4.082640 -0.017290 
#    z 0.035500 -0.017290 4.481830 
# 
# 
# High freq. dielectric constant tensor:
#      x y z
#    x 1.918100 0.008460 0.016040 
#    y 0.008460 1.914230 -0.000510 
#    z 0.016040 -0.000510 1.944170 
# 
# From -- ./inp_files/206747.got.cif
#   From: 2010.06.25/outbox.cif.g09.slc.cpg/sg2_104_cif.got.tgz:206747.got - 2010.06.27 13:26:56.
