data_PCOD8016725
_publ_section_title
;
Structure prediction by ZEFSAII (Michael W. Deem and Ramdas Pophale) SiO2 
 PCOD8016725
Probable space group: P -1
;
_chemical_formula_sum "Si O2"
_cell_formula_units_Z 14
_cell_length_a 11.599087
_cell_length_b 10.180930
_cell_length_c 11.759236
_cell_angle_alpha 51.999746
_cell_angle_beta 128.703696
_cell_angle_gamma 89.267910
_cell_volume 651.278359
_symmetry_space_group_name_H-M "P -1"
_symmetry_group_IT_number 2
_symmetry_cell_setting 'triclinic'
loop_
_space_group_symop_operation_xyz
x,y,z
-x,-y,-z
loop_
_atom_site_type_symbol
_atom_site_label
_atom_site_fract_x
_atom_site_fract_y
_atom_site_fract_z
Si Si1 0.363808 0.965840 0.618839
Si Si2 0.378446 0.575914 0.271092
Si Si3 0.682327 0.893315 0.249352
Si Si4 0.286228 0.787420 0.472192
Si Si5 0.236610 0.153034 0.101195
Si Si6 0.116325 0.089608 0.828480
Si Si7 0.154628 0.425911 0.290709
O O1 0.311766 0.834266 0.591886
O O2 0.566821 0.889001 0.740136
O O3 0.368497 0.932359 0.776307
O O4 0.197919 0.227116 0.349342
O O5 0.500000 0.500000 0.500000
O O6 0.521565 0.451973 0.318245
O O7 0.237994 0.521268 0.224307
O O8 0.248034 0.831231 0.035832
O O9 0.863379 0.823519 0.323065
O O10 0.739449 0.679227 0.464073
O O11 0.500000 0.000000 0.000000
O O12 0.106630 0.792774 0.351592
O O13 0.250793 0.964536 0.270155
O O14 0.191072 0.152741 0.941658
O O15 0.073039 0.386514 0.932585
#
# Coordination Sequence:
#
# PCOD8016725 Si02
#       7
#     2   2   2   2   2   2   2
#     4  10  24  43  62  93 133 167 209 263 313 376
#     4  12  21  40  64  96 126 165 210 266 313 368
#     4  10  21  47  64  89 131 172 207 263 309 379
#     4  12  24  39  66  97 132 162 210 266 322 366
#     4  12  21  41  68  96 126 167 214 259 316 378
#     4  12  24  40  67  94 130 163 215 264 310 377
#     4  10  23  39  66  92 125 166 218 250 317 374
#
# _framework density 21.496186000000002
#
# number of rings (size 3 to 8) (size 9 to 14) (size 15 to 20)
#    0.857    0.000    5.714    2.571    0.000    2.857 
#    2.571    0.714    0.000    0.000    0.000    0.000 
#    0.000    0.000    0.000    0.000    0.000    0.000 
#
# Total GULP energy -173576.746947 kJ/mol
# GULP energy per Si atom -12398.339068 kJ/mol
# Density = 2.144726 g / cm^3
# Si number density = 21.496186 Si / 1000 Ang^3
#
#
#
# Elastic Constant Matrix: (Units=GPa)
#
#
# Indices 1 2 3 4 5 6 
#
# 1 94.1365 2.8676 26.2293 -5.5789 17.8067 -16.2423
# 2 2.8676 89.4212 23.1600 -1.0092 14.2754 -22.4795
# 3 26.2293 23.1600 54.8126 -12.1327 14.7960 -13.9903
# 4 -5.5789 -1.0092 -12.1327 39.0837 -20.2558 2.0980
# 5 17.8067 14.2754 14.7960 -20.2558 23.9437 -6.3064
# 6 -16.2423 -22.4795 -13.9903 2.0980 -6.3064 33.3483
#
#
#
# Elastic Compliance Matrix: (Units=1/GPa)
#
#
# Indices 1 2 3 4 5 6 
#
# 1 0.015706 0.005013 -0.005387 -0.008318 -0.016764 0.006122
# 2 0.005013 0.017174 -0.004894 -0.009346 -0.016358 0.009460
# 3 -0.005387 -0.004894 0.026060 0.004922 -0.003976 0.003949
# 4 -0.008318 -0.009346 0.004922 0.053561 0.053629 -0.001514
# 5 -0.016764 -0.016358 -0.003976 0.053629 0.110954 -0.003251
# 6 0.006122 0.009460 0.003949 -0.001514 -0.003251 0.040482
#
#
# Mechanical properties :
#
#
# Convention : Reuss Voigt Hill
#
# Bulk Modulus (GPa) = 20.65969 38.09824 29.37896
# Shear Modulus (GPa) = 17.20544 31.68270 24.44407
#
# Velocity S-wave (km/s) = 2.83219 3.84327 3.37580
# Velocity P-wave (km/s) = 4.50853 6.12014 5.37508
#
# Compressibility (1/GPa) = 0.04840344
#
# Stress axis : x y z
#
# Youngs Moduli (GPa) = 63.67180 58.22869 38.37272
#
# Poissons Ratio (x) = -0.29189 0.20671
# Poissons Ratio (y) = -0.31918 0.18779
# Poissons Ratio (z) = 0.34300 0.28496
#
# Static dielectric constant tensor:
#      x y z
#    x 4.175640 -0.132840 0.013330 
#    y -0.132840 4.023890 -0.168420 
#    z 0.013330 -0.168420 3.804930 
# 
# 
# High freq. dielectric constant tensor:
#      x y z
#    x 1.848860 -0.019650 0.012890 
#    y -0.019650 1.839740 -0.001230 
#    z 0.012890 -0.001230 1.832240 
# 
# From -- ./inp_files/425327.got.cif
#   From: 2010.06.25/outbox.cif.g09.slc.cpg/sg2_213_cif.got.tgz:425327.got - 2010.06.27 13:26:56.
