data_PCOD8016950
_publ_section_title
;
Structure prediction by ZEFSAII (Michael W. Deem and Ramdas Pophale) SiO2 
 PCOD8016950
Probable space group: P -1
;
_chemical_formula_sum "Si O2"
_cell_formula_units_Z 14
_cell_length_a 11.109079
_cell_length_b 8.940354
_cell_length_c 11.044260
_cell_angle_alpha 63.289445
_cell_angle_beta 113.102917
_cell_angle_gamma 141.438520
_cell_volume 609.144627
_symmetry_space_group_name_H-M "P -1"
_symmetry_group_IT_number 2
_symmetry_cell_setting 'triclinic'
loop_
_space_group_symop_operation_xyz
x,y,z
-x,-y,-z
loop_
_atom_site_type_symbol
_atom_site_label
_atom_site_fract_x
_atom_site_fract_y
_atom_site_fract_z
Si Si1 0.834506 0.958900 0.689373
Si Si2 0.230403 0.705839 0.121897
Si Si3 0.889085 0.291960 0.433679
Si Si4 0.377555 0.047026 0.848056
Si Si5 0.996264 0.799502 0.692956
Si Si6 0.927248 0.626216 0.174309
Si Si7 0.614190 0.516304 0.935310
O O1 0.668751 0.710019 0.788816
O O2 0.925440 0.920617 0.638026
O O3 0.747198 0.033260 0.548396
O O4 0.007385 0.183286 0.764498
O O5 0.451206 0.875129 0.193508
O O6 0.114729 0.420999 0.171957
O O7 0.126616 0.744526 0.151302
O O8 0.248663 0.784358 0.961316
O O9 0.042489 0.316266 0.413155
O O10 0.804808 0.350296 0.282745
O O11 0.000000 0.500000 0.500000
O O12 0.473175 0.250530 0.915646
O O13 0.231264 0.014485 0.719731
O O14 0.803032 0.605702 0.033460
O O15 0.500000 0.500000 0.000000
#
# Coordination Sequence:
#
# PCOD8016950 Si02
#       7
#     2   2   2   2   2   2   2
#     4  11  21  42  64  95 129 173 213 264 320 375
#     4  10  22  37  60  95 132 165 211 259 321 377
#     4   9  22  41  68  93 122 173 217 254 323 389
#     4  11  23  35  62  99 132 164 217 260 319 383
#     4  11  21  40  68  90 130 170 212 265 320 373
#     4  10  22  41  67  89 131 172 211 261 325 373
#     4  12  24  39  63 100 134 164 216 268 319 378
#
# _framework density 22.983049000000001
#
# number of rings (size 3 to 8) (size 9 to 14) (size 15 to 20)
#    0.000    1.429    1.429    3.857    8.000    0.000 
#    0.000    1.429   12.571    0.000    0.000    0.000 
#    0.000    0.000    0.000    0.000    0.000    0.000 
#
# Total GULP energy -173449.567599 kJ/mol
# GULP energy per Si atom -12389.254829 kJ/mol
# Density = 2.293074 g / cm^3
# Si number density = 22.983049 Si / 1000 Ang^3
#
#
#
# Elastic Constant Matrix: (Units=GPa)
#
#
# Indices 1 2 3 4 5 6 
#
# 1 127.9053 38.0946 37.0549 1.2623 -10.9629 -12.4657
# 2 38.0946 61.3118 30.6762 -7.2395 -0.2739 -10.5674
# 3 37.0549 30.6762 120.1286 -25.6288 -1.2228 2.8269
# 4 1.2623 -7.2395 -25.6288 36.0035 -9.1965 -1.4559
# 5 -10.9629 -0.2739 -1.2228 -9.1965 24.6516 4.4263
# 6 -12.4657 -10.5674 2.8269 -1.4559 4.4263 39.4786
#
#
#
# Elastic Compliance Matrix: (Units=1/GPa)
#
#
# Indices 1 2 3 4 5 6 
#
# 1 0.010568 -0.005349 -0.002365 -0.002191 0.003416 0.001611
# 2 -0.005349 0.022641 -0.003972 0.001428 -0.002691 0.005010
# 3 -0.002365 -0.003972 0.011979 0.008509 0.003159 -0.002708
# 4 -0.002191 0.001428 0.008509 0.037653 0.013702 -0.001067
# 5 0.003416 -0.002691 0.003159 0.013702 0.048178 -0.004764
# 6 0.001611 0.005010 -0.002708 -0.001067 -0.004764 0.027869
#
#
# Mechanical properties :
#
#
# Convention : Reuss Voigt Hill
#
# Bulk Modulus (GPa) = 45.83676 57.88856 51.86266
# Shear Modulus (GPa) = 26.38077 33.59473 29.98775
#
# Velocity S-wave (km/s) = 3.39165 3.82739 3.61609
# Velocity P-wave (km/s) = 5.94346 6.69134 6.32846
#
# Compressibility (1/GPa) = 0.02181655
#
# Stress axis : x y z
#
# Youngs Moduli (GPa) = 94.62732 44.16742 83.47640
#
# Poissons Ratio (x) = 0.23625 0.19738
# Poissons Ratio (y) = 0.50615 0.33161
# Poissons Ratio (z) = 0.22375 0.17545
#
# Static dielectric constant tensor:
#      x y z
#    x 4.291860 -0.287300 0.006020 
#    y -0.287300 4.126090 -0.300410 
#    z 0.006020 -0.300410 4.597390 
# 
# 
# High freq. dielectric constant tensor:
#      x y z
#    x 1.903930 -0.034160 -0.008000 
#    y -0.034160 1.899040 -0.016040 
#    z -0.008000 -0.016040 1.913210 
# 
# From -- ./inp_files/416625.got.cif
#   From: 2010.06.25/outbox.cif.g09.slc.cpg/sg2_209_cif.got.tgz:416625.got - 2010.06.27 13:26:56.
