data_PCOD8016459
_publ_section_title
;
Structure prediction by ZEFSAII (Michael W. Deem and Ramdas Pophale) SiO2 
 PCOD8016459
Probable space group: P -1
;
_chemical_formula_sum "Si O2"
_cell_formula_units_Z 12
_cell_length_a 6.197625
_cell_length_b 4.983613
_cell_length_c 22.324877
_cell_angle_alpha 92.243762
_cell_angle_beta 126.820730
_cell_angle_gamma 101.361573
_cell_volume 530.199777
_symmetry_space_group_name_H-M "P -1"
_symmetry_group_IT_number 2
_symmetry_cell_setting 'triclinic'
loop_
_space_group_symop_operation_xyz
x,y,z
-x,-y,-z
loop_
_atom_site_type_symbol
_atom_site_label
_atom_site_fract_x
_atom_site_fract_y
_atom_site_fract_z
Si Si1 0.891035 0.023305 0.119012
Si Si2 0.516925 0.188072 0.228975
Si Si3 0.878123 0.203436 0.403981
Si Si4 0.392327 0.290672 0.033191
Si Si5 0.407436 0.331885 0.834311
Si Si6 0.773835 0.207741 0.520130
O O1 0.839393 0.775392 0.158369
O O2 0.642052 0.160655 0.093445
O O3 0.872812 0.931656 0.044058
O O4 0.201960 0.218334 0.184572
O O5 0.695561 0.475417 0.229900
O O6 0.646791 0.156465 0.314059
O O7 0.498257 0.914302 0.183961
O O8 0.140421 0.477112 0.435860
O O9 0.731144 0.242454 0.442411
O O10 0.973293 0.922766 0.423012
O O11 0.328605 0.457912 0.082799
O O12 0.500000 0.500000 0.000000
O O13 0.500000 0.000000 0.500000
#
# Coordination Sequence:
#
# PCOD8016459 Si02
#       6
#     2   2   2   2   2   2
#     4  10  23  44  63  92 129 173 222 276 323 363
#     4  12  26  39  66  96 134 171 205 271 334 373
#     4  10  23  41  63 102 130 155 220 257 299 399
#     4   9  20  43  65  87 129 170 229 277 300 389
#     4  11  24  43  60  95 129 171 223 264 319 391
#     4  10  21  44  71  93 126 171 205 253 315 374
#
# _framework density 22.632981000000001
#
# number of rings (size 3 to 8) (size 9 to 14) (size 15 to 20)
#    0.000    1.667    1.667    1.500    4.667    4.000 
#    0.000    0.000    0.000    0.000    0.000    0.000 
#    0.000    0.000    0.000    0.000    0.000    0.000 
#
# Total GULP energy -148673.519876 kJ/mol
# GULP energy per Si atom -12389.459990 kJ/mol
# Density = 2.258147 g / cm^3
# Si number density = 22.632981 Si / 1000 Ang^3
#
#
#
# Elastic Constant Matrix: (Units=GPa)
#
#
# Indices 1 2 3 4 5 6 
#
# 1 51.4103 20.3767 49.3914 5.5549 -7.8463 8.2238
# 2 20.3767 113.7869 34.1828 -7.4721 -10.7899 1.3080
# 3 49.3914 34.1828 150.8440 -11.4797 -7.6899 6.3249
# 4 5.5549 -7.4721 -11.4797 37.1285 3.9661 -4.3760
# 5 -7.8463 -10.7899 -7.6899 3.9661 21.4892 0.5538
# 6 8.2238 1.3080 6.3249 -4.3760 0.5538 33.1013
#
#
#
# Elastic Compliance Matrix: (Units=1/GPa)
#
#
# Indices 1 2 3 4 5 6 
#
# 1 0.034924 -0.002711 -0.010828 -0.011122 0.009778 -0.008134
# 2 -0.002711 0.010030 -0.001108 0.001809 0.003299 0.000673
# 3 -0.010828 -0.001108 0.010666 0.005036 -0.001658 0.001389
# 4 -0.011122 0.001809 0.005036 0.032028 -0.007419 0.006088
# 5 0.009778 0.003299 -0.001658 -0.007419 0.052643 -0.004104
# 6 -0.008134 0.000673 0.001389 0.006088 -0.004104 0.032813
#
#
# Mechanical properties :
#
#
# Convention : Reuss Voigt Hill
#
# Bulk Modulus (GPa) = 37.98301 58.21590 48.09946
# Shear Modulus (GPa) = 23.67726 32.48314 28.08020
#
# Velocity S-wave (km/s) = 3.23792 3.79253 3.52614
# Velocity P-wave (km/s) = 5.54954 6.70487 6.15437
#
# Compressibility (1/GPa) = 0.02632756
#
# Stress axis : x y z
#
# Youngs Moduli (GPa) = 28.63396 99.69624 93.75414
#
# Poissons Ratio (x) = 0.27027 1.01514
# Poissons Ratio (y) = 0.07762 0.10386
# Poissons Ratio (z) = 0.31004 0.11044
#
# Static dielectric constant tensor:
#      x y z
#    x 3.656970 0.010350 -0.417250 
#    y 0.010350 4.136120 0.098420 
#    z -0.417250 0.098420 4.265080 
# 
# 
# High freq. dielectric constant tensor:
#      x y z
#    x 1.856560 0.005210 -0.026860 
#    y 0.005210 1.918730 -0.010320 
#    z -0.026860 -0.010320 1.886590 
# 
# From -- ./inp_files/5403.got.cif
#   From: 2010.06.25/outbox.cif.g09.slc.cpg/sg2_3_cif.got.tgz:5403.got - 2010.06.27 13:26:56.
