data_PCOD8016630
_publ_section_title
;
Structure prediction by ZEFSAII (Michael W. Deem and Ramdas Pophale) SiO2 
 PCOD8016630
Probable space group: P -1
;
_chemical_formula_sum "Si O2"
_cell_formula_units_Z 14
_cell_length_a 12.803692
_cell_length_b 15.889872
_cell_length_c 7.762447
_cell_angle_alpha 64.555490
_cell_angle_beta 116.033834
_cell_angle_gamma 153.000548
_cell_volume 641.324380
_symmetry_space_group_name_H-M "P -1"
_symmetry_group_IT_number 2
_symmetry_cell_setting 'triclinic'
loop_
_space_group_symop_operation_xyz
x,y,z
-x,-y,-z
loop_
_atom_site_type_symbol
_atom_site_label
_atom_site_fract_x
_atom_site_fract_y
_atom_site_fract_z
Si Si1 0.870955 0.702723 0.735954
Si Si2 0.608518 0.673436 0.135245
Si Si3 0.620366 0.988410 0.644948
Si Si4 0.265915 0.111094 0.647290
Si Si5 0.860540 0.666927 0.376122
Si Si6 0.495745 0.286159 0.305863
Si Si7 0.663275 0.028579 0.042253
O O1 0.651839 0.549521 0.839647
O O2 0.775766 0.605204 0.566730
O O3 0.991086 0.889709 0.647574
O O4 0.066961 0.765166 0.891001
O O5 0.685991 0.777884 0.273593
O O6 0.781949 0.708531 0.193420
O O7 0.626255 0.753013 0.914377
O O8 0.655208 0.003979 0.857437
O O9 0.864301 0.150966 0.581550
O O10 0.500000 0.000000 0.500000
O O11 0.464929 0.795650 0.631401
O O12 0.331093 0.191822 0.433587
O O13 0.419620 0.124474 0.789037
O O14 0.749371 0.504301 0.334121
O O15 0.500000 0.000000 0.000000
#
# Coordination Sequence:
#
# PCOD8016630 Si02
#       7
#     2   2   2   2   2   2   2
#     4  10  22  43  66 100 139 183 227 285 340 402
#     4  12  25  45  67 105 147 183 231 283 345 414
#     4  12  25  48  71 101 141 179 234 294 346 411
#     4  10  23  43  70  99 141 186 233 278 350 403
#     4  12  26  42  71 103 142 184 230 286 346 414
#     4  12  24  44  71 105 139 183 234 279 352 409
#     4  10  21  45  71  95 134 183 231 284 342 405
#
# _framework density 21.829827000000002
#
# number of rings (size 3 to 8) (size 9 to 14) (size 15 to 20)
#    0.857    0.000    4.286    3.429    0.000    2.857 
#    0.000    2.143    0.000    0.000    0.000    0.000 
#    0.000    0.000    0.000    0.000    0.000    0.000 
#
# Total GULP energy -173611.291394 kJ/mol
# GULP energy per Si atom -12400.806528 kJ/mol
# Density = 2.178014 g / cm^3
# Si number density = 21.829827 Si / 1000 Ang^3
#
#
#
# Elastic Constant Matrix: (Units=GPa)
#
#
# Indices 1 2 3 4 5 6 
#
# 1 96.9976 55.6834 35.2182 -4.0045 13.5836 -9.9147
# 2 55.6834 103.4675 39.3733 1.7648 15.8086 -18.6487
# 3 35.2182 39.3733 116.5435 -1.5774 -19.2645 -5.6940
# 4 -4.0045 1.7648 -1.5774 32.8681 0.8550 -4.3459
# 5 13.5836 15.8086 -19.2645 0.8550 39.1794 6.2854
# 6 -9.9147 -18.6487 -5.6940 -4.3459 6.2854 46.6411
#
#
#
# Elastic Compliance Matrix: (Units=1/GPa)
#
#
# Indices 1 2 3 4 5 6 
#
# 1 0.016195 -0.006446 -0.003439 0.002461 -0.004974 0.001345
# 2 -0.006446 0.017377 -0.004994 -0.000955 -0.008171 0.005980
# 3 -0.003439 -0.004994 0.012822 -0.000125 0.009917 -0.002511
# 4 0.002461 -0.000955 -0.000125 0.031248 -0.001737 0.003272
# 5 -0.004974 -0.008171 0.009917 -0.001737 0.036780 -0.008232
# 6 0.001345 0.005980 -0.002511 0.003272 -0.008232 0.025225
#
#
# Mechanical properties :
#
#
# Convention : Reuss Voigt Hill
#
# Bulk Modulus (GPa) = 60.11619 64.17316 62.14467
# Shear Modulus (GPa) = 28.57965 36.18663 32.38314
#
# Velocity S-wave (km/s) = 3.62221 4.07587 3.85572
# Velocity P-wave (km/s) = 6.71508 7.18408 6.95354
#
# Compressibility (1/GPa) = 0.01663445
#
# Stress axis : x y z
#
# Youngs Moduli (GPa) = 61.74920 57.54736 77.99130
#
# Poissons Ratio (x) = 0.37097 0.26823
# Poissons Ratio (y) = 0.39805 0.38949
# Poissons Ratio (z) = 0.21237 0.28739
#
# Static dielectric constant tensor:
#      x y z
#    x 3.698920 -0.172790 -0.132780 
#    y -0.172790 3.902940 0.023600 
#    z -0.132780 0.023600 4.080450 
# 
# 
# High freq. dielectric constant tensor:
#      x y z
#    x 1.850660 -0.013350 -0.010690 
#    y -0.013350 1.853800 0.007260 
#    z -0.010690 0.007260 1.875460 
# 
# From -- ./inp_files/269857.got.cif
#   From: 2010.06.25/outbox.cif.g09.slc.cpg/sg2_135_cif.got.tgz:269857.got - 2010.06.27 13:26:56.
