data_PCOD8016541
_publ_section_title
;
Structure prediction by ZEFSAII (Michael W. Deem and Ramdas Pophale) SiO2 
 PCOD8016541
Probable space group: P -1
;
_chemical_formula_sum "Si O2"
_cell_formula_units_Z 12
_cell_length_a 11.439496
_cell_length_b 11.055899
_cell_length_c 11.442166
_cell_angle_alpha 51.602921
_cell_angle_beta 131.002369
_cell_angle_gamma 152.395422
_cell_volume 502.783638
_symmetry_space_group_name_H-M "P -1"
_symmetry_group_IT_number 2
_symmetry_cell_setting 'triclinic'
loop_
_space_group_symop_operation_xyz
x,y,z
-x,-y,-z
loop_
_atom_site_type_symbol
_atom_site_label
_atom_site_fract_x
_atom_site_fract_y
_atom_site_fract_z
Si Si1 0.644021 0.828710 0.420695
Si Si2 0.516671 0.460978 0.725144
Si Si3 0.073101 0.263782 0.996410
Si Si4 0.719978 0.231710 0.684153
Si Si5 0.139479 0.243586 0.800293
Si Si6 0.849726 0.231095 0.469068
O O1 0.671213 0.697596 0.596339
O O2 0.669090 0.802659 0.315925
O O3 0.359724 0.681980 0.343995
O O4 0.871382 0.132396 0.428643
O O5 0.720201 0.519675 0.898049
O O6 0.362063 0.443836 0.727211
O O7 0.231778 0.367388 0.916150
O O8 0.945004 0.001218 0.110097
O O9 0.846159 0.208437 0.867873
O O10 0.934643 0.457856 0.590284
O O11 0.452469 0.947742 0.617755
O O12 0.899781 0.166938 0.655913
#
# Coordination Sequence:
#
# PCOD8016541 Si02
#       6
#     2   2   2   2   2   2
#     4   9  22  40  68  97 126 172 221 269 318 394
#     4  11  21  42  66  97 128 174 217 271 322 394
#     4  11  25  40  63  97 134 170 214 276 324 386
#     4  10  23  43  65 102 129 169 219 270 331 376
#     4  11  23  42  65  92 133 175 220 261 326 393
#     4  10  21  45  65  97 129 171 224 258 324 395
#
# _framework density 23.867125999999999
#
# number of rings (size 3 to 8) (size 9 to 14) (size 15 to 20)
#    1.000    0.667    3.333    0.500    2.333    4.000 
#    0.000    1.667    0.000    0.000    0.000    0.000 
#    0.000    0.000    0.000    0.000    0.000    0.000 
#
# Total GULP energy -148712.048936 kJ/mol
# GULP energy per Si atom -12392.670745 kJ/mol
# Density = 2.381280 g / cm^3
# Si number density = 23.867126 Si / 1000 Ang^3
#
#
#
# Elastic Constant Matrix: (Units=GPa)
#
#
# Indices 1 2 3 4 5 6 
#
# 1 67.0578 0.0092 39.7288 4.4663 -6.3136 7.7261
# 2 0.0092 85.8535 43.5135 -3.8969 -0.5560 17.2518
# 3 39.7288 43.5135 176.6232 21.4683 12.6463 4.8826
# 4 4.4663 -3.8969 21.4683 29.7332 -6.6030 5.5426
# 5 -6.3136 -0.5560 12.6463 -6.6030 45.4662 6.2937
# 6 7.7261 17.2518 4.8826 5.5426 6.2937 27.0808
#
#
#
# Elastic Compliance Matrix: (Units=1/GPa)
#
#
# Indices 1 2 3 4 5 6 
#
# 1 0.020936 0.006528 -0.007389 0.007004 0.007724 -0.012028
# 2 0.006528 0.019684 -0.007853 0.012137 0.007476 -0.017208
# 3 -0.007389 -0.007853 0.010844 -0.010982 -0.006983 0.009026
# 4 0.007004 0.012137 -0.010982 0.049203 0.014246 -0.021131
# 5 0.007724 0.007476 -0.006983 0.014246 0.029306 -0.015434
# 6 -0.012028 -0.017208 0.009026 -0.021131 -0.015434 0.057605
#
#
# Mechanical properties :
#
#
# Convention : Reuss Voigt Hill
#
# Bulk Modulus (GPa) = 29.38092 55.11529 42.24810
# Shear Modulus (GPa) = 23.11046 36.87489 29.99268
#
# Velocity S-wave (km/s) = 3.11512 3.93492 3.54877
# Velocity P-wave (km/s) = 5.02748 6.61721 5.87635
#
# Compressibility (1/GPa) = 0.03403570
#
# Stress axis : x y z
#
# Youngs Moduli (GPa) = 47.76441 50.80222 92.21877
#
# Poissons Ratio (x) = -0.33163 0.68143
# Poissons Ratio (y) = -0.31180 0.72416
# Poissons Ratio (z) = 0.35295 0.39893
#
# Static dielectric constant tensor:
#      x y z
#    x 4.192290 -0.145670 0.031900 
#    y -0.145670 3.989600 0.275590 
#    z 0.031900 0.275590 4.297480 
# 
# 
# High freq. dielectric constant tensor:
#      x y z
#    x 1.940960 -0.008660 0.003410 
#    y -0.008660 1.924130 0.015430 
#    z 0.003410 0.015430 1.950960 
# 
# From -- ./inp_files/25435.got.cif
#   From: 2010.06.25/outbox.cif.g09.slc.cpg/sg2_13_cif.got.tgz:25435.got - 2010.06.27 13:26:56.
