data_PCOD8016454
_publ_section_title
;
Structure prediction by ZEFSAII (Michael W. Deem and Ramdas Pophale) SiO2 
 PCOD8016454
Probable space group: P -1
;
_chemical_formula_sum "Si O2"
_cell_formula_units_Z 16
_cell_length_a 14.036675
_cell_length_b 13.698113
_cell_length_c 8.502637
_cell_angle_alpha 136.094392
_cell_angle_beta 135.979151
_cell_angle_gamma 44.552875
_cell_volume 720.819516
_symmetry_space_group_name_H-M "P -1"
_symmetry_group_IT_number 2
_symmetry_cell_setting 'triclinic'
loop_
_space_group_symop_operation_xyz
x,y,z
-x,-y,-z
loop_
_atom_site_type_symbol
_atom_site_label
_atom_site_fract_x
_atom_site_fract_y
_atom_site_fract_z
Si Si1 0.634649 0.935922 0.210419
Si Si2 0.216272 0.578139 0.474939
Si Si3 0.408516 0.911777 0.347256
Si Si4 0.499941 0.595417 0.961596
Si Si5 0.088572 0.111535 0.101030
Si Si6 0.954743 0.882622 0.581194
Si Si7 0.276153 0.413914 0.033291
Si Si8 0.044448 0.433707 0.304986
O O1 0.803458 0.913137 0.335419
O O2 0.601546 0.068028 0.454456
O O3 0.644888 0.771891 0.095845
O O4 0.500000 0.000000 0.000000
O O5 0.342998 0.634639 0.739172
O O6 0.288544 0.473936 0.289207
O O7 0.179068 0.471043 0.434562
O O8 0.075511 0.739173 0.463521
O O9 0.500000 0.000000 0.500000
O O10 0.249452 0.971338 0.140371
O O11 0.510490 0.741715 0.222245
O O12 0.640088 0.522020 0.922042
O O13 0.500000 0.500000 0.000000
O O14 0.042153 0.172359 0.296033
O O15 0.091298 0.249760 0.156124
O O16 0.982385 0.040080 0.806055
O O17 0.099400 0.480336 0.873502
O O18 0.000000 0.500000 0.500000
#
# Coordination Sequence:
#
# PCOD8016454 Si02
#       8
#     2   2   2   2   2   2   2   2
#     4  11  25  44  72 105 147 190 233 291 370 432
#     4  12  25  47  71 101 151 188 231 309 357 424
#     4  11  23  45  71 100 139 183 242 298 348 425
#     4  12  28  46  76 105 139 195 247 297 363 424
#     4  10  22  41  73 105 137 176 245 306 344 411
#     4  10  21  44  71 105 139 185 239 300 349 417
#     4  12  27  48  66 107 151 185 236 299 365 434
#     4  12  23  43  77 104 135 187 249 290 355 429
#
# _framework density 22.196957999999999
#
# number of rings (size 3 to 8) (size 9 to 14) (size 15 to 20)
#    0.000    0.750    5.000    2.250    3.500    0.000 
#    2.250    0.625    0.000    0.000    0.000    0.000 
#    0.000    0.000    0.000    0.000    0.000    0.000 
#
# Total GULP energy -198269.053691 kJ/mol
# GULP energy per Si atom -12391.815856 kJ/mol
# Density = 2.214644 g / cm^3
# Si number density = 22.196958 Si / 1000 Ang^3
#
#
#
# Elastic Constant Matrix: (Units=GPa)
#
#
# Indices 1 2 3 4 5 6 
#
# 1 105.8193 9.4601 34.9787 19.3036 -6.3978 -9.1213
# 2 9.4601 64.7745 41.4885 4.0984 -10.6350 3.6255
# 3 34.9787 41.4885 123.1683 0.2714 8.3777 -1.5840
# 4 19.3036 4.0984 0.2714 44.0892 -5.3898 6.8216
# 5 -6.3978 -10.6350 8.3777 -5.3898 34.5439 1.7770
# 6 -9.1213 3.6255 -1.5840 6.8216 1.7770 34.0489
#
#
#
# Elastic Compliance Matrix: (Units=1/GPa)
#
#
# Indices 1 2 3 4 5 6 
#
# 1 0.012206 0.001366 -0.004037 -0.005745 0.002560 0.003954
# 2 0.001366 0.022503 -0.008629 -0.001090 0.009242 -0.002696
# 3 -0.004037 -0.008629 0.012597 0.001668 -0.006220 0.000414
# 4 -0.005745 -0.001090 0.001668 0.026676 0.002710 -0.006831
# 5 0.002560 0.009242 -0.006220 0.002710 0.034350 -0.002923
# 6 0.003954 -0.002696 0.000414 -0.006831 -0.002923 0.032256
#
#
# Mechanical properties :
#
#
# Convention : Reuss Voigt Hill
#
# Bulk Modulus (GPa) = 40.47695 51.73517 46.10606
# Shear Modulus (GPa) = 29.16765 36.39205 32.77985
#
# Velocity S-wave (km/s) = 3.62890 4.05347 3.84705
# Velocity P-wave (km/s) = 5.98611 6.72796 6.36785
#
# Compressibility (1/GPa) = 0.02470542
#
# Stress axis : x y z
#
# Youngs Moduli (GPa) = 81.92626 44.43921 79.38583
#
# Poissons Ratio (x) = -0.06069 0.32049
# Poissons Ratio (y) = -0.11189 0.68499
# Poissons Ratio (z) = 0.33074 0.38345
#
# Static dielectric constant tensor:
#      x y z
#    x 2.787150 0.162210 -0.188820 
#    y 0.162210 3.749430 0.255000 
#    z -0.188820 0.255000 3.915460 
# 
# 
# High freq. dielectric constant tensor:
#      x y z
#    x 1.870120 -0.013210 0.013700 
#    y -0.013210 1.867270 0.010180 
#    z 0.013700 0.010180 1.888970 
# 
# From -- ./inp_files/316131.got.cif
#   From: 2010.06.25/outbox.cif.g09.slc.cpg/sg2_159_cif.got.tgz:316131.got - 2010.06.27 13:26:56.
