data_PCOD8016456
_publ_section_title
;
Structure prediction by ZEFSAII (Michael W. Deem and Ramdas Pophale) SiO2 
 PCOD8016456
Probable space group: P -1
;
_chemical_formula_sum "Si O2"
_cell_formula_units_Z 16
_cell_length_a 25.401647
_cell_length_b 9.144298
_cell_length_c 10.242069
_cell_angle_alpha 140.149785
_cell_angle_beta 144.141472
_cell_angle_gamma 36.018431
_cell_volume 774.815536
_symmetry_space_group_name_H-M "P -1"
_symmetry_group_IT_number 2
_symmetry_cell_setting 'triclinic'
loop_
_space_group_symop_operation_xyz
x,y,z
-x,-y,-z
loop_
_atom_site_type_symbol
_atom_site_label
_atom_site_fract_x
_atom_site_fract_y
_atom_site_fract_z
Si Si1 0.408734 0.580078 0.236345
Si Si2 0.314390 0.111704 0.910036
Si Si3 0.052983 0.081745 0.271702
Si Si4 0.595558 0.082974 0.321393
Si Si5 0.728899 0.517617 0.279684
Si Si6 0.254194 0.700851 0.556353
Si Si7 0.563313 0.754294 0.550697
Si Si8 0.126380 0.480922 0.638936
O O1 0.469732 0.261987 0.173186
O O2 0.369542 0.737669 0.401517
O O3 0.489275 0.643967 0.370374
O O4 0.310680 0.653066 0.998066
O O5 0.213019 0.393458 0.868185
O O6 0.351710 0.968806 0.747975
O O7 0.285295 0.922703 0.804553
O O8 0.398866 0.152469 0.183350
O O9 0.093184 0.260437 0.406287
O O10 0.971075 0.240119 0.329965
O O11 0.146597 0.823184 0.346533
O O12 0.000000 0.000000 0.000000
O O13 0.632262 0.816976 0.295275
O O14 0.761446 0.410597 0.416026
O O15 0.828816 0.496967 0.395313
O O16 0.340064 0.465199 0.483509
O O17 0.500000 0.000000 0.500000
#
# Coordination Sequence:
#
# PCOD8016456 Si02
#       8
#     2   2   2   2   2   2   2   2
#     4  11  24  36  60  88 124 174 214 246 299 356
#     4  10  22  40  63  86 127 162 212 258 293 365
#     4  10  21  44  71  89 116 153 205 259 311 377
#     4  10  23  37  57  86 118 168 216 247 293 349
#     4  11  24  40  60  90 134 157 201 260 303 363
#     4  11  24  41  62  92 124 170 203 250 320 360
#     4  12  25  37  58  92 130 172 215 247 296 362
#     4   9  22  40  65  95 113 154 203 256 314 365
#
# _framework density 20.650079000000002
#
# number of rings (size 3 to 8) (size 9 to 14) (size 15 to 20)
#    0.000    1.500    1.250    2.625   10.500    4.500 
#    0.000    0.625    0.000    0.000    0.000    0.000 
#    0.000    0.000    0.000    0.000    0.000    0.000 
#
# Total GULP energy -198413.157262 kJ/mol
# GULP energy per Si atom -12400.822329 kJ/mol
# Density = 2.060308 g / cm^3
# Si number density = 20.650079 Si / 1000 Ang^3
#
#
#
# Elastic Constant Matrix: (Units=GPa)
#
#
# Indices 1 2 3 4 5 6 
#
# 1 145.1374 60.0514 57.0658 -1.3237 -7.8743 6.9724
# 2 60.0514 120.5508 39.5496 -6.3139 -3.2140 -0.1617
# 3 57.0658 39.5496 105.4272 -18.8805 0.5648 -2.2402
# 4 -1.3237 -6.3139 -18.8805 21.5067 -2.2171 -1.8379
# 5 -7.8743 -3.2140 0.5648 -2.2171 20.8017 -0.8596
# 6 6.9724 -0.1617 -2.2402 -1.8379 -0.8596 35.9291
#
#
#
# Elastic Compliance Matrix: (Units=1/GPa)
#
#
# Indices 1 2 3 4 5 6 
#
# 1 0.010848 -0.003814 -0.005434 -0.005139 0.003007 -0.002652
# 2 -0.003814 0.010853 -0.001713 0.001563 0.000478 0.000773
# 3 -0.005434 -0.001713 0.015424 0.012797 -0.001268 0.002633
# 4 -0.005139 0.001563 0.012797 0.058749 0.004413 0.004913
# 5 0.003007 0.000478 -0.001268 0.004413 0.049821 0.000757
# 6 -0.002652 0.000773 0.002633 0.004913 0.000757 0.028784
#
#
# Mechanical properties :
#
#
# Convention : Reuss Voigt Hill
#
# Bulk Modulus (GPa) = 65.77748 76.04987 70.91367
# Shear Modulus (GPa) = 24.81766 29.94408 27.38087
#
# Velocity S-wave (km/s) = 3.47049 3.81211 3.64530
# Velocity P-wave (km/s) = 6.92687 7.50227 7.22031
#
# Compressibility (1/GPa) = 0.01520277
#
# Stress axis : x y z
#
# Youngs Moduli (GPa) = 92.18043 92.14273 64.83464
#
# Poissons Ratio (x) = 0.35141 0.35232
# Poissons Ratio (y) = 0.35155 0.11108
# Poissons Ratio (z) = 0.50092 0.15786
#
# Static dielectric constant tensor:
#      x y z
#    x 3.744580 -0.069120 0.035990 
#    y -0.069120 4.049940 0.092970 
#    z 0.035990 0.092970 3.708160 
# 
# 
# High freq. dielectric constant tensor:
#      x y z
#    x 1.807820 0.000380 0.000110 
#    y 0.000380 1.810530 0.007920 
#    z 0.000110 0.007920 1.807860 
# 
# From -- ./inp_files/38870.got.cif
#   From: 2010.06.25/outbox.cif.g09.slc.cpg/sg2_20_cif.got.tgz:38870.got - 2010.06.27 13:26:56.
