data_PCOD8016269
_publ_section_title
;
Structure prediction by ZEFSAII (Michael W. Deem and Ramdas Pophale) SiO2 
 PCOD8016269
Probable space group: P -1
;
_chemical_formula_sum "Si O2"
_cell_formula_units_Z 14
_cell_length_a 8.614201
_cell_length_b 8.999395
_cell_length_c 21.421229
_cell_angle_alpha 46.521700
_cell_angle_beta 33.407484
_cell_angle_gamma 49.667673
_cell_volume 652.350831
_symmetry_space_group_name_H-M "P -1"
_symmetry_group_IT_number 2
_symmetry_cell_setting 'triclinic'
loop_
_space_group_symop_operation_xyz
x,y,z
-x,-y,-z
loop_
_atom_site_type_symbol
_atom_site_label
_atom_site_fract_x
_atom_site_fract_y
_atom_site_fract_z
Si Si1 0.907636 0.843118 0.626719
Si Si2 0.349062 0.736821 0.620114
Si Si3 0.098597 0.155744 0.635943
Si Si4 0.617260 0.622069 0.979764
Si Si5 0.283290 0.576122 0.224093
Si Si6 0.410329 0.978755 0.206477
Si Si7 0.233003 0.406393 0.843474
O O1 0.836587 0.638791 0.676320
O O2 0.171485 0.791924 0.600517
O O3 0.618140 0.938683 0.736396
O O4 0.000000 0.000000 0.500000
O O5 0.687208 0.699132 0.503290
O O6 0.279284 0.524233 0.730334
O O7 0.271571 0.917223 0.647128
O O8 0.976589 0.242090 0.719092
O O9 0.825742 0.171412 0.677096
O O10 0.904881 0.483143 0.952540
O O11 0.673074 0.838812 0.869770
O O12 0.500000 0.500000 0.000000
O O13 0.376971 0.658361 0.103056
O O14 0.556050 0.546354 0.186895
O O15 0.714591 0.837540 0.125533
#
# Coordination Sequence:
#
# PCOD8016269 Si02
#       7
#     2   2   2   2   2   2   2
#     4  11  24  42  62  99 139 167 217 272 327 392
#     4  10  21  44  65  94 139 172 209 272 336 385
#     4   9  21  39  66  95 125 176 214 264 329 378
#     4  12  23  49  65  91 143 168 221 270 326 388
#     4  11  25  41  66 101 127 174 222 274 315 389
#     4  10  23  44  67  95 129 182 211 268 334 385
#     4  11  24  42  71  96 125 177 224 264 330 384
#
# _framework density 21.460846
#
# number of rings (size 3 to 8) (size 9 to 14) (size 15 to 20)
#    0.000    1.429    4.286    0.429    8.000    4.571 
#    5.143    0.000    0.000    0.000    0.000    0.000 
#    0.000    0.000    0.000    0.000    0.000    0.000 
#
# Total GULP energy -173519.218907 kJ/mol
# GULP energy per Si atom -12394.229922 kJ/mol
# Density = 2.141200 g / cm^3
# Si number density = 21.460846 Si / 1000 Ang^3
#
#
#
# Elastic Constant Matrix: (Units=GPa)
#
#
# Indices 1 2 3 4 5 6 
#
# 1 89.8503 45.7356 38.9345 -0.7497 9.9526 12.8120
# 2 45.7356 124.6407 49.8138 25.4589 4.9583 9.5783
# 3 38.9345 49.8138 121.2076 19.0348 12.9918 5.6537
# 4 -0.7497 25.4589 19.0348 38.5555 3.0077 5.1274
# 5 9.9526 4.9583 12.9918 3.0077 37.7135 -2.8589
# 6 12.8120 9.5783 5.6537 5.1274 -2.8589 31.1104
#
#
#
# Elastic Compliance Matrix: (Units=1/GPa)
#
#
# Indices 1 2 3 4 5 6 
#
# 1 0.016772 -0.005532 -0.003527 0.006790 -0.003480 -0.006002
# 2 -0.005532 0.012401 -0.002318 -0.007273 0.001222 0.000192
# 3 -0.003527 -0.002318 0.011171 -0.003955 -0.002253 0.000581
# 4 0.006790 -0.007273 -0.003955 0.033777 -0.002595 -0.005644
# 5 -0.003480 0.001222 -0.002253 -0.002595 0.028599 0.004522
# 6 -0.006002 0.000192 0.000581 -0.005644 0.004522 0.035796
#
#
# Mechanical properties :
#
#
# Convention : Reuss Voigt Hill
#
# Bulk Modulus (GPa) = 56.84670 67.18517 62.01594
# Shear Modulus (GPa) = 29.91612 34.89021 32.40317
#
# Velocity S-wave (km/s) = 3.73766 4.03645 3.88992
# Velocity P-wave (km/s) = 6.72108 7.28682 7.00966
#
# Compressibility (1/GPa) = 0.01759117
#
# Stress axis : x y z
#
# Youngs Moduli (GPa) = 59.62363 80.63667 89.51437
#
# Poissons Ratio (x) = 0.44606 0.31575
# Poissons Ratio (y) = 0.32982 0.20745
# Poissons Ratio (z) = 0.21032 0.18688
#
# Static dielectric constant tensor:
#      x y z
#    x 6.975570 -1.451640 3.870690 
#    y -1.451640 4.916820 -1.703240 
#    z 3.870690 -1.703240 8.796390 
# 
# 
# High freq. dielectric constant tensor:
#      x y z
#    x 1.823330 0.012500 -0.007220 
#    y 0.012500 1.846790 0.009310 
#    z -0.007220 0.009310 1.851420 
# 
# From -- ./inp_files/178547.got.cif
#   From: 2010.06.25/outbox.cif.g09.slc.cpg/sg2_90_cif.got.tgz:178547.got - 2010.06.27 13:26:56.
