data_PCOD8016682
_publ_section_title
;
Structure prediction by ZEFSAII (Michael W. Deem and Ramdas Pophale) SiO2 
 PCOD8016682
Probable space group: P -1
;
_chemical_formula_sum "Si O2"
_cell_formula_units_Z 14
_cell_length_a 11.029461
_cell_length_b 18.236188
_cell_length_c 13.556102
_cell_angle_alpha 34.074435
_cell_angle_beta 36.251386
_cell_angle_gamma 25.727490
_cell_volume 642.476527
_symmetry_space_group_name_H-M "P -1"
_symmetry_group_IT_number 2
_symmetry_cell_setting 'triclinic'
loop_
_space_group_symop_operation_xyz
x,y,z
-x,-y,-z
loop_
_atom_site_type_symbol
_atom_site_label
_atom_site_fract_x
_atom_site_fract_y
_atom_site_fract_z
Si Si1 0.075705 0.843846 0.056238
Si Si2 0.625485 0.442002 0.590405
Si Si3 0.803513 0.641061 0.213594
Si Si4 0.805109 0.110837 0.410389
Si Si5 0.685774 0.459530 0.117137
Si Si6 0.803668 0.104237 0.777298
Si Si7 0.180286 0.299932 0.645750
O O1 0.415031 0.660412 0.026387
O O2 0.931522 0.772818 0.264936
O O3 0.000000 0.000000 0.000000
O O4 0.931214 0.926869 0.951888
O O5 0.500000 0.500000 0.500000
O O6 0.818431 0.486277 0.421643
O O7 0.372375 0.544727 0.723868
O O8 0.800902 0.227557 0.719219
O O9 0.499255 0.799960 0.181081
O O10 0.853207 0.705811 0.206890
O O11 0.042995 0.568098 0.054793
O O12 0.747304 0.288847 0.221363
O O13 0.512789 0.165605 0.555183
O O14 0.000000 0.000000 0.500000
O O15 0.969924 0.962242 0.381268
O O16 0.000000 0.500000 0.500000
#
# Coordination Sequence:
#
# PCOD8016682 Si02
#       7
#     2   2   2   2   2   2   2
#     4  12  27  48  68 106 152 193 242 304 362 436
#     4  10  21  46  68 102 148 184 234 304 358 425
#     4  11  25  45  76 108 139 196 248 299 369 428
#     4  12  24  45  75 108 144 190 247 302 364 433
#     4  12  25  46  74 102 149 189 248 293 364 439
#     4  11  25  44  70 106 150 186 246 308 355 436
#     4  12  25  46  75 104 149 195 242 304 365 430
#
# _framework density 21.790679000000001
#
# number of rings (size 3 to 8) (size 9 to 14) (size 15 to 20)
#    0.000    0.571    5.714    1.714    4.000    5.714 
#    0.000    1.429    0.000    0.000    0.000    0.000 
#    0.000    0.000    0.000    0.000    0.000    0.000 
#
# Total GULP energy -173466.514403 kJ/mol
# GULP energy per Si atom -12390.465315 kJ/mol
# Density = 2.174108 g / cm^3
# Si number density = 21.790679 Si / 1000 Ang^3
#
#
#
# Elastic Constant Matrix: (Units=GPa)
#
#
# Indices 1 2 3 4 5 6 
#
# 1 89.0410 45.4748 48.1518 6.7347 -12.3080 3.6214
# 2 45.4748 144.3515 62.1705 14.8890 -6.1042 -9.3003
# 3 48.1518 62.1705 143.2747 22.6240 -3.1223 4.7936
# 4 6.7347 14.8890 22.6240 55.4593 0.5556 8.6610
# 5 -12.3080 -6.1042 -3.1223 0.5556 38.4670 -6.8924
# 6 3.6214 -9.3003 4.7936 8.6610 -6.8924 39.8509
#
#
#
# Elastic Compliance Matrix: (Units=1/GPa)
#
#
# Indices 1 2 3 4 5 6 
#
# 1 0.015456 -0.003222 -0.003779 0.000673 0.003908 -0.001172
# 2 -0.003222 0.009624 -0.002946 -0.001527 0.000885 0.003378
# 3 -0.003779 -0.002946 0.009958 -0.002622 -0.001037 -0.001151
# 4 0.000673 -0.001527 -0.002622 0.020181 -0.001378 -0.004727
# 5 0.003908 0.000885 -0.001037 -0.001378 0.028248 0.005161
# 6 -0.001172 0.003378 -0.001151 -0.004727 0.005161 0.028047
#
#
# Mechanical properties :
#
#
# Convention : Reuss Voigt Hill
#
# Bulk Modulus (GPa) = 66.02466 76.47351 71.24908
# Shear Modulus (GPa) = 36.64236 41.48012 39.06124
#
# Velocity S-wave (km/s) = 4.10513 4.36773 4.23846
# Velocity P-wave (km/s) = 7.26875 7.78504 7.53132
#
# Compressibility (1/GPa) = 0.01514586
#
# Stress axis : x y z
#
# Youngs Moduli (GPa) = 64.69809 103.90991 100.42364
#
# Poissons Ratio (x) = 0.33475 0.37946
# Poissons Ratio (y) = 0.20843 0.29584
# Poissons Ratio (z) = 0.24447 0.30611
#
# Static dielectric constant tensor:
#      x y z
#    x 4.194340 0.352550 -0.188620 
#    y 0.352550 5.282160 -1.477390 
#    z -0.188620 -1.477390 5.433020 
# 
# 
# High freq. dielectric constant tensor:
#      x y z
#    x 1.862660 0.001990 0.008750 
#    y 0.001990 1.861390 -0.014910 
#    z 0.008750 -0.014910 1.867270 
# 
# From -- ./inp_files/524030.got.cif
#   From: 2010.06.25/outbox.cif.g09.slc.cpg/sg2_263_cif.got.tgz:524030.got - 2010.06.27 13:26:56.
