data_PCOD8016230
_publ_section_title
;
Structure prediction by ZEFSAII (Michael W. Deem and Ramdas Pophale) SiO2 
 PCOD8016230
Probable space group: P -1
;
_chemical_formula_sum "Si O2"
_cell_formula_units_Z 14
_cell_length_a 21.624587
_cell_length_b 15.648728
_cell_length_c 11.898583
_cell_angle_alpha 38.242470
_cell_angle_beta 26.770096
_cell_angle_gamma 21.110430
_cell_volume 624.550979
_symmetry_space_group_name_H-M "P -1"
_symmetry_group_IT_number 2
_symmetry_cell_setting 'triclinic'
loop_
_space_group_symop_operation_xyz
x,y,z
-x,-y,-z
loop_
_atom_site_type_symbol
_atom_site_label
_atom_site_fract_x
_atom_site_fract_y
_atom_site_fract_z
Si Si1 0.276025 0.586791 0.736901
Si Si2 0.602514 0.815350 0.619962
Si Si3 0.174139 0.364535 0.173110
Si Si4 0.453541 0.059689 0.827500
Si Si5 0.896691 0.081918 0.959070
Si Si6 0.291909 0.560142 0.260792
Si Si7 0.636963 0.560453 0.495685
O O1 0.500000 0.500000 0.500000
O O2 0.244599 0.611909 0.626923
O O3 0.312798 0.398146 0.913120
O O4 0.021075 0.852658 0.927522
O O5 0.582381 0.675237 0.759850
O O6 0.883196 0.624434 0.390047
O O7 0.500000 0.000000 0.500000
O O8 0.437471 0.967417 0.844139
O O9 0.285982 0.181666 0.282064
O O10 0.229759 0.235674 0.098782
O O11 0.444482 0.216618 0.625030
O O12 0.608055 0.311639 0.202566
O O13 0.929155 0.194709 0.713669
O O14 0.000000 0.000000 0.000000
O O15 0.186659 0.602061 0.512163
O O16 0.500000 0.500000 0.000000
#
# Coordination Sequence:
#
# PCOD8016230 Si02
#       7
#     2   2   2   2   2   2   2
#     4  11  23  40  67  97 128 172 218 271 328 383
#     4  12  24  43  70  93 133 178 216 267 338 389
#     4  10  25  40  67 102 126 171 230 269 326 388
#     4  10  22  43  67  93 133 166 225 278 318 389
#     4  11  23  38  65  91 129 166 214 266 322 381
#     4  10  25  43  63  97 131 170 217 264 326 390
#     4  10  21  44  61  93 132 166 217 272 318 393
#
# _framework density 22.416104000000001
#
# number of rings (size 3 to 8) (size 9 to 14) (size 15 to 20)
#    0.000    1.429    2.857    1.286    6.000    2.286 
#    0.000    0.000    0.000    0.000    0.000    0.000 
#    0.000    0.000    0.000    0.000    0.000    0.000 
#
# Total GULP energy -173490.296811 kJ/mol
# GULP energy per Si atom -12392.164058 kJ/mol
# Density = 2.236508 g / cm^3
# Si number density = 22.416104 Si / 1000 Ang^3
#
#
#
# Elastic Constant Matrix: (Units=GPa)
#
#
# Indices 1 2 3 4 5 6 
#
# 1 178.8394 75.9961 35.5385 -21.5810 45.9721 12.7120
# 2 75.9961 122.6675 20.3093 -19.0637 27.9847 -6.5982
# 3 35.5385 20.3093 46.3818 -8.9700 11.8359 3.5730
# 4 -21.5810 -19.0637 -8.9700 38.2133 2.5275 11.5400
# 5 45.9721 27.9847 11.8359 2.5275 48.3567 -5.4680
# 6 12.7120 -6.5982 3.5730 11.5400 -5.4680 57.9285
#
#
#
# Elastic Compliance Matrix: (Units=1/GPa)
#
#
# Indices 1 2 3 4 5 6 
#
# 1 0.010907 -0.003750 -0.003229 0.005425 -0.008198 -0.004476
# 2 -0.003750 0.011962 -0.000991 0.003444 -0.003152 0.001263
# 3 -0.003229 -0.000991 0.026426 0.004802 -0.003336 -0.002306
# 4 0.005425 0.003444 0.004802 0.035614 -0.011233 -0.009249
# 5 -0.008198 -0.003152 -0.003336 -0.011233 0.032488 0.006950
# 6 -0.004476 0.001263 -0.002306 -0.009249 0.006950 0.021030
#
#
# Mechanical properties :
#
#
# Convention : Reuss Voigt Hill
#
# Bulk Modulus (GPa) = 29.98134 67.95295 48.96715
# Shear Modulus (GPa) = 30.21423 43.30269 36.75846
#
# Velocity S-wave (km/s) = 3.67533 4.39996 4.05387
# Velocity P-wave (km/s) = 5.60488 7.49620 6.61845
#
# Compressibility (1/GPa) = 0.03335408
#
# Stress axis : x y z
#
# Youngs Moduli (GPa) = 91.68367 83.60034 37.84140
#
# Poissons Ratio (x) = 0.31350 0.12219
# Poissons Ratio (y) = 0.34381 0.03751
# Poissons Ratio (z) = 0.29605 0.08288
#
# Static dielectric constant tensor:
#      x y z
#    x 4.342820 0.046920 0.472330 
#    y 0.046920 4.249280 -0.297170 
#    z 0.472330 -0.297170 3.899240 
# 
# 
# High freq. dielectric constant tensor:
#      x y z
#    x 1.900680 -0.000460 0.026600 
#    y -0.000460 1.894110 -0.015460 
#    z 0.026600 -0.015460 1.860840 
# 
# From -- ./inp_files/243465.got.cif
#   From: 2010.06.25/outbox.cif.g09.slc.cpg/sg2_122_cif.got.tgz:243465.got - 2010.06.27 13:26:56.
