data_PCOD8016556
_publ_section_title
;
Structure prediction by ZEFSAII (Michael W. Deem and Ramdas Pophale) SiO2 
 PCOD8016556
Probable space group: P -1
;
_chemical_formula_sum "Si O2"
_cell_formula_units_Z 16
_cell_length_a 14.673328
_cell_length_b 9.424539
_cell_length_c 14.616773
_cell_angle_alpha 114.405202
_cell_angle_beta 28.384435
_cell_angle_gamma 95.060720
_cell_volume 675.317220
_symmetry_space_group_name_H-M "P -1"
_symmetry_group_IT_number 2
_symmetry_cell_setting 'triclinic'
loop_
_space_group_symop_operation_xyz
x,y,z
-x,-y,-z
loop_
_atom_site_type_symbol
_atom_site_label
_atom_site_fract_x
_atom_site_fract_y
_atom_site_fract_z
Si Si1 0.374078 0.175972 0.484250
Si Si2 0.640794 0.536914 0.314034
Si Si3 0.241276 0.772924 0.221668
Si Si4 0.988297 0.375191 0.724785
Si Si5 0.287564 0.801107 0.925562
Si Si6 0.468881 0.227278 0.697277
Si Si7 0.316070 0.403096 0.331049
Si Si8 0.827282 0.211684 0.509969
O O1 0.228285 0.387952 0.726840
O O2 0.631795 0.121772 0.205583
O O3 0.195768 0.207801 0.568902
O O4 0.458655 0.992825 0.428159
O O5 0.500000 0.500000 0.500000
O O6 0.817278 0.316152 0.047993
O O7 0.468746 0.715845 0.438026
O O8 0.199050 0.662902 0.152299
O O9 0.280259 0.694383 0.269472
O O10 0.488572 0.737182 0.960498
O O11 0.000000 0.000000 0.500000
O O12 0.131978 0.354791 0.500275
O O13 0.824432 0.597097 0.974472
O O14 0.538311 0.633033 0.713925
O O15 0.087479 0.984780 0.217676
O O16 0.621947 0.218296 0.642706
O O17 0.138321 0.639592 0.528135
#
# Coordination Sequence:
#
# PCOD8016556 Si02
#       8
#     2   2   2   2   2   2   2   2
#     4  10  24  44  68 101 136 176 228 289 338 405
#     4  10  22  45  73  98 136 179 226 281 351 409
#     4  12  24  44  67 101 138 184 229 278 342 405
#     4  11  26  46  70 100 140 183 228 282 341 402
#     4  10  21  45  66  99 136 181 227 280 345 405
#     4  12  24  43  69 102 140 176 232 281 340 411
#     4  11  23  45  68  98 140 180 231 284 334 404
#     4  12  24  41  72  96 140 183 226 282 341 401
#
# _framework density 23.692568999999999
#
# number of rings (size 3 to 8) (size 9 to 14) (size 15 to 20)
#    0.000    1.000    3.750    2.250    1.750    1.500 
#    4.500    1.250    0.000    0.000    0.000    0.000 
#    0.000    0.000    0.000    0.000    0.000    0.000 
#
# Total GULP energy -198265.488169 kJ/mol
# GULP energy per Si atom -12391.593011 kJ/mol
# Density = 2.363864 g / cm^3
# Si number density = 23.692569 Si / 1000 Ang^3
#
#
#
# Elastic Constant Matrix: (Units=GPa)
#
#
# Indices 1 2 3 4 5 6 
#
# 1 97.0290 30.8328 3.9042 1.3277 9.3674 -10.7088
# 2 30.8328 144.1649 28.6130 3.9762 6.2245 -26.4799
# 3 3.9042 28.6130 77.8996 0.1330 12.6649 -7.1265
# 4 1.3277 3.9762 0.1330 34.1602 2.4823 3.6754
# 5 9.3674 6.2245 12.6649 2.4823 29.1681 2.4520
# 6 -10.7088 -26.4799 -7.1265 3.6754 2.4520 32.7058
#
#
#
# Elastic Compliance Matrix: (Units=1/GPa)
#
#
# Indices 1 2 3 4 5 6 
#
# 1 0.011588 -0.002011 0.001050 -0.000225 -0.003958 0.002717
# 2 -0.002011 0.009120 -0.002566 -0.001619 -0.000586 0.006392
# 3 0.001050 -0.002566 0.014961 0.000460 -0.006490 0.001961
# 4 -0.000225 -0.001619 0.000460 0.030098 -0.001964 -0.004519
# 5 -0.003958 -0.000586 -0.006490 -0.001964 0.039161 -0.005899
# 6 0.002717 0.006392 0.001961 -0.004519 -0.005899 0.038018
#
#
# Mechanical properties :
#
#
# Convention : Reuss Voigt Hill
#
# Bulk Modulus (GPa) = 34.94660 49.53260 42.23960
# Shear Modulus (GPa) = 31.34068 36.25641 33.79855
#
# Velocity S-wave (km/s) = 3.64099 3.91613 3.78106
# Velocity P-wave (km/s) = 5.69717 6.43427 6.07691
#
# Compressibility (1/GPa) = 0.02861509
#
# Stress axis : x y z
#
# Youngs Moduli (GPa) = 86.29705 109.65087 66.84188
#
# Poissons Ratio (x) = 0.22046 -0.07019
# Poissons Ratio (y) = 0.17351 0.17153
# Poissons Ratio (z) = -0.09062 0.28139
#
# Static dielectric constant tensor:
#      x y z
#    x 4.715590 -0.107090 0.657960 
#    y -0.107090 4.562250 0.119660 
#    z 0.657960 0.119660 4.682100 
# 
# 
# High freq. dielectric constant tensor:
#      x y z
#    x 1.931540 -0.017190 0.016130 
#    y -0.017190 1.954700 -0.000500 
#    z 0.016130 -0.000500 1.927620 
# 
# From -- ./inp_files/529955.got.cif
#   From: 2010.06.25/outbox.cif.g09.slc.cpg/sg2_265_cif.got.tgz:529955.got - 2010.06.27 13:26:56.
