data_PCOD8016460
_publ_section_title
;
Structure prediction by ZEFSAII (Michael W. Deem and Ramdas Pophale) SiO2 
 PCOD8016460
Probable space group: P -1
;
_chemical_formula_sum "Si O2"
_cell_formula_units_Z 16
_cell_length_a 11.932860
_cell_length_b 13.766460
_cell_length_c 8.194428
_cell_angle_alpha 72.727627
_cell_angle_beta 33.901870
_cell_angle_gamma 70.676418
_cell_volume 707.898722
_symmetry_space_group_name_H-M "P -1"
_symmetry_group_IT_number 2
_symmetry_cell_setting 'triclinic'
loop_
_space_group_symop_operation_xyz
x,y,z
-x,-y,-z
loop_
_atom_site_type_symbol
_atom_site_label
_atom_site_fract_x
_atom_site_fract_y
_atom_site_fract_z
Si Si1 0.150022 0.842092 0.354962
Si Si2 0.126680 0.100556 0.053860
Si Si3 0.654965 0.600683 0.601906
Si Si4 0.945171 0.920439 0.246355
Si Si5 0.999267 0.720770 0.085244
Si Si6 0.556800 0.379880 0.481927
Si Si7 0.377125 0.632431 0.236969
Si Si8 0.486053 0.967905 0.848465
O O1 0.178703 0.718315 0.400728
O O2 0.062456 0.899472 0.596059
O O3 0.983567 0.891098 0.402913
O O4 0.373007 0.868344 0.028462
O O5 0.128439 0.217758 0.938853
O O6 0.065469 0.022868 0.020201
O O7 0.349407 0.061892 0.872700
O O8 0.863755 0.642894 0.366676
O O9 0.559267 0.654162 0.521399
O O10 0.700119 0.476948 0.592551
O O11 0.518151 0.631892 0.909297
O O12 0.049665 0.813700 0.090833
O O13 0.700698 0.943488 0.507741
O O14 0.203621 0.651313 0.816444
O O15 0.500000 0.500000 0.500000
O O16 0.511010 0.339167 0.741634
O O17 0.500000 0.000000 0.000000
#
# Coordination Sequence:
#
# PCOD8016460 Si02
#       8
#     2   2   2   2   2   2   2   2
#     4  11  20  39  63  93 125 172 219 267 325 392
#     4  11  23  39  62  93 130 171 214 269 326 388
#     4  10  24  45  66 100 134 168 226 281 323 401
#     4  11  23  40  63  93 132 172 216 273 326 394
#     4  12  25  43  65  98 134 173 220 271 337 392
#     4  10  23  45  69  97 133 173 219 277 332 390
#     4  10  21  44  71  93 134 177 217 277 339 384
#     4  11  20  37  63  91 128 165 221 268 313 392
#
# _framework density 22.602104000000001
#
# number of rings (size 3 to 8) (size 9 to 14) (size 15 to 20)
#    0.000    1.250    3.750    2.625    0.000    5.500 
#    2.250   10.000    0.000    0.000    0.000    0.000 
#    0.000    0.000    0.000    0.000    0.000    0.000 
#
# Total GULP energy -198250.417276 kJ/mol
# GULP energy per Si atom -12390.651080 kJ/mol
# Density = 2.255066 g / cm^3
# Si number density = 22.602104 Si / 1000 Ang^3
#
#
#
# Elastic Constant Matrix: (Units=GPa)
#
#
# Indices 1 2 3 4 5 6 
#
# 1 88.7506 40.5373 50.4754 4.1636 -1.4550 8.5805
# 2 40.5373 132.6492 51.8544 13.8742 -8.4258 -12.5880
# 3 50.4754 51.8544 96.0115 11.9117 1.5028 3.9885
# 4 4.1636 13.8742 11.9117 37.7609 -2.2416 0.1508
# 5 -1.4550 -8.4258 1.5028 -2.2416 31.8959 11.9236
# 6 8.5805 -12.5880 3.9885 0.1508 11.9236 24.4432
#
#
#
# Elastic Compliance Matrix: (Units=1/GPa)
#
#
# Indices 1 2 3 4 5 6 
#
# 1 0.017851 -0.003275 -0.007551 0.001865 0.003611 -0.008494
# 2 -0.003275 0.011222 -0.004357 -0.002419 -0.000014 0.007662
# 3 -0.007551 -0.004357 0.017214 -0.003110 -0.001999 -0.001408
# 4 0.001865 -0.002419 -0.003110 0.028315 0.002652 -0.002862
# 5 0.003611 -0.000014 -0.001999 0.002652 0.039326 -0.020148
# 6 -0.008494 0.007662 -0.001408 -0.002862 -0.020148 0.057915
#
#
# Mechanical properties :
#
#
# Convention : Reuss Voigt Hill
#
# Bulk Modulus (GPa) = 62.81133 67.01617 64.91375
# Shear Modulus (GPa) = 24.09471 30.45629 27.27550
#
# Velocity S-wave (km/s) = 3.26857 3.67481 3.47763
# Velocity P-wave (km/s) = 6.48807 6.90800 6.70132
#
# Compressibility (1/GPa) = 0.01592069
#
# Stress axis : x y z
#
# Youngs Moduli (GPa) = 56.02005 89.11109 58.09343
#
# Poissons Ratio (x) = 0.29186 0.43865
# Poissons Ratio (y) = 0.18348 0.25311
# Poissons Ratio (z) = 0.42299 0.38825
#
# Static dielectric constant tensor:
#      x y z
#    x 4.676980 -0.183550 0.409970 
#    y -0.183550 4.153080 -0.061670 
#    z 0.409970 -0.061670 4.038790 
# 
# 
# High freq. dielectric constant tensor:
#      x y z
#    x 1.910900 -0.008520 0.028120 
#    y -0.008520 1.904820 0.011770 
#    z 0.028120 0.011770 1.877680 
# 
# From -- ./inp_files/272294.got.cif
#   From: 2010.06.25/outbox.cif.g09.slc.cpg/sg2_137_cif.got.tgz:272294.got - 2010.06.27 13:26:56.
