data_PCOD8016824
_publ_section_title
;
Structure prediction by ZEFSAII (Michael W. Deem and Ramdas Pophale) SiO2 
 PCOD8016824
Probable space group: P -1
;
_chemical_formula_sum "Si O2"
_cell_formula_units_Z 16
_cell_length_a 13.930896
_cell_length_b 10.723964
_cell_length_c 16.366764
_cell_angle_alpha 49.789550
_cell_angle_beta 24.899945
_cell_angle_gamma 53.977686
_cell_volume 786.162849
_symmetry_space_group_name_H-M "P -1"
_symmetry_group_IT_number 2
_symmetry_cell_setting 'triclinic'
loop_
_space_group_symop_operation_xyz
x,y,z
-x,-y,-z
loop_
_atom_site_type_symbol
_atom_site_label
_atom_site_fract_x
_atom_site_fract_y
_atom_site_fract_z
Si Si1 0.128389 0.405867 0.729142
Si Si2 0.139125 0.257207 0.447818
Si Si3 0.178002 0.024789 0.143961
Si Si4 0.036604 0.259737 0.021362
Si Si5 0.369180 0.521020 0.730385
Si Si6 0.261202 0.348851 0.040064
Si Si7 0.527312 0.251054 0.029569
Si Si8 0.003996 0.588820 0.351289
O O1 0.068447 0.254978 0.900184
O O2 0.395013 0.446556 0.510960
O O3 0.988514 0.566927 0.797747
O O4 0.059464 0.350313 0.715319
O O5 0.383465 0.220217 0.235366
O O6 0.994749 0.392279 0.449999
O O7 0.171071 0.324658 0.486972
O O8 0.002831 0.089078 0.623035
O O9 0.234771 0.166480 0.103624
O O10 0.079413 0.088520 0.106021
O O11 0.403976 0.921282 0.991272
O O12 0.225698 0.387893 0.849379
O O13 0.780005 0.313365 0.220421
O O14 0.418342 0.452817 0.812818
O O15 0.375824 0.352022 0.038854
O O16 0.742040 0.358293 0.842583
#
# Coordination Sequence:
#
# PCOD8016824 Si02
#       8
#     2   2   2   2   2   2   2   2
#     4  11  21  36  65  90 112 157 199 248 290 340
#     4  10  22  38  59  82 120 159 193 240 289 344
#     4  10  23  39  57  89 127 152 190 239 297 363
#     4   9  20  40  56  86 120 153 197 241 290 353
#     4   9  20  35  61  86 117 155 195 247 290 337
#     4  10  22  36  58  95 124 149 194 240 297 355
#     4  11  22  39  61  85 122 164 189 241 294 345
#     4  10  23  39  59  90 115 151 210 247 278 342
#
# _framework density 20.352018000000001
#
# number of rings (size 3 to 8) (size 9 to 14) (size 15 to 20)
#    0.000    2.000    1.250    1.875    5.250    4.500 
#    0.000    2.500    0.000    4.500    0.000    0.000 
#    0.000    0.000    0.000    0.000    0.000    0.000 
#
# Total GULP energy -198387.112177 kJ/mol
# GULP energy per Si atom -12399.194511 kJ/mol
# Density = 2.030570 g / cm^3
# Si number density = 20.352018 Si / 1000 Ang^3
#
#
#
# Elastic Constant Matrix: (Units=GPa)
#
#
# Indices 1 2 3 4 5 6 
#
# 1 109.4668 13.2448 31.5437 -1.5098 14.0973 -13.0753
# 2 13.2448 50.6200 37.3893 0.0266 0.1187 -8.8106
# 3 31.5437 37.3893 120.0084 16.1265 16.0397 -7.8817
# 4 -1.5098 0.0266 16.1265 26.5200 1.7110 2.8417
# 5 14.0973 0.1187 16.0397 1.7110 31.5924 2.7528
# 6 -13.0753 -8.8106 -7.8817 2.8417 2.7528 28.3852
#
#
#
# Elastic Compliance Matrix: (Units=1/GPa)
#
#
# Indices 1 2 3 4 5 6 
#
# 1 0.010912 -0.000544 -0.002047 0.001658 -0.004313 0.004542
# 2 -0.000544 0.027645 -0.009367 0.004847 0.004210 0.004836
# 3 -0.002047 -0.009367 0.013747 -0.008243 -0.005702 0.001345
# 4 0.001658 0.004847 -0.008243 0.043195 0.001479 -0.004488
# 5 -0.004313 0.004210 -0.005702 0.001479 0.036899 -0.005990
# 6 0.004542 0.004836 0.001345 -0.004488 -0.005990 0.040226
#
#
# Mechanical properties :
#
#
# Convention : Reuss Voigt Hill
#
# Bulk Modulus (GPa) = 35.22384 49.38342 42.30363
# Shear Modulus (GPa) = 24.27180 30.49401 27.38291
#
# Velocity S-wave (km/s) = 3.45715 3.87502 3.67204
# Velocity P-wave (km/s) = 5.76894 6.65871 6.22973
#
# Compressibility (1/GPa) = 0.02838987
#
# Stress axis : x y z
#
# Youngs Moduli (GPa) = 91.64596 36.17296 72.74325
#
# Poissons Ratio (x) = 0.01966 0.14889
# Poissons Ratio (y) = 0.04981 0.68135
# Poissons Ratio (z) = 0.18758 0.33882
#
# Static dielectric constant tensor:
#      x y z
#    x 3.842810 -0.194980 0.333030 
#    y -0.194980 3.597960 0.139180 
#    z 0.333030 0.139180 3.690060 
# 
# 
# High freq. dielectric constant tensor:
#      x y z
#    x 1.799170 -0.008640 0.019910 
#    y -0.008640 1.776990 0.011640 
#    z 0.019910 0.011640 1.797270 
# 
# From -- ./inp_files/453909.got.cif
#   From: 2010.06.25/outbox.cif.g09.slc.cpg/sg2_227_cif.got.tgz:453909.got - 2010.06.27 13:26:56.
