data_PCOD8016931
_publ_section_title
;
Structure prediction by ZEFSAII (Michael W. Deem and Ramdas Pophale) SiO2 
 PCOD8016931
Probable space group: P -1
;
_chemical_formula_sum "Si O2"
_cell_formula_units_Z 12
_cell_length_a 12.255418
_cell_length_b 5.190898
_cell_length_c 21.466043
_cell_angle_alpha 104.515722
_cell_angle_beta 24.430152
_cell_angle_gamma 113.056177
_cell_volume 499.137154
_symmetry_space_group_name_H-M "P -1"
_symmetry_group_IT_number 2
_symmetry_cell_setting 'triclinic'
loop_
_space_group_symop_operation_xyz
x,y,z
-x,-y,-z
loop_
_atom_site_type_symbol
_atom_site_label
_atom_site_fract_x
_atom_site_fract_y
_atom_site_fract_z
Si Si1 0.377562 0.938223 0.321777
Si Si2 0.333521 0.990144 0.950770
Si Si3 0.213690 0.434456 0.461970
Si Si4 0.936038 0.258970 0.718010
Si Si5 0.551321 0.817543 0.516965
Si Si6 0.039634 0.432278 0.146971
O O1 0.623430 0.014499 0.146026
O O2 0.421450 0.743778 0.342911
O O3 0.066395 0.743596 0.443721
O O4 0.396576 0.238636 0.359432
O O5 0.627049 0.048908 0.839235
O O6 0.223968 0.240362 0.036200
O O7 0.114579 0.672497 0.068221
O O8 0.120225 0.493878 0.583326
O O9 0.115515 0.054699 0.624165
O O10 0.894858 0.418478 0.810067
O O11 0.500000 0.500000 0.500000
O O12 0.301992 0.773371 0.695398
O O13 0.500000 0.000000 0.500000
#
# Coordination Sequence:
#
# PCOD8016931 Si02
#       6
#     2   2   2   2   2   2
#     4   9  18  33  51  79 109 144 180 225 281 315
#     4  11  22  36  59  85 117 147 183 232 279 338
#     4   9  18  32  54  78 107 140 187 233 263 319
#     4  10  22  37  60  87 111 146 193 233 274 328
#     4  10  22  39  56  78 115 154 186 221 274 340
#     4  11  22  37  56  85 119 148 178 228 293 337
#
# _framework density 24.041485999999999
#
# number of rings (size 3 to 8) (size 9 to 14) (size 15 to 20)
#    0.000    2.000    0.000    4.000    0.000   10.667 
#    0.000    0.000    0.000    6.000    0.000    0.000 
#    0.000    0.000    0.000    0.000    0.000    0.000 
#
# Total GULP energy -148733.854557 kJ/mol
# GULP energy per Si atom -12394.487880 kJ/mol
# Density = 2.398677 g / cm^3
# Si number density = 24.041486 Si / 1000 Ang^3
#
#
#
# Elastic Constant Matrix: (Units=GPa)
#
#
# Indices 1 2 3 4 5 6 
#
# 1 48.1748 38.7882 31.9960 -4.4031 13.5859 -29.8672
# 2 38.7882 140.2867 64.0680 -1.0608 20.1451 -51.4045
# 3 31.9960 64.0680 158.6050 0.1072 32.9413 -24.6630
# 4 -4.4031 -1.0608 0.1072 32.8539 -13.9757 9.6633
# 5 13.5859 20.1451 32.9413 -13.9757 38.9240 -11.4801
# 6 -29.8672 -51.4045 -24.6630 9.6633 -11.4801 39.4580
#
#
#
# Elastic Compliance Matrix: (Units=1/GPa)
#
#
# Indices 1 2 3 4 5 6 
#
# 1 0.042765 0.002989 -0.003260 -0.006786 -0.006089 0.034117
# 2 0.002989 0.016262 -0.003142 -0.006764 -0.002630 0.022376
# 3 -0.003260 -0.003142 0.009322 -0.002847 -0.006737 -0.001997
# 4 -0.006786 -0.006764 -0.002847 0.042976 0.017465 -0.021172
# 5 -0.006089 -0.002630 -0.006737 0.017465 0.039682 -0.004978
# 6 0.034117 0.022376 -0.001997 -0.021172 -0.004978 0.082808
#
#
# Mechanical properties :
#
#
# Convention : Reuss Voigt Hill
#
# Bulk Modulus (GPa) = 16.25379 68.53011 42.39195
# Shear Modulus (GPa) = 19.14615 36.39478 27.77046
#
# Velocity S-wave (km/s) = 2.82508 3.89502 3.40237
# Velocity P-wave (km/s) = 4.17335 6.98535 5.75378
#
# Compressibility (1/GPa) = 0.06152412
#
# Stress axis : x y z
#
# Youngs Moduli (GPa) = 23.38358 61.49165 107.26811
#
# Poissons Ratio (x) = -0.18381 0.34972
# Poissons Ratio (y) = -0.06990 0.33702
# Poissons Ratio (z) = 0.07624 0.19319
#
# Static dielectric constant tensor:
#      x y z
#    x 4.542040 -0.328540 -0.058040 
#    y -0.328540 4.250740 0.066990 
#    z -0.058040 0.066990 4.786860 
# 
# 
# High freq. dielectric constant tensor:
#      x y z
#    x 1.951200 -0.017100 0.013560 
#    y -0.017100 1.951400 0.007210 
#    z 0.013560 0.007210 1.958790 
# 
# From -- ./inp_files/61396.got.cif
#   From: 2010.06.25/outbox.cif.g09.slc.cpg/sg2_31_cif.got.tgz:61396.got - 2010.06.27 13:26:56.
