data_PCOD8016751
_publ_section_title
;
Structure prediction by ZEFSAII (Michael W. Deem and Ramdas Pophale) SiO2 
 PCOD8016751
Probable space group: P -1
;
_chemical_formula_sum "Si O2"
_cell_formula_units_Z 16
_cell_length_a 21.848474
_cell_length_b 16.619344
_cell_length_c 8.151103
_cell_angle_alpha 138.847411
_cell_angle_beta 138.228564
_cell_angle_gamma 23.798618
_cell_volume 767.703192
_symmetry_space_group_name_H-M "P -1"
_symmetry_group_IT_number 2
_symmetry_cell_setting 'triclinic'
loop_
_space_group_symop_operation_xyz
x,y,z
-x,-y,-z
loop_
_atom_site_type_symbol
_atom_site_label
_atom_site_fract_x
_atom_site_fract_y
_atom_site_fract_z
Si Si1 0.481276 0.398183 0.700332
Si Si2 0.242411 0.813767 0.731200
Si Si3 0.082159 0.727632 0.777278
Si Si4 0.690708 0.980384 0.781301
Si Si5 0.180983 0.274378 0.029896
Si Si6 0.359562 0.314221 0.551703
Si Si7 0.773446 0.927304 0.514242
Si Si8 0.976968 0.992048 0.693517
O O1 0.369276 0.568178 0.591340
O O2 0.390986 0.389268 0.602524
O O3 0.644438 0.172984 0.611652
O O4 0.500000 0.500000 0.000000
O O5 0.117318 0.914036 0.772930
O O6 0.152937 0.924431 0.553789
O O7 0.319945 0.860160 0.003752
O O8 0.238355 0.480716 0.707730
O O9 0.040777 0.804684 0.625330
O O10 0.943329 0.799492 0.686676
O O11 0.113076 0.819068 0.076622
O O12 0.796190 0.822509 0.900557
O O13 0.747675 0.877066 0.553924
O O14 0.517195 0.112074 0.654751
O O15 0.289386 0.277049 0.252309
O O16 0.235602 0.142639 0.776267
O O17 0.000000 0.500000 0.000000
#
# Coordination Sequence:
#
# PCOD8016751 Si02
#       8
#     2   2   2   2   2   2   2   2
#     4  11  21  41  68 101 136 175 213 279 352 408
#     4  11  20  39  61 100 135 174 217 282 341 408
#     4  11  20  40  60  98 130 181 214 278 343 404
#     4  11  25  45  70  99 140 176 228 286 342 402
#     4  12  27  48  71 100 136 183 242 285 326 401
#     4  11  24  43  70  96 142 178 223 285 344 390
#     4  11  24  44  72  98 135 185 229 275 349 402
#     4  10  22  31  63  97 137 169 228 268 335 421
#
# _framework density 20.841387999999998
#
# number of rings (size 3 to 8) (size 9 to 14) (size 15 to 20)
#    0.000    1.000    6.250    1.125    1.750    3.500 
#    0.000    1.875    0.000    0.000    0.000    0.000 
#    0.000    0.000    0.000    0.000    0.000    0.000 
#
# Total GULP energy -198342.663450 kJ/mol
# GULP energy per Si atom -12396.416466 kJ/mol
# Density = 2.079395 g / cm^3
# Si number density = 20.841388 Si / 1000 Ang^3
#
#
#
# Elastic Constant Matrix: (Units=GPa)
#
#
# Indices 1 2 3 4 5 6 
#
# 1 86.4170 51.8549 45.7055 -6.7024 -9.3560 5.9101
# 2 51.8549 136.7348 48.0934 -6.1893 -13.0661 -13.9292
# 3 45.7055 48.0934 106.0366 7.4856 -2.3149 -10.7414
# 4 -6.7024 -6.1893 7.4856 32.1824 -4.9437 0.8874
# 5 -9.3560 -13.0661 -2.3149 -4.9437 42.9244 -3.9176
# 6 5.9101 -13.9292 -10.7414 0.8874 -3.9176 38.0845
#
#
#
# Elastic Compliance Matrix: (Units=1/GPa)
#
#
# Indices 1 2 3 4 5 6 
#
# 1 0.019537 -0.005148 -0.007097 0.005270 0.002295 -0.006803
# 2 -0.005148 0.010872 -0.002345 0.001855 0.002671 0.004346
# 3 -0.007097 -0.002345 0.014344 -0.005651 -0.001751 0.004241
# 4 0.005270 0.001855 -0.005651 0.034699 0.005222 -0.002005
# 5 0.002295 0.002671 -0.001751 0.005222 0.025356 0.002614
# 6 -0.006803 0.004346 0.004241 -0.002005 0.002614 0.030414
#
#
# Mechanical properties :
#
#
# Convention : Reuss Voigt Hill
#
# Bulk Modulus (GPa) = 64.21351 68.94400 66.57875
# Shear Modulus (GPa) = 29.48238 34.87390 32.17814
#
# Velocity S-wave (km/s) = 3.76521 4.09504 3.93358
# Velocity P-wave (km/s) = 7.05548 7.45059 7.25572
#
# Compressibility (1/GPa) = 0.01557305
#
# Stress axis : x y z
#
# Youngs Moduli (GPa) = 51.18470 91.97655 69.71740
#
# Poissons Ratio (x) = 0.47351 0.49481
# Poissons Ratio (y) = 0.26350 0.16346
# Poissons Ratio (z) = 0.36327 0.21565
#
# Static dielectric constant tensor:
#      x y z
#    x 3.732590 0.023070 0.002020 
#    y 0.023070 4.181750 -0.051940 
#    z 0.002020 -0.051940 3.791630 
# 
# 
# High freq. dielectric constant tensor:
#      x y z
#    x 1.810370 -0.004380 0.006810 
#    y -0.004380 1.824540 -0.009520 
#    z 0.006810 -0.009520 1.816270 
# 
# From -- ./inp_files/218554.got.cif
#   From: 2010.06.25/outbox.cif.g09.slc.cpg/sg2_110_cif.got.tgz:218554.got - 2010.06.27 13:26:56.
