data_PCOD8016870
_publ_section_title
;
Structure prediction by ZEFSAII (Michael W. Deem and Ramdas Pophale) SiO2 
 PCOD8016870
Probable space group: P -1
;
_chemical_formula_sum "Si O2"
_cell_formula_units_Z 16
_cell_length_a 25.460683
_cell_length_b 7.964570
_cell_length_c 9.284748
_cell_angle_alpha 97.197508
_cell_angle_beta 140.857396
_cell_angle_gamma 54.394928
_cell_volume 745.970083
_symmetry_space_group_name_H-M "P -1"
_symmetry_group_IT_number 2
_symmetry_cell_setting 'triclinic'
loop_
_space_group_symop_operation_xyz
x,y,z
-x,-y,-z
loop_
_atom_site_type_symbol
_atom_site_label
_atom_site_fract_x
_atom_site_fract_y
_atom_site_fract_z
Si Si1 0.060258 0.613395 0.252359
Si Si2 0.266952 0.222959 0.864124
Si Si3 0.503586 0.646444 0.412505
Si Si4 0.451322 0.653177 0.763373
Si Si5 0.911456 0.500019 0.233083
Si Si6 0.363440 0.422228 0.057948
Si Si7 0.179135 0.243272 0.224653
Si Si8 0.067587 0.936373 0.485748
O O1 0.151608 0.349445 0.521623
O O2 0.131076 0.488070 0.233589
O O3 0.049002 0.820627 0.312563
O O4 0.915473 0.765924 0.945014
O O5 0.190720 0.419151 0.861655
O O6 0.349734 0.245519 0.968781
O O7 0.359680 0.922498 0.075011
O O8 0.500000 0.500000 0.500000
O O9 0.585377 0.450424 0.427386
O O10 0.569135 0.690841 0.651040
O O11 0.559580 0.599341 0.906379
O O12 0.324652 0.966976 0.556570
O O13 0.500000 0.500000 0.000000
O O14 0.000000 0.500000 0.500000
O O15 0.821170 0.724662 0.942609
O O16 0.001376 0.214083 0.321127
O O17 0.221593 0.732577 0.809109
O O18 0.000000 0.000000 0.500000
#
# Coordination Sequence:
#
# PCOD8016870 Si02
#       8
#     2   2   2   2   2   2   2   2
#     4  10  23  43  66  94 135 177 215 287 330 401
#     4  11  21  42  63  94 135 171 222 278 340 382
#     4  10  22  36  63  94 131 173 222 271 321 398
#     4  11  25  44  66  95 131 181 222 270 332 407
#     4  12  23  36  69 101 128 174 217 283 330 399
#     4  10  23  41  65  96 131 174 221 281 330 400
#     4  11  24  42  66  98 136 174 229 264 344 402
#     4  11  22  42  68  98 135 170 226 275 341 393
#
# _framework density 21.448578999999999
#
# number of rings (size 3 to 8) (size 9 to 14) (size 15 to 20)
#    0.000    1.250    3.750    2.625    7.000    2.500 
#    0.000    9.375    0.000    0.000    0.000    0.000 
#    0.000    0.000    0.000    0.000    0.000    0.000 
#
# Total GULP energy -198287.868565 kJ/mol
# GULP energy per Si atom -12392.991785 kJ/mol
# Density = 2.139976 g / cm^3
# Si number density = 21.448579 Si / 1000 Ang^3
#
#
#
# Elastic Constant Matrix: (Units=GPa)
#
#
# Indices 1 2 3 4 5 6 
#
# 1 110.0043 33.6049 50.1431 0.6703 -0.9505 -12.8263
# 2 33.6049 123.4820 40.3218 1.8107 3.2057 -4.7082
# 3 50.1431 40.3218 100.3554 -11.9454 -3.1419 -2.0227
# 4 0.6703 1.8107 -11.9454 40.9337 -5.4372 -8.3898
# 5 -0.9505 3.2057 -3.1419 -5.4372 38.4172 -2.3350
# 6 -12.8263 -4.7082 -2.0227 -8.3898 -2.3350 33.3696
#
#
#
# Elastic Compliance Matrix: (Units=1/GPa)
#
#
# Indices 1 2 3 4 5 6 
#
# 1 0.012633 -0.001378 -0.005793 -0.000995 0.000060 0.004064
# 2 -0.001378 0.009650 -0.003411 -0.001547 -0.001329 0.000143
# 3 -0.005793 -0.003411 0.014848 0.004747 0.001999 -0.000475
# 4 -0.000995 -0.001547 0.004747 0.027997 0.004885 0.007068
# 5 0.000060 -0.001329 0.001999 0.004885 0.027185 0.003087
# 6 0.004064 0.000143 -0.000475 0.007068 0.003087 0.033514
#
#
# Mechanical properties :
#
#
# Convention : Reuss Voigt Hill
#
# Bulk Modulus (GPa) = 62.63653 64.66460 63.65057
# Shear Modulus (GPa) = 32.82710 36.52889 34.67800
#
# Velocity S-wave (km/s) = 3.91641 4.13133 4.02530
# Velocity P-wave (km/s) = 7.05106 7.27814 7.16550
#
# Compressibility (1/GPa) = 0.01596512
#
# Stress axis : x y z
#
# Youngs Moduli (GPa) = 79.16033 103.62630 67.35029
#
# Poissons Ratio (x) = 0.14283 0.39015
# Poissons Ratio (y) = 0.10911 0.22976
# Poissons Ratio (z) = 0.45856 0.35352
#
# Static dielectric constant tensor:
#      x y z
#    x 3.752030 -0.161740 -0.080500 
#    y -0.161740 4.166750 0.249440 
#    z -0.080500 0.249440 4.481250 
# 
# 
# High freq. dielectric constant tensor:
#      x y z
#    x 1.828240 -0.008790 -0.005800 
#    y -0.008790 1.845010 -0.003880 
#    z -0.005800 -0.003880 1.848970 
# 
# From -- ./inp_files/178911.got.cif
#   From: 2010.06.25/outbox.cif.g09.slc.cpg/sg2_90_cif.got.tgz:178911.got - 2010.06.27 13:26:56.
