data_PCOD8016377
_publ_section_title
;
Structure prediction by ZEFSAII (Michael W. Deem and Ramdas Pophale) SiO2 
 PCOD8016377
Probable space group: P -1
;
_chemical_formula_sum "Si O2"
_cell_formula_units_Z 16
_cell_length_a 18.905375
_cell_length_b 12.128768
_cell_length_c 22.165435
_cell_angle_alpha 37.972958
_cell_angle_beta 18.997020
_cell_angle_gamma 27.912656
_cell_volume 736.347096
_symmetry_space_group_name_H-M "P -1"
_symmetry_group_IT_number 2
_symmetry_cell_setting 'triclinic'
loop_
_space_group_symop_operation_xyz
x,y,z
-x,-y,-z
loop_
_atom_site_type_symbol
_atom_site_label
_atom_site_fract_x
_atom_site_fract_y
_atom_site_fract_z
Si Si1 0.231099 0.260212 0.071740
Si Si2 0.070116 0.974119 0.768389
Si Si3 0.396918 0.963603 0.960804
Si Si4 0.598628 0.455499 0.509196
Si Si5 0.780686 0.788720 0.534078
Si Si6 0.514649 0.375061 0.863012
Si Si7 0.174764 0.054363 0.446346
Si Si8 0.789588 0.117747 0.061387
O O1 0.908047 0.382817 0.301712
O O2 0.274007 0.446317 0.975463
O O3 0.500000 0.000000 0.000000
O O4 0.241939 0.225499 0.005055
O O5 0.367013 0.692599 0.635810
O O6 0.094389 0.167280 0.642598
O O7 0.796201 0.021035 0.940815
O O8 0.005465 0.014326 0.874313
O O9 0.708838 0.846081 0.730089
O O10 0.442753 0.806136 0.046317
O O11 0.500000 0.500000 0.500000
O O12 0.645438 0.227569 0.594268
O O13 0.768113 0.941528 0.531144
O O14 0.439058 0.919902 0.740541
O O15 0.000000 0.500000 0.500000
O O16 0.422344 0.590928 0.886066
O O17 0.821895 0.239750 0.637939
O O18 0.000000 0.000000 0.000000
#
# Coordination Sequence:
#
# PCOD8016377 Si02
#       8
#     2   2   2   2   2   2   2   2
#     4  10  21  44  68  98 143 182 222 290 355 408
#     4  12  26  46  74 104 147 191 233 294 363 415
#     4  11  22  42  74 110 129 186 240 284 366 415
#     4  12  22  44  71 103 146 180 231 289 356 430
#     4  12  24  46  75 104 137 185 245 295 337 426
#     4  11  24  47  69  99 150 180 236 303 343 418
#     4  12  23  41  74 108 133 180 240 290 346 422
#     4  12  30  48  67 105 145 190 242 291 358 423
#
# _framework density 21.728883
#
# number of rings (size 3 to 8) (size 9 to 14) (size 15 to 20)
#    0.000    0.500    8.750    0.000    3.500    3.500 
#    4.500    0.000    0.000    0.000    0.000    0.000 
#    0.000    0.000    0.000    0.000    0.000    0.000 
#
# Total GULP energy -198325.963551 kJ/mol
# GULP energy per Si atom -12395.372722 kJ/mol
# Density = 2.167943 g / cm^3
# Si number density = 21.728883 Si / 1000 Ang^3
#
#
#
# Elastic Constant Matrix: (Units=GPa)
#
#
# Indices 1 2 3 4 5 6 
#
# 1 118.2908 -19.1363 59.1948 40.9964 -7.6760 53.4798
# 2 -19.1363 249.9171 35.2212 -137.6639 25.5020 -121.3289
# 3 59.1948 35.2212 191.9053 11.9166 -4.6686 12.5258
# 4 40.9964 -137.6639 11.9166 170.3622 -15.5023 127.3445
# 5 -7.6760 25.5020 -4.6686 -15.5023 51.6764 -17.6094
# 6 53.4798 -121.3289 12.5258 127.3445 -17.6094 148.2934
#
#
#
# Elastic Compliance Matrix: (Units=1/GPa)
#
#
# Indices 1 2 3 4 5 6 
#
# 1 0.012161 -0.000902 -0.003267 0.000551 0.000322 -0.005283
# 2 -0.000902 0.008513 -0.001831 0.004620 -0.002011 0.003239
# 3 -0.003267 -0.001831 0.006633 -0.001390 0.000737 0.000401
# 4 0.000551 0.004620 -0.001390 0.018992 -0.000963 -0.012724
# 5 0.000322 -0.002011 0.000737 -0.000963 0.020666 0.001457
# 6 -0.005283 0.003239 0.000401 -0.012724 0.001457 0.022364
#
#
# Mechanical properties :
#
#
# Convention : Reuss Voigt Hill
#
# Bulk Modulus (GPa) = 65.33731 78.96363 72.15047
# Shear Modulus (GPa) = 46.97834 106.38864 76.68349
#
# Velocity S-wave (km/s) = 4.65480 7.00487 5.94707
# Velocity P-wave (km/s) = 7.68272 10.09175 8.96849
#
# Compressibility (1/GPa) = 0.01530519
#
# Stress axis : x y z
#
# Youngs Moduli (GPa) = 82.22936 117.46931 150.76454
#
# Poissons Ratio (x) = 0.10601 0.49257
# Poissons Ratio (y) = 0.07421 0.27609
# Poissons Ratio (z) = 0.26865 0.21512
#
# Static dielectric constant tensor:
#      x y z
#    x 6.803960 1.993720 -1.028730 
#    y 1.993720 5.009910 -0.562050 
#    z -1.028730 -0.562050 4.340030 
# 
# 
# High freq. dielectric constant tensor:
#      x y z
#    x 1.856190 0.022230 -0.012260 
#    y 0.022230 1.844320 -0.003600 
#    z -0.012260 -0.003600 1.869090 
# 
# From -- ./inp_files/273218.got.cif
#   From: 2010.06.25/outbox.cif.g09.slc.cpg/sg2_137_cif.got.tgz:273218.got - 2010.06.27 13:26:56.
