data_PCOD8016828
_publ_section_title
;
Structure prediction by ZEFSAII (Michael W. Deem and Ramdas Pophale) SiO2 
 PCOD8016828
Probable space group: P -1
;
_chemical_formula_sum "Si O2"
_cell_formula_units_Z 16
_cell_length_a 14.067003
_cell_length_b 9.621036
_cell_length_c 14.448968
_cell_angle_alpha 87.657752
_cell_angle_beta 43.375792
_cell_angle_gamma 53.960576
_cell_volume 779.279286
_symmetry_space_group_name_H-M "P -1"
_symmetry_group_IT_number 2
_symmetry_cell_setting 'triclinic'
loop_
_space_group_symop_operation_xyz
x,y,z
-x,-y,-z
loop_
_atom_site_type_symbol
_atom_site_label
_atom_site_fract_x
_atom_site_fract_y
_atom_site_fract_z
Si Si1 0.821599 0.764518 0.375677
Si Si2 0.805276 0.350924 0.796603
Si Si3 0.459918 0.292932 0.637279
Si Si4 0.708415 0.544727 0.445269
Si Si5 0.223310 0.909075 0.875694
Si Si6 0.498159 0.541920 0.846443
Si Si7 0.991024 0.361859 0.960284
Si Si8 0.169353 0.817894 0.541830
O O1 0.780529 0.636661 0.431642
O O2 0.008994 0.675485 0.318726
O O3 0.567166 0.049479 0.558456
O O4 0.918206 0.709799 0.206025
O O5 0.637588 0.524119 0.823120
O O6 0.648147 0.458906 0.997147
O O7 0.930911 0.101193 0.687959
O O8 0.284660 0.462428 0.670010
O O9 0.289860 0.451572 0.843345
O O10 0.672717 0.228145 0.493254
O O11 0.445297 0.707506 0.655270
O O12 0.891735 0.282332 0.366526
O O13 0.309513 0.795128 0.920075
O O14 0.000000 0.000000 0.000000
O O15 0.149573 0.129696 0.916935
O O16 0.689957 0.312832 0.650100
O O17 0.000000 0.500000 0.000000
#
# Coordination Sequence:
#
# PCOD8016828 Si02
#       8
#     2   2   2   2   2   2   2   2
#     4  11  22  40  57  89 124 156 196 234 297 354
#     4  10  22  40  67  80 114 161 195 244 293 341
#     4  11  21  35  57  86 120 158 192 233 295 353
#     4  11  21  37  56  90 127 150 192 244 291 356
#     4  11  23  38  61  87 121 151 193 247 292 345
#     4  10  22  41  60  90 114 149 206 245 284 348
#     4  12  22  35  58  87 122 157 185 239 294 349
#     4  10  22  36  59  87 115 150 199 244 288 341
#
# _framework density 20.531791999999999
#
# number of rings (size 3 to 8) (size 9 to 14) (size 15 to 20)
#    0.000    1.250    2.500    4.875    3.500    0.000 
#    0.000    2.500    0.000    9.750    0.000    0.000 
#    0.000    0.000    0.000    0.000    0.000    0.000 
#
# Total GULP energy -198388.509097 kJ/mol
# GULP energy per Si atom -12399.281819 kJ/mol
# Density = 2.048506 g / cm^3
# Si number density = 20.531792 Si / 1000 Ang^3
#
#
#
# Elastic Constant Matrix: (Units=GPa)
#
#
# Indices 1 2 3 4 5 6 
#
# 1 85.8619 54.9409 16.7393 -1.7773 -4.2973 -11.6691
# 2 54.9409 117.2194 19.0598 2.1314 -3.6972 0.9307
# 3 16.7393 19.0598 73.4401 0.0488 0.9696 -9.3076
# 4 -1.7773 2.1314 0.0488 24.1007 4.5721 -2.4169
# 5 -4.2973 -3.6972 0.9696 4.5721 29.2881 3.3478
# 6 -11.6691 0.9307 -9.3076 -2.4169 3.3478 30.2972
#
#
#
# Elastic Compliance Matrix: (Units=1/GPa)
#
#
# Indices 1 2 3 4 5 6 
#
# 1 0.018366 -0.008528 -0.001070 0.002755 0.000403 0.007182
# 2 -0.008528 0.012985 -0.002033 -0.002502 0.001378 -0.004660
# 3 -0.001070 -0.002033 0.014977 0.000815 -0.001550 0.004488
# 4 0.002755 -0.002502 0.000815 0.043901 -0.007445 0.005713
# 5 0.000403 0.001378 -0.001550 -0.007445 0.036156 -0.004952
# 6 0.007182 -0.004660 0.004488 0.005713 -0.004952 0.038297
#
#
# Mechanical properties :
#
#
# Convention : Reuss Voigt Hill
#
# Bulk Modulus (GPa) = 43.35650 50.88904 47.12277
# Shear Modulus (GPa) = 25.55819 29.12262 27.34040
#
# Velocity S-wave (km/s) = 3.53201 3.77027 3.65309
# Velocity P-wave (km/s) = 6.14785 6.61759 6.38704
#
# Compressibility (1/GPa) = 0.02306459
#
# Stress axis : x y z
#
# Youngs Moduli (GPa) = 54.44980 77.01269 66.77052
#
# Poissons Ratio (x) = 0.65680 0.07142
# Poissons Ratio (y) = 0.46437 0.13576
# Poissons Ratio (z) = 0.05824 0.15658
#
# Static dielectric constant tensor:
#      x y z
#    x 3.689580 0.049920 -0.037080 
#    y 0.049920 3.835410 0.041500 
#    z -0.037080 0.041500 4.223560 
# 
# 
# High freq. dielectric constant tensor:
#      x y z
#    x 1.791700 0.006560 0.003610 
#    y 0.006560 1.791800 0.001820 
#    z 0.003610 0.001820 1.817410 
# 
# From -- ./inp_files/273219.got.cif
#   From: 2010.06.25/outbox.cif.g09.slc.cpg/sg2_137_cif.got.tgz:273219.got - 2010.06.27 13:26:56.
