data_PCOD8016401
_publ_section_title
;
Structure prediction by ZEFSAII (Michael W. Deem and Ramdas Pophale) SiO2 
 PCOD8016401
Probable space group: P -1
;
_chemical_formula_sum "Si O2"
_cell_formula_units_Z 12
_cell_length_a 5.127171
_cell_length_b 7.286489
_cell_length_c 17.653460
_cell_angle_alpha 50.588763
_cell_angle_beta 89.279835
_cell_angle_gamma 63.622900
_cell_volume 420.477655
_symmetry_space_group_name_H-M "P -1"
_symmetry_group_IT_number 2
_symmetry_cell_setting 'triclinic'
loop_
_space_group_symop_operation_xyz
x,y,z
-x,-y,-z
loop_
_atom_site_type_symbol
_atom_site_label
_atom_site_fract_x
_atom_site_fract_y
_atom_site_fract_z
Si Si1 0.202293 0.330236 0.972063
Si Si2 0.825625 0.670884 0.579566
Si Si3 0.822842 0.627234 0.761437
Si Si4 0.873803 0.000066 0.267618
Si Si5 0.923628 0.005884 0.095983
Si Si6 0.742932 0.198088 0.542377
O O1 0.570510 0.137179 0.035175
O O2 0.088869 0.116206 0.012022
O O3 0.000000 0.500000 0.000000
O O4 0.107011 0.537372 0.844579
O O5 0.857934 0.741664 0.649504
O O6 0.457559 0.845322 0.508888
O O7 0.009893 0.332268 0.652493
O O8 0.977319 0.804240 0.496522
O O9 0.483929 0.834622 0.746690
O O10 0.854323 0.336358 0.812890
O O11 0.101753 0.016512 0.325984
O O12 0.895838 0.116457 0.154858
O O13 0.500000 0.500000 0.500000
#
# Coordination Sequence:
#
# PCOD8016401 Si02
#       6
#     2   2   2   2   2   2
#     4  12  25  48  72  97 136 182 223 277 342 400
#     4  10  24  44  65 100 137 177 223 276 335 394
#     4  11  25  44  70 103 136 179 225 282 333 400
#     4  10  22  42  69  99 133 180 224 275 334 399
#     4  11  26  47  67 101 138 175 226 279 336 400
#     4  10  21  44  69  96 137 180 219 276 335 394
#
# _framework density 28.538971
#
# number of rings (size 3 to 8) (size 9 to 14) (size 15 to 20)
#    0.000    1.333    1.667    3.500    0.000   12.000 
#    0.000    0.000    0.000    0.000    0.000    0.000 
#    0.000    0.000    0.000    0.000    0.000    0.000 
#
# Total GULP energy -148871.239091 kJ/mol
# GULP energy per Si atom -12405.936591 kJ/mol
# Density = 2.847401 g / cm^3
# Si number density = 28.538971 Si / 1000 Ang^3
#
#
#
# Elastic Constant Matrix: (Units=GPa)
#
#
# Indices 1 2 3 4 5 6 
#
# 1 163.5626 41.8136 84.6347 16.3613 37.1877 -14.6492
# 2 41.8136 157.3620 65.8236 11.7658 27.7125 -14.9203
# 3 84.6347 65.8236 244.3512 16.1608 12.6848 -19.7158
# 4 16.3613 11.7658 16.1608 50.9153 -5.4278 12.8915
# 5 37.1877 27.7125 12.6848 -5.4278 48.8705 17.9908
# 6 -14.6492 -14.9203 -19.7158 12.8915 17.9908 56.7709
#
#
#
# Elastic Compliance Matrix: (Units=1/GPa)
#
#
# Indices 1 2 3 4 5 6 
#
# 1 0.011175 0.001464 -0.002593 -0.006349 -0.012191 0.007673
# 2 0.001464 0.009061 -0.001752 -0.004379 -0.008425 0.005815
# 3 -0.002593 -0.001752 0.005461 -0.000467 0.001332 0.000451
# 4 -0.006349 -0.004379 -0.000467 0.028170 0.015855 -0.014373
# 5 -0.012191 -0.008425 0.001332 0.015855 0.044218 -0.022511
# 6 0.007673 0.005815 0.000451 -0.014373 -0.022511 0.031677
#
#
# Mechanical properties :
#
#
# Convention : Reuss Voigt Hill
#
# Bulk Modulus (GPa) = 50.16222 105.53550 77.84886
# Shear Modulus (GPa) = 35.16927 56.17827 45.67377
#
# Velocity S-wave (km/s) = 3.51426 4.44156 4.00484
# Velocity P-wave (km/s) = 5.83794 7.96009 6.98014
#
# Compressibility (1/GPa) = 0.01993532
#
# Stress axis : x y z
#
# Youngs Moduli (GPa) = 89.48155 110.36505 183.12172
#
# Poissons Ratio (x) = -0.16162 0.47491
# Poissons Ratio (y) = -0.13104 0.32082
# Poissons Ratio (z) = 0.23206 0.19335
#
# Static dielectric constant tensor:
#      x y z
#    x 7.012550 0.429330 -1.392550 
#    y 0.429330 6.743330 0.393600 
#    z -1.392550 0.393600 7.700550 
# 
# 
# High freq. dielectric constant tensor:
#      x y z
#    x 2.153490 0.031640 -0.000720 
#    y 0.031640 2.235650 -0.007880 
#    z -0.000720 -0.007880 2.204790 
# 
# From -- ./inp_files/96413.got.cif
#   From: 2010.06.25/outbox.cif.g09.slc.cpg/sg2_49_cif.got.tgz:96413.got - 2010.06.27 13:26:56.
