data_PCOD8016995
_publ_section_title
;
Structure prediction by ZEFSAII (Michael W. Deem and Ramdas Pophale) SiO2 
 PCOD8016995
Probable space group: P -1
;
_chemical_formula_sum "Si O2"
_cell_formula_units_Z 16
_cell_length_a 9.219166
_cell_length_b 14.170434
_cell_length_c 12.342906
_cell_angle_alpha 150.136182
_cell_angle_beta 74.331335
_cell_angle_gamma 106.221965
_cell_volume 769.642658
_symmetry_space_group_name_H-M "P -1"
_symmetry_group_IT_number 2
_symmetry_cell_setting 'triclinic'
loop_
_space_group_symop_operation_xyz
x,y,z
-x,-y,-z
loop_
_atom_site_type_symbol
_atom_site_label
_atom_site_fract_x
_atom_site_fract_y
_atom_site_fract_z
Si Si1 0.350334 0.297224 0.816697
Si Si2 0.398766 0.020517 0.357340
Si Si3 0.037602 0.058959 0.930688
Si Si4 0.705340 0.005324 0.880261
Si Si5 0.468271 0.300240 0.245930
Si Si6 0.284708 0.369348 0.144386
Si Si7 0.735342 0.197890 0.479268
Si Si8 0.315392 0.686260 0.177388
O O1 0.310064 0.114468 0.567264
O O2 0.531338 0.333868 0.803137
O O3 0.309322 0.268941 0.923153
O O4 0.260288 0.464686 0.946349
O O5 0.337988 0.079437 0.313214
O O6 0.579269 0.063067 0.362999
O O7 0.349225 0.796916 0.168695
O O8 0.134600 0.899082 0.703850
O O9 0.125980 0.269003 0.119739
O O10 0.882890 0.067973 0.905155
O O11 0.000000 0.000000 0.000000
O O12 0.664624 0.835522 0.804641
O O13 0.619688 0.191567 0.109347
O O14 0.500000 0.500000 0.500000
O O15 0.419129 0.331235 0.162599
O O16 0.277621 0.594727 0.363465
O O17 0.785222 0.217265 0.615844
#
# Coordination Sequence:
#
# PCOD8016995 Si02
#       8
#     2   2   2   2   2   2   2   2
#     4   9  18  33  60  94 118 154 200 248 303 353
#     4  11  20  37  65  90 126 152 200 256 304 351
#     4  12  25  42  61  82 128 167 206 247 296 367
#     4  11  26  41  58  94 121 160 205 248 305 367
#     4  11  24  42  65  88 121 156 205 262 307 345
#     4  11  22  41  66  91 123 161 207 252 299 364
#     4  10  22  37  63  94 119 160 205 248 303 357
#     4   9  17  32  57  92 122 151 198 246 299 359
#
# _framework density 20.788867
#
# number of rings (size 3 to 8) (size 9 to 14) (size 15 to 20)
#    0.000    1.500    1.250    6.000    3.500    2.500 
#    0.000    2.500    0.000    3.000    0.000    0.000 
#    0.000    0.000    0.000    0.000    0.000    0.000 
#
# Total GULP energy -198295.607371 kJ/mol
# GULP energy per Si atom -12393.475461 kJ/mol
# Density = 2.074155 g / cm^3
# Si number density = 20.788867 Si / 1000 Ang^3
#
#
#
# Elastic Constant Matrix: (Units=GPa)
#
#
# Indices 1 2 3 4 5 6 
#
# 1 85.0376 31.0081 37.6377 -1.3765 -8.5801 4.5168
# 2 31.0081 132.3730 51.4804 4.2030 -13.0482 0.6233
# 3 37.6377 51.4804 107.3484 -9.2800 -9.7346 -0.8456
# 4 -1.3765 4.2030 -9.2800 37.1819 0.9929 -0.5227
# 5 -8.5801 -13.0482 -9.7346 0.9929 20.4436 -1.7862
# 6 4.5168 0.6233 -0.8456 -0.5227 -1.7862 25.3068
#
#
#
# Elastic Compliance Matrix: (Units=1/GPa)
#
#
# Indices 1 2 3 4 5 6 
#
# 1 0.014578 -0.001461 -0.004199 -0.000458 0.002990 -0.002505
# 2 -0.001461 0.009950 -0.004104 -0.002306 0.003905 0.000107
# 3 -0.004199 -0.004104 0.013248 0.003586 0.001884 0.001500
# 4 -0.000458 -0.002306 0.003586 0.028078 -0.001255 0.000750
# 5 0.002990 0.003905 0.001884 -0.001255 0.053901 0.003212
# 6 -0.002505 0.000107 0.001500 0.000750 0.003212 0.040252
#
#
# Mechanical properties :
#
#
# Convention : Reuss Voigt Hill
#
# Bulk Modulus (GPa) = 54.79684 62.77902 58.78793
# Shear Modulus (GPa) = 26.93718 30.22864 28.58291
#
# Velocity S-wave (km/s) = 3.60356 3.81737 3.71201
# Velocity P-wave (km/s) = 6.61288 7.04938 6.83461
#
# Compressibility (1/GPa) = 0.01824923
#
# Stress axis : x y z
#
# Youngs Moduli (GPa) = 68.59701 100.49956 75.48084
#
# Poissons Ratio (x) = 0.14681 0.31693
# Poissons Ratio (y) = 0.10021 0.30977
# Poissons Ratio (z) = 0.28803 0.41245
#
# Static dielectric constant tensor:
#      x y z
#    x 3.652800 0.142530 -0.181710 
#    y 0.142530 3.978520 -0.057700 
#    z -0.181710 -0.057700 4.108720 
# 
# 
# High freq. dielectric constant tensor:
#      x y z
#    x 1.761870 -0.005250 -0.011540 
#    y -0.005250 1.835820 0.001000 
#    z -0.011540 0.001000 1.828790 
# 
# From -- ./inp_files/399966.got.cif
#   From: 2010.06.25/outbox.cif.g09.slc.cpg/sg2_200_cif.got.tgz:399966.got - 2010.06.27 13:26:56.
