data_PCOD8016673
_publ_section_title
;
Structure prediction by ZEFSAII (Michael W. Deem and Ramdas Pophale) SiO2 
 PCOD8016673
Probable space group: P -1
;
_chemical_formula_sum "Si O2"
_cell_formula_units_Z 14
_cell_length_a 10.961872
_cell_length_b 12.141597
_cell_length_c 10.173608
_cell_angle_alpha 142.847458
_cell_angle_beta 50.395441
_cell_angle_gamma 121.725038
_cell_volume 629.599084
_symmetry_space_group_name_H-M "P -1"
_symmetry_group_IT_number 2
_symmetry_cell_setting 'triclinic'
loop_
_space_group_symop_operation_xyz
x,y,z
-x,-y,-z
loop_
_atom_site_type_symbol
_atom_site_label
_atom_site_fract_x
_atom_site_fract_y
_atom_site_fract_z
Si Si1 0.619013 0.364063 0.853445
Si Si2 0.315420 0.607989 0.878383
Si Si3 0.154954 0.065348 0.181033
Si Si4 0.716732 0.782198 0.494507
Si Si5 0.490397 0.081737 0.856643
Si Si6 0.007532 0.707914 0.036749
Si Si7 0.047993 0.599907 0.429984
O O1 0.694919 0.450152 0.016203
O O2 0.500000 0.500000 0.000000
O O3 0.528642 0.171554 0.772211
O O4 0.766039 0.337370 0.629010
O O5 0.354868 0.417421 0.597375
O O6 0.448739 0.773916 0.931858
O O7 0.147021 0.678335 0.017060
O O8 0.210181 0.104876 0.328352
O O9 0.051137 0.221287 0.342590
O O10 0.052176 0.877091 0.071425
O O11 0.304552 0.042819 0.961491
O O12 0.852784 0.753339 0.267235
O O13 0.577457 0.892426 0.628218
O O14 0.987535 0.528824 0.792150
O O15 0.000000 0.500000 0.500000
#
# Coordination Sequence:
#
# PCOD8016673 Si02
#       7
#     2   2   2   2   2   2   2
#     4  10  21  46  67  90 133 169 214 264 321 388
#     4  10  22  39  70  96 125 173 217 260 329 379
#     4  12  24  40  67  98 138 167 211 273 323 385
#     4  12  21  39  69  99 131 169 212 272 325 383
#     4  10  24  40  60 102 135 170 215 258 325 387
#     4  12  23  42  68 101 129 168 222 267 328 387
#     4  12  26  45  69  94 129 175 219 272 325 382
#
# _framework density 22.236373
#
# number of rings (size 3 to 8) (size 9 to 14) (size 15 to 20)
#    0.857    0.000    4.286    3.857    0.000    2.286 
#    0.000    0.714    0.000    0.000    0.000    0.000 
#    0.000    0.000    0.000    0.000    0.000    0.000 
#
# Total GULP energy -173545.769860 kJ/mol
# GULP energy per Si atom -12396.126419 kJ/mol
# Density = 2.218576 g / cm^3
# Si number density = 22.236373 Si / 1000 Ang^3
#
#
#
# Elastic Constant Matrix: (Units=GPa)
#
#
# Indices 1 2 3 4 5 6 
#
# 1 55.9388 23.4277 29.6334 1.1092 -28.7481 -17.6857
# 2 23.4277 108.9030 47.1475 15.6283 -24.0748 -3.5793
# 3 29.6334 47.1475 113.6231 23.0309 -46.0558 -9.4454
# 4 1.1092 15.6283 23.0309 45.8603 -5.8681 -1.5701
# 5 -28.7481 -24.0748 -46.0558 -5.8681 43.6483 12.0701
# 6 -17.6857 -3.5793 -9.4454 -1.5701 12.0701 38.0011
#
#
#
# Elastic Compliance Matrix: (Units=1/GPa)
#
#
# Indices 1 2 3 4 5 6 
#
# 1 0.030137 -0.003055 0.000236 0.002584 0.016352 0.008710
# 2 -0.003055 0.011791 -0.003330 -0.002182 0.001122 -0.001586
# 3 0.000236 -0.003330 0.018069 -0.005819 0.016974 -0.001344
# 4 0.002584 -0.002182 -0.005819 0.025117 -0.002662 0.001434
# 5 0.016352 0.001122 0.016974 -0.002662 0.053260 -0.005092
# 6 0.008710 -0.001586 -0.001344 0.001434 -0.005092 0.031561
#
#
# Mechanical properties :
#
#
# Convention : Reuss Voigt Hill
#
# Bulk Modulus (GPa) = 20.96478 53.20912 37.08695
# Shear Modulus (GPa) = 25.23540 37.38569 31.31054
#
# Velocity S-wave (km/s) = 3.37244 4.10480 3.75651
# Velocity P-wave (km/s) = 4.96116 6.81518 5.96069
#
# Compressibility (1/GPa) = 0.04769904
#
# Stress axis : x y z
#
# Youngs Moduli (GPa) = 33.18148 84.81293 55.34232
#
# Poissons Ratio (x) = 0.25912 -0.01308
# Poissons Ratio (y) = 0.10138 0.18431
# Poissons Ratio (z) = -0.00784 0.28245
#
# Static dielectric constant tensor:
#      x y z
#    x 3.828970 0.130640 -0.033800 
#    y 0.130640 4.265950 0.174140 
#    z -0.033800 0.174140 4.036540 
# 
# 
# High freq. dielectric constant tensor:
#      x y z
#    x 1.856120 0.005270 -0.016970 
#    y 0.005270 1.891780 0.010300 
#    z -0.016970 0.010300 1.876520 
# 
# From -- ./inp_files/426778.got.cif
#   From: 2010.06.25/outbox.cif.g09.slc.cpg/sg2_214_cif.got.tgz:426778.got - 2010.06.27 13:26:56.
