data_PCOD8016691
_publ_section_title
;
Structure prediction by ZEFSAII (Michael W. Deem and Ramdas Pophale) SiO2 
 PCOD8016691
Probable space group: P -1
;
_chemical_formula_sum "Si O2"
_cell_formula_units_Z 16
_cell_length_a 9.199879
_cell_length_b 7.295675
_cell_length_c 12.769212
_cell_angle_alpha 72.587583
_cell_angle_beta 104.430617
_cell_angle_gamma 127.975811
_cell_volume 642.220069
_symmetry_space_group_name_H-M "P -1"
_symmetry_group_IT_number 2
_symmetry_cell_setting 'triclinic'
loop_
_space_group_symop_operation_xyz
x,y,z
-x,-y,-z
loop_
_atom_site_type_symbol
_atom_site_label
_atom_site_fract_x
_atom_site_fract_y
_atom_site_fract_z
Si Si1 0.912081 0.360545 0.903675
Si Si2 0.646440 0.845281 0.272646
Si Si3 0.227939 0.731089 0.432903
Si Si4 0.006588 0.932841 0.394885
Si Si5 0.588506 0.167549 0.334396
Si Si6 0.300048 0.526438 0.886353
Si Si7 0.376408 0.147603 0.974092
Si Si8 0.244242 0.455338 0.309776
O O1 0.812361 0.462564 0.813688
O O2 0.084421 0.417361 0.855344
O O3 0.000000 0.500000 0.000000
O O4 0.763940 0.084167 0.944085
O O5 0.623942 0.902109 0.140141
O O6 0.466032 0.602718 0.326421
O O7 0.690608 0.066186 0.312254
O O8 0.814691 0.822514 0.318725
O O9 0.316696 0.719947 0.557209
O O10 0.166993 0.497892 0.395593
O O11 0.055685 0.743474 0.424173
O O12 0.373508 0.956696 0.348881
O O13 0.165598 0.182808 0.327565
O O14 0.000000 0.000000 0.500000
O O15 0.604533 0.364808 0.228362
O O16 0.311658 0.314075 0.953766
O O17 0.415224 0.728256 0.963239
#
# Coordination Sequence:
#
# PCOD8016691 Si02
#       8
#     2   2   2   2   2   2   2   2
#     4  12  25  46  71 101 142 186 238 291 352 427
#     4  11  24  46  70 104 140 185 233 288 350 422
#     4  10  24  45  72 103 146 185 235 293 344 424
#     4  12  26  46  71 106 143 184 242 289 345 426
#     4  10  21  46  70 101 143 183 232 290 350 415
#     4  11  25  43  72 104 141 183 235 290 356 426
#     4  11  25  44  70 105 139 184 232 296 355 418
#     4  11  27  46  73 105 142 191 233 287 361 413
#
# _framework density 24.913578999999999
#
# number of rings (size 3 to 8) (size 9 to 14) (size 15 to 20)
#    0.000    1.000    1.250    4.875    3.500    3.500 
#    4.500    0.000    0.000    0.000    0.000    0.000 
#    0.000    0.000    0.000    0.000    0.000    0.000 
#
# Total GULP energy -198495.671741 kJ/mol
# GULP energy per Si atom -12405.979484 kJ/mol
# Density = 2.485687 g / cm^3
# Si number density = 24.913579 Si / 1000 Ang^3
#
#
#
# Elastic Constant Matrix: (Units=GPa)
#
#
# Indices 1 2 3 4 5 6 
#
# 1 64.2476 4.0027 -15.4629 9.1258 2.8863 9.6438
# 2 4.0027 76.0685 -0.7883 4.4826 8.3107 15.9942
# 3 -15.4629 -0.7883 99.2764 9.9904 -7.0560 -0.8366
# 4 9.1258 4.4826 9.9904 35.6977 -1.7074 -6.4505
# 5 2.8863 8.3107 -7.0560 -1.7074 37.4794 -2.8757
# 6 9.6438 15.9942 -0.8366 -6.4505 -2.8757 26.7179
#
#
#
# Elastic Compliance Matrix: (Units=1/GPa)
#
#
# Indices 1 2 3 4 5 6 
#
# 1 0.019062 0.001888 0.003540 -0.008038 -0.002361 -0.010094
# 2 0.001888 0.016474 0.000492 -0.005144 -0.004883 -0.012295
# 3 0.003540 0.000492 0.011150 -0.004410 0.001352 -0.002142
# 4 -0.008038 -0.005144 -0.004410 0.034765 0.003636 0.014627
# 5 -0.002361 -0.004883 0.001352 0.003636 0.028966 0.007813
# 6 -0.010094 -0.012295 -0.002142 0.014627 0.007813 0.052737
#
#
# Mechanical properties :
#
#
# Convention : Reuss Voigt Hill
#
# Bulk Modulus (GPa) = 17.08683 23.89949 20.49316
# Shear Modulus (GPa) = 29.27013 36.76838 33.01926
#
# Velocity S-wave (km/s) = 3.43135 3.84583 3.64449
# Velocity P-wave (km/s) = 4.75102 5.41612 5.09444
#
# Compressibility (1/GPa) = 0.05852462
#
# Stress axis : x y z
#
# Youngs Moduli (GPa) = 52.46007 60.70300 89.68625
#
# Poissons Ratio (x) = -0.11458 -0.31749
# Poissons Ratio (y) = -0.09903 -0.04411
# Poissons Ratio (z) = -0.18571 -0.02985
#
# Static dielectric constant tensor:
#      x y z
#    x 4.479480 0.370970 0.016670 
#    y 0.370970 4.870010 0.024070 
#    z 0.016670 0.024070 4.552170 
# 
# 
# High freq. dielectric constant tensor:
#      x y z
#    x 1.988960 0.005550 0.000610 
#    y 0.005550 2.004820 -0.004380 
#    z 0.000610 -0.004380 2.003210 
# 
# From -- ./inp_files/382043.got.cif
#   From: 2010.06.25/outbox.cif.g09.slc.cpg/sg2_192_cif.got.tgz:382043.got - 2010.06.27 13:26:56.
