data_PCOD8016019
_publ_section_title
;
Structure prediction by ZEFSAII (Michael W. Deem and Ramdas Pophale) SiO2 
 PCOD8016019
Probable space group: P -1
;
_chemical_formula_sum "Si O2"
_cell_formula_units_Z 16
_cell_length_a 11.350507
_cell_length_b 9.704327
_cell_length_c 14.493455
_cell_angle_alpha 69.034162
_cell_angle_beta 60.097482
_cell_angle_gamma 118.976738
_cell_volume 741.811864
_symmetry_space_group_name_H-M "P -1"
_symmetry_group_IT_number 2
_symmetry_cell_setting 'triclinic'
loop_
_space_group_symop_operation_xyz
x,y,z
-x,-y,-z
loop_
_atom_site_type_symbol
_atom_site_label
_atom_site_fract_x
_atom_site_fract_y
_atom_site_fract_z
Si Si1 0.084806 0.773880 0.447348
Si Si2 0.660502 0.083829 0.999138
Si Si3 0.683738 0.028171 0.413245
Si Si4 0.860252 0.453423 0.983148
Si Si5 0.050732 0.451346 0.630084
Si Si6 0.497221 0.657656 0.421823
Si Si7 0.542265 0.391666 0.753374
Si Si8 0.541603 0.724161 0.724683
O O1 0.152979 0.707322 0.512019
O O2 0.134973 0.748000 0.333082
O O3 0.814419 0.583690 0.602866
O O4 0.255043 0.062819 0.330096
O O5 0.663968 0.172456 0.075665
O O6 0.931188 0.342938 0.801525
O O7 0.500000 0.000000 0.000000
O O8 0.604277 0.861411 0.075538
O O9 0.646569 0.905168 0.363069
O O10 0.632646 0.874211 0.556112
O O11 0.500000 0.000000 0.500000
O O12 0.957300 0.322565 0.220585
O O13 0.708631 0.442115 0.098745
O O14 0.000000 0.500000 0.000000
O O15 0.234486 0.484002 0.555442
O O16 0.500000 0.500000 0.500000
O O17 0.589057 0.722366 0.266692
O O18 0.515398 0.525957 0.777998
#
# Coordination Sequence:
#
# PCOD8016019 Si02
#       8
#     2   2   2   2   2   2   2   2
#     4  10  21  43  69 100 131 177 236 282 343 414
#     4  12  24  45  69 101 135 180 234 287 343 418
#     4  12  24  44  72  97 137 184 228 280 343 411
#     4  12  27  44  70 106 138 181 239 286 339 421
#     4  10  22  39  73  98 128 181 229 284 343 411
#     4  11  23  44  65 100 136 178 228 277 347 421
#     4  11  25  43  70  98 141 178 227 292 348 410
#     4  12  25  44  67 101 141 178 225 292 349 403
#
# _framework density 21.568812000000001
#
# number of rings (size 3 to 8) (size 9 to 14) (size 15 to 20)
#    0.000    0.750    3.750    4.125    3.500    1.000 
#    0.000    3.125    0.000    0.000    0.000    0.000 
#    0.000    0.000    0.000    0.000    0.000    0.000 
#
# Total GULP energy -198270.548317 kJ/mol
# GULP energy per Si atom -12391.909270 kJ/mol
# Density = 2.151972 g / cm^3
# Si number density = 21.568812 Si / 1000 Ang^3
#
#
#
# Elastic Constant Matrix: (Units=GPa)
#
#
# Indices 1 2 3 4 5 6 
#
# 1 120.9853 52.7440 35.3987 -7.4781 14.3384 -17.3009
# 2 52.7440 161.4053 36.4900 -19.2264 7.1019 -17.3678
# 3 35.3987 36.4900 100.2811 4.2999 13.3074 -7.9928
# 4 -7.4781 -19.2264 4.2999 31.1636 -4.4775 -2.5029
# 5 14.3384 7.1019 13.3074 -4.4775 29.3244 -5.8465
# 6 -17.3009 -17.3678 -7.9928 -2.5029 -5.8465 38.3185
#
#
#
# Elastic Compliance Matrix: (Units=1/GPa)
#
#
# Indices 1 2 3 4 5 6 
#
# 1 0.010857 -0.002410 -0.002396 0.001276 -0.002853 0.002958
# 2 -0.002410 0.008409 -0.002433 0.005406 0.001633 0.002818
# 3 -0.002396 -0.002433 0.012474 -0.004521 -0.004709 -0.000596
# 4 0.001276 0.005406 -0.004521 0.037813 0.007013 0.005623
# 5 -0.002853 0.001633 -0.004709 0.007013 0.039290 0.004923
# 6 0.002958 0.002818 -0.000596 0.005623 0.004923 0.029704
#
#
# Mechanical properties :
#
#
# Convention : Reuss Voigt Hill
#
# Bulk Modulus (GPa) = 57.93080 70.21524 64.07302
# Shear Modulus (GPa) = 31.49026 36.96392 34.22709
#
# Velocity S-wave (km/s) = 3.82513 4.14426 3.98789
# Velocity P-wave (km/s) = 6.81364 7.45148 7.13969
#
# Compressibility (1/GPa) = 0.01726197
#
# Stress axis : x y z
#
# Youngs Moduli (GPa) = 92.10396 118.92686 80.16541
#
# Poissons Ratio (x) = 0.28667 0.19206
# Poissons Ratio (y) = 0.22201 0.19502
# Poissons Ratio (z) = 0.22066 0.28932
#
# Static dielectric constant tensor:
#      x y z
#    x 4.070790 1.299270 0.388550 
#    y 1.299270 9.002100 1.704580 
#    z 0.388550 1.704580 4.409010 
# 
# 
# High freq. dielectric constant tensor:
#      x y z
#    x 1.844260 0.007490 0.001060 
#    y 0.007490 1.871510 0.003420 
#    z 0.001060 0.003420 1.840250 
# 
# From -- ./inp_files/407323.got.cif
#   From: 2010.06.25/outbox.cif.g09.slc.cpg/sg2_204_cif.got.tgz:407323.got - 2010.06.27 13:26:56.
