data_PCOD8016903
_publ_section_title
;
Structure prediction by ZEFSAII (Michael W. Deem and Ramdas Pophale) SiO2 
 PCOD8016903
Probable space group: P -1
;
_chemical_formula_sum "Si O2"
_cell_formula_units_Z 16
_cell_length_a 9.593346
_cell_length_b 20.923439
_cell_length_c 18.522785
_cell_angle_alpha 161.321674
_cell_angle_beta 137.725668
_cell_angle_gamma 40.337739
_cell_volume 767.876786
_symmetry_space_group_name_H-M "P -1"
_symmetry_group_IT_number 2
_symmetry_cell_setting 'triclinic'
loop_
_space_group_symop_operation_xyz
x,y,z
-x,-y,-z
loop_
_atom_site_type_symbol
_atom_site_label
_atom_site_fract_x
_atom_site_fract_y
_atom_site_fract_z
Si Si1 0.102023 0.265624 0.495261
Si Si2 0.365154 0.887999 0.282242
Si Si3 0.387761 0.990777 0.837888
Si Si4 0.060710 0.671968 0.010314
Si Si5 0.361695 0.737018 0.695936
Si Si6 0.859964 0.304044 0.767518
Si Si7 0.689279 0.742528 0.132707
Si Si8 0.486825 0.130280 0.395606
O O1 0.062530 0.464961 0.745385
O O2 0.264548 0.270419 0.496049
O O3 0.878070 0.257666 0.365234
O O4 0.187305 0.054923 0.347330
O O5 0.548596 0.736462 0.142564
O O6 0.500000 0.000000 0.500000
O O7 0.259640 0.747668 0.139845
O O8 0.354848 0.827912 0.709937
O O9 0.505338 0.842905 0.658476
O O10 0.547453 0.120581 0.063625
O O11 0.161705 0.148676 0.896206
O O12 0.096027 0.625850 0.059329
O O13 0.500000 0.500000 0.500000
O O14 0.685003 0.178903 0.565487
O O15 0.095174 0.174299 0.686630
O O16 0.777478 0.497785 0.886974
O O17 0.528314 0.882262 0.161132
#
# Coordination Sequence:
#
# PCOD8016903 Si02
#       8
#     2   2   2   2   2   2   2   2
#     4  11  24  41  67  93 131 169 213 268 324 375
#     4  11  23  37  59  93 132 172 212 256 314 376
#     4  11  25  42  71  94 121 166 219 271 322 382
#     4  12  22  40  65  95 127 175 217 257 315 385
#     4  11  24  48  70  96 121 164 222 277 322 381
#     4  11  23  37  61  92 137 171 215 251 312 383
#     4  10  22  37  55  88 132 172 207 254 302 378
#     4  11  24  42  61  97 132 169 206 266 320 379
#
# _framework density 20.836675
#
# number of rings (size 3 to 8) (size 9 to 14) (size 15 to 20)
#    0.000    1.000    3.750    3.375    1.750    5.000 
#    0.000    0.625    0.000    0.000    0.000    0.000 
#    0.000    0.000    0.000    0.000    0.000    0.000 
#
# Total GULP energy -198293.197462 kJ/mol
# GULP energy per Si atom -12393.324841 kJ/mol
# Density = 2.078925 g / cm^3
# Si number density = 20.836675 Si / 1000 Ang^3
#
#
#
# Elastic Constant Matrix: (Units=GPa)
#
#
# Indices 1 2 3 4 5 6 
#
# 1 116.5001 46.9570 49.8038 -4.8777 5.7831 -7.2965
# 2 46.9570 99.3943 35.5718 -0.5251 -0.9587 -13.6640
# 3 49.8038 35.5718 78.8606 -9.8071 0.3417 -7.8318
# 4 -4.8777 -0.5251 -9.8071 32.0329 -3.9926 0.0972
# 5 5.7831 -0.9587 0.3417 -3.9926 33.7654 -8.2515
# 6 -7.2965 -13.6640 -7.8318 0.0972 -8.2515 32.5159
#
#
#
# Elastic Compliance Matrix: (Units=1/GPa)
#
#
# Indices 1 2 3 4 5 6 
#
# 1 0.013048 -0.003968 -0.006588 -0.000412 -0.002568 -0.000977
# 2 -0.003968 0.013809 -0.003419 -0.001177 0.002097 0.004625
# 3 -0.006588 -0.003419 0.019223 0.005065 0.001973 0.002201
# 4 -0.000412 -0.001177 0.005065 0.033219 0.004312 0.001628
# 5 -0.002568 0.002097 0.001973 0.004312 0.032829 0.009098
# 6 -0.000977 0.004625 0.002201 0.001628 0.009098 0.035312
#
#
# Mechanical properties :
#
#
# Convention : Reuss Voigt Hill
#
# Bulk Modulus (GPa) = 55.15489 62.15778 58.65633
# Shear Modulus (GPa) = 27.55811 30.49099 29.02455
#
# Velocity S-wave (km/s) = 3.64067 3.82950 3.73628
# Velocity P-wave (km/s) = 6.64832 7.03201 6.84286
#
# Compressibility (1/GPa) = 0.01813076
#
# Stress axis : x y z
#
# Youngs Moduli (GPa) = 76.63757 72.41675 52.02002
#
# Poissons Ratio (x) = 0.28735 0.34270
# Poissons Ratio (y) = 0.30410 0.17786
# Poissons Ratio (z) = 0.50488 0.24760
#
# Static dielectric constant tensor:
#      x y z
#    x 3.986150 -0.189080 0.092490 
#    y -0.189080 3.774960 0.043960 
#    z 0.092490 0.043960 3.646540 
# 
# 
# High freq. dielectric constant tensor:
#      x y z
#    x 1.831040 -0.010790 0.012580 
#    y -0.010790 1.817390 0.015630 
#    z 0.012580 0.015630 1.806880 
# 
# From -- ./inp_files/218494.got.cif
#   From: 2010.06.25/outbox.cif.g09.slc.cpg/sg2_110_cif.got.tgz:218494.got - 2010.06.27 13:26:56.
