data_PCOD8016791
_publ_section_title
;
Structure prediction by ZEFSAII (Michael W. Deem and Ramdas Pophale) SiO2 
 PCOD8016791
Probable space group: P -1
;
_chemical_formula_sum "Si O2"
_cell_formula_units_Z 16
_cell_length_a 17.315414
_cell_length_b 12.863653
_cell_length_c 5.179793
_cell_angle_alpha 122.400947
_cell_angle_beta 60.041421
_cell_angle_gamma 121.011885
_cell_volume 794.142479
_symmetry_space_group_name_H-M "P -1"
_symmetry_group_IT_number 2
_symmetry_cell_setting 'triclinic'
loop_
_space_group_symop_operation_xyz
x,y,z
-x,-y,-z
loop_
_atom_site_type_symbol
_atom_site_label
_atom_site_fract_x
_atom_site_fract_y
_atom_site_fract_z
Si Si1 0.663012 0.831519 0.826668
Si Si2 0.566693 0.692093 0.304825
Si Si3 0.362780 0.531728 0.278229
Si Si4 0.118721 0.791423 0.575833
Si Si5 0.206896 0.887454 0.053766
Si Si6 0.215710 0.640402 0.495242
Si Si7 0.899631 0.641820 0.688344
Si Si8 0.204998 0.328357 0.575733
O O1 0.589470 0.766971 0.636542
O O2 0.755639 0.789507 0.595583
O O3 0.697557 0.988025 0.951578
O O4 0.610170 0.791651 0.132837
O O5 0.453770 0.635847 0.394516
O O6 0.609148 0.574046 0.078898
O O7 0.311670 0.604304 0.266051
O O8 0.291347 0.460186 0.532221
O O9 0.148752 0.887953 0.411360
O O10 0.184453 0.698008 0.362032
O O11 0.010345 0.702524 0.626101
O O12 0.138019 0.884415 0.920995
O O13 0.232701 0.753701 0.834767
O O14 0.127975 0.510624 0.547691
O O15 0.867957 0.714331 0.600232
O O16 0.844632 0.648663 0.051735
#
# Coordination Sequence:
#
# PCOD8016791 Si02
#       8
#     2   2   2   2   2   2   2   2
#     4  11  21  42  57  83 115 158 189 225 290 333
#     4  10  22  37  66  86 115 143 187 243 279 347
#     4   9  20  40  59  96 111 143 186 237 300 327
#     4  10  22  38  57  85 113 155 190 234 278 334
#     4  10  23  38  58  79 115 163 189 227 275 338
#     4   9  22  36  61  82 119 148 183 240 280 343
#     4  11  21  37  59  91 111 143 195 237 293 324
#     4  10  22  35  61  85 118 145 181 244 284 343
#
# _framework density 20.147518999999999
#
# number of rings (size 3 to 8) (size 9 to 14) (size 15 to 20)
#    0.750    1.250    0.000    4.125    3.500    7.000 
#    0.000    5.000    0.000    0.000    0.000    0.000 
#    0.000    0.000    0.000    0.000    0.000    0.000 
#
# Total GULP energy -198304.614426 kJ/mol
# GULP energy per Si atom -12394.038402 kJ/mol
# Density = 2.010166 g / cm^3
# Si number density = 20.147519 Si / 1000 Ang^3
#
#
#
# Elastic Constant Matrix: (Units=GPa)
#
#
# Indices 1 2 3 4 5 6 
#
# 1 127.9480 39.3690 37.7326 -7.2564 6.4018 21.1005
# 2 39.3690 73.5186 21.4793 -2.6979 -0.8365 14.8427
# 3 37.7326 21.4793 49.5603 -11.6775 5.4294 -5.3958
# 4 -7.2564 -2.6979 -11.6775 22.4879 3.8328 12.1017
# 5 6.4018 -0.8365 5.4294 3.8328 30.1750 -6.4485
# 6 21.1005 14.8427 -5.3958 12.1017 -6.4485 25.9666
#
#
#
# Elastic Compliance Matrix: (Units=1/GPa)
#
#
# Indices 1 2 3 4 5 6 
#
# 1 0.016116 -0.000398 -0.010500 0.013788 -0.008323 -0.023543
# 2 -0.000398 0.019810 -0.008072 0.007509 -0.002455 -0.016787
# 3 -0.010500 -0.008072 0.034682 0.003938 -0.000823 0.018313
# 4 0.013788 0.007509 0.003938 0.091466 -0.028820 -0.064463
# 5 -0.008323 -0.002455 -0.000823 -0.028820 0.045648 0.032764
# 6 -0.023543 -0.016787 0.018313 -0.064463 0.032764 0.109223
#
#
# Mechanical properties :
#
#
# Convention : Reuss Voigt Hill
#
# Bulk Modulus (GPa) = 30.61091 49.79876 40.20483
# Shear Modulus (GPa) = 13.66967 25.88896 19.77931
#
# Velocity S-wave (km/s) = 2.60759 3.58854 3.13665
# Velocity P-wave (km/s) = 4.92873 6.47618 5.75470
#
# Compressibility (1/GPa) = 0.03266809
#
# Stress axis : x y z
#
# Youngs Moduli (GPa) = 62.05200 50.47901 28.83366
#
# Poissons Ratio (x) = 0.02008 0.30274
# Poissons Ratio (y) = 0.02469 0.23275
# Poissons Ratio (z) = 0.65152 0.40748
#
# Static dielectric constant tensor:
#      x y z
#    x 3.778200 -0.013860 0.088480 
#    y -0.013860 3.563100 -0.012960 
#    z 0.088480 -0.012960 3.423680 
# 
# 
# High freq. dielectric constant tensor:
#      x y z
#    x 1.794660 0.002630 0.015900 
#    y 0.002630 1.779010 -0.005460 
#    z 0.015900 -0.005460 1.764600 
# 
# From -- ./inp_files/110621.got.cif
#   From: 2010.06.25/outbox.cif.g09.slc.cpg/sg2_56_cif.got.tgz:110621.got - 2010.06.27 13:26:56.
