data_PCOD8016231
_publ_section_title
;
Structure prediction by ZEFSAII (Michael W. Deem and Ramdas Pophale) SiO2 
 PCOD8016231
Probable space group: P -1
;
_chemical_formula_sum "Si O2"
_cell_formula_units_Z 14
_cell_length_a 11.575105
_cell_length_b 13.541555
_cell_length_c 9.087047
_cell_angle_alpha 47.843618
_cell_angle_beta 143.195765
_cell_angle_gamma 128.013840
_cell_volume 622.615304
_symmetry_space_group_name_H-M "P -1"
_symmetry_group_IT_number 2
_symmetry_cell_setting 'triclinic'
loop_
_space_group_symop_operation_xyz
x,y,z
-x,-y,-z
loop_
_atom_site_type_symbol
_atom_site_label
_atom_site_fract_x
_atom_site_fract_y
_atom_site_fract_z
Si Si1 0.743619 0.418743 0.228367
Si Si2 0.921457 0.585998 0.638774
Si Si3 0.702773 0.994966 0.290645
Si Si4 0.577842 0.906077 0.556441
Si Si5 0.691655 0.686649 0.063579
Si Si6 0.969240 0.787375 0.730568
Si Si7 0.799724 0.302616 0.697120
O O1 0.530045 0.328457 0.084319
O O2 0.863841 0.353623 0.545629
O O3 0.862152 0.424315 0.191521
O O4 0.716921 0.568766 0.094430
O O5 0.780659 0.438823 0.634176
O O6 0.927151 0.639693 0.758008
O O7 0.834217 0.694127 0.340918
O O8 0.683077 0.001826 0.439771
O O9 0.777173 0.855820 0.463864
O O10 0.857997 0.124250 0.274078
O O11 0.500000 0.000000 0.000000
O O12 0.732425 0.827519 0.874087
O O13 0.407183 0.797062 0.415637
O O14 0.500000 0.000000 0.500000
O O15 0.037741 0.770364 0.985775
#
# Coordination Sequence:
#
# PCOD8016231 Si02
#       7
#     2   2   2   2   2   2   2
#     4   9  20  38  67  92 132 167 205 276 322 374
#     4  11  23  39  70  98 132 168 211 267 329 395
#     4  11  26  48  64  90 137 177 218 270 311 384
#     4  11  25  42  73  93 126 176 223 271 319 381
#     4   9  20  39  62  97 128 161 218 266 323 371
#     4  11  26  43  68  96 132 179 214 257 332 391
#     4  10  21  44  62 100 130 161 217 269 321 384
#
# _framework density 22.485795
#
# number of rings (size 3 to 8) (size 9 to 14) (size 15 to 20)
#    0.000    1.714    1.429    3.000   10.000    0.000 
#    0.000    2.143    0.000    0.000    0.000    0.000 
#    0.000    0.000    0.000    0.000    0.000    0.000 
#
# Total GULP energy -173605.078226 kJ/mol
# GULP energy per Si atom -12400.362730 kJ/mol
# Density = 2.243462 g / cm^3
# Si number density = 22.485795 Si / 1000 Ang^3
#
#
#
# Elastic Constant Matrix: (Units=GPa)
#
#
# Indices 1 2 3 4 5 6 
#
# 1 104.7020 31.3622 31.2998 -4.8654 3.2902 -10.2381
# 2 31.3622 74.6713 10.9897 -5.2995 7.1296 -6.7758
# 3 31.2998 10.9897 128.3885 -8.7772 5.1568 4.5636
# 4 -4.8654 -5.2995 -8.7772 29.7287 5.6320 -3.2992
# 5 3.2902 7.1296 5.1568 5.6320 31.9121 -4.7808
# 6 -10.2381 -6.7758 4.5636 -3.2992 -4.7808 24.8328
#
#
#
# Elastic Compliance Matrix: (Units=1/GPa)
#
#
# Indices 1 2 3 4 5 6 
#
# 1 0.012108 -0.004281 -0.002721 0.000790 0.000692 0.004562
# 2 -0.004281 0.015942 -0.000067 0.003006 -0.003286 0.002364
# 3 -0.002721 -0.000067 0.008786 0.002188 -0.001935 -0.002837
# 4 0.000790 0.003006 0.002188 0.036741 -0.006949 0.004287
# 5 0.000692 -0.003286 -0.001935 -0.006949 0.034352 0.005435
# 6 0.004562 0.002364 -0.002837 0.004287 0.005435 0.044932
#
#
# Mechanical properties :
#
#
# Convention : Reuss Voigt Hill
#
# Bulk Modulus (GPa) = 44.05980 50.56280 47.31130
# Shear Modulus (GPa) = 28.64254 32.90206 30.77230
#
# Velocity S-wave (km/s) = 3.57291 3.82938 3.70337
# Velocity P-wave (km/s) = 6.05458 6.48749 6.27477
#
# Compressibility (1/GPa) = 0.02269643
#
# Stress axis : x y z
#
# Youngs Moduli (GPa) = 82.59181 62.72935 113.81441
#
# Poissons Ratio (x) = 0.26853 0.30972
# Poissons Ratio (y) = 0.35356 0.00768
# Poissons Ratio (z) = 0.22475 0.00423
#
# Static dielectric constant tensor:
#      x y z
#    x 3.899760 0.152960 -0.095180 
#    y 0.152960 3.902050 -0.112330 
#    z -0.095180 -0.112330 4.351230 
# 
# 
# High freq. dielectric constant tensor:
#      x y z
#    x 1.872060 0.006230 -0.005830 
#    y 0.006230 1.869420 -0.010300 
#    z -0.005830 -0.010300 1.901830 
# 
# From -- ./inp_files/261858.got.cif
#   From: 2010.06.25/outbox.cif.g09.slc.cpg/sg2_131_cif.got.tgz:261858.got - 2010.06.27 13:26:56.
