data_PCOD8016024
_publ_section_title
;
Structure prediction by ZEFSAII (Michael W. Deem and Ramdas Pophale) SiO2 
 PCOD8016024
Probable space group: P -1
;
_chemical_formula_sum "Si O2"
_cell_formula_units_Z 14
_cell_length_a 8.426394
_cell_length_b 11.860870
_cell_length_c 10.154214
_cell_angle_alpha 115.322700
_cell_angle_beta 55.578647
_cell_angle_gamma 132.084031
_cell_volume 619.325746
_symmetry_space_group_name_H-M "P -1"
_symmetry_group_IT_number 2
_symmetry_cell_setting 'triclinic'
loop_
_space_group_symop_operation_xyz
x,y,z
-x,-y,-z
loop_
_atom_site_type_symbol
_atom_site_label
_atom_site_fract_x
_atom_site_fract_y
_atom_site_fract_z
Si Si1 0.060861 0.248608 0.775727
Si Si2 0.727004 0.318823 0.620348
Si Si3 0.410242 0.925358 0.233435
Si Si4 0.594124 0.805481 0.540061
Si Si5 0.060875 0.884079 0.955311
Si Si6 0.862185 0.635137 0.700971
Si Si7 0.453306 0.567605 0.681760
O O1 0.167355 0.182572 0.595562
O O2 0.199020 0.432162 0.789959
O O3 0.790335 0.173305 0.829522
O O4 0.084047 0.207419 0.892976
O O5 0.575118 0.185269 0.728687
O O6 0.586097 0.291291 0.539503
O O7 0.786678 0.477940 0.729368
O O8 0.964703 0.331046 0.485104
O O9 0.350340 0.028069 0.394328
O O10 0.663042 0.026944 0.096797
O O11 0.472577 0.716043 0.690924
O O12 0.995978 0.769332 0.809479
O O13 0.000000 0.000000 0.000000
O O14 0.639783 0.623734 0.739902
O O15 0.500000 0.500000 0.500000
#
# Coordination Sequence:
#
# PCOD8016024 Si02
#       7
#     2   2   2   2   2   2   2
#     4  11  25  45  66 101 141 181 228 276 346 410
#     4  11  22  42  73 104 132 175 236 285 335 396
#     4  12  26  44  71 100 141 179 232 282 340 399
#     4  11  22  43  73 105 134 173 235 289 338 393
#     4  12  29  47  66 100 145 186 224 274 348 416
#     4  11  24  43  72  98 140 176 231 282 340 399
#     4  10  21  43  69 102 131 173 230 284 336 397
#
# _framework density 22.605229000000001
#
# number of rings (size 3 to 8) (size 9 to 14) (size 15 to 20)
#    0.000    0.857    4.286    3.857    6.000    0.571 
#    0.000    1.429    0.000    0.000    0.000    0.000 
#    0.000    0.000    0.000    0.000    0.000    0.000 
#
# Total GULP energy -173644.213421 kJ/mol
# GULP energy per Si atom -12403.158102 kJ/mol
# Density = 2.255378 g / cm^3
# Si number density = 22.605229 Si / 1000 Ang^3
#
#
#
# Elastic Constant Matrix: (Units=GPa)
#
#
# Indices 1 2 3 4 5 6 
#
# 1 118.0646 49.5990 23.4515 -1.3382 6.6706 13.6502
# 2 49.5990 131.3447 37.9177 -12.0919 11.6038 -8.5641
# 3 23.4515 37.9177 51.4619 -15.4004 9.2929 -8.8463
# 4 -1.3382 -12.0919 -15.4004 33.2229 -6.1081 2.5949
# 5 6.6706 11.6038 9.2929 -6.1081 26.0557 -6.1700
# 6 13.6502 -8.5641 -8.8463 2.5949 -6.1700 49.3517
#
#
#
# Elastic Compliance Matrix: (Units=1/GPa)
#
#
# Indices 1 2 3 4 5 6 
#
# 1 0.011294 -0.003563 -0.003758 -0.002531 -0.001620 -0.004485
# 2 -0.003563 0.010885 -0.005619 0.000837 -0.001343 0.001655
# 3 -0.003758 -0.005619 0.029886 0.010641 -0.003657 0.004405
# 4 -0.002531 0.000837 0.010641 0.036091 0.005300 0.001518
# 5 -0.001620 -0.001343 -0.003657 0.005300 0.043043 0.004662
# 6 -0.004485 0.001655 0.004405 0.001518 0.004662 0.023083
#
#
# Mechanical properties :
#
#
# Convention : Reuss Voigt Hill
#
# Bulk Modulus (GPa) = 38.18723 58.08973 48.13848
# Shear Modulus (GPa) = 26.47042 34.38626 30.42834
#
# Velocity S-wave (km/s) = 3.42568 3.90444 3.67287
# Velocity P-wave (km/s) = 5.70761 6.78819 6.27122
#
# Compressibility (1/GPa) = 0.02618677
#
# Stress axis : x y z
#
# Youngs Moduli (GPa) = 88.53924 91.87297 33.46009
#
# Poissons Ratio (x) = 0.32730 0.12574
# Poissons Ratio (y) = 0.31542 0.18801
# Poissons Ratio (z) = 0.33273 0.51622
#
# Static dielectric constant tensor:
#      x y z
#    x 4.139890 -0.131030 -0.008780 
#    y -0.131030 4.528980 -0.230980 
#    z -0.008780 -0.230980 3.721980 
# 
# 
# High freq. dielectric constant tensor:
#      x y z
#    x 1.901390 0.001370 0.006410 
#    y 0.001370 1.910920 -0.012200 
#    z 0.006410 -0.012200 1.857320 
# 
# From -- ./inp_files/189078.got.cif
#   From: 2010.06.25/outbox.cif.g09.slc.cpg/sg2_95_cif.got.tgz:189078.got - 2010.06.27 13:26:56.
