data_PCOD8016247
_publ_section_title
;
Structure prediction by ZEFSAII (Michael W. Deem and Ramdas Pophale) SiO2 
 PCOD8016247
Probable space group: P -1
;
_chemical_formula_sum "Si O2"
_cell_formula_units_Z 14
_cell_length_a 10.224351
_cell_length_b 13.176764
_cell_length_c 11.905138
_cell_angle_alpha 36.748973
_cell_angle_beta 69.865100
_cell_angle_gamma 96.978516
_cell_volume 636.925057
_symmetry_space_group_name_H-M "P -1"
_symmetry_group_IT_number 2
_symmetry_cell_setting 'triclinic'
loop_
_space_group_symop_operation_xyz
x,y,z
-x,-y,-z
loop_
_atom_site_type_symbol
_atom_site_label
_atom_site_fract_x
_atom_site_fract_y
_atom_site_fract_z
Si Si1 0.645086 0.899355 0.826234
Si Si2 0.259867 0.561098 0.356906
Si Si3 0.775536 0.832815 0.246512
Si Si4 0.189143 0.854526 0.207901
Si Si5 0.110768 0.768861 0.725543
Si Si6 0.266026 0.352177 0.113473
Si Si7 0.671509 0.822302 0.542009
O O1 0.683472 0.744886 0.907657
O O2 0.764887 0.028014 0.790511
O O3 0.719612 0.099025 0.535754
O O4 0.412373 0.727545 0.063593
O O5 0.324129 0.438588 0.508233
O O6 0.271954 0.733300 0.283435
O O7 0.045261 0.353971 0.551295
O O8 0.743409 0.849326 0.371409
O O9 0.702342 0.928761 0.107777
O O10 0.000000 0.000000 0.000000
O O11 0.954168 0.775830 0.729120
O O12 0.213189 0.909692 0.687884
O O13 0.000000 0.500000 0.000000
O O14 0.274374 0.289779 0.293652
O O15 0.433593 0.641651 0.785398
#
# Coordination Sequence:
#
# PCOD8016247 Si02
#       7
#     2   2   2   2   2   2   2
#     4  11  22  42  67  91 127 171 216 267 326 390
#     4  10  22  42  61  94 131 176 215 257 333 383
#     4  10  22  38  65  96 125 175 215 257 328 384
#     4  10  24  40  64  96 135 170 214 272 317 393
#     4  11  27  41  64 101 126 167 220 276 330 386
#     4  10  23  41  71  91 120 179 216 266 330 380
#     4  10  21  44  64  91 129 164 220 269 316 400
#
# _framework density 21.980606999999999
#
# number of rings (size 3 to 8) (size 9 to 14) (size 15 to 20)
#    0.000    1.714    1.429    2.143    8.000    5.714 
#    0.000    0.000    0.000    0.000    0.000    0.000 
#    0.000    0.000    0.000    0.000    0.000    0.000 
#
# Total GULP energy -173503.720840 kJ/mol
# GULP energy per Si atom -12393.122917 kJ/mol
# Density = 2.193058 g / cm^3
# Si number density = 21.980607 Si / 1000 Ang^3
#
#
#
# Elastic Constant Matrix: (Units=GPa)
#
#
# Indices 1 2 3 4 5 6 
#
# 1 31.2300 28.6711 20.6267 -5.7584 8.0705 -5.3451
# 2 28.6711 113.9183 45.3476 -6.1457 14.0705 8.2865
# 3 20.6267 45.3476 134.3996 -11.0787 -0.4130 -11.8267
# 4 -5.7584 -6.1457 -11.0787 44.7717 -9.6298 1.8460
# 5 8.0705 14.0705 -0.4130 -9.6298 32.0667 -0.4537
# 6 -5.3451 8.2865 -11.8267 1.8460 -0.4537 24.9435
#
#
#
# Elastic Compliance Matrix: (Units=1/GPa)
#
#
# Indices 1 2 3 4 5 6 
#
# 1 0.048028 -0.011172 -0.002331 0.002173 -0.006384 0.012621
# 2 -0.011172 0.014263 -0.003981 -0.000932 -0.003905 -0.009022
# 3 -0.002331 -0.003981 0.009791 0.002032 0.003146 0.005372
# 4 0.002173 -0.000932 0.002032 0.024549 0.007261 0.000054
# 5 -0.006384 -0.003905 0.003146 0.007261 0.036748 0.001552
# 6 0.012621 -0.009022 0.005372 0.000054 0.001552 0.048364
#
#
# Mechanical properties :
#
#
# Convention : Reuss Voigt Hill
#
# Bulk Modulus (GPa) = 26.94393 52.09318 39.51856
# Shear Modulus (GPa) = 21.82625 32.68322 27.25473
#
# Velocity S-wave (km/s) = 3.15457 3.86023 3.52510
# Velocity P-wave (km/s) = 5.05501 6.60451 5.88102
#
# Compressibility (1/GPa) = 0.03711411
#
# Stress axis : x y z
#
# Youngs Moduli (GPa) = 20.82140 70.11222 102.13230
#
# Poissons Ratio (x) = 0.78329 0.23810
# Poissons Ratio (y) = 0.23261 0.40654
# Poissons Ratio (z) = 0.04854 0.27908
#
# Static dielectric constant tensor:
#      x y z
#    x 4.160590 -0.217600 0.101880 
#    y -0.217600 4.002620 -0.194240 
#    z 0.101880 -0.194240 4.661600 
# 
# 
# High freq. dielectric constant tensor:
#      x y z
#    x 1.836040 -0.006730 -0.013920 
#    y -0.006730 1.867570 -0.008100 
#    z -0.013920 -0.008100 1.890470 
# 
# From -- ./inp_files/254417.got.cif
#   From: 2010.06.25/outbox.cif.g09.slc.cpg/sg2_128_cif.got.tgz:254417.got - 2010.06.27 13:26:56.
