data_PCOD8016706
_publ_section_title
;
Structure prediction by ZEFSAII (Michael W. Deem and Ramdas Pophale) SiO2 
 PCOD8016706
Probable space group: P -1
;
_chemical_formula_sum "Si O2"
_cell_formula_units_Z 16
_cell_length_a 18.831298
_cell_length_b 8.697820
_cell_length_c 6.554286
_cell_angle_alpha 129.337671
_cell_angle_beta 123.274739
_cell_angle_gamma 61.757152
_cell_volume 680.985545
_symmetry_space_group_name_H-M "P -1"
_symmetry_group_IT_number 2
_symmetry_cell_setting 'triclinic'
loop_
_space_group_symop_operation_xyz
x,y,z
-x,-y,-z
loop_
_atom_site_type_symbol
_atom_site_label
_atom_site_fract_x
_atom_site_fract_y
_atom_site_fract_z
Si Si1 0.356665 0.827773 0.340191
Si Si2 0.797587 0.472350 0.594658
Si Si3 0.942107 0.829494 0.796350
Si Si4 0.644228 0.509925 0.669048
Si Si5 0.826436 0.208758 0.074315
Si Si6 0.681744 0.733900 0.307406
Si Si7 0.474857 0.304294 0.703439
Si Si8 0.089495 0.498044 0.839421
O O1 0.396679 0.671342 0.450601
O O2 0.433135 0.850097 0.318122
O O3 0.309542 0.038365 0.538643
O O4 0.278898 0.734056 0.038977
O O5 0.719921 0.411912 0.550835
O O6 0.850974 0.273323 0.395301
O O7 0.759758 0.636807 0.499186
O O8 0.863348 0.559211 0.919096
O O9 0.914928 0.718436 0.455631
O O10 0.993635 0.637356 0.846333
O O11 0.858393 0.965840 0.887924
O O12 0.000000 0.000000 0.000000
O O13 0.570679 0.661012 0.559262
O O14 0.686735 0.627408 0.008360
O O15 0.861236 0.354114 0.089110
O O16 0.587040 0.765041 0.286612
O O17 0.500000 0.500000 0.000000
#
# Coordination Sequence:
#
# PCOD8016706 Si02
#       8
#     2   2   2   2   2   2   2   2
#     4  12  23  42  67  95 132 177 224 276 328 392
#     4  11  22  43  67  99 138 175 222 279 329 391
#     4   9  22  44  70 100 132 173 214 270 333 403
#     4  11  23  46  65  94 135 180 221 278 337 384
#     4  11  23  42  68  98 136 174 222 273 333 395
#     4  11  25  43  63  97 135 177 228 276 331 390
#     4  11  23  45  67  91 136 177 225 281 333 387
#     4  10  21  46  71  95 137 173 215 272 334 396
#
# _framework density 23.495358
#
# number of rings (size 3 to 8) (size 9 to 14) (size 15 to 20)
#    0.000    1.250    3.750    1.500    3.500    1.000 
#   13.500    5.625    0.000    0.000    0.000    0.000 
#    0.000    0.000    0.000    0.000    0.000    0.000 
#
# Total GULP energy -198217.395748 kJ/mol
# GULP energy per Si atom -12388.587234 kJ/mol
# Density = 2.344188 g / cm^3
# Si number density = 23.495358 Si / 1000 Ang^3
#
#
#
# Elastic Constant Matrix: (Units=GPa)
#
#
# Indices 1 2 3 4 5 6 
#
# 1 53.4760 15.7561 24.4969 -6.5581 -11.8101 -25.2953
# 2 15.7561 65.5652 69.8570 17.6819 -9.0144 -17.8057
# 3 24.4969 69.8570 173.2782 3.5258 -8.7050 -14.8405
# 4 -6.5581 17.6819 3.5258 41.9566 -8.8400 -2.7887
# 5 -11.8101 -9.0144 -8.7050 -8.8400 36.2839 1.8167
# 6 -25.2953 -17.8057 -14.8405 -2.7887 1.8167 32.9430
#
#
#
# Elastic Compliance Matrix: (Units=1/GPa)
#
#
# Indices 1 2 3 4 5 6 
#
# 1 0.036814 0.000243 -0.002531 0.010339 0.012581 0.027440
# 2 0.000243 0.036714 -0.013366 -0.013001 0.002186 0.012788
# 3 -0.002531 -0.013366 0.011093 0.003984 -0.000321 -0.003815
# 4 0.010339 -0.013001 0.003984 0.032787 0.008829 0.004995
# 5 0.012581 0.002186 -0.000321 0.008829 0.033793 0.009581
# 6 0.027440 0.012788 -0.003815 0.004995 0.009581 0.056513
#
#
# Mechanical properties :
#
#
# Convention : Reuss Voigt Hill
#
# Bulk Modulus (GPa) = 18.75687 56.94884 37.85285
# Shear Modulus (GPa) = 19.47095 34.38399 26.92747
#
# Velocity S-wave (km/s) = 2.88186 3.82964 3.38905
# Velocity P-wave (km/s) = 4.36739 6.62162 5.60892
#
# Compressibility (1/GPa) = 0.05331381
#
# Stress axis : x y z
#
# Youngs Moduli (GPa) = 27.16372 27.23748 90.14375
#
# Poissons Ratio (x) = -0.00662 0.22812
# Poissons Ratio (y) = -0.00660 1.20486
# Poissons Ratio (z) = 0.06874 0.36406
#
# Static dielectric constant tensor:
#      x y z
#    x 4.689470 -0.730260 -0.038060 
#    y -0.730260 4.273620 0.070750 
#    z -0.038060 0.070750 4.379930 
# 
# 
# High freq. dielectric constant tensor:
#      x y z
#    x 1.938570 -0.019590 0.007210 
#    y -0.019590 1.915390 0.012810 
#    z 0.007210 0.012810 1.933010 
# 
# From -- ./inp_files/117546.got.cif
#   From: 2010.06.25/outbox.cif.g09.slc.cpg/sg2_59_cif.got.tgz:117546.got - 2010.06.27 13:26:56.
