data_PCOD8016656
_publ_section_title
;
Structure prediction by ZEFSAII (Michael W. Deem and Ramdas Pophale) SiO2 
 PCOD8016656
Probable space group: P -1
;
_chemical_formula_sum "Si O2"
_cell_formula_units_Z 14
_cell_length_a 9.026958
_cell_length_b 16.922193
_cell_length_c 12.914236
_cell_angle_alpha 36.050118
_cell_angle_beta 28.429028
_cell_angle_gamma 41.377467
_cell_volume 547.202399
_symmetry_space_group_name_H-M "P -1"
_symmetry_group_IT_number 2
_symmetry_cell_setting 'triclinic'
loop_
_space_group_symop_operation_xyz
x,y,z
-x,-y,-z
loop_
_atom_site_type_symbol
_atom_site_label
_atom_site_fract_x
_atom_site_fract_y
_atom_site_fract_z
Si Si1 0.875170 0.621732 0.374522
Si Si2 0.743699 0.006377 0.751225
Si Si3 0.293672 0.812366 0.840957
Si Si4 0.964445 0.795224 0.509876
Si Si5 0.139236 0.488568 0.725298
Si Si6 0.831677 0.032793 0.958405
Si Si7 0.783134 0.266698 0.250014
O O1 0.923582 0.565664 0.290201
O O2 0.515198 0.691973 0.536048
O O3 0.000000 0.500000 0.500000
O O4 0.112916 0.732371 0.122585
O O5 0.983376 0.119461 0.306697
O O6 0.894625 0.143278 0.537865
O O7 0.518589 0.011311 0.781214
O O8 0.500000 0.000000 0.000000
O O9 0.599399 0.856830 0.658757
O O10 0.368409 0.733124 0.771804
O O11 0.047188 0.947455 0.827192
O O12 0.953034 0.636776 0.702698
O O13 0.155888 0.818503 0.259356
O O14 0.500000 0.500000 0.500000
O O15 0.015113 0.381864 0.994405
O O16 0.000000 0.000000 0.000000
#
# Coordination Sequence:
#
# PCOD8016656 Si02
#       7
#     2   2   2   2   2   2   2
#     4  11  26  45  72 103 146 194 246 290 353 435
#     4  10  21  45  75 102 144 189 231 297 363 426
#     4  11  24  43  72 105 142 186 240 300 355 420
#     4  11  23  44  74 101 144 192 235 293 368 421
#     4  11  25  45  72 104 147 188 240 299 354 425
#     4  11  25  42  71 107 144 181 238 300 360 427
#     4  11  23  47  77 102 147 197 239 293 364 427
#
# _framework density 25.584683999999999
#
# number of rings (size 3 to 8) (size 9 to 14) (size 15 to 20)
#    0.000    1.143    2.857    3.857    6.000    2.857 
#    2.571    1.429    3.143    0.000    0.000    0.000 
#    0.000    0.000    0.000    0.000    0.000    0.000 
#
# Total GULP energy -173487.085409 kJ/mol
# GULP energy per Si atom -12391.934672 kJ/mol
# Density = 2.552645 g / cm^3
# Si number density = 25.584684 Si / 1000 Ang^3
#
#
#
# Elastic Constant Matrix: (Units=GPa)
#
#
# Indices 1 2 3 4 5 6 
#
# 1 125.6256 26.5310 44.4570 0.7369 -35.6424 -6.1044
# 2 26.5310 139.0303 33.0813 1.7144 -15.7741 -5.9220
# 3 44.4570 33.0813 110.4130 0.8554 -38.1065 11.1707
# 4 0.7369 1.7144 0.8554 42.5224 -3.0350 -8.9550
# 5 -35.6424 -15.7741 -38.1065 -3.0350 46.3366 4.7028
# 6 -6.1044 -5.9220 11.1707 -8.9550 4.7028 33.3650
#
#
#
# Elastic Compliance Matrix: (Units=1/GPa)
#
#
# Indices 1 2 3 4 5 6 
#
# 1 0.010694 -0.000763 -0.002201 0.000720 0.006009 0.001904
# 2 -0.000763 0.007972 -0.002272 0.000179 0.000059 0.002076
# 3 -0.002201 -0.002272 0.015075 -0.001020 0.010638 -0.007626
# 4 0.000720 0.000179 -0.001020 0.025070 0.000693 0.007136
# 5 0.006009 0.000059 0.010638 0.000693 0.035759 -0.007306
# 6 0.001904 0.002076 -0.007626 0.007136 -0.007306 0.036187
#
#
# Mechanical properties :
#
#
# Convention : Reuss Voigt Hill
#
# Bulk Modulus (GPa) = 42.97826 64.80083 53.88955
# Shear Modulus (GPa) = 33.56044 42.51145 38.03594
#
# Velocity S-wave (km/s) = 3.62572 4.08069 3.85992
# Velocity P-wave (km/s) = 5.86197 6.89824 6.40111
#
# Compressibility (1/GPa) = 0.02326758
#
# Stress axis : x y z
#
# Youngs Moduli (GPa) = 93.51407 125.44133 66.33536
#
# Poissons Ratio (x) = 0.09569 0.14603
# Poissons Ratio (y) = 0.07133 0.15073
# Poissons Ratio (z) = 0.20586 0.28503
#
# Static dielectric constant tensor:
#      x y z
#    x 4.918090 -0.125060 -0.118440 
#    y -0.125060 4.950980 -0.408920 
#    z -0.118440 -0.408920 5.209500 
# 
# 
# High freq. dielectric constant tensor:
#      x y z
#    x 2.024030 -0.001270 -0.013700 
#    y -0.001270 2.022190 -0.001890 
#    z -0.013700 -0.001890 2.041320 
# 
# From -- ./inp_files/84355.got.cif
#   From: 2010.06.25/outbox.cif.g09.slc.cpg/sg2_43_cif.got.tgz:84355.got - 2010.06.27 13:26:56.
