data_PCOD8016721
_publ_section_title
;
Structure prediction by ZEFSAII (Michael W. Deem and Ramdas Pophale) SiO2 
 PCOD8016721
Probable space group: P -1
;
_chemical_formula_sum "Si O2"
_cell_formula_units_Z 16
_cell_length_a 11.774909
_cell_length_b 17.354192
_cell_length_c 8.910087
_cell_angle_alpha 139.648512
_cell_angle_beta 52.700273
_cell_angle_gamma 149.568937
_cell_volume 589.802595
_symmetry_space_group_name_H-M "P -1"
_symmetry_group_IT_number 2
_symmetry_cell_setting 'triclinic'
loop_
_space_group_symop_operation_xyz
x,y,z
-x,-y,-z
loop_
_atom_site_type_symbol
_atom_site_label
_atom_site_fract_x
_atom_site_fract_y
_atom_site_fract_z
Si Si1 0.367930 0.155925 0.087850
Si Si2 0.936049 0.157521 0.464973
Si Si3 0.180912 0.207969 0.088634
Si Si4 0.817031 0.446465 0.668119
Si Si5 0.646977 0.634990 0.374834
Si Si6 0.780458 0.312062 0.816191
Si Si7 0.956368 0.155553 0.911033
Si Si8 0.694155 0.850611 0.420952
O O1 0.173721 0.082618 0.017032
O O2 0.435700 0.308489 0.371009
O O3 0.571661 0.236662 0.952593
O O4 0.265332 0.978973 0.001898
O O5 0.770012 0.162632 0.616747
O O6 0.041619 0.221354 0.307539
O O7 0.151662 0.308741 0.627836
O O8 0.774441 0.936868 0.312130
O O9 0.447459 0.412884 0.175301
O O10 0.104723 0.155301 0.893358
O O11 0.781695 0.346548 0.694238
O O12 0.573978 0.301369 0.565175
O O13 0.000000 0.500000 0.500000
O O14 0.911078 0.637500 0.916657
O O15 0.737938 0.745888 0.304740
O O16 0.000000 0.500000 0.000000
O O17 0.855038 0.044586 0.670807
#
# Coordination Sequence:
#
# PCOD8016721 Si02
#       8
#     2   2   2   2   2   2   2   2
#     4  10  24  42  74 108 146 189 242 305 360 432
#     4  11  24  43  75 106 144 192 245 301 360 431
#     4  11  21  45  76 105 143 195 247 295 363 434
#     4  12  29  49  73 106 152 198 237 299 373 439
#     4  10  21  46  77 105 146 194 240 299 368 433
#     4  12  26  45  73 110 146 187 247 303 360 433
#     4  11  25  46  74 103 144 195 244 299 360 438
#     4  11  26  48  73 108 146 191 244 302 366 432
#
# _framework density 27.127721000000001
#
# number of rings (size 3 to 8) (size 9 to 14) (size 15 to 20)
#    0.000    1.000    1.250    5.250    7.000    1.000 
#    2.250    1.250    0.000    0.000    0.000    0.000 
#    0.000    0.000    0.000    0.000    0.000    0.000 
#
# Total GULP energy -198354.893229 kJ/mol
# GULP energy per Si atom -12397.180827 kJ/mol
# Density = 2.706598 g / cm^3
# Si number density = 27.127721 Si / 1000 Ang^3
#
#
#
# Elastic Constant Matrix: (Units=GPa)
#
#
# Indices 1 2 3 4 5 6 
#
# 1 132.3655 32.4400 45.7569 -7.2265 -6.5288 -7.1852
# 2 32.4400 121.2307 28.2030 -8.7391 0.8434 -12.0252
# 3 45.7569 28.2030 74.1442 0.0546 4.0803 -12.3711
# 4 -7.2265 -8.7391 0.0546 64.3009 -2.4117 8.2558
# 5 -6.5288 0.8434 4.0803 -2.4117 59.5914 0.2925
# 6 -7.1852 -12.0252 -12.3711 8.2558 0.2925 56.6704
#
#
#
# Elastic Compliance Matrix: (Units=1/GPa)
#
#
# Indices 1 2 3 4 5 6 
#
# 1 0.010003 -0.001296 -0.005841 0.001069 0.001560 -0.000446
# 2 -0.001296 0.009378 -0.002578 0.000985 -0.000064 0.001120
# 3 -0.005841 -0.002578 0.018685 -0.001484 -0.001958 0.003018
# 4 0.001069 0.000985 -0.001484 0.016140 0.000869 -0.002335
# 5 0.001560 -0.000064 -0.001958 0.000869 0.017124 -0.000458
# 6 -0.000446 0.001120 0.003018 -0.002335 -0.000458 0.018828
#
#
# Mechanical properties :
#
#
# Convention : Reuss Voigt Hill
#
# Bulk Modulus (GPa) = 53.65989 60.06000 56.85995
# Shear Modulus (GPa) = 43.17852 50.86859 47.02355
#
# Velocity S-wave (km/s) = 3.99391 4.33500 4.16794
# Velocity P-wave (km/s) = 6.41029 6.87343 6.64590
#
# Compressibility (1/GPa) = 0.01863589
#
# Stress axis : x y z
#
# Youngs Moduli (GPa) = 99.97351 106.63620 53.51941
#
# Poissons Ratio (x) = 0.13817 0.31261
# Poissons Ratio (y) = 0.12954 0.13796
# Poissons Ratio (z) = 0.58395 0.27489
#
# Static dielectric constant tensor:
#      x y z
#    x 5.501760 -0.020110 0.215720 
#    y -0.020110 5.600120 -0.144090 
#    z 0.215720 -0.144090 5.015310 
# 
# 
# High freq. dielectric constant tensor:
#      x y z
#    x 2.102260 -0.009560 0.022790 
#    y -0.009560 2.139040 -0.007710 
#    z 0.022790 -0.007710 2.102390 
# 
# From -- ./inp_files/280077.got.cif
#   From: 2010.06.25/outbox.cif.g09.slc.cpg/sg2_141_cif.got.tgz:280077.got - 2010.06.27 13:26:56.
