data_PCOD8016490
_publ_section_title
;
Structure prediction by ZEFSAII (Michael W. Deem and Ramdas Pophale) SiO2 
 PCOD8016490
Probable space group: P -1
;
_chemical_formula_sum "Si O2"
_cell_formula_units_Z 16
_cell_length_a 17.955081
_cell_length_b 8.904642
_cell_length_c 8.817912
_cell_angle_alpha 61.372563
_cell_angle_beta 36.399740
_cell_angle_gamma 78.031583
_cell_volume 690.001081
_symmetry_space_group_name_H-M "P -1"
_symmetry_group_IT_number 2
_symmetry_cell_setting 'triclinic'
loop_
_space_group_symop_operation_xyz
x,y,z
-x,-y,-z
loop_
_atom_site_type_symbol
_atom_site_label
_atom_site_fract_x
_atom_site_fract_y
_atom_site_fract_z
Si Si1 0.511199 0.202367 0.354071
Si Si2 0.336535 0.212389 0.377148
Si Si3 0.302810 0.206818 0.926930
Si Si4 0.919258 0.303814 0.160292
Si Si5 0.292249 0.443077 0.103993
Si Si6 0.994892 0.321905 0.688251
Si Si7 0.104829 0.086078 0.053668
Si Si8 0.345636 0.962700 0.230606
O O1 0.470348 0.211636 0.242265
O O2 0.417096 0.273626 0.580683
O O3 0.500000 0.000000 0.500000
O O4 0.662168 0.336881 0.075541
O O5 0.383591 0.391893 0.105960
O O6 0.283248 0.045269 0.428701
O O7 0.218487 0.196583 0.695706
O O8 0.307088 0.376519 0.942567
O O9 0.159043 0.132159 0.114875
O O10 0.334393 0.051167 0.045347
O O11 0.761747 0.244501 0.497403
O O12 0.978768 0.151438 0.200014
O O13 0.921831 0.318418 0.967727
O O14 0.000000 0.500000 0.000000
O O15 0.147054 0.343508 0.457737
O O16 0.000000 0.500000 0.500000
O O17 0.928419 0.130708 0.803345
O O18 0.500000 0.000000 0.000000
#
# Coordination Sequence:
#
# PCOD8016490 Si02
#       8
#     2   2   2   2   2   2   2   2
#     4  11  24  41  69 103 143 185 237 298 359 429
#     4  10  21  44  72  96 132 196 231 289 351 438
#     4  10  25  43  73 104 141 196 237 302 357 429
#     4  12  28  48  75 111 147 190 245 305 369 437
#     4  11  24  44  67 100 141 187 245 284 361 432
#     4  12  28  44  75 106 142 189 239 304 361 440
#     4  11  23  50  75 102 150 191 243 292 375 426
#     4  11  24  45  72 103 147 188 241 296 366 432
#
# _framework density 23.188369999999999
#
# number of rings (size 3 to 8) (size 9 to 14) (size 15 to 20)
#    0.000    1.000    2.500    3.375    7.000    3.000 
#    9.000    0.000    0.000    0.000    0.000    0.000 
#    0.000    0.000    0.000    0.000    0.000    0.000 
#
# Total GULP energy -198333.628631 kJ/mol
# GULP energy per Si atom -12395.851789 kJ/mol
# Density = 2.313559 g / cm^3
# Si number density = 23.188370 Si / 1000 Ang^3
#
#
#
# Elastic Constant Matrix: (Units=GPa)
#
#
# Indices 1 2 3 4 5 6 
#
# 1 159.1139 45.2359 43.1814 -14.0084 11.7365 6.4745
# 2 45.2359 102.0474 33.1694 -35.1662 1.0318 5.7586
# 3 43.1814 33.1694 92.5376 -19.4598 -13.5173 10.6867
# 4 -14.0084 -35.1662 -19.4598 40.0878 1.2623 -8.6961
# 5 11.7365 1.0318 -13.5173 1.2623 40.1544 -1.3689
# 6 6.4745 5.7586 10.6867 -8.6961 -1.3689 31.4269
#
#
#
# Elastic Compliance Matrix: (Units=1/GPa)
#
#
# Indices 1 2 3 4 5 6 
#
# 1 0.008230 -0.002915 -0.003543 -0.001399 -0.003496 -0.000496
# 2 -0.002915 0.015918 -0.002034 0.012360 -0.000570 0.001771
# 3 -0.003543 -0.002034 0.015126 0.003524 0.005973 -0.002806
# 4 -0.001399 0.012360 0.003524 0.038632 0.000320 0.007529
# 5 -0.003496 -0.000570 0.005973 0.000320 0.027945 0.000099
# 6 -0.000496 0.001771 -0.002806 0.007529 0.000099 0.034639
#
#
# Mechanical properties :
#
#
# Convention : Reuss Voigt Hill
#
# Bulk Modulus (GPa) = 44.86359 66.31916 55.59137
# Shear Modulus (GPa) = 30.32045 37.80795 34.06420
#
# Velocity S-wave (km/s) = 3.61996 4.04229 3.83694
# Velocity P-wave (km/s) = 6.07137 7.10275 6.60722
#
# Compressibility (1/GPa) = 0.02228979
#
# Stress axis : x y z
#
# Youngs Moduli (GPa) = 121.50521 62.82269 66.10958
#
# Poissons Ratio (x) = 0.18315 0.23423
# Poissons Ratio (y) = 0.35423 0.13445
# Poissons Ratio (z) = 0.43051 0.12777
#
# Static dielectric constant tensor:
#      x y z
#    x 4.430600 0.120610 -0.019670 
#    y 0.120610 4.079700 0.042530 
#    z -0.019670 0.042530 4.218620 
# 
# 
# High freq. dielectric constant tensor:
#      x y z
#    x 1.933870 0.012580 0.003800 
#    y 0.012580 1.904490 -0.004720 
#    z 0.003800 -0.004720 1.923460 
# 
# From -- ./inp_files/328541.got.cif
#   From: 2010.06.25/outbox.cif.g09.slc.cpg/sg2_165_cif.got.tgz:328541.got - 2010.06.27 13:26:56.
