data_PCOD8016349
_publ_section_title
;
Structure prediction by ZEFSAII (Michael W. Deem and Ramdas Pophale) SiO2 
 PCOD8016349
Probable space group: P -1
;
_chemical_formula_sum "Si O2"
_cell_formula_units_Z 14
_cell_length_a 21.356179
_cell_length_b 11.616537
_cell_length_c 14.909956
_cell_angle_alpha 31.320733
_cell_angle_beta 19.882350
_cell_angle_gamma 29.182039
_cell_volume 600.921106
_symmetry_space_group_name_H-M "P -1"
_symmetry_group_IT_number 2
_symmetry_cell_setting 'triclinic'
loop_
_space_group_symop_operation_xyz
x,y,z
-x,-y,-z
loop_
_atom_site_type_symbol
_atom_site_label
_atom_site_fract_x
_atom_site_fract_y
_atom_site_fract_z
Si Si1 0.657409 0.947312 0.693768
Si Si2 0.610415 0.091168 0.453652
Si Si3 0.059981 0.843525 0.319781
Si Si4 0.662992 0.603655 0.180737
Si Si5 0.235259 0.595944 0.075583
Si Si6 0.042540 0.383971 0.707683
Si Si7 0.827272 0.745292 0.038992
O O1 0.642630 0.688827 0.883826
O O2 0.844249 0.956179 0.489497
O O3 0.642992 0.056394 0.539632
O O4 0.460443 0.149256 0.873257
O O5 0.381069 0.154806 0.690322
O O6 0.767349 0.844144 0.361024
O O7 0.652830 0.315628 0.209961
O O8 0.221784 0.738017 0.091770
O O9 0.084044 0.625288 0.500660
O O10 0.092074 0.043183 0.204137
O O11 0.500000 0.500000 0.500000
O O12 0.775730 0.688993 0.047860
O O13 0.841381 0.406469 0.015668
O O14 0.009718 0.643010 0.309897
O O15 0.000000 0.500000 0.000000
#
# Coordination Sequence:
#
# PCOD8016349 Si02
#       7
#     2   2   2   2   2   2   2
#     4  10  21  44  68 101 132 174 227 275 332 394
#     4  11  23  42  71  97 132 182 227 268 331 401
#     4  11  23  42  69  97 143 172 218 288 330 397
#     4  11  25  44  71  98 134 181 226 279 332 401
#     4  11  22  39  72 105 131 171 232 281 324 394
#     4  11  22  42  71 103 129 178 233 270 334 399
#     4  11  27  45  63 100 139 177 222 278 344 397
#
# _framework density 23.297566
#
# number of rings (size 3 to 8) (size 9 to 14) (size 15 to 20)
#    0.000    1.143    2.857    3.857    4.000    5.143 
#    0.000    0.000    0.000    0.000    0.000    0.000 
#    0.000    0.000    0.000    0.000    0.000    0.000 
#
# Total GULP energy -173471.961700 kJ/mol
# GULP energy per Si atom -12390.854407 kJ/mol
# Density = 2.324454 g / cm^3
# Si number density = 23.297566 Si / 1000 Ang^3
#
#
#
# Elastic Constant Matrix: (Units=GPa)
#
#
# Indices 1 2 3 4 5 6 
#
# 1 73.5394 40.1359 40.8764 -10.3658 -20.6542 6.6239
# 2 40.1359 188.5390 79.1539 14.1439 -11.9289 -17.3416
# 3 40.8764 79.1539 121.0819 -8.5550 -9.2786 -7.7310
# 4 -10.3658 14.1439 -8.5550 57.1263 3.0587 -4.9107
# 5 -20.6542 -11.9289 -9.2786 3.0587 36.8492 -6.1808
# 6 6.6239 -17.3416 -7.7310 -4.9107 -6.1808 38.9367
#
#
#
# Elastic Compliance Matrix: (Units=1/GPa)
#
#
# Indices 1 2 3 4 5 6 
#
# 1 0.020808 -0.002418 -0.004812 0.002855 0.008791 -0.003817
# 2 -0.002418 0.008282 -0.004546 -0.002964 0.000925 0.002970
# 3 -0.004812 -0.004546 0.013061 0.002386 -0.000817 0.001558
# 4 0.002855 -0.002964 0.002386 0.019215 -0.000175 0.001063
# 5 0.008791 0.000925 -0.000817 -0.000175 0.032835 0.003944
# 6 -0.003817 0.002970 0.001558 0.001063 0.003944 0.028725
#
#
# Mechanical properties :
#
#
# Convention : Reuss Voigt Hill
#
# Bulk Modulus (GPa) = 53.77176 78.16585 65.96881
# Shear Modulus (GPa) = 32.74869 41.44872 37.09870
#
# Velocity S-wave (km/s) = 3.75329 4.22251 3.99480
# Velocity P-wave (km/s) = 6.47406 7.57606 7.04664
#
# Compressibility (1/GPa) = 0.01859712
#
# Stress axis : x y z
#
# Youngs Moduli (GPa) = 48.05805 120.75085 76.56454
#
# Poissons Ratio (x) = 0.29202 0.36843
# Poissons Ratio (y) = 0.11622 0.34809
# Poissons Ratio (z) = 0.23126 0.54897
#
# Static dielectric constant tensor:
#      x y z
#    x 4.037000 -0.058690 -0.052700 
#    y -0.058690 5.186250 0.418860 
#    z -0.052700 0.418860 4.267710 
# 
# 
# High freq. dielectric constant tensor:
#      x y z
#    x 1.896160 0.004540 0.003130 
#    y 0.004540 1.951900 0.000540 
#    z 0.003130 0.000540 1.913650 
# 
# From -- ./inp_files/282796.got.cif
#   From: 2010.06.25/outbox.cif.g09.slc.cpg/sg2_142_cif.got.tgz:282796.got - 2010.06.27 13:26:56.
