data_PCOD8016355
_publ_section_title
;
Structure prediction by ZEFSAII (Michael W. Deem and Ramdas Pophale) SiO2 
 PCOD8016355
Probable space group: P -1
;
_chemical_formula_sum "Si O2"
_cell_formula_units_Z 14
_cell_length_a 8.632394
_cell_length_b 20.942959
_cell_length_c 8.575794
_cell_angle_alpha 36.191811
_cell_angle_beta 119.258159
_cell_angle_gamma 130.799677
_cell_volume 690.441760
_symmetry_space_group_name_H-M "P -1"
_symmetry_group_IT_number 2
_symmetry_cell_setting 'triclinic'
loop_
_space_group_symop_operation_xyz
x,y,z
-x,-y,-z
loop_
_atom_site_type_symbol
_atom_site_label
_atom_site_fract_x
_atom_site_fract_y
_atom_site_fract_z
Si Si1 0.985592 0.797771 0.091280
Si Si2 0.057283 0.243552 0.208935
Si Si3 0.818498 0.362072 0.998853
Si Si4 0.554683 0.685089 0.575524
Si Si5 0.898177 0.947919 0.217688
Si Si6 0.156619 0.642817 0.621425
Si Si7 0.547213 0.630870 0.332936
O O1 0.784876 0.733703 0.227606
O O2 0.138149 0.747557 0.309971
O O3 0.918757 0.768247 0.938660
O O4 0.104803 0.945653 0.888796
O O5 0.284012 0.341703 0.197122
O O6 0.976047 0.108353 0.518257
O O7 0.900465 0.292301 0.066271
O O8 0.819484 0.320678 0.257562
O O9 0.588457 0.319599 0.916640
O O10 0.953439 0.510793 0.751623
O O11 0.662407 0.835312 0.302155
O O12 0.351883 0.635306 0.676080
O O13 0.495362 0.611293 0.529148
O O14 0.000000 0.000000 0.000000
O O15 0.500000 0.500000 0.500000
#
# Coordination Sequence:
#
# PCOD8016355 Si02
#       7
#     2   2   2   2   2   2   2
#     4  12  22  43  68  93 135 165 220 259 323 375
#     4  10  24  41  66  96 125 175 207 269 312 386
#     4  11  24  42  63  94 136 165 219 258 326 375
#     4  10  24  42  65  97 125 170 216 255 331 366
#     4  10  21  44  68  91 131 170 213 265 316 380
#     4  11  24  41  66  96 128 175 209 270 313 386
#     4  12  24  40  66  99 125 175 209 267 320 386
#
# _framework density 20.276872000000001
#
# number of rings (size 3 to 8) (size 9 to 14) (size 15 to 20)
#    0.857    0.286    2.857    3.857    4.000    2.286 
#    0.000    0.714    0.000    0.000    0.000    0.000 
#    0.000    0.000    0.000    0.000    0.000    0.000 
#
# Total GULP energy -173643.513869 kJ/mol
# GULP energy per Si atom -12403.108133 kJ/mol
# Density = 2.023072 g / cm^3
# Si number density = 20.276872 Si / 1000 Ang^3
#
#
#
# Elastic Constant Matrix: (Units=GPa)
#
#
# Indices 1 2 3 4 5 6 
#
# 1 94.5934 22.0268 11.4415 4.4176 8.2013 -4.4971
# 2 22.0268 94.9480 25.7255 4.1132 8.1204 -17.6223
# 3 11.4415 25.7255 57.6862 20.8811 23.7575 -4.5361
# 4 4.4176 4.1132 20.8811 28.2080 -2.5150 0.5855
# 5 8.2013 8.1204 23.7575 -2.5150 39.1118 2.5583
# 6 -4.4971 -17.6223 -4.5361 0.5855 2.5583 37.7629
#
#
#
# Elastic Compliance Matrix: (Units=1/GPa)
#
#
# Indices 1 2 3 4 5 6 
#
# 1 0.011394 -0.002421 0.000637 -0.002131 -0.002443 0.000502
# 2 -0.002421 0.013728 -0.007702 0.004179 0.002279 0.004973
# 3 0.000637 -0.007702 0.045759 -0.035521 -0.028908 0.004488
# 4 -0.002131 0.004179 -0.035521 0.063863 0.025609 -0.005296
# 5 -0.002443 0.002279 -0.028908 0.025609 0.045216 -0.006160
# 6 0.000502 0.004973 0.004488 -0.005296 -0.006160 0.029900
#
#
# Mechanical properties :
#
#
# Convention : Reuss Voigt Hill
#
# Bulk Modulus (GPa) = 19.26475 40.62392 29.94434
# Shear Modulus (GPa) = 20.31409 33.55214 26.93311
#
# Velocity S-wave (km/s) = 3.16861 4.07221 3.64849
# Velocity P-wave (km/s) = 4.78626 6.49528 5.70513
#
# Compressibility (1/GPa) = 0.05190827
#
# Stress axis : x y z
#
# Youngs Moduli (GPa) = 87.76898 72.84547 21.85340
#
# Poissons Ratio (x) = 0.17638 -0.01392
# Poissons Ratio (y) = 0.21252 0.16832
# Poissons Ratio (z) = -0.05592 0.56106
#
# Static dielectric constant tensor:
#      x y z
#    x 3.559010 -0.032460 0.009960 
#    y -0.032460 3.682290 -0.007110 
#    z 0.009960 -0.007110 3.634450 
# 
# 
# High freq. dielectric constant tensor:
#      x y z
#    x 1.792470 -0.012820 0.002400 
#    y -0.012820 1.794890 0.008680 
#    z 0.002400 0.008680 1.791280 
# 
# From -- ./inp_files/169262.got.cif
#   From: 2010.06.25/outbox.cif.g09.slc.cpg/sg2_85_cif.got.tgz:169262.got - 2010.06.27 13:26:56.
