data_PCOD8016548
_publ_section_title
;
Structure prediction by ZEFSAII (Michael W. Deem and Ramdas Pophale) SiO2 
 PCOD8016548
Probable space group: P -1
;
_chemical_formula_sum "Si O2"
_cell_formula_units_Z 16
_cell_length_a 6.844864
_cell_length_b 21.506892
_cell_length_c 16.362071
_cell_angle_alpha 159.811060
_cell_angle_beta 96.023834
_cell_angle_gamma 73.250857
_cell_volume 688.955555
_symmetry_space_group_name_H-M "P -1"
_symmetry_group_IT_number 2
_symmetry_cell_setting 'triclinic'
loop_
_space_group_symop_operation_xyz
x,y,z
-x,-y,-z
loop_
_atom_site_type_symbol
_atom_site_label
_atom_site_fract_x
_atom_site_fract_y
_atom_site_fract_z
Si Si1 0.087372 0.187084 0.599887
Si Si2 0.794517 0.029941 0.922904
Si Si3 0.495251 0.432174 0.709914
Si Si4 0.549877 0.803649 0.169681
Si Si5 0.636089 0.782979 0.964624
Si Si6 0.254237 0.661352 0.558621
Si Si7 0.073910 0.019183 0.774596
Si Si8 0.064793 0.535185 0.917972
O O1 0.084367 0.317620 0.680516
O O2 0.036222 0.006957 0.346420
O O3 0.344295 0.051682 0.491673
O O4 0.896904 0.357896 0.867948
O O5 0.556537 0.051282 0.906766
O O6 0.726648 0.186084 0.189436
O O7 0.998597 0.785674 0.655359
O O8 0.891022 0.106133 0.948299
O O9 0.536864 0.413032 0.590223
O O10 0.694858 0.216050 0.494619
O O11 0.247909 0.471371 0.774222
O O12 0.502633 0.630156 0.990662
O O13 0.509653 0.821733 0.092902
O O14 0.815262 0.721373 0.099917
O O15 0.726694 0.538514 0.640275
O O16 0.853513 0.809367 0.016453
#
# Coordination Sequence:
#
# PCOD8016548 Si02
#       8
#     2   2   2   2   2   2   2   2
#     4  11  24  46  66  95 130 171 217 273 317 388
#     4  10  21  45  66  93 137 167 212 273 311 381
#     4  10  23  42  66  95 130 169 211 271 322 387
#     4  11  23  43  65  98 128 169 218 268 320 387
#     4  11  23  38  68  96 130 173 209 262 326 382
#     4   9  22  43  69  96 132 167 218 265 317 382
#     4  11  23  42  65  96 132 172 216 259 331 381
#     4  11  25  45  67  92 131 170 218 272 326 373
#
# _framework density 23.223559000000002
#
# number of rings (size 3 to 8) (size 9 to 14) (size 15 to 20)
#    0.000    1.500    2.500    1.500    1.750    1.500 
#    2.250    8.125    0.000    0.000    0.000    0.000 
#    0.000    0.000    0.000    0.000    0.000    0.000 
#
# Total GULP energy -198320.931709 kJ/mol
# GULP energy per Si atom -12395.058232 kJ/mol
# Density = 2.317070 g / cm^3
# Si number density = 23.223559 Si / 1000 Ang^3
#
#
#
# Elastic Constant Matrix: (Units=GPa)
#
#
# Indices 1 2 3 4 5 6 
#
# 1 114.7240 41.4706 39.4267 -10.6057 -7.0300 -5.6721
# 2 41.4706 81.7803 24.2985 5.2757 -12.2150 -8.6563
# 3 39.4267 24.2985 79.4461 -9.3259 -17.2011 9.7800
# 4 -10.6057 5.2757 -9.3259 28.6138 -2.4659 -5.8901
# 5 -7.0300 -12.2150 -17.2011 -2.4659 26.8675 3.5460
# 6 -5.6721 -8.6563 9.7800 -5.8901 3.5460 26.2118
#
#
#
# Elastic Compliance Matrix: (Units=1/GPa)
#
#
# Indices 1 2 3 4 5 6 
#
# 1 0.012942 -0.005167 -0.005408 0.004693 -0.002591 0.004517
# 2 -0.005167 0.016985 -0.002937 -0.004875 0.003512 0.004016
# 3 -0.005408 -0.002937 0.020595 0.004130 0.012207 -0.010548
# 4 0.004693 -0.004875 0.004130 0.040638 0.004544 0.006382
# 5 -0.002591 0.003512 0.012207 0.004544 0.047608 -0.009375
# 6 0.004517 0.004016 -0.010548 0.006382 -0.009375 0.047092
#
#
# Mechanical properties :
#
#
# Convention : Reuss Voigt Hill
#
# Bulk Modulus (GPa) = 42.55726 54.03801 48.29763
# Shear Modulus (GPa) = 22.65349 27.72228 25.18788
#
# Velocity S-wave (km/s) = 3.12661 3.45876 3.29687
# Velocity P-wave (km/s) = 5.60349 6.26657 5.94428
#
# Compressibility (1/GPa) = 0.02349776
#
# Stress axis : x y z
#
# Youngs Moduli (GPa) = 77.27061 58.87564 48.55465
#
# Poissons Ratio (x) = 0.30423 0.26259
# Poissons Ratio (y) = 0.39929 0.14258
# Poissons Ratio (z) = 0.41789 0.17289
#
# Static dielectric constant tensor:
#      x y z
#    x 3.946220 -0.077560 -0.093590 
#    y -0.077560 4.187750 0.150980 
#    z -0.093590 0.150980 4.355600 
# 
# 
# High freq. dielectric constant tensor:
#      x y z
#    x 1.893240 -0.011220 -0.008480 
#    y -0.011220 1.917280 0.006780 
#    z -0.008480 0.006780 1.932390 
# 
# From -- ./inp_files/52588.got.cif
#   From: 2010.06.25/outbox.cif.g09.slc.cpg/sg2_27_cif.got.tgz:52588.got - 2010.06.27 13:26:56.
