data_PCOD8016086
_publ_section_title
;
Structure prediction by ZEFSAII (Michael W. Deem and Ramdas Pophale) SiO2 
 PCOD8016086
Probable space group: P -1
;
_chemical_formula_sum "Si O2"
_cell_formula_units_Z 16
_cell_length_a 9.012903
_cell_length_b 6.979442
_cell_length_c 22.259946
_cell_angle_alpha 39.117532
_cell_angle_beta 128.790331
_cell_angle_gamma 123.318705
_cell_volume 682.876519
_symmetry_space_group_name_H-M "P -1"
_symmetry_group_IT_number 2
_symmetry_cell_setting 'triclinic'
loop_
_space_group_symop_operation_xyz
x,y,z
-x,-y,-z
loop_
_atom_site_type_symbol
_atom_site_label
_atom_site_fract_x
_atom_site_fract_y
_atom_site_fract_z
Si Si1 0.859027 0.710945 0.238014
Si Si2 0.818103 0.453775 0.822271
Si Si3 0.768881 0.330065 0.088577
Si Si4 0.924710 0.745118 0.660680
Si Si5 0.870887 0.681256 0.382111
Si Si6 0.565141 0.858012 0.862771
Si Si7 0.381312 0.900369 0.551949
Si Si8 0.522568 0.746404 0.746017
O O1 0.952034 0.714168 0.327083
O O2 0.652004 0.519943 0.225969
O O3 0.012005 0.572138 0.268892
O O4 0.837803 0.062000 0.129520
O O5 0.792848 0.660248 0.706495
O O6 0.717194 0.602124 0.816299
O O7 0.045063 0.454203 0.891573
O O8 0.717950 0.109509 0.871407
O O9 0.642247 0.159168 0.152830
O O10 0.639322 0.527490 0.968321
O O11 0.805055 0.917081 0.539842
O O12 0.118101 0.977781 0.669898
O O13 0.664166 0.473118 0.375872
O O14 0.000000 0.500000 0.500000
O O15 0.547643 0.934369 0.768991
O O16 0.481542 0.968762 0.625614
O O17 0.500000 0.000000 0.500000
#
# Coordination Sequence:
#
# PCOD8016086 Si02
#       8
#     2   2   2   2   2   2   2   2
#     4  11  23  44  68 104 139 187 233 292 348 432
#     4  12  24  46  73 106 143 182 237 299 352 426
#     4  11  25  50  75 101 147 181 243 295 363 414
#     4  11  23  42  71 102 141 188 233 281 361 412
#     4   9  21  39  66  93 138 177 231 283 334 413
#     4  11  27  50  72 105 138 193 232 305 355 422
#     4  10  21  43  70 103 145 186 232 294 342 419
#     4  11  25  43  72 102 146 178 242 287 360 414
#
# _framework density 23.430296999999999
#
# number of rings (size 3 to 8) (size 9 to 14) (size 15 to 20)
#    0.000    1.250    3.750    1.125    1.750    5.500 
#    2.250    0.625    0.000    0.000    0.000    0.000 
#    0.000    0.000    0.000    0.000    0.000    0.000 
#
# Total GULP energy -198324.417971 kJ/mol
# GULP energy per Si atom -12395.276123 kJ/mol
# Density = 2.337697 g / cm^3
# Si number density = 23.430297 Si / 1000 Ang^3
#
#
#
# Elastic Constant Matrix: (Units=GPa)
#
#
# Indices 1 2 3 4 5 6 
#
# 1 109.9983 52.7679 23.0294 0.1095 1.2105 -1.7227
# 2 52.7679 106.5866 21.2409 -6.0069 9.7170 -8.5903
# 3 23.0294 21.2409 58.4288 1.0190 2.0761 -6.1851
# 4 0.1095 -6.0069 1.0190 39.9401 -3.8060 2.5468
# 5 1.2105 9.7170 2.0761 -3.8060 30.6027 -1.3569
# 6 -1.7227 -8.5903 -6.1851 2.5468 -1.3569 38.3078
#
#
#
# Elastic Compliance Matrix: (Units=1/GPa)
#
#
# Indices 1 2 3 4 5 6 
#
# 1 0.012482 -0.005849 -0.002954 -0.000629 0.001435 -0.001134
# 2 -0.005849 0.013303 -0.002207 0.001599 -0.003549 0.002132
# 3 -0.002954 -0.002207 0.019388 -0.001030 -0.000513 0.002553
# 4 -0.000629 0.001599 -0.001030 0.025657 0.002714 -0.001446
# 5 0.001435 -0.003549 -0.000513 0.002714 0.034129 0.000214
# 6 -0.001134 0.002132 0.002553 -0.001446 0.000214 0.027047
#
#
# Mechanical properties :
#
#
# Convention : Reuss Voigt Hill
#
# Bulk Modulus (GPa) = 43.18874 52.12114 47.65494
# Shear Modulus (GPa) = 30.91334 33.63516 32.27425
#
# Velocity S-wave (km/s) = 3.63626 3.79296 3.71544
# Velocity P-wave (km/s) = 6.00855 6.44015 6.22809
#
# Compressibility (1/GPa) = 0.02315418
#
# Stress axis : x y z
#
# Youngs Moduli (GPa) = 80.11393 75.17172 51.57901
#
# Poissons Ratio (x) = 0.43966 0.15235
# Poissons Ratio (y) = 0.46856 0.11383
# Poissons Ratio (z) = 0.23663 0.16590
#
# Static dielectric constant tensor:
#      x y z
#    x 4.078670 0.153700 -0.041370 
#    y 0.153700 4.586540 -0.013800 
#    z -0.041370 -0.013800 4.346250 
# 
# 
# High freq. dielectric constant tensor:
#      x y z
#    x 1.918570 0.009760 0.003740 
#    y 0.009760 1.925190 0.000940 
#    z 0.003740 0.000940 1.928910 
# 
# From -- ./inp_files/585505.got.cif
#   From: 2010.06.25/outbox.cif.g09.slc.cpg/sg2_293_cif.got.tgz:585505.got - 2010.06.27 13:26:56.
