data_PCOD8016648
_publ_section_title
;
Structure prediction by ZEFSAII (Michael W. Deem and Ramdas Pophale) SiO2 
 PCOD8016648
Probable space group: P -1
;
_chemical_formula_sum "Si O2"
_cell_formula_units_Z 16
_cell_length_a 8.992458
_cell_length_b 11.757081
_cell_length_c 13.645534
_cell_angle_alpha 147.373027
_cell_angle_beta 106.839780
_cell_angle_gamma 80.646563
_cell_volume 735.154626
_symmetry_space_group_name_H-M "P -1"
_symmetry_group_IT_number 2
_symmetry_cell_setting 'triclinic'
loop_
_space_group_symop_operation_xyz
x,y,z
-x,-y,-z
loop_
_atom_site_type_symbol
_atom_site_label
_atom_site_fract_x
_atom_site_fract_y
_atom_site_fract_z
Si Si1 0.420341 0.826906 0.934482
Si Si2 0.950046 0.215648 0.185425
Si Si3 0.407567 0.560414 0.300710
Si Si4 0.465261 0.292220 0.777447
Si Si5 0.901049 0.809861 0.402620
Si Si6 0.092805 0.069786 0.285571
Si Si7 0.558585 0.969081 0.707364
Si Si8 0.049768 0.403121 0.148172
O O1 0.235098 0.790045 0.858498
O O2 0.480235 0.605369 0.765325
O O3 0.500000 0.000000 0.000000
O O4 0.470832 0.899621 0.106624
O O5 0.032783 0.398865 0.260533
O O6 0.009643 0.234786 0.322980
O O7 0.000000 0.000000 0.000000
O O8 0.456640 0.661214 0.278531
O O9 0.428969 0.754813 0.523712
O O10 0.229847 0.445517 0.181570
O O11 0.280263 0.210191 0.674595
O O12 0.546944 0.109579 0.710499
O O13 0.500000 0.500000 0.000000
O O14 0.959686 0.588475 0.224581
O O15 0.930185 0.861185 0.558846
O O16 0.000000 0.000000 0.500000
O O17 0.273029 0.106026 0.313686
O O18 0.023027 0.820953 0.077168
#
# Coordination Sequence:
#
# PCOD8016648 Si02
#       8
#     2   2   2   2   2   2   2   2
#     4  12  25  46  73 104 143 184 232 286 348 419
#     4  10  21  45  72  99 136 181 227 281 341 409
#     4  12  27  44  72 107 139 185 234 285 356 408
#     4  12  25  47  73 100 143 186 230 291 351 411
#     4  12  28  46  69 107 137 179 240 282 341 417
#     4  11  25  46  74  97 140 186 226 285 350 404
#     4  12  25  46  73 102 143 182 235 289 344 417
#     4  11  25  46  71 102 140 181 230 284 348 411
#
# _framework density 21.764127999999999
#
# number of rings (size 3 to 8) (size 9 to 14) (size 15 to 20)
#    0.000    0.500    5.000    4.125    3.500    4.500 
#    0.000    0.000    0.000    0.000    0.000    0.000 
#    0.000    0.000    0.000    0.000    0.000    0.000 
#
# Total GULP energy -198462.977813 kJ/mol
# GULP energy per Si atom -12403.936113 kJ/mol
# Density = 2.171459 g / cm^3
# Si number density = 21.764128 Si / 1000 Ang^3
#
#
#
# Elastic Constant Matrix: (Units=GPa)
#
#
# Indices 1 2 3 4 5 6 
#
# 1 117.0887 40.3353 15.2553 1.2259 18.4220 2.9605
# 2 40.3353 129.7690 29.0907 7.8067 13.2034 -4.0621
# 3 15.2553 29.0907 87.0244 -3.1738 8.3514 -1.9685
# 4 1.2259 7.8067 -3.1738 38.9102 -4.4999 2.3867
# 5 18.4220 13.2034 8.3514 -4.4999 31.1066 10.6411
# 6 2.9605 -4.0621 -1.9685 2.3867 10.6411 37.5843
#
#
#
# Elastic Compliance Matrix: (Units=1/GPa)
#
#
# Indices 1 2 3 4 5 6 
#
# 1 0.010267 -0.002530 -0.000477 -0.000463 -0.005068 0.000357
# 2 -0.002530 0.009577 -0.002517 -0.002520 -0.002976 0.002105
# 3 -0.000477 -0.002517 0.012696 0.001239 -0.002213 0.000978
# 4 -0.000463 -0.002520 0.001239 0.027264 0.006207 -0.003660
# 5 -0.005068 -0.002976 -0.002213 0.006207 0.042133 -0.012361
# 6 0.000357 0.002105 0.000978 -0.003660 -0.012361 0.030590
#
#
# Mechanical properties :
#
#
# Convention : Reuss Voigt Hill
#
# Bulk Modulus (GPa) = 46.52559 55.91608 51.22083
# Shear Modulus (GPa) = 33.17043 38.13359 35.65201
#
# Velocity S-wave (km/s) = 3.90819 4.19039 4.05175
# Velocity P-wave (km/s) = 6.46443 7.01143 6.74348
#
# Compressibility (1/GPa) = 0.02149355
#
# Stress axis : x y z
#
# Youngs Moduli (GPa) = 97.39684 104.41939 78.76758
#
# Poissons Ratio (x) = 0.26416 0.03754
# Poissons Ratio (y) = 0.24640 0.19823
# Poissons Ratio (z) = 0.04642 0.26278
#
# Static dielectric constant tensor:
#      x y z
#    x 3.906700 -0.039940 0.050100 
#    y -0.039940 4.430260 -0.073250 
#    z 0.050100 -0.073250 4.157080 
# 
# 
# High freq. dielectric constant tensor:
#      x y z
#    x 1.861940 -0.005820 0.000510 
#    y -0.005820 1.872250 0.005180 
#    z 0.000510 0.005180 1.865240 
# 
# From -- ./inp_files/187960.got.cif
#   From: 2010.06.25/outbox.cif.g09.slc.cpg/sg2_94_cif.got.tgz:187960.got - 2010.06.27 13:26:56.
