data_PCOD8016489
_publ_section_title
;
Structure prediction by ZEFSAII (Michael W. Deem and Ramdas Pophale) SiO2 
 PCOD8016489
Probable space group: P -1
;
_chemical_formula_sum "Si O2"
_cell_formula_units_Z 12
_cell_length_a 8.893760
_cell_length_b 11.641602
_cell_length_c 12.047686
_cell_angle_alpha 58.902334
_cell_angle_beta 37.851034
_cell_angle_gamma 86.815483
_cell_volume 486.278163
_symmetry_space_group_name_H-M "P -1"
_symmetry_group_IT_number 2
_symmetry_cell_setting 'triclinic'
loop_
_space_group_symop_operation_xyz
x,y,z
-x,-y,-z
loop_
_atom_site_type_symbol
_atom_site_label
_atom_site_fract_x
_atom_site_fract_y
_atom_site_fract_z
Si Si1 0.748577 0.435433 0.445189
Si Si2 0.935991 0.133264 0.282345
Si Si3 0.649463 0.672186 0.477054
Si Si4 0.835432 0.052857 0.807066
Si Si5 0.873933 0.685160 0.683845
Si Si6 0.282760 0.730613 0.817933
O O1 0.640590 0.505788 0.565282
O O2 0.444591 0.304038 0.601577
O O3 0.861707 0.337570 0.483479
O O4 0.066406 0.609475 0.108629
O O5 0.948394 0.268099 0.130659
O O6 0.020654 0.202255 0.322874
O O7 0.579795 0.931820 0.586698
O O8 0.205568 0.123426 0.086451
O O9 0.395656 0.638918 0.731722
O O10 0.022053 0.855565 0.200342
O O11 0.106110 0.201595 0.484441
O O12 0.500000 0.000000 0.000000
O O13 0.500000 0.500000 0.000000
#
# Coordination Sequence:
#
# PCOD8016489 Si02
#       6
#     2   2   2   2   2   2
#     4  11  24  42  73  97 134 175 225 287 328 403
#     4  10  23  43  68  97 131 180 226 273 336 405
#     4  10  23  43  65 100 128 174 229 271 332 397
#     4  11  27  45  66  98 142 180 219 280 339 403
#     4  12  26  43  70 102 134 180 224 276 343 404
#     4  10  21  44  72  96 131 175 230 282 330 395
#
# _framework density 24.677236000000001
#
# number of rings (size 3 to 8) (size 9 to 14) (size 15 to 20)
#    0.000    1.333    1.667    3.000    7.000    3.333 
#    0.000    3.333    0.000    0.000    0.000    0.000 
#    0.000    0.000    0.000    0.000    0.000    0.000 
#
# Total GULP energy -148814.093408 kJ/mol
# GULP energy per Si atom -12401.174451 kJ/mol
# Density = 2.462107 g / cm^3
# Si number density = 24.677236 Si / 1000 Ang^3
#
#
#
# Elastic Constant Matrix: (Units=GPa)
#
#
# Indices 1 2 3 4 5 6 
#
# 1 104.5512 67.8472 4.2521 3.3379 -29.5053 -13.1141
# 2 67.8472 184.9566 19.8339 6.1188 -27.8756 4.7745
# 3 4.2521 19.8339 35.8294 5.7191 -23.0083 8.6842
# 4 3.3379 6.1188 5.7191 25.1567 -9.2828 -5.0689
# 5 -29.5053 -27.8756 -23.0083 -9.2828 43.3060 6.5815
# 6 -13.1141 4.7745 8.6842 -5.0689 6.5815 36.2389
#
#
#
# Elastic Compliance Matrix: (Units=1/GPa)
#
#
# Indices 1 2 3 4 5 6 
#
# 1 0.016176 -0.005115 0.007296 0.002341 0.011652 0.002990
# 2 -0.005115 0.007697 -0.002880 -0.000977 0.000084 -0.002326
# 3 0.007296 -0.002880 0.055401 -0.003609 0.034362 -0.017002
# 4 0.002341 -0.000977 -0.003609 0.044654 0.007602 0.006706
# 5 0.011652 0.000084 0.034362 0.007602 0.052880 -0.012569
# 6 0.002990 -0.002326 -0.017002 0.006706 -0.012569 0.036278
#
#
# Mechanical properties :
#
#
# Convention : Reuss Voigt Hill
#
# Bulk Modulus (GPa) = 12.84101 56.57817 34.70959
# Shear Modulus (GPa) = 20.79494 36.50059 28.64777
#
# Velocity S-wave (km/s) = 2.90604 3.85011 3.41089
# Velocity P-wave (km/s) = 4.05894 6.53770 5.44134
#
# Compressibility (1/GPa) = 0.07787552
#
# Stress axis : x y z
#
# Youngs Moduli (GPa) = 61.82112 129.92663 18.05014
#
# Poissons Ratio (x) = 0.66452 -0.13169
# Poissons Ratio (y) = 0.31619 0.05199
# Poissons Ratio (z) = -0.45103 0.37421
#
# Static dielectric constant tensor:
#      x y z
#    x 4.967970 -0.264140 -0.228660 
#    y -0.264140 4.803350 -0.067390 
#    z -0.228660 -0.067390 4.266770 
# 
# 
# High freq. dielectric constant tensor:
#      x y z
#    x 1.995920 -0.009080 -0.024040 
#    y -0.009080 1.996510 -0.003880 
#    z -0.024040 -0.003880 1.968380 
# 
# From -- ./inp_files/183826.got.cif
#   From: 2010.06.25/outbox.cif.g09.slc.cpg/sg2_92_cif.got.tgz:183826.got - 2010.06.27 13:26:56.
