data_PCOD8016781
_publ_section_title
;
Structure prediction by ZEFSAII (Michael W. Deem and Ramdas Pophale) SiO2 
 PCOD8016781
Probable space group: P -1
;
_chemical_formula_sum "Si O2"
_cell_formula_units_Z 10
_cell_length_a 8.767501
_cell_length_b 14.898752
_cell_length_c 12.445657
_cell_angle_alpha 20.362641
_cell_angle_beta 59.126110
_cell_angle_gamma 60.510055
_cell_volume 485.185134
_symmetry_space_group_name_H-M "P -1"
_symmetry_group_IT_number 2
_symmetry_cell_setting 'triclinic'
loop_
_space_group_symop_operation_xyz
x,y,z
-x,-y,-z
loop_
_atom_site_type_symbol
_atom_site_label
_atom_site_fract_x
_atom_site_fract_y
_atom_site_fract_z
Si Si1 0.655804 0.163560 0.308006
Si Si2 0.059860 0.227910 0.414197
Si Si3 0.157324 0.077011 0.780780
Si Si4 0.642150 0.438017 0.800106
Si Si5 0.274339 0.610407 0.765092
O O1 0.620237 0.196938 0.410604
O O2 0.500000 0.000000 0.500000
O O3 0.852316 0.031995 0.374492
O O4 0.653434 0.419512 0.947598
O O5 0.073644 0.220466 0.545812
O O6 0.851030 0.247562 0.436519
O O7 0.158969 0.463862 0.059819
O O8 0.268895 0.290639 0.565589
O O9 0.269758 0.814694 0.005037
O O10 0.000000 0.000000 0.000000
O O11 0.432121 0.446606 0.831653
#
# Coordination Sequence:
#
# PCOD8016781 Si02
#       5
#     2   2   2   2   2
#     4  11  19  34  57  90 125 157 194 238 306 371
#     4  10  22  35  58  89 125 158 190 253 303 362
#     4  11  24  44  62  85 117 167 213 246 288 358
#     4  11  22  38  64  89 118 158 205 250 297 362
#     4  11  20  36  57  94 124 150 193 251 320 353
#
# _framework density 20.610688
#
# number of rings (size 3 to 8) (size 9 to 14) (size 15 to 20)
#    0.000    1.200    4.000    4.200    0.000    0.000 
#    0.000    2.000    0.000    0.000    0.000    0.000 
#    0.000    0.000    0.000    0.000    0.000    0.000 
#
# Total GULP energy -123911.899890 kJ/mol
# GULP energy per Si atom -12391.189989 kJ/mol
# Density = 2.056378 g / cm^3
# Si number density = 20.610688 Si / 1000 Ang^3
#
#
#
# Elastic Constant Matrix: (Units=GPa)
#
#
# Indices 1 2 3 4 5 6 
#
# 1 141.3478 58.6401 50.5445 -16.6539 18.8436 -31.3290
# 2 58.6401 81.8133 35.8498 -2.5557 2.4652 -20.7875
# 3 50.5445 35.8498 91.4239 -5.7570 -6.7667 -12.6185
# 4 -16.6539 -2.5557 -5.7570 31.8985 -2.2670 -1.3548
# 5 18.8436 2.4652 -6.7667 -2.2670 32.5612 -12.1124
# 6 -31.3290 -20.7875 -12.6185 -1.3548 -12.1124 31.2813
#
#
#
# Elastic Compliance Matrix: (Units=1/GPa)
#
#
# Indices 1 2 3 4 5 6 
#
# 1 0.014146 -0.006195 -0.004619 0.005890 -0.005989 0.006124
# 2 -0.006195 0.019653 -0.003117 -0.001641 0.003962 0.007061
# 3 -0.004619 -0.003117 0.015615 0.000762 0.007093 0.002382
# 4 0.005890 -0.001641 0.000762 0.034893 0.002066 0.007428
# 5 -0.005989 0.003962 0.007093 0.002066 0.041288 0.015572
# 6 0.006124 0.007061 0.002382 0.007428 0.015572 0.050105
#
#
# Mechanical properties :
#
#
# Convention : Reuss Voigt Hill
#
# Bulk Modulus (GPa) = 46.39747 67.18375 56.79061
# Shear Modulus (GPa) = 23.72519 30.45158 27.08839
#
# Velocity S-wave (km/s) = 3.39648 3.84795 3.62924
# Velocity P-wave (km/s) = 6.15968 7.23945 6.72128
#
# Compressibility (1/GPa) = 0.02155290
#
# Stress axis : x y z
#
# Youngs Moduli (GPa) = 70.69015 50.88411 64.03897
#
# Poissons Ratio (x) = 0.31523 0.29578
# Poissons Ratio (y) = 0.43793 0.19960
# Poissons Ratio (z) = 0.32650 0.15860
#
# Static dielectric constant tensor:
#      x y z
#    x 3.853100 -0.223200 0.084540 
#    y -0.223200 3.705040 -0.094580 
#    z 0.084540 -0.094580 3.797920 
# 
# 
# High freq. dielectric constant tensor:
#      x y z
#    x 1.808130 -0.018540 -0.002770 
#    y -0.018540 1.788050 -0.024630 
#    z -0.002770 -0.024630 1.797060 
# 
# From -- ./inp_files/15682.got.cif
#   From: 2010.06.25/outbox.cif.g09.slc.cpg/sg2_8_cif.got.tgz:15682.got - 2010.06.27 13:26:56.
