data_PCOD8016014
_publ_section_title
;
Structure prediction by ZEFSAII (Michael W. Deem and Ramdas Pophale) SiO2 
 PCOD8016014
Probable space group: P -1
;
_chemical_formula_sum "Si O2"
_cell_formula_units_Z 16
_cell_length_a 8.212684
_cell_length_b 14.938185
_cell_length_c 15.068573
_cell_angle_alpha 27.995426
_cell_angle_beta 119.950044
_cell_angle_gamma 109.977731
_cell_volume 729.185808
_symmetry_space_group_name_H-M "P -1"
_symmetry_group_IT_number 2
_symmetry_cell_setting 'triclinic'
loop_
_space_group_symop_operation_xyz
x,y,z
-x,-y,-z
loop_
_atom_site_type_symbol
_atom_site_label
_atom_site_fract_x
_atom_site_fract_y
_atom_site_fract_z
Si Si1 0.932987 0.805520 0.133550
Si Si2 0.714324 0.497239 0.591862
Si Si3 0.076920 0.320924 0.115874
Si Si4 0.700828 0.447706 0.148025
Si Si5 0.280951 0.112831 0.820623
Si Si6 0.352107 0.946907 0.575041
Si Si7 0.752915 0.234158 0.992047
Si Si8 0.415690 0.244871 0.021575
O O1 0.829364 0.768454 0.229207
O O2 0.121435 0.633445 0.312950
O O3 0.771885 0.835124 0.985347
O O4 0.000000 0.000000 0.000000
O O5 0.500000 0.500000 0.500000
O O6 0.729724 0.721523 0.401822
O O7 0.737908 0.428894 0.759625
O O8 0.198682 0.154856 0.359786
O O9 0.177504 0.407641 0.986624
O O10 0.000000 0.500000 0.000000
O O11 0.908646 0.226268 0.117460
O O12 0.764293 0.211158 0.358787
O O13 0.500000 0.500000 0.000000
O O14 0.664319 0.524381 0.172701
O O15 0.500000 0.000000 0.000000
O O16 0.177465 0.951842 0.892471
O O17 0.460399 0.882421 0.754007
O O18 0.500000 0.000000 0.500000
O O19 0.547386 0.235381 0.978965
#
# Coordination Sequence:
#
# PCOD8016014 Si02
#       8
#     2   2   2   2   2   2   2   2
#     4  12  24  45  77 106 147 191 241 302 358 435
#     4  12  25  46  74 105 145 195 237 297 370 426
#     4  12  26  46  70 108 142 186 241 302 365 424
#     4  10  21  43  68  98 141 178 238 294 346 431
#     4  12  24  49  71 108 148 187 244 300 355 438
#     4  11  24  45  77 102 144 192 240 296 364 426
#     4  12  27  45  71 104 152 185 241 300 362 426
#     4  11  24  45  72 108 145 191 242 300 361 427
#
# _framework density 21.942281999999999
#
# number of rings (size 3 to 8) (size 9 to 14) (size 15 to 20)
#    0.000    0.500    6.250    2.625    0.000    5.000 
#    0.000    1.250    0.000    0.000    0.000    0.000 
#    0.000    0.000    0.000    0.000    0.000    0.000 
#
# Total GULP energy -198268.887385 kJ/mol
# GULP energy per Si atom -12391.805462 kJ/mol
# Density = 2.189234 g / cm^3
# Si number density = 21.942282 Si / 1000 Ang^3
#
#
#
# Elastic Constant Matrix: (Units=GPa)
#
#
# Indices 1 2 3 4 5 6 
#
# 1 109.3260 37.2292 42.1954 2.9446 13.4804 -2.9805
# 2 37.2292 145.5438 54.2748 -2.2375 14.9658 10.5641
# 3 42.1954 54.2748 156.5989 -13.6640 0.1982 -1.8789
# 4 2.9446 -2.2375 -13.6640 33.9714 0.3657 -2.1965
# 5 13.4804 14.9658 0.1982 0.3657 40.9949 -1.4061
# 6 -2.9805 10.5641 -1.8789 -2.1965 -1.4061 46.7163
#
#
#
# Elastic Compliance Matrix: (Units=1/GPa)
#
#
# Indices 1 2 3 4 5 6 
#
# 1 0.011163 -0.001669 -0.002594 -0.002037 -0.003004 0.000799
# 2 -0.001669 0.008716 -0.002636 -0.000460 -0.002695 -0.002286
# 3 -0.002594 -0.002636 0.008308 0.003437 0.001778 0.000980
# 4 -0.002037 -0.000460 0.003437 0.031062 0.000599 0.001591
# 5 -0.003004 -0.002695 0.001778 0.000599 0.026396 0.001312
# 6 0.000799 -0.002286 0.000980 0.001591 0.001312 0.022127
#
#
# Mechanical properties :
#
#
# Convention : Reuss Voigt Hill
#
# Bulk Modulus (GPa) = 69.48802 75.42973 72.45887
# Shear Modulus (GPa) = 39.56778 42.85448 41.21113
#
# Velocity S-wave (km/s) = 4.25110 4.42413 4.33848
# Velocity P-wave (km/s) = 7.47215 7.78128 7.62828
#
# Compressibility (1/GPa) = 0.01439097
#
# Stress axis : x y z
#
# Youngs Moduli (GPa) = 89.57885 114.72609 120.37303
#
# Poissons Ratio (x) = 0.19144 0.31224
# Poissons Ratio (y) = 0.14948 0.31725
# Poissons Ratio (z) = 0.23236 0.30236
#
# Static dielectric constant tensor:
#      x y z
#    x 3.953620 -1.033420 0.511180 
#    y -1.033420 3.127540 0.310040 
#    z 0.511180 0.310040 4.260660 
# 
# 
# High freq. dielectric constant tensor:
#      x y z
#    x 1.877570 0.002100 -0.000810 
#    y 0.002100 1.869930 -0.009770 
#    z -0.000810 -0.009770 1.856520 
# 
# From -- ./inp_files/505127.got.cif
#   From: 2010.06.25/outbox.cif.g09.slc.cpg/sg2_253_cif.got.tgz:505127.got - 2010.06.27 13:26:56.
