data_PCOD8016442
_publ_section_title
;
Structure prediction by ZEFSAII (Michael W. Deem and Ramdas Pophale) SiO2 
 PCOD8016442
Probable space group: P -1
;
_chemical_formula_sum "Si O2"
_cell_formula_units_Z 16
_cell_length_a 11.227010
_cell_length_b 12.688934
_cell_length_c 11.866639
_cell_angle_alpha 113.382231
_cell_angle_beta 34.172787
_cell_angle_gamma 90.698432
_cell_volume 688.457732
_symmetry_space_group_name_H-M "P -1"
_symmetry_group_IT_number 2
_symmetry_cell_setting 'triclinic'
loop_
_space_group_symop_operation_xyz
x,y,z
-x,-y,-z
loop_
_atom_site_type_symbol
_atom_site_label
_atom_site_fract_x
_atom_site_fract_y
_atom_site_fract_z
Si Si1 0.967689 0.490776 0.389869
Si Si2 0.319290 0.338561 0.856783
Si Si3 0.749458 0.804783 0.635084
Si Si4 0.895204 0.302176 0.096575
Si Si5 0.436318 0.551391 0.781844
Si Si6 0.880489 0.135316 0.232565
Si Si7 0.974865 0.858815 0.287643
Si Si8 0.143087 0.045788 0.216796
O O1 0.871052 0.637892 0.464477
O O2 0.747965 0.464737 0.529387
O O3 0.000000 0.500000 0.500000
O O4 0.247154 0.356451 0.055479
O O5 0.078424 0.354082 0.987971
O O6 0.323093 0.470476 0.881709
O O7 0.605018 0.187923 0.533956
O O8 0.751285 0.868041 0.539755
O O9 0.916035 0.823293 0.605325
O O10 0.438749 0.900593 0.949846
O O11 0.060047 0.157765 0.825769
O O12 0.617783 0.426902 0.302003
O O13 0.823157 0.267752 0.258197
O O14 0.261517 0.711680 0.044075
O O15 0.096833 0.093321 0.142135
O O16 0.000000 0.000000 0.000000
O O17 0.951367 0.003383 0.385023
#
# Coordination Sequence:
#
# PCOD8016442 Si02
#       8
#     2   2   2   2   2   2   2   2
#     4  12  27  47  72 106 145 185 241 300 354 414
#     4  12  27  44  72 108 141 191 233 294 359 424
#     4  11  24  45  75  98 136 190 241 289 351 421
#     4  10  24  44  74 105 142 187 231 291 356 426
#     4  10  23  45  70 103 143 183 234 290 355 418
#     4  12  27  47  71 104 150 185 232 296 353 424
#     4  10  21  44  71 100 137 182 237 287 344 422
#     4  11  25  46  68 103 139 190 237 291 349 415
#
# _framework density 23.240351
#
# number of rings (size 3 to 8) (size 9 to 14) (size 15 to 20)
#    0.750    0.250    3.750    1.500    5.250    6.000 
#    2.250    0.000    0.000    0.000    0.000    0.000 
#    0.000    0.000    0.000    0.000    0.000    0.000 
#
# Total GULP energy -198292.875876 kJ/mol
# GULP energy per Si atom -12393.304742 kJ/mol
# Density = 2.318746 g / cm^3
# Si number density = 23.240351 Si / 1000 Ang^3
#
#
#
# Elastic Constant Matrix: (Units=GPa)
#
#
# Indices 1 2 3 4 5 6 
#
# 1 143.1651 35.0258 48.5117 -16.3433 3.1955 1.9326
# 2 35.0258 60.8144 18.3610 -28.5375 -14.6082 -2.6935
# 3 48.5117 18.3610 114.4902 -11.9541 10.9961 2.5740
# 4 -16.3433 -28.5375 -11.9541 33.9196 1.4604 -3.3346
# 5 3.1955 -14.6082 10.9961 1.4604 32.3462 -4.2583
# 6 1.9326 -2.6935 2.5740 -3.3346 -4.2583 34.3707
#
#
#
# Elastic Compliance Matrix: (Units=1/GPa)
#
#
# Indices 1 2 3 4 5 6 
#
# 1 0.009307 -0.005906 -0.002864 -0.001501 -0.002710 -0.001253
# 2 -0.005906 0.039536 -0.002807 0.029473 0.019232 0.008883
# 3 -0.002864 -0.002807 0.010920 0.000173 -0.004898 -0.001467
# 4 -0.001501 0.029473 0.000173 0.053989 0.012164 0.009126
# 5 -0.002710 0.019232 -0.004898 0.012164 0.042093 0.008421
# 6 -0.001253 0.008883 -0.001467 0.009126 0.008421 0.031900
#
#
# Mechanical properties :
#
#
# Convention : Reuss Voigt Hill
#
# Bulk Modulus (GPa) = 27.31756 58.02964 42.67360
# Shear Modulus (GPa) = 22.41128 34.56538 28.48833
#
# Velocity S-wave (km/s) = 3.10873 3.86074 3.50496
# Velocity P-wave (km/s) = 4.96644 6.70054 5.89757
#
# Compressibility (1/GPa) = 0.03660648
#
# Stress axis : x y z
#
# Youngs Moduli (GPa) = 107.45106 25.29349 91.57680
#
# Poissons Ratio (x) = 0.14938 0.26232
# Poissons Ratio (y) = 0.63460 0.25710
# Poissons Ratio (z) = 0.30779 0.07101
#
# Static dielectric constant tensor:
#      x y z
#    x 4.108480 0.136620 0.206880 
#    y 0.136620 4.091080 -0.039800 
#    z 0.206880 -0.039800 4.142010 
# 
# 
# High freq. dielectric constant tensor:
#      x y z
#    x 1.911890 0.014860 0.017270 
#    y 0.014860 1.922100 -0.004160 
#    z 0.017270 -0.004160 1.918240 
# 
# From -- ./inp_files/431561.got.cif
#   From: 2010.06.25/outbox.cif.g09.slc.cpg/sg2_216_cif.got.tgz:431561.got - 2010.06.27 13:26:56.
