data_PCOD8016320
_publ_section_title
;
Structure prediction by ZEFSAII (Michael W. Deem and Ramdas Pophale) SiO2 
 PCOD8016320
Probable space group: P -1
;
_chemical_formula_sum "Si O2"
_cell_formula_units_Z 16
_cell_length_a 11.692177
_cell_length_b 8.669695
_cell_length_c 11.280878
_cell_angle_alpha 112.427232
_cell_angle_beta 81.801008
_cell_angle_gamma 51.472846
_cell_volume 703.375001
_symmetry_space_group_name_H-M "P -1"
_symmetry_group_IT_number 2
_symmetry_cell_setting 'triclinic'
loop_
_space_group_symop_operation_xyz
x,y,z
-x,-y,-z
loop_
_atom_site_type_symbol
_atom_site_label
_atom_site_fract_x
_atom_site_fract_y
_atom_site_fract_z
Si Si1 0.346624 0.595202 0.416659
Si Si2 0.201028 0.465361 0.268685
Si Si3 0.304945 0.910257 0.702149
Si Si4 0.198538 0.262202 0.420886
Si Si5 0.390888 0.738049 0.226512
Si Si6 0.695482 0.493987 0.963163
Si Si7 0.005443 0.175158 0.991980
Si Si8 0.865554 0.635562 0.289967
O O1 0.194871 0.650628 0.392888
O O2 0.259647 0.805335 0.589899
O O3 0.491786 0.316289 0.367144
O O4 0.442797 0.604741 0.306032
O O5 0.290808 0.244685 0.286361
O O6 0.320429 0.361390 0.103369
O O7 0.012841 0.610241 0.298166
O O8 0.259895 0.139085 0.719139
O O9 0.197414 0.006080 0.867656
O O10 0.242759 0.294597 0.553686
O O11 0.000000 0.500000 0.500000
O O12 0.232579 0.030313 0.353758
O O13 0.328288 0.671115 0.121109
O O14 0.550411 0.679930 0.138420
O O15 0.882870 0.315831 0.937974
O O16 0.950353 0.376776 0.151795
O O17 0.000000 0.000000 0.000000
#
# Coordination Sequence:
#
# PCOD8016320 Si02
#       8
#     2   2   2   2   2   2   2   2
#     4  10  23  43  69 102 133 181 223 271 346 388
#     4  10  23  43  66  98 131 175 224 273 330 401
#     4  11  23  44  70  96 140 176 222 280 330 413
#     4  10  23  41  66  96 132 175 222 284 325 388
#     4  10  21  44  66  98 138 169 229 280 328 400
#     4  10  23  41  68  97 130 180 220 274 339 397
#     4  12  27  42  69  97 134 179 225 278 344 407
#     4  11  24  46  66  98 136 177 226 283 332 399
#
# _framework density 22.747467
#
# number of rings (size 3 to 8) (size 9 to 14) (size 15 to 20)
#    0.000    1.500    2.500    1.125    5.250    3.000 
#    0.000    1.250    0.000    0.000    0.000    0.000 
#    0.000    0.000    0.000    0.000    0.000    0.000 
#
# Total GULP energy -198310.963091 kJ/mol
# GULP energy per Si atom -12394.435193 kJ/mol
# Density = 2.269569 g / cm^3
# Si number density = 22.747467 Si / 1000 Ang^3
#
#
#
# Elastic Constant Matrix: (Units=GPa)
#
#
# Indices 1 2 3 4 5 6 
#
# 1 63.9862 31.8808 28.0718 -3.3853 6.0114 7.7434
# 2 31.8808 134.5276 60.9667 -7.4985 0.8033 27.6481
# 3 28.0718 60.9667 117.6363 -2.5169 7.2580 15.2463
# 4 -3.3853 -7.4985 -2.5169 45.5111 8.2928 -6.8205
# 5 6.0114 0.8033 7.2580 8.2928 27.3529 -5.1032
# 6 7.7434 27.6481 15.2463 -6.8205 -5.1032 30.2112
#
#
#
# Elastic Compliance Matrix: (Units=1/GPa)
#
#
# Indices 1 2 3 4 5 6 
#
# 1 0.018804 -0.002970 -0.002516 0.001318 -0.004003 -0.001211
# 2 -0.002970 0.011710 -0.004351 0.000327 -0.000072 -0.007698
# 3 -0.002516 -0.004351 0.011757 -0.000016 -0.002766 -0.001777
# 4 0.001318 0.000327 -0.000016 0.023917 -0.006873 0.003609
# 5 -0.004003 -0.000072 -0.002766 -0.006873 0.041749 0.007988
# 6 -0.001211 -0.007698 -0.001777 0.003609 0.007988 0.043516
#
#
# Mechanical properties :
#
#
# Convention : Reuss Voigt Hill
#
# Bulk Modulus (GPa) = 44.25337 61.99878 53.12608
# Shear Modulus (GPa) = 27.98626 33.63042 30.80834
#
# Velocity S-wave (km/s) = 3.51137 3.84920 3.68416
# Velocity P-wave (km/s) = 5.99467 6.86072 6.44227
#
# Compressibility (1/GPa) = 0.02259715
#
# Stress axis : x y z
#
# Youngs Moduli (GPa) = 53.17942 85.39913 85.05766
#
# Poissons Ratio (x) = 0.25362 0.21401
# Poissons Ratio (y) = 0.15794 0.37008
# Poissons Ratio (z) = 0.13380 0.37157
#
# Static dielectric constant tensor:
#      x y z
#    x 4.007290 0.373500 -0.132100 
#    y 0.373500 4.551650 -0.491860 
#    z -0.132100 -0.491860 4.361030 
# 
# 
# High freq. dielectric constant tensor:
#      x y z
#    x 1.878500 0.011430 0.001950 
#    y 0.011430 1.904980 -0.019650 
#    z 0.001950 -0.019650 1.903520 
# 
# From -- ./inp_files/262272.got.cif
#   From: 2010.06.25/outbox.cif.g09.slc.cpg/sg2_132_cif.got.tgz:262272.got - 2010.06.27 13:26:56.
