data_PCOD8016838
_publ_section_title
;
Structure prediction by ZEFSAII (Michael W. Deem and Ramdas Pophale) SiO2 
 PCOD8016838
Probable space group: P -1
;
_chemical_formula_sum "Si O2"
_cell_formula_units_Z 14
_cell_length_a 18.300667
_cell_length_b 11.432053
_cell_length_c 15.014785
_cell_angle_alpha 149.649022
_cell_angle_beta 28.784065
_cell_angle_gamma 151.207044
_cell_volume 664.789213
_symmetry_space_group_name_H-M "P -1"
_symmetry_group_IT_number 2
_symmetry_cell_setting 'triclinic'
loop_
_space_group_symop_operation_xyz
x,y,z
-x,-y,-z
loop_
_atom_site_type_symbol
_atom_site_label
_atom_site_fract_x
_atom_site_fract_y
_atom_site_fract_z
Si Si1 0.186424 0.757575 0.969305
Si Si2 0.694801 0.440017 0.895035
Si Si3 0.368998 0.937406 0.441482
Si Si4 0.431321 0.533856 0.501770
Si Si5 0.716163 0.948680 0.113003
Si Si6 0.946789 0.225212 0.200446
Si Si7 0.598362 0.876848 0.867195
O O1 0.304758 0.647846 0.730845
O O2 0.211321 0.988966 0.024972
O O3 0.000000 0.500000 0.000000
O O4 0.240578 0.890935 0.096962
O O5 0.655632 0.191208 0.713249
O O6 0.871302 0.503727 0.802079
O O7 0.712595 0.681092 0.973237
O O8 0.534937 0.352947 0.075615
O O9 0.524531 0.915117 0.310335
O O10 0.189198 0.794859 0.592834
O O11 0.413729 0.241911 0.577158
O O12 0.500000 0.500000 0.500000
O O13 0.336606 0.260637 0.366140
O O14 0.854792 0.203066 0.189651
O O15 0.000000 0.000000 0.000000
O O16 0.500000 0.000000 0.000000
#
# Coordination Sequence:
#
# PCOD8016838 Si02
#       7
#     2   2   2   2   2   2   2
#     4  11  26  45  67  99 134 171 218 276 324 385
#     4  11  22  41  67  97 128 172 218 266 326 385
#     4  11  21  40  63  95 132 168 216 268 325 386
#     4  11  22  42  69  95 127 176 222 261 326 397
#     4  10  22  42  63  95 135 166 213 270 327 384
#     4  10  22  36  60  92 127 169 211 264 317 381
#     4  12  24  44  72  93 131 177 218 269 329 391
#
# _framework density 21.059307
#
# number of rings (size 3 to 8) (size 9 to 14) (size 15 to 20)
#    0.000    1.143    4.286    3.000    2.000    4.000 
#    0.000    1.429    0.000    0.000    0.000    0.000 
#    0.000    0.000    0.000    0.000    0.000    0.000 
#
# Total GULP energy -173528.824133 kJ/mol
# GULP energy per Si atom -12394.916010 kJ/mol
# Density = 2.101137 g / cm^3
# Si number density = 21.059307 Si / 1000 Ang^3
#
#
#
# Elastic Constant Matrix: (Units=GPa)
#
#
# Indices 1 2 3 4 5 6 
#
# 1 113.1966 44.9841 25.5865 12.4382 18.4589 26.3351
# 2 44.9841 104.9301 21.0504 3.9684 1.3055 20.9689
# 3 25.5865 21.0504 76.1094 16.1810 22.9150 17.4567
# 4 12.4382 3.9684 16.1810 36.4409 7.0348 -0.4367
# 5 18.4589 1.3055 22.9150 7.0348 32.0336 4.8080
# 6 26.3351 20.9689 17.4567 -0.4367 4.8080 50.1239
#
#
#
# Elastic Compliance Matrix: (Units=1/GPa)
#
#
# Indices 1 2 3 4 5 6 
#
# 1 0.012927 -0.004550 0.000455 -0.002963 -0.006267 -0.004472
# 2 -0.004550 0.012417 -0.002826 0.000590 0.004342 -0.002231
# 3 0.000455 -0.002826 0.019942 -0.006391 -0.012276 -0.004880
# 4 -0.002963 0.000590 -0.006391 0.031516 -0.001256 0.003930
# 5 -0.006267 0.004342 -0.012276 -0.001256 0.043474 0.001571
# 6 -0.004472 -0.002231 -0.004880 0.003930 0.001571 0.024817
#
#
# Mechanical properties :
#
#
# Convention : Reuss Voigt Hill
#
# Bulk Modulus (GPa) = 31.80170 53.05312 42.42741
# Shear Modulus (GPa) = 29.51327 37.22736 33.37032
#
# Velocity S-wave (km/s) = 3.74764 4.20901 3.98501
# Velocity P-wave (km/s) = 5.81895 6.99056 6.43149
#
# Compressibility (1/GPa) = 0.03144486
#
# Stress axis : x y z
#
# Youngs Moduli (GPa) = 77.35587 80.53425 50.14593
#
# Poissons Ratio (x) = 0.36640 -0.02281
# Poissons Ratio (y) = 0.35194 0.14171
# Poissons Ratio (z) = -0.03519 0.22759
#
# Static dielectric constant tensor:
#      x y z
#    x 4.397310 0.909860 -0.058040 
#    y 0.909860 3.401200 -0.041930 
#    z -0.058040 -0.041930 3.819120 
# 
# 
# High freq. dielectric constant tensor:
#      x y z
#    x 1.839860 0.009880 0.009740 
#    y 0.009880 1.824840 0.006740 
#    z 0.009740 0.006740 1.816860 
# 
# From -- ./inp_files/280102.got.cif
#   From: 2010.06.25/outbox.cif.g09.slc.cpg/sg2_141_cif.got.tgz:280102.got - 2010.06.27 13:26:56.
