data_PCOD8016736
_publ_section_title
;
Structure prediction by ZEFSAII (Michael W. Deem and Ramdas Pophale) SiO2 
 PCOD8016736
Probable space group: P -1
;
_chemical_formula_sum "Si O2"
_cell_formula_units_Z 14
_cell_length_a 15.568520
_cell_length_b 7.047064
_cell_length_c 27.917750
_cell_angle_alpha 136.512724
_cell_angle_beta 161.873682
_cell_angle_gamma 41.618924
_cell_volume 631.219864
_symmetry_space_group_name_H-M "P -1"
_symmetry_group_IT_number 2
_symmetry_cell_setting 'triclinic'
loop_
_space_group_symop_operation_xyz
x,y,z
-x,-y,-z
loop_
_atom_site_type_symbol
_atom_site_label
_atom_site_fract_x
_atom_site_fract_y
_atom_site_fract_z
Si Si1 0.864318 0.808238 0.105470
Si Si2 0.129133 0.468419 0.655957
Si Si3 0.767639 0.936489 0.175734
Si Si4 0.269943 0.734978 0.107618
Si Si5 0.369002 0.185392 0.603868
Si Si6 0.669879 0.894946 0.617740
Si Si7 0.909389 0.267533 0.598771
O O1 0.945427 0.717885 0.188387
O O2 0.835927 0.544240 0.010165
O O3 0.068150 0.961961 0.213824
O O4 0.566399 0.050300 0.999680
O O5 0.439054 0.266230 0.767090
O O6 0.893846 0.536689 0.499853
O O7 0.017071 0.313018 0.611472
O O8 0.172395 0.763718 0.751938
O O9 0.837521 0.870535 0.255937
O O10 0.368971 0.726907 0.214584
O O11 0.000000 0.000000 0.000000
O O12 0.468803 0.003225 0.575822
O O13 0.276572 0.959359 0.548554
O O14 0.749456 0.554695 0.594540
O O15 0.500000 0.000000 0.500000
#
# Coordination Sequence:
#
# PCOD8016736 Si02
#       7
#     2   2   2   2   2   2   2
#     4  10  22  43  64  94 140 170 215 274 332 390
#     4  10  21  47  70  97 131 172 226 274 327 387
#     4   9  20  41  69  99 128 169 217 283 331 377
#     4  11  27  43  66  98 137 182 218 262 329 406
#     4  11  25  43  66  98 138 178 215 270 329 397
#     4  12  23  40  69 100 130 167 222 282 330 377
#     4  11  22  40  73 100 124 170 227 276 327 385
#
# _framework density 22.179276999999999
#
# number of rings (size 3 to 8) (size 9 to 14) (size 15 to 20)
#    0.000    1.429    2.857    1.714    4.000    2.857 
#    0.000    2.857    0.000    0.000    0.000    0.000 
#    0.000    0.000    0.000    0.000    0.000    0.000 
#
# Total GULP energy -173461.992006 kJ/mol
# GULP energy per Si atom -12390.142286 kJ/mol
# Density = 2.212880 g / cm^3
# Si number density = 22.179277 Si / 1000 Ang^3
#
#
#
# Elastic Constant Matrix: (Units=GPa)
#
#
# Indices 1 2 3 4 5 6 
#
# 1 109.8826 44.6841 28.1867 -1.7149 -6.8399 9.3786
# 2 44.6841 96.6579 45.9208 -0.5645 3.2385 4.4932
# 3 28.1867 45.9208 107.4002 -7.1342 -14.1525 4.5194
# 4 -1.7149 -0.5645 -7.1342 28.9209 -6.3242 5.6129
# 5 -6.8399 3.2385 -14.1525 -6.3242 45.1857 3.0516
# 6 9.3786 4.4932 4.5194 5.6129 3.0516 38.3344
#
#
#
# Elastic Compliance Matrix: (Units=1/GPa)
#
#
# Indices 1 2 3 4 5 6 
#
# 1 0.011701 -0.005215 -0.000304 0.001565 0.002447 -0.002640
# 2 -0.005215 0.015763 -0.006145 -0.002621 -0.004270 0.000876
# 3 -0.000304 -0.006145 0.013095 0.004601 0.005264 -0.001842
# 4 0.001565 -0.002621 0.004601 0.038793 0.007762 -0.006916
# 5 0.002447 -0.004270 0.005264 0.007762 0.025807 -0.003910
# 6 -0.002640 0.000876 -0.001842 -0.006916 -0.003910 0.028170
#
#
# Mechanical properties :
#
#
# Convention : Reuss Voigt Hill
#
# Bulk Modulus (GPa) = 58.03184 61.28046 59.65615
# Shear Modulus (GPa) = 30.78812 35.49814 33.14313
#
# Velocity S-wave (km/s) = 3.72983 4.00498 3.86985
# Velocity P-wave (km/s) = 6.69108 7.00543 6.85006
#
# Compressibility (1/GPa) = 0.01723192
#
# Stress axis : x y z
#
# Youngs Moduli (GPa) = 85.45993 63.43960 76.36685
#
# Poissons Ratio (x) = 0.33086 0.02318
# Poissons Ratio (y) = 0.44571 0.46925
# Poissons Ratio (z) = 0.02594 0.38981
#
# Static dielectric constant tensor:
#      x y z
#    x 2.430770 -0.667510 -1.414980 
#    y -0.667510 3.633340 -0.404700 
#    z -1.414980 -0.404700 3.169940 
# 
# 
# High freq. dielectric constant tensor:
#      x y z
#    x 1.883010 -0.008570 -0.010320 
#    y -0.008570 1.854520 0.002560 
#    z -0.010320 0.002560 1.887850 
# 
# From -- ./inp_files/427658.got.cif
#   From: 2010.06.25/outbox.cif.g09.slc.cpg/sg2_214_cif.got.tgz:427658.got - 2010.06.27 13:26:56.
