data_PCOD8016959
_publ_section_title
;
Structure prediction by ZEFSAII (Michael W. Deem and Ramdas Pophale) SiO2 
 PCOD8016959
Probable space group: P -1
;
_chemical_formula_sum "Si O2"
_cell_formula_units_Z 16
_cell_length_a 14.884041
_cell_length_b 14.442375
_cell_length_c 14.363918
_cell_angle_alpha 133.277532
_cell_angle_beta 48.034973
_cell_angle_gamma 160.449193
_cell_volume 749.000057
_symmetry_space_group_name_H-M "P -1"
_symmetry_group_IT_number 2
_symmetry_cell_setting 'triclinic'
loop_
_space_group_symop_operation_xyz
x,y,z
-x,-y,-z
loop_
_atom_site_type_symbol
_atom_site_label
_atom_site_fract_x
_atom_site_fract_y
_atom_site_fract_z
Si Si1 0.172950 0.353048 0.381847
Si Si2 0.230513 0.294402 0.593149
Si Si3 0.278467 0.260884 0.747635
Si Si4 0.666997 0.103869 0.678586
Si Si5 0.537582 0.812240 0.178903
Si Si6 0.463600 0.107402 0.569036
Si Si7 0.067426 0.188130 0.023513
Si Si8 0.191408 0.497066 0.657165
O O1 0.407391 0.473954 0.273287
O O2 0.241907 0.554292 0.425142
O O3 0.185354 0.381524 0.503372
O O4 0.885951 0.026910 0.322803
O O5 0.500000 0.500000 0.500000
O O6 0.219720 0.262317 0.688534
O O7 0.191024 0.410822 0.690908
O O8 0.000000 0.000000 0.500000
O O9 0.182191 0.268980 0.897372
O O10 0.578457 0.164103 0.762302
O O11 0.940251 0.356747 0.722799
O O12 0.712808 0.065132 0.523671
O O13 0.451479 0.830161 0.703387
O O14 0.656034 0.932728 0.285634
O O15 0.296017 0.483366 0.121792
O O16 0.791572 0.008000 0.076183
O O17 0.500000 0.000000 0.500000
O O18 0.000000 0.000000 0.000000
#
# Coordination Sequence:
#
# PCOD8016959 Si02
#       8
#     2   2   2   2   2   2   2   2
#     4  11  20  35  58  85 125 155 193 240 305 370
#     4  12  22  38  61  94 127 156 195 251 320 366
#     4  12  23  39  59  89 122 163 198 248 303 363
#     4  10  22  37  61  89 119 161 197 249 312 359
#     4  11  23  42  60  85 122 159 212 258 291 357
#     4   9  20  36  58  87 118 157 200 248 303 356
#     4  12  25  41  63  88 121 167 212 247 298 353
#     4  11  20  36  59  90 123 153 191 243 316 375
#
# _framework density 21.361813999999999
#
# number of rings (size 3 to 8) (size 9 to 14) (size 15 to 20)
#    0.000    1.000    2.500    5.625    0.000    2.000 
#    0.000   10.625    0.000    4.500    0.000    0.000 
#    0.000    0.000    0.000    0.000    0.000    0.000 
#
# Total GULP energy -198350.727936 kJ/mol
# GULP energy per Si atom -12396.920496 kJ/mol
# Density = 2.131319 g / cm^3
# Si number density = 21.361814 Si / 1000 Ang^3
#
#
#
# Elastic Constant Matrix: (Units=GPa)
#
#
# Indices 1 2 3 4 5 6 
#
# 1 133.5501 30.3166 41.5113 -5.9101 -2.4973 -13.1349
# 2 30.3166 91.7689 28.0594 -8.4245 -3.9006 -0.7462
# 3 41.5113 28.0594 93.9402 -8.5303 -7.1214 -3.6197
# 4 -5.9101 -8.4245 -8.5303 29.7851 0.7261 -11.6770
# 5 -2.4973 -3.9006 -7.1214 0.7261 28.7866 -4.6550
# 6 -13.1349 -0.7462 -3.6197 -11.6770 -4.6550 37.2362
#
#
#
# Elastic Compliance Matrix: (Units=1/GPa)
#
#
# Indices 1 2 3 4 5 6 
#
# 1 0.009360 -0.001895 -0.003252 0.001770 0.000278 0.003538
# 2 -0.001895 0.012593 -0.002623 0.002500 0.000866 0.000221
# 3 -0.003252 -0.002623 0.013398 0.002918 0.002825 0.001371
# 4 0.001770 0.002500 0.002918 0.040937 0.002462 0.014104
# 5 0.000278 0.000866 0.002825 0.002462 0.036441 0.005718
# 6 0.003538 0.000221 0.001371 0.014104 0.005718 0.033379
#
#
# Mechanical properties :
#
#
# Convention : Reuss Voigt Hill
#
# Bulk Modulus (GPa) = 50.47667 57.67044 54.07355
# Shear Modulus (GPa) = 29.71741 33.78637 31.75189
#
# Velocity S-wave (km/s) = 3.73385 3.98128 3.85955
# Velocity P-wave (km/s) = 6.50151 6.94188 6.72530
#
# Compressibility (1/GPa) = 0.01981113
#
# Stress axis : x y z
#
# Youngs Moduli (GPa) = 106.83454 79.40905 74.64022
#
# Poissons Ratio (x) = 0.15046 0.24274
# Poissons Ratio (y) = 0.20243 0.19578
# Poissons Ratio (z) = 0.34744 0.20829
#
# Static dielectric constant tensor:
#      x y z
#    x 3.972910 -0.152470 -0.043970 
#    y -0.152470 4.084860 0.009730 
#    z -0.043970 0.009730 3.954200 
# 
# 
# High freq. dielectric constant tensor:
#      x y z
#    x 1.844840 -0.003970 -0.012320 
#    y -0.003970 1.855300 -0.003450 
#    z -0.012320 -0.003450 1.809480 
# 
# From -- ./inp_files/534369.got.cif
#   From: 2010.06.25/outbox.cif.g09.slc.cpg/sg2_268_cif.got.tgz:534369.got - 2010.06.27 13:26:56.
