data_PCOD8016384
_publ_section_title
;
Structure prediction by ZEFSAII (Michael W. Deem and Ramdas Pophale) SiO2 
 PCOD8016384
Probable space group: P -1
;
_chemical_formula_sum "Si O2"
_cell_formula_units_Z 14
_cell_length_a 11.391395
_cell_length_b 9.085502
_cell_length_c 8.997831
_cell_angle_alpha 72.001982
_cell_angle_beta 76.485927
_cell_angle_gamma 39.526824
_cell_volume 563.662518
_symmetry_space_group_name_H-M "P -1"
_symmetry_group_IT_number 2
_symmetry_cell_setting 'triclinic'
loop_
_space_group_symop_operation_xyz
x,y,z
-x,-y,-z
loop_
_atom_site_type_symbol
_atom_site_label
_atom_site_fract_x
_atom_site_fract_y
_atom_site_fract_z
Si Si1 0.375588 0.481502 0.383028
Si Si2 0.303402 0.260280 0.285837
Si Si3 0.029599 0.560067 0.818733
Si Si4 0.958233 0.991262 0.683517
Si Si5 0.501248 0.259522 0.991797
Si Si6 0.291519 0.764307 0.838072
Si Si7 0.569920 0.761797 0.294406
O O1 0.288243 0.408366 0.365773
O O2 0.248854 0.751903 0.298511
O O3 0.575338 0.316140 0.310051
O O4 0.386325 0.442707 0.569969
O O5 0.097468 0.396327 0.281711
O O6 0.442940 0.985092 0.375293
O O7 0.396894 0.221303 0.115249
O O8 0.241419 0.334753 0.776438
O O9 0.978339 0.790668 0.771231
O O10 0.000000 0.500000 0.000000
O O11 0.000000 0.000000 0.500000
O O12 0.086724 0.959850 0.772190
O O13 0.348253 0.542929 0.953675
O O14 0.549928 0.162816 0.840265
O O15 0.686685 0.132750 0.065253
#
# Coordination Sequence:
#
# PCOD8016384 Si02
#       7
#     2   2   2   2   2   2   2
#     4  11  27  45  72 107 143 190 240 297 359 432
#     4  11  26  45  69 106 143 189 239 294 366 419
#     4  12  26  45  75 105 145 189 240 297 360 427
#     4  12  25  46  73 110 143 189 242 295 360 432
#     4  10  21  44  69 103 134 188 238 291 350 434
#     4  10  23  44  70 100 147 178 237 300 361 411
#     4  12  24  45  71 103 143 186 247 289 359 429
#
# _framework density 24.837558000000001
#
# number of rings (size 3 to 8) (size 9 to 14) (size 15 to 20)
#    0.000    0.857    4.286    0.857    4.000    4.000 
#    0.000    7.143    0.000    0.000    0.000    0.000 
#    0.000    0.000    0.000    0.000    0.000    0.000 
#
# Total GULP energy -173619.898018 kJ/mol
# GULP energy per Si atom -12401.421287 kJ/mol
# Density = 2.478103 g / cm^3
# Si number density = 24.837558 Si / 1000 Ang^3
#
#
#
# Elastic Constant Matrix: (Units=GPa)
#
#
# Indices 1 2 3 4 5 6 
#
# 1 92.3657 3.9774 23.5207 -18.4707 14.6197 9.9432
# 2 3.9774 59.6191 10.9037 -10.5152 6.4891 15.4652
# 3 23.5207 10.9037 98.7603 -19.7950 6.2457 6.2017
# 4 -18.4707 -10.5152 -19.7950 32.1073 6.1735 3.6952
# 5 14.6197 6.4891 6.2457 6.1735 42.4304 -1.7630
# 6 9.9432 15.4652 6.2017 3.6952 -1.7630 30.6539
#
#
#
# Elastic Compliance Matrix: (Units=1/GPa)
#
#
# Indices 1 2 3 4 5 6 
#
# 1 0.015653 0.004646 -0.000555 0.012850 -0.008280 -0.009334
# 2 0.004646 0.023851 0.000620 0.014242 -0.008070 -0.015847
# 3 -0.000555 0.000620 0.012338 0.008532 -0.003120 -0.003837
# 4 0.012850 0.014242 0.008532 0.054014 -0.016574 -0.020544
# 5 -0.008280 -0.008070 -0.003120 -0.016574 0.030990 0.011169
# 6 -0.009334 -0.015847 -0.003837 -0.020544 0.011169 0.047540
#
#
# Mechanical properties :
#
#
# Convention : Reuss Voigt Hill
#
# Bulk Modulus (GPa) = 16.32292 36.39432 26.35862
# Shear Modulus (GPa) = 25.59064 35.19453 30.39258
#
# Velocity S-wave (km/s) = 3.21334 3.76837 3.50187
# Velocity P-wave (km/s) = 4.51149 5.79818 5.19483
#
# Compressibility (1/GPa) = 0.06126356
#
# Stress axis : x y z
#
# Youngs Moduli (GPa) = 63.88540 41.92752 81.05294
#
# Poissons Ratio (x) = -0.19481 0.04502
# Poissons Ratio (y) = -0.29683 -0.05027
# Poissons Ratio (z) = 0.03549 -0.02601
#
# Static dielectric constant tensor:
#      x y z
#    x 4.710350 0.105340 0.102640 
#    y 0.105340 4.400150 -0.287970 
#    z 0.102640 -0.287970 4.493460 
# 
# 
# High freq. dielectric constant tensor:
#      x y z
#    x 2.002970 0.007430 0.001300 
#    y 0.007430 1.975670 -0.017240 
#    z 0.001300 -0.017240 1.994800 
# 
# From -- ./inp_files/243466.got.cif
#   From: 2010.06.25/outbox.cif.g09.slc.cpg/sg2_122_cif.got.tgz:243466.got - 2010.06.27 13:26:56.
