data_PCOD8016961
_publ_section_title
;
Structure prediction by ZEFSAII (Michael W. Deem and Ramdas Pophale) SiO2 
 PCOD8016961
Probable space group: P -1
;
_chemical_formula_sum "Si O2"
_cell_formula_units_Z 16
_cell_length_a 13.093424
_cell_length_b 16.978813
_cell_length_c 24.787520
_cell_angle_alpha 21.247220
_cell_angle_beta 22.177008
_cell_angle_gamma 21.986761
_cell_volume 665.639437
_symmetry_space_group_name_H-M "P -1"
_symmetry_group_IT_number 2
_symmetry_cell_setting 'triclinic'
loop_
_space_group_symop_operation_xyz
x,y,z
-x,-y,-z
loop_
_atom_site_type_symbol
_atom_site_label
_atom_site_fract_x
_atom_site_fract_y
_atom_site_fract_z
Si Si1 0.748560 0.449790 0.281147
Si Si2 0.587832 0.122134 0.201556
Si Si3 0.626711 0.154768 0.870640
Si Si4 0.737986 0.177825 0.260145
Si Si5 0.010383 0.622742 0.133905
Si Si6 0.760459 0.852688 0.541486
Si Si7 0.301508 0.327159 0.634957
Si Si8 0.779740 0.638226 0.970538
O O1 0.503785 0.593041 0.261610
O O2 0.635827 0.297862 0.472914
O O3 0.828694 0.634035 0.160502
O O4 0.061773 0.260866 0.215690
O O5 0.304816 0.352551 0.164944
O O6 0.444397 0.045775 0.370312
O O7 0.744171 0.887526 0.235032
O O8 0.851709 0.186200 0.052463
O O9 0.530511 0.166622 0.973551
O O10 0.991650 0.026148 0.778174
O O11 0.500000 0.000000 0.000000
O O12 0.412963 0.212715 0.378623
O O13 0.719730 0.440411 0.093572
O O14 0.814454 0.076658 0.349407
O O15 0.756522 0.689191 0.262937
O O16 0.072232 0.604794 0.553402
O O17 0.000000 0.500000 0.000000
#
# Coordination Sequence:
#
# PCOD8016961 Si02
#       8
#     2   2   2   2   2   2   2   2
#     4  11  22  41  66  93 130 162 211 258 311 370
#     4  10  23  42  67  87 128 163 212 263 318 371
#     4  11  22  39  62  92 130 167 203 255 311 373
#     4  11  21  41  59  92 130 170 208 249 306 378
#     4  10  23  46  62  92 123 166 211 263 316 379
#     4  10  24  38  64  89 129 167 207 258 311 369
#     4  11  23  42  65  97 122 165 212 266 313 367
#     4  10  22  37  61  91 125 164 205 252 302 378
#
# _framework density 24.037037000000002
#
# number of rings (size 3 to 8) (size 9 to 14) (size 15 to 20)
#    0.000    1.500    3.750    1.500    3.500    1.500 
#    2.250    2.500    0.000    0.000    0.000    0.000 
#    0.000    0.000    0.000    0.000    0.000    0.000 
#
# Total GULP energy -198232.801871 kJ/mol
# GULP energy per Si atom -12389.550117 kJ/mol
# Density = 2.398233 g / cm^3
# Si number density = 24.037037 Si / 1000 Ang^3
#
#
#
# Elastic Constant Matrix: (Units=GPa)
#
#
# Indices 1 2 3 4 5 6 
#
# 1 66.8423 24.3165 14.3689 15.5987 2.9518 19.9256
# 2 24.3165 79.6138 34.4126 25.3185 11.8732 28.7746
# 3 14.3689 34.4126 110.2277 38.1408 13.2882 13.8368
# 4 15.5987 25.3185 38.1408 39.4160 13.2190 6.8392
# 5 2.9518 11.8732 13.2882 13.2190 37.5788 8.7414
# 6 19.9256 28.7746 13.8368 6.8392 8.7414 27.9587
#
#
#
# Elastic Compliance Matrix: (Units=1/GPa)
#
#
# Indices 1 2 3 4 5 6 
#
# 1 0.020930 0.000839 0.001611 -0.009125 0.004387 -0.015717
# 2 0.000839 0.024542 -0.001049 -0.011764 0.002064 -0.023104
# 3 0.001611 -0.001049 0.014195 -0.013257 0.000803 -0.004102
# 4 -0.009125 -0.011764 -0.013257 0.050692 -0.012597 0.016710
# 5 0.004387 0.002064 0.000803 -0.012597 0.032740 -0.012802
# 6 -0.015717 -0.023104 -0.004102 0.016710 -0.012802 0.072691
#
#
# Mechanical properties :
#
#
# Convention : Reuss Voigt Hill
#
# Bulk Modulus (GPa) = 16.00799 44.76442 30.38621
# Shear Modulus (GPa) = 21.38491 33.22974 27.30732
#
# Velocity S-wave (km/s) = 2.98596 3.72215 3.37419
# Velocity P-wave (km/s) = 4.30838 6.09394 5.27722
#
# Compressibility (1/GPa) = 0.06246881
#
# Stress axis : x y z
#
# Youngs Moduli (GPa) = 47.77868 40.74691 70.44790
#
# Poissons Ratio (x) = -0.03419 -0.11351
# Poissons Ratio (y) = -0.04009 0.07391
# Poissons Ratio (z) = -0.07698 0.04275
#
# Static dielectric constant tensor:
#      x y z
#    x 4.176730 0.024570 0.344190 
#    y 0.024570 4.524630 0.428610 
#    z 0.344190 0.428610 4.558820 
# 
# 
# High freq. dielectric constant tensor:
#      x y z
#    x 1.941940 0.012560 0.012430 
#    y 0.012560 1.944840 0.021470 
#    z 0.012430 0.021470 1.962780 
# 
# From -- ./inp_files/619720.got.cif
#   From: 2010.06.25/outbox.cif.g09.slc.cpg/sg2_310_cif.got.tgz:619720.got - 2010.06.27 13:26:56.
