data_PCOD8016144
_publ_section_title
;
Structure prediction by ZEFSAII (Michael W. Deem and Ramdas Pophale) SiO2 
 PCOD8016144
Probable space group: P -1
;
_chemical_formula_sum "Si O2"
_cell_formula_units_Z 12
_cell_length_a 12.857245
_cell_length_b 16.010762
_cell_length_c 7.472339
_cell_angle_alpha 124.134828
_cell_angle_beta 134.225507
_cell_angle_gamma 24.177948
_cell_volume 436.411568
_symmetry_space_group_name_H-M "P -1"
_symmetry_group_IT_number 2
_symmetry_cell_setting 'triclinic'
loop_
_space_group_symop_operation_xyz
x,y,z
-x,-y,-z
loop_
_atom_site_type_symbol
_atom_site_label
_atom_site_fract_x
_atom_site_fract_y
_atom_site_fract_z
Si Si1 0.850186 0.121382 0.281124
Si Si2 0.210858 0.280544 0.924074
Si Si3 0.709681 0.422386 0.918936
Si Si4 0.329241 0.978938 0.144495
Si Si5 0.384509 0.914194 0.521377
Si Si6 0.679453 0.517649 0.397094
O O1 0.509212 0.371300 0.209327
O O2 0.815458 0.044307 0.023156
O O3 0.000000 0.000000 0.500000
O O4 0.039217 0.093514 0.372890
O O5 0.385073 0.206286 0.862847
O O6 0.995581 0.318049 0.652148
O O7 0.463180 0.104012 0.169131
O O8 0.000000 0.500000 0.000000
O O9 0.580328 0.387586 0.701882
O O10 0.732338 0.440913 0.173766
O O11 0.057367 0.212917 0.012465
O O12 0.409281 0.963752 0.426339
O O13 0.583234 0.692228 0.479392
#
# Coordination Sequence:
#
# PCOD8016144 Si02
#       6
#     2   2   2   2   2   2
#     4  12  24  45  74 108 144 188 242 298 352 422
#     4  10  25  45  73 109 146 191 240 292 360 426
#     4  11  24  43  74 108 140 189 241 292 359 422
#     4  12  24  46  77 105 146 190 239 298 355 422
#     4  11  21  44  75 107 145 194 239 290 357 424
#     4  10  21  43  71 107 147 185 239 296 350 427
#
# _framework density 27.496980000000001
#
# number of rings (size 3 to 8) (size 9 to 14) (size 15 to 20)
#    0.000    1.000    5.000    2.500    0.000    4.000 
#    0.000    3.333    0.000    0.000    0.000    0.000 
#    0.000    0.000    0.000    0.000    0.000    0.000 
#
# Total GULP energy -148801.862705 kJ/mol
# GULP energy per Si atom -12400.155225 kJ/mol
# Density = 2.743440 g / cm^3
# Si number density = 27.496980 Si / 1000 Ang^3
#
#
#
# Elastic Constant Matrix: (Units=GPa)
#
#
# Indices 1 2 3 4 5 6 
#
# 1 72.9697 26.5229 39.5513 -10.3021 -26.4570 -24.0351
# 2 26.5229 107.8394 39.2159 -33.7483 -6.0114 -17.8950
# 3 39.5513 39.2159 182.9673 -14.5805 -14.0216 -11.5637
# 4 -10.3021 -33.7483 -14.5805 46.4638 5.4463 -3.4642
# 5 -26.4570 -6.0114 -14.0216 5.4463 43.5358 -5.3151
# 6 -24.0351 -17.8950 -11.5637 -3.4642 -5.3151 39.1393
#
#
#
# Elastic Compliance Matrix: (Units=1/GPa)
#
#
# Indices 1 2 3 4 5 6 
#
# 1 0.029676 -0.000268 -0.003275 0.004651 0.018815 0.020100
# 2 -0.000268 0.014363 -0.001702 0.010257 0.000834 0.006920
# 3 -0.003275 -0.001702 0.006463 0.000028 -0.000258 -0.000912
# 4 0.004651 0.010257 0.000028 0.030594 0.001705 0.010493
# 5 0.018815 0.000834 -0.000258 0.001705 0.036290 0.016938
# 6 0.020100 0.006920 -0.000912 0.010493 0.016938 0.044016
#
#
# Mechanical properties :
#
#
# Convention : Reuss Voigt Hill
#
# Bulk Modulus (GPa) = 24.99261 63.81741 44.40501
# Shear Modulus (GPa) = 26.99372 43.06020 35.02696
#
# Velocity S-wave (km/s) = 3.13660 3.96156 3.57297
# Velocity P-wave (km/s) = 4.71452 6.64715 5.76243
#
# Compressibility (1/GPa) = 0.04001183
#
# Stress axis : x y z
#
# Youngs Moduli (GPa) = 33.69767 69.62554 154.73027
#
# Poissons Ratio (x) = 0.01868 0.50668
# Poissons Ratio (y) = 0.00904 0.26331
# Poissons Ratio (z) = 0.11035 0.11849
#
# Static dielectric constant tensor:
#      x y z
#    x 4.350770 -0.025280 0.154600 
#    y -0.025280 5.113310 -0.132090 
#    z 0.154600 -0.132090 6.045200 
# 
# 
# High freq. dielectric constant tensor:
#      x y z
#    x 2.070710 0.000230 0.000000 
#    y 0.000230 2.133560 -0.001880 
#    z 0.000000 -0.001880 2.140460 
# 
# From -- ./inp_files/318118.got.cif
#   From: 2010.06.25/outbox.cif.g09.slc.cpg/sg2_160_cif.got.tgz:318118.got - 2010.06.27 13:26:56.
