data_PCOD8016087
_publ_section_title
;
Structure prediction by ZEFSAII (Michael W. Deem and Ramdas Pophale) SiO2 
 PCOD8016087
Probable space group: P -1
;
_chemical_formula_sum "Si O2"
_cell_formula_units_Z 14
_cell_length_a 4.969026
_cell_length_b 13.591217
_cell_length_c 11.069578
_cell_angle_alpha 120.277129
_cell_angle_beta 98.004860
_cell_angle_gamma 67.165947
_cell_volume 593.521658
_symmetry_space_group_name_H-M "P -1"
_symmetry_group_IT_number 2
_symmetry_cell_setting 'triclinic'
loop_
_space_group_symop_operation_xyz
x,y,z
-x,-y,-z
loop_
_atom_site_type_symbol
_atom_site_label
_atom_site_fract_x
_atom_site_fract_y
_atom_site_fract_z
Si Si1 0.701342 0.939376 0.862564
Si Si2 0.947523 0.723886 0.900873
Si Si3 0.056992 0.470133 0.624664
Si Si4 0.610742 0.095149 0.406595
Si Si5 0.238795 0.165634 0.667093
Si Si6 0.719949 0.316961 0.604479
Si Si7 0.612959 0.186560 0.917301
O O1 0.959908 0.817040 0.851761
O O2 0.533885 0.890864 0.723909
O O3 0.806037 0.042081 0.870402
O O4 0.500000 0.000000 0.000000
O O5 0.026617 0.588953 0.772364
O O6 0.632229 0.761970 0.964071
O O7 0.182215 0.733237 0.019799
O O8 0.368762 0.371441 0.626052
O O9 0.000000 0.500000 0.500000
O O10 0.807159 0.416366 0.600695
O O11 0.369886 0.141102 0.525709
O O12 0.801293 0.181784 0.463960
O O13 0.815097 0.952779 0.355253
O O14 0.463998 0.200824 0.786012
O O15 0.921294 0.279374 0.715503
#
# Coordination Sequence:
#
# PCOD8016087 Si02
#       7
#     2   2   2   2   2   2   2
#     4   9  20  41  66 102 132 170 214 274 339 400
#     4  11  23  43  65  95 131 177 219 272 334 385
#     4  12  27  45  68  96 134 181 229 277 322 394
#     4  10  21  43  70 104 136 174 218 277 339 399
#     4  10  23  43  70 103 134 175 220 275 337 404
#     4  12  24  45  67 100 132 174 230 274 329 388
#     4  10  23  42  68  96 135 167 216 277 334 400
#
# _framework density 23.588017000000001
#
# number of rings (size 3 to 8) (size 9 to 14) (size 15 to 20)
#    0.000    1.429    1.429    3.000    2.000    2.286 
#   15.429    4.286    0.000    0.000    0.000    0.000 
#    0.000    0.000    0.000    0.000    0.000    0.000 
#
# Total GULP energy -173488.689386 kJ/mol
# GULP energy per Si atom -12392.049242 kJ/mol
# Density = 2.353433 g / cm^3
# Si number density = 23.588017 Si / 1000 Ang^3
#
#
#
# Elastic Constant Matrix: (Units=GPa)
#
#
# Indices 1 2 3 4 5 6 
#
# 1 67.3219 25.4032 16.6892 11.7894 29.7703 2.1217
# 2 25.4032 108.3142 57.3425 8.0333 15.4085 -14.7997
# 3 16.6892 57.3425 119.6952 0.5156 31.0645 13.3459
# 4 11.7894 8.0333 0.5156 37.7957 11.4574 10.7297
# 5 29.7703 15.4085 31.0645 11.4574 34.2373 12.0677
# 6 2.1217 -14.7997 13.3459 10.7297 12.0677 35.8661
#
#
#
# Elastic Compliance Matrix: (Units=1/GPa)
#
#
# Indices 1 2 3 4 5 6 
#
# 1 0.027606 -0.004678 0.005186 -0.000368 -0.027891 0.004001
# 2 -0.004678 0.017036 -0.009586 -0.006290 0.003072 0.011721
# 3 0.005186 -0.009586 0.017004 0.006962 -0.015301 -0.007524
# 4 -0.000368 -0.006290 0.006962 0.034373 -0.010466 -0.011926
# 5 -0.027891 0.003072 -0.015301 -0.010466 0.074114 -0.013194
# 6 0.004001 0.011721 -0.007524 -0.011926 -0.013194 0.043288
#
#
# Mechanical properties :
#
#
# Convention : Reuss Voigt Hill
#
# Bulk Modulus (GPa) = 22.99433 54.91121 38.95277
# Shear Modulus (GPa) = 20.31917 34.63958 27.47938
#
# Velocity S-wave (km/s) = 2.93818 3.83629 3.41687
# Velocity P-wave (km/s) = 4.61302 6.55383 5.66713
#
# Compressibility (1/GPa) = 0.04348899
#
# Stress axis : x y z
#
# Youngs Moduli (GPa) = 36.22423 58.70083 58.80980
#
# Poissons Ratio (x) = 0.27462 -0.30500
# Poissons Ratio (y) = 0.16947 0.56376
# Poissons Ratio (z) = -0.18787 0.56271
#
# Static dielectric constant tensor:
#      x y z
#    x 3.948680 0.644640 0.574970 
#    y 0.644640 1.027990 -1.831830 
#    z 0.574970 -1.831830 3.365500 
# 
# 
# High freq. dielectric constant tensor:
#      x y z
#    x 1.924870 0.001280 0.024800 
#    y 0.001280 1.943690 -0.005540 
#    z 0.024800 -0.005540 1.933020 
# 
# From -- ./inp_files/367173.got.cif
#   From: 2010.06.25/outbox.cif.g09.slc.cpg/sg2_184_cif.got.tgz:367173.got - 2010.06.27 13:26:56.
