data_PCOD8016334
_publ_section_title
;
Structure prediction by ZEFSAII (Michael W. Deem and Ramdas Pophale) SiO2 
 PCOD8016334
Probable space group: P -1
;
_chemical_formula_sum "Si O2"
_cell_formula_units_Z 14
_cell_length_a 8.764699
_cell_length_b 11.783510
_cell_length_c 8.807129
_cell_angle_alpha 109.051690
_cell_angle_beta 46.328561
_cell_angle_gamma 108.634053
_cell_volume 615.958469
_symmetry_space_group_name_H-M "P -1"
_symmetry_group_IT_number 2
_symmetry_cell_setting 'triclinic'
loop_
_space_group_symop_operation_xyz
x,y,z
-x,-y,-z
loop_
_atom_site_type_symbol
_atom_site_label
_atom_site_fract_x
_atom_site_fract_y
_atom_site_fract_z
Si Si1 0.972909 0.298041 0.621292
Si Si2 0.105524 0.876241 0.134265
Si Si3 0.285194 0.797334 0.693356
Si Si4 0.672595 0.794934 0.227921
Si Si5 0.719990 0.485678 0.422365
Si Si6 0.889093 0.852562 0.802051
Si Si7 0.391848 0.576412 0.222733
O O1 0.873486 0.186822 0.746673
O O2 0.769315 0.341307 0.701409
O O3 0.093261 0.403652 0.697367
O O4 0.125301 0.248323 0.366234
O O5 0.892736 0.814440 0.171457
O O6 0.106777 0.018014 0.224425
O O7 0.299072 0.854408 0.878167
O O8 0.498461 0.849296 0.476535
O O9 0.228219 0.651269 0.692207
O O10 0.103120 0.850111 0.748448
O O11 0.582148 0.653348 0.220066
O O12 0.696242 0.837110 0.052333
O O13 0.500000 0.500000 0.500000
O O14 0.723449 0.514389 0.613190
O O15 0.500000 0.500000 0.000000
#
# Coordination Sequence:
#
# PCOD8016334 Si02
#       7
#     2   2   2   2   2   2   2
#     4  12  24  44  65 100 140 171 213 281 334 390
#     4  11  26  41  68  96 134 178 223 271 322 395
#     4  10  22  43  67 101 127 168 230 262 338 386
#     4  10  21  44  67  94 128 175 221 274 318 392
#     4  11  24  42  69  96 131 171 217 276 329 402
#     4  11  23  44  68  95 132 178 225 269 327 386
#     4  11  24  40  66  99 133 173 219 269 340 394
#
# _framework density 22.728805000000001
#
# number of rings (size 3 to 8) (size 9 to 14) (size 15 to 20)
#    0.000    1.143    2.857    5.143    6.000    2.857 
#    2.571    0.714    0.000    0.000    0.000    0.000 
#    0.000    0.000    0.000    0.000    0.000    0.000 
#
# Total GULP energy -173441.974015 kJ/mol
# GULP energy per Si atom -12388.712430 kJ/mol
# Density = 2.267707 g / cm^3
# Si number density = 22.728805 Si / 1000 Ang^3
#
#
#
# Elastic Constant Matrix: (Units=GPa)
#
#
# Indices 1 2 3 4 5 6 
#
# 1 66.8201 35.0562 31.6109 -0.7023 5.7425 -10.5019
# 2 35.0562 100.8542 39.0938 10.6681 -2.6094 -26.4322
# 3 31.6109 39.0938 149.5209 6.0242 0.3963 -16.5515
# 4 -0.7023 10.6681 6.0242 35.6600 -0.0713 5.6395
# 5 5.7425 -2.6094 0.3963 -0.0713 27.0034 -7.2119
# 6 -10.5019 -26.4322 -16.5515 5.6395 -7.2119 39.1938
#
#
#
# Elastic Compliance Matrix: (Units=1/GPa)
#
#
# Indices 1 2 3 4 5 6 
#
# 1 0.020087 -0.006880 -0.002771 0.003209 -0.005390 -0.001881
# 2 -0.006880 0.016512 -0.001430 -0.006517 0.005925 0.010716
# 3 -0.002771 -0.001430 0.007916 -0.001275 0.000860 0.001978
# 4 0.003209 -0.006517 -0.001275 0.031737 -0.003699 -0.009321
# 5 -0.005390 0.005925 0.000860 -0.003699 0.041698 0.011119
# 6 -0.001881 0.010716 0.001978 -0.009321 0.011119 0.036460
#
#
# Mechanical properties :
#
#
# Convention : Reuss Voigt Hill
#
# Bulk Modulus (GPa) = 44.73536 58.74634 51.74085
# Shear Modulus (GPa) = 27.17050 34.46705 30.81878
#
# Velocity S-wave (km/s) = 3.46124 3.89838 3.68630
# Velocity P-wave (km/s) = 5.97482 6.79455 6.39783
#
# Compressibility (1/GPa) = 0.02235368
#
# Stress axis : x y z
#
# Youngs Moduli (GPa) = 49.78284 60.56187 126.33093
#
# Poissons Ratio (x) = 0.41666 0.35008
# Poissons Ratio (y) = 0.34250 0.18060
# Poissons Ratio (z) = 0.13796 0.08658
#
# Static dielectric constant tensor:
#      x y z
#    x 3.728600 -0.082910 0.073320 
#    y -0.082910 4.025550 -0.272920 
#    z 0.073320 -0.272920 4.546340 
# 
# 
# High freq. dielectric constant tensor:
#      x y z
#    x 1.876640 -0.005240 0.010580 
#    y -0.005240 1.904240 -0.003450 
#    z 0.010580 -0.003450 1.910870 
# 
# From -- ./inp_files/181081.got.cif
#   From: 2010.06.25/outbox.cif.g09.slc.cpg/sg2_91_cif.got.tgz:181081.got - 2010.06.27 13:26:56.
