data_PCOD8016920
_publ_section_title
;
Structure prediction by ZEFSAII (Michael W. Deem and Ramdas Pophale) SiO2 
 PCOD8016920
Probable space group: P -1
;
_chemical_formula_sum "Si O2"
_cell_formula_units_Z 16
_cell_length_a 8.381185
_cell_length_b 20.262356
_cell_length_c 12.541398
_cell_angle_alpha 36.725356
_cell_angle_beta 48.854958
_cell_angle_gamma 74.476213
_cell_volume 783.459695
_symmetry_space_group_name_H-M "P -1"
_symmetry_group_IT_number 2
_symmetry_cell_setting 'triclinic'
loop_
_space_group_symop_operation_xyz
x,y,z
-x,-y,-z
loop_
_atom_site_type_symbol
_atom_site_label
_atom_site_fract_x
_atom_site_fract_y
_atom_site_fract_z
Si Si1 0.188390 0.322729 0.554225
Si Si2 0.177949 0.896502 0.665456
Si Si3 0.458819 0.629719 0.027753
Si Si4 0.970080 0.227159 0.334136
Si Si5 0.879259 0.981761 0.812750
Si Si6 0.699708 0.800849 0.504647
Si Si7 0.509540 0.223519 0.587106
Si Si8 0.324593 0.819545 0.907711
O O1 0.248810 0.469779 0.331799
O O2 0.147361 0.258262 0.537802
O O3 0.430044 0.329289 0.496633
O O4 0.926449 0.219587 0.866070
O O5 0.056370 0.792884 0.755135
O O6 0.286817 0.840259 0.774020
O O7 0.945528 0.900118 0.811750
O O8 0.418100 0.046600 0.330227
O O9 0.478942 0.680967 0.831904
O O10 0.361632 0.698969 0.056813
O O11 0.733919 0.667525 0.899362
O O12 0.815672 0.288150 0.368588
O O13 0.841978 0.080694 0.633033
O O14 0.620999 0.883763 0.120988
O O15 0.120646 0.065410 0.678758
O O16 0.586511 0.842823 0.404142
#
# Coordination Sequence:
#
# PCOD8016920 Si02
#       8
#     2   2   2   2   2   2   2   2
#     4  10  23  38  64  84 117 154 201 240 282 337
#     4  11  22  39  62  90 118 152 191 242 303 343
#     4  11  22  42  58  87 119 156 198 237 282 348
#     4  11  24  36  59  87 122 157 186 236 300 351
#     4  11  20  39  58  91 122 145 195 245 296 344
#     4   9  20  37  62  88 110 156 194 244 285 336
#     4  10  22  37  59  88 119 152 190 241 291 348
#     4  11  22  38  66  87 114 150 201 247 285 338
#
# _framework density 20.422236999999999
#
# number of rings (size 3 to 8) (size 9 to 14) (size 15 to 20)
#    0.750    0.750    3.750    2.625    3.500    0.500 
#    0.000    0.625    0.000    0.000    0.000    0.000 
#    0.000    0.000    0.000    0.000    0.000    0.000 
#
# Total GULP energy -198326.572635 kJ/mol
# GULP energy per Si atom -12395.410790 kJ/mol
# Density = 2.037575 g / cm^3
# Si number density = 20.422237 Si / 1000 Ang^3
#
#
#
# Elastic Constant Matrix: (Units=GPa)
#
#
# Indices 1 2 3 4 5 6 
#
# 1 47.8710 17.2479 6.7103 21.1689 -9.2636 -10.7107
# 2 17.2479 49.1626 27.8762 7.3726 -4.7242 -11.5152
# 3 6.7103 27.8762 69.0234 11.0847 1.9210 3.2054
# 4 21.1689 7.3726 11.0847 22.4299 -5.1742 0.7348
# 5 -9.2636 -4.7242 1.9210 -5.1742 19.4582 6.6800
# 6 -10.7107 -11.5152 3.2054 0.7348 6.6800 34.7791
#
#
#
# Elastic Compliance Matrix: (Units=1/GPa)
#
#
# Indices 1 2 3 4 5 6 
#
# 1 0.045132 -0.010142 0.005802 -0.041555 0.003923 0.010131
# 2 -0.010142 0.033116 -0.013834 0.006013 0.003309 0.008354
# 3 0.005802 -0.013834 0.021862 -0.012748 -0.004910 -0.003596
# 4 -0.041555 0.006013 -0.012748 0.091344 0.011984 -0.013863
# 5 0.003923 0.003309 -0.004910 0.011984 0.060890 -0.009192
# 6 0.010131 0.008354 -0.003596 -0.013863 -0.009192 0.037028
#
#
# Mechanical properties :
#
#
# Convention : Reuss Voigt Hill
#
# Bulk Modulus (GPa) = 15.68334 29.96952 22.82643
# Shear Modulus (GPa) = 14.41028 22.94830 18.67929
#
# Velocity S-wave (km/s) = 2.65923 3.35579 3.02761
# Velocity P-wave (km/s) = 4.13822 5.45178 4.83977
#
# Compressibility (1/GPa) = 0.06376192
#
# Stress axis : x y z
#
# Youngs Moduli (GPa) = 22.15711 30.19697 45.74214
#
# Poissons Ratio (x) = 0.30626 -0.26541
# Poissons Ratio (y) = 0.22472 0.63280
# Poissons Ratio (z) = -0.12856 0.41775
#
# Static dielectric constant tensor:
#      x y z
#    x 3.583830 -0.144530 0.182530 
#    y -0.144530 3.607150 0.246130 
#    z 0.182530 0.246130 3.516040 
# 
# 
# High freq. dielectric constant tensor:
#      x y z
#    x 1.788040 -0.018230 0.011290 
#    y -0.018230 1.797780 0.023830 
#    z 0.011290 0.023830 1.780960 
# 
# From -- ./inp_files/404686.got.cif
#   From: 2010.06.25/outbox.cif.g09.slc.cpg/sg2_203_cif.got.tgz:404686.got - 2010.06.27 13:26:56.
