data_PCOD8016579
_publ_section_title
;
Structure prediction by ZEFSAII (Michael W. Deem and Ramdas Pophale) SiO2 
 PCOD8016579
Probable space group: P -1
;
_chemical_formula_sum "Si O2"
_cell_formula_units_Z 16
_cell_length_a 11.484909
_cell_length_b 12.519330
_cell_length_c 9.239861
_cell_angle_alpha 79.933759
_cell_angle_beta 82.245105
_cell_angle_gamma 32.971869
_cell_volume 711.726954
_symmetry_space_group_name_H-M "P -1"
_symmetry_group_IT_number 2
_symmetry_cell_setting 'triclinic'
loop_
_space_group_symop_operation_xyz
x,y,z
-x,-y,-z
loop_
_atom_site_type_symbol
_atom_site_label
_atom_site_fract_x
_atom_site_fract_y
_atom_site_fract_z
Si Si1 0.242348 0.371963 0.709260
Si Si2 0.047429 0.823926 0.663677
Si Si3 0.465346 0.756004 0.915131
Si Si4 0.918117 0.390414 0.065430
Si Si5 0.630875 0.224935 0.768826
Si Si6 0.526614 0.411276 0.299331
Si Si7 0.122299 0.617065 0.443610
Si Si8 0.207200 0.158703 0.806215
O O1 0.442246 0.297414 0.717590
O O2 0.134223 0.489155 0.547077
O O3 0.311333 0.193200 0.734212
O O4 0.074649 0.519027 0.836344
O O5 0.246047 0.751875 0.618615
O O6 0.005330 0.787353 0.535085
O O7 0.103632 0.705671 0.820986
O O8 0.838257 0.055663 0.674457
O O9 0.715191 0.567031 0.954774
O O10 0.424281 0.685819 0.836133
O O11 0.390516 0.926618 0.812885
O O12 0.319528 0.854423 0.058625
O O13 0.128793 0.227146 0.969579
O O14 0.571689 0.395211 0.754054
O O15 0.366458 0.464941 0.410960
O O16 0.992754 0.714347 0.293496
#
# Coordination Sequence:
#
# PCOD8016579 Si02
#       8
#     2   2   2   2   2   2   2   2
#     4  10  24  47  70  96 138 179 224 281 329 395
#     4  11  24  43  70  98 137 181 218 272 340 401
#     4  11  24  41  67 108 133 171 223 281 335 393
#     4  10  21  45  68 101 136 173 226 277 335 394
#     4  11  24  43  71 102 136 173 228 273 339 401
#     4  12  24  43  70  98 142 175 218 284 331 398
#     4  11  25  46  66 102 136 179 227 270 339 396
#     4  12  24  45  71  99 136 178 226 278 334 398
#
# _framework density 22.480530000000002
#
# number of rings (size 3 to 8) (size 9 to 14) (size 15 to 20)
#    0.000    1.000    6.250    1.500    1.750    4.000 
#    4.500    1.250    0.000    0.000    0.000    0.000 
#    0.000    0.000    0.000    0.000    0.000    0.000 
#
# Total GULP energy -198399.702131 kJ/mol
# GULP energy per Si atom -12399.981383 kJ/mol
# Density = 2.242936 g / cm^3
# Si number density = 22.480530 Si / 1000 Ang^3
#
#
#
# Elastic Constant Matrix: (Units=GPa)
#
#
# Indices 1 2 3 4 5 6 
#
# 1 71.6385 35.1470 18.7255 -9.1622 -1.3574 26.8703
# 2 35.1470 118.1487 27.6203 6.2484 -3.1312 13.8406
# 3 18.7255 27.6203 86.4521 -2.4278 3.6785 9.2053
# 4 -9.1622 6.2484 -2.4278 19.1106 5.0018 2.8476
# 5 -1.3574 -3.1312 3.6785 5.0018 15.6369 -1.0752
# 6 26.8703 13.8406 9.2053 2.8476 -1.0752 23.2858
#
#
#
# Elastic Compliance Matrix: (Units=1/GPa)
#
#
# Indices 1 2 3 4 5 6 
#
# 1 0.037494 -0.008093 0.000321 0.029895 -0.010943 -0.042743
# 2 -0.008093 0.011702 -0.003087 -0.010455 0.006066 0.005162
# 3 0.000321 -0.003087 0.013367 0.005046 -0.005672 -0.004698
# 4 0.029895 -0.010455 0.005046 0.085050 -0.030785 -0.042100
# 5 -0.010943 0.006066 -0.005672 -0.030785 0.076674 0.018569
# 6 -0.042743 0.005162 -0.004698 -0.042100 0.018569 0.097063
#
#
# Mechanical properties :
#
#
# Convention : Reuss Voigt Hill
#
# Bulk Modulus (GPa) = 24.48270 48.80278 36.64274
# Shear Modulus (GPa) = 14.01804 24.58976 19.30390
#
# Velocity S-wave (km/s) = 2.49983 3.31089 2.93353
# Velocity P-wave (km/s) = 4.38708 6.03092 5.27345
#
# Compressibility (1/GPa) = 0.04084516
#
# Stress axis : x y z
#
# Youngs Moduli (GPa) = 26.67102 85.45565 74.80970
#
# Poissons Ratio (x) = 0.69155 -0.02399
# Poissons Ratio (y) = 0.21584 0.23095
# Poissons Ratio (z) = -0.00855 0.26381
#
# Static dielectric constant tensor:
#      x y z
#    x 3.839110 0.138060 -0.008500 
#    y 0.138060 4.071860 0.113730 
#    z -0.008500 0.113730 4.208100 
# 
# 
# High freq. dielectric constant tensor:
#      x y z
#    x 1.869300 0.012470 -0.001610 
#    y 0.012470 1.888780 0.002040 
#    z -0.001610 0.002040 1.898110 
# 
# From -- ./inp_files/258016.got.cif
#   From: 2010.06.25/outbox.cif.g09.slc.cpg/sg2_130_cif.got.tgz:258016.got - 2010.06.27 13:26:56.
