data_PCOD8016367
_publ_section_title
;
Structure prediction by ZEFSAII (Michael W. Deem and Ramdas Pophale) SiO2 
 PCOD8016367
Probable space group: P -1
;
_chemical_formula_sum "Si O2"
_cell_formula_units_Z 16
_cell_length_a 11.886197
_cell_length_b 8.700860
_cell_length_c 20.345780
_cell_angle_alpha 51.031319
_cell_angle_beta 152.248061
_cell_angle_gamma 120.816182
_cell_volume 756.061718
_symmetry_space_group_name_H-M "P -1"
_symmetry_group_IT_number 2
_symmetry_cell_setting 'triclinic'
loop_
_space_group_symop_operation_xyz
x,y,z
-x,-y,-z
loop_
_atom_site_type_symbol
_atom_site_label
_atom_site_fract_x
_atom_site_fract_y
_atom_site_fract_z
Si Si1 0.637989 0.916269 0.745877
Si Si2 0.096622 0.031808 0.469763
Si Si3 0.370109 0.687498 0.420643
Si Si4 0.853252 0.976462 0.233422
Si Si5 0.556049 0.677642 0.093472
Si Si6 0.236918 0.218262 0.297237
Si Si7 0.932247 0.490605 0.242705
Si Si8 0.153590 0.439762 0.972187
O O1 0.644448 0.829035 0.699116
O O2 0.372653 0.933901 0.635981
O O3 0.714266 0.138261 0.722484
O O4 0.822677 0.780202 0.925346
O O5 0.057005 0.263375 0.366366
O O6 0.000000 0.000000 0.500000
O O7 0.953430 0.915432 0.373708
O O8 0.500000 0.500000 0.500000
O O9 0.540182 0.776117 0.538519
O O10 0.123699 0.621219 0.341249
O O11 0.759316 0.776279 0.212195
O O12 0.061984 0.054499 0.274065
O O13 0.628678 0.148893 0.081968
O O14 0.684720 0.527478 0.145865
O O15 0.394284 0.543145 0.089680
O O16 0.085463 0.435430 0.154785
O O17 0.872430 0.565642 0.118107
#
# Coordination Sequence:
#
# PCOD8016367 Si02
#       8
#     2   2   2   2   2   2   2   2
#     4  12  25  40  69  98 131 174 221 266 334 382
#     4  12  25  43  65  97 135 173 218 270 324 394
#     4  12  22  43  66  97 128 173 219 267 327 390
#     4  10  21  44  68  97 127 171 220 269 325 387
#     4  10  22  39  70  95 125 176 221 260 328 390
#     4  11  22  45  70  92 134 173 216 274 328 388
#     4  12  23  43  68  93 136 176 215 268 331 388
#     4  11  23  43  65  97 138 170 219 275 323 391
#
# _framework density 21.162296000000001
#
# number of rings (size 3 to 8) (size 9 to 14) (size 15 to 20)
#    0.000    0.750    6.250    2.625    3.500    0.500 
#    2.250    1.250    0.000    0.000    0.000    0.000 
#    0.000    0.000    0.000    0.000    0.000    0.000 
#
# Total GULP energy -198366.682425 kJ/mol
# GULP energy per Si atom -12397.917652 kJ/mol
# Density = 2.111413 g / cm^3
# Si number density = 21.162296 Si / 1000 Ang^3
#
#
#
# Elastic Constant Matrix: (Units=GPa)
#
#
# Indices 1 2 3 4 5 6 
#
# 1 114.5344 12.2665 39.9056 -5.9160 4.3468 -3.5380
# 2 12.2665 80.2830 39.1605 -0.4104 -7.1187 9.5963
# 3 39.9056 39.1605 100.1027 -14.1063 -5.4300 8.9513
# 4 -5.9160 -0.4104 -14.1063 44.7241 3.2318 6.3790
# 5 4.3468 -7.1187 -5.4300 3.2318 40.8095 -4.9613
# 6 -3.5380 9.5963 8.9513 6.3790 -4.9613 25.6497
#
#
#
# Elastic Compliance Matrix: (Units=1/GPa)
#
#
# Indices 1 2 3 4 5 6 
#
# 1 0.010435 0.000202 -0.004615 -0.000380 -0.001318 0.002814
# 2 0.000202 0.015938 -0.006150 -0.001445 0.001677 -0.003105
# 3 -0.004615 -0.006150 0.015373 0.004831 0.000497 -0.004806
# 4 -0.000380 -0.001445 0.004831 0.025134 -0.002524 -0.007937
# 5 -0.001318 0.001677 0.000497 -0.002524 0.025766 0.004629
# 6 0.002814 -0.003105 -0.004806 -0.007937 0.004629 0.045083
#
#
# Mechanical properties :
#
#
# Convention : Reuss Voigt Hill
#
# Bulk Modulus (GPa) = 48.50189 53.06500 50.78345
# Shear Modulus (GPa) = 30.16976 35.80916 32.98946
#
# Velocity S-wave (km/s) = 3.77986 4.11800 3.95255
# Velocity P-wave (km/s) = 6.48217 6.90943 6.69921
#
# Compressibility (1/GPa) = 0.02061775
#
# Stress axis : x y z
#
# Youngs Moduli (GPa) = 95.83314 62.74489 65.04818
#
# Poissons Ratio (x) = -0.01266 0.30022
# Poissons Ratio (y) = -0.01934 0.40007
# Poissons Ratio (z) = 0.44230 0.38590
#
# Static dielectric constant tensor:
#      x y z
#    x 3.794200 0.090590 0.223320 
#    y 0.090590 4.123560 0.026330 
#    z 0.223320 0.026330 4.036070 
# 
# 
# High freq. dielectric constant tensor:
#      x y z
#    x 1.822650 -0.007450 0.022550 
#    y -0.007450 1.830230 -0.002740 
#    z 0.022550 -0.002740 1.838370 
# 
# From -- ./inp_files/405128.got.cif
#   From: 2010.06.25/outbox.cif.g09.slc.cpg/sg2_203_cif.got.tgz:405128.got - 2010.06.27 13:26:56.
