data_PCOD8016790
_publ_section_title
;
Structure prediction by ZEFSAII (Michael W. Deem and Ramdas Pophale) SiO2 
 PCOD8016790
Probable space group: P -1
;
_chemical_formula_sum "Si O2"
_cell_formula_units_Z 16
_cell_length_a 27.519448
_cell_length_b 5.342443
_cell_length_c 9.018203
_cell_angle_alpha 79.187732
_cell_angle_beta 54.036185
_cell_angle_gamma 114.350727
_cell_volume 794.481115
_symmetry_space_group_name_H-M "P -1"
_symmetry_group_IT_number 2
_symmetry_cell_setting 'triclinic'
loop_
_space_group_symop_operation_xyz
x,y,z
-x,-y,-z
loop_
_atom_site_type_symbol
_atom_site_label
_atom_site_fract_x
_atom_site_fract_y
_atom_site_fract_z
Si Si1 0.855622 0.423525 0.039986
Si Si2 0.478716 0.484731 0.371654
Si Si3 0.810253 0.694541 0.473948
Si Si4 0.205858 0.242154 0.851778
Si Si5 0.610040 0.234290 0.543901
Si Si6 0.256049 0.976798 0.429267
Si Si7 0.581965 0.810806 0.890487
Si Si8 0.987402 0.185705 0.120609
O O1 0.834220 0.644348 0.991081
O O2 0.798774 0.216641 0.307257
O O3 0.833717 0.140909 0.992495
O O4 0.949607 0.678286 0.876144
O O5 0.500000 0.500000 0.500000
O O6 0.426181 0.590692 0.437306
O O7 0.432954 0.107613 0.435279
O O8 0.563047 0.770828 0.104012
O O9 0.816345 0.763876 0.279328
O O10 0.765464 0.300325 0.623474
O O11 0.760485 0.785429 0.630206
O O12 0.896840 0.917718 0.370297
O O13 0.298423 0.494572 0.695948
O O14 0.606470 0.150800 0.735447
O O15 0.349775 0.205500 0.270564
O O16 0.500000 0.500000 0.000000
O O17 0.000000 0.500000 0.000000
O O18 0.000000 0.000000 0.000000
#
# Coordination Sequence:
#
# PCOD8016790 Si02
#       8
#     2   2   2   2   2   2   2   2
#     4  10  17  26  41  63 103 133 168 201 255 306
#     4  11  25  41  55  77 108 141 172 227 282 321
#     4  10  18  26  42  63 103 132 169 201 258 304
#     4  10  17  27  45  68  94 126 169 213 249 287
#     4  11  21  37  60  78 103 135 187 219 263 320
#     4  10  18  29  42  65  97 125 169 215 250 288
#     4  10  22  35  57  82 101 136 187 222 261 319
#     4  12  16  25  36  61  92 152 164 186 247 338
#
# _framework density 20.138929000000001
#
# number of rings (size 3 to 8) (size 9 to 14) (size 15 to 20)
#    0.000    1.500    7.500    1.500    5.250    2.000 
#    0.000    0.000    0.000    0.000    0.000    0.000 
#    0.000    0.000    0.000   38.250    0.000    0.250 
#
# Total GULP energy -198234.197618 kJ/mol
# GULP energy per Si atom -12389.637351 kJ/mol
# Density = 2.009309 g / cm^3
# Si number density = 20.138929 Si / 1000 Ang^3
#
#
#
# Elastic Constant Matrix: (Units=GPa)
#
#
# Indices 1 2 3 4 5 6 
#
# 1 85.0702 37.5903 50.8130 6.0156 -32.2104 -13.9468
# 2 37.5903 158.7784 20.6720 -2.5649 -17.3155 -30.7049
# 3 50.8130 20.6720 46.8477 -1.3506 -21.0141 5.5083
# 4 6.0156 -2.5649 -1.3506 18.0164 7.6158 -13.4413
# 5 -32.2104 -17.3155 -21.0141 7.6158 43.9530 3.2822
# 6 -13.9468 -30.7049 5.5083 -13.4413 3.2822 40.2670
#
#
#
# Elastic Compliance Matrix: (Units=1/GPa)
#
#
# Indices 1 2 3 4 5 6 
#
# 1 0.055259 -0.000335 -0.056322 -0.012918 0.014097 0.021127
# 2 -0.000335 0.009240 -0.005588 0.010201 -0.001885 0.011253
# 3 -0.056322 -0.005588 0.090954 -0.005358 0.003799 -0.038309
# 4 -0.012918 0.010201 -0.005358 0.103774 -0.029055 0.041046
# 5 0.014097 -0.001885 0.003799 -0.029055 0.039939 -0.010029
# 6 0.021127 0.011253 -0.038309 0.041046 -0.010029 0.060492
#
#
# Mechanical properties :
#
#
# Convention : Reuss Voigt Hill
#
# Bulk Modulus (GPa) = 32.29646 56.53853 44.41749
# Shear Modulus (GPa) = 10.11183 32.55533 21.33358
#
# Velocity S-wave (km/s) = 2.24320 4.02498 3.25825
# Velocity P-wave (km/s) = 4.77293 7.05236 6.02149
#
# Compressibility (1/GPa) = 0.03096315
#
# Stress axis : x y z
#
# Youngs Moduli (GPa) = 18.09654 108.22004 10.99455
#
# Poissons Ratio (x) = 0.03630 0.61923
# Poissons Ratio (y) = 0.00607 0.06144
# Poissons Ratio (z) = 1.01923 0.60476
#
# Static dielectric constant tensor:
#      x y z
#    x 3.865360 -0.590940 -0.559440 
#    y -0.590940 5.071720 -0.044790 
#    z -0.559440 -0.044790 3.841850 
# 
# 
# High freq. dielectric constant tensor:
#      x y z
#    x 1.767630 -0.022180 -0.060160 
#    y -0.022180 1.813750 -0.015720 
#    z -0.060160 -0.015720 1.728930 
# 
# From -- ./inp_files/108397.got.cif
#   From: 2010.06.25/outbox.cif.g09.slc.cpg/sg2_55_cif.got.tgz:108397.got - 2010.06.27 13:26:56.
