data_PCOD8016298
_publ_section_title
;
Structure prediction by ZEFSAII (Michael W. Deem and Ramdas Pophale) SiO2 
 PCOD8016298
Probable space group: P -1
;
_chemical_formula_sum "Si O2"
_cell_formula_units_Z 16
_cell_length_a 9.608049
_cell_length_b 11.276761
_cell_length_c 17.694265
_cell_angle_alpha 46.595845
_cell_angle_beta 32.826623
_cell_angle_gamma 61.091880
_cell_volume 733.234771
_symmetry_space_group_name_H-M "P -1"
_symmetry_group_IT_number 2
_symmetry_cell_setting 'triclinic'
loop_
_space_group_symop_operation_xyz
x,y,z
-x,-y,-z
loop_
_atom_site_type_symbol
_atom_site_label
_atom_site_fract_x
_atom_site_fract_y
_atom_site_fract_z
Si Si1 0.916175 0.249738 0.378211
Si Si2 0.116837 0.897661 0.777729
Si Si3 0.828970 0.393706 0.831535
Si Si4 0.306418 0.151569 0.135107
Si Si5 0.829222 0.512669 0.502479
Si Si6 0.603262 0.166523 0.698044
Si Si7 0.963625 0.826395 0.050602
Si Si8 0.526377 0.250571 0.425261
O O1 0.734610 0.129989 0.575118
O O2 0.707863 0.298880 0.394756
O O3 0.116318 0.413117 0.251244
O O4 0.083745 0.139751 0.305923
O O5 0.295293 0.779640 0.713380
O O6 0.838341 0.869671 0.871202
O O7 0.277653 0.091179 0.617578
O O8 0.060520 0.841960 0.913600
O O9 0.026503 0.372185 0.683190
O O10 0.873809 0.287037 0.930458
O O11 0.530318 0.325931 0.964894
O O12 0.445742 0.997773 0.154159
O O13 0.797804 0.320821 0.579277
O O14 0.580696 0.582950 0.612200
O O15 0.000000 0.500000 0.500000
O O16 0.348869 0.244815 0.770487
O O17 0.000000 0.000000 0.000000
#
# Coordination Sequence:
#
# PCOD8016298 Si02
#       8
#     2   2   2   2   2   2   2   2
#     4  10  22  43  65  95 129 175 215 265 322 384
#     4  10  24  41  68  96 127 172 219 265 323 378
#     4  11  24  42  65  97 131 171 213 269 324 384
#     4  11  23  42  65  98 134 167 212 274 321 382
#     4  11  24  42  64  95 130 170 211 266 325 380
#     4  11  23  38  66  95 126 170 219 263 319 386
#     4  12  23  41  65  98 126 168 214 267 319 378
#     4  10  21  44  66  91 130 174 220 264 315 392
#
# _framework density 21.821114999999999
#
# number of rings (size 3 to 8) (size 9 to 14) (size 15 to 20)
#    0.000    1.250    1.250    4.500    1.750    2.500 
#    9.000    1.875    0.000    0.000    0.000    0.000 
#    0.000    0.000    0.000    0.000    0.000    0.000 
#
# Total GULP energy -198311.127744 kJ/mol
# GULP energy per Si atom -12394.445484 kJ/mol
# Density = 2.177145 g / cm^3
# Si number density = 21.821115 Si / 1000 Ang^3
#
#
#
# Elastic Constant Matrix: (Units=GPa)
#
#
# Indices 1 2 3 4 5 6 
#
# 1 136.7400 33.2559 51.6872 -2.2008 -3.3464 10.6522
# 2 33.2559 69.7740 11.1712 9.1567 9.4321 -2.2806
# 3 51.6872 11.1712 77.6387 -3.6191 -6.1224 12.9635
# 4 -2.2008 9.1567 -3.6191 26.0379 -0.2088 0.0057
# 5 -3.3464 9.4321 -6.1224 -0.2088 40.8102 5.5031
# 6 10.6522 -2.2806 12.9635 0.0057 5.5031 33.2752
#
#
#
# Elastic Compliance Matrix: (Units=1/GPa)
#
#
# Indices 1 2 3 4 5 6 
#
# 1 0.010978 -0.004699 -0.006175 0.001733 0.001290 -0.001644
# 2 -0.004699 0.018518 -0.000967 -0.007088 -0.005392 0.004043
# 3 -0.006175 -0.000967 0.018476 0.002414 0.003288 -0.005831
# 4 0.001733 -0.007088 0.002414 0.041402 0.002682 -0.002431
# 5 0.001290 -0.005392 0.003288 0.002682 0.027249 -0.006570
# 6 -0.001644 0.004043 -0.005831 -0.002431 -0.006570 0.034215
#
#
# Mechanical properties :
#
#
# Convention : Reuss Voigt Hill
#
# Bulk Modulus (GPa) = 41.17042 52.93127 47.05084
# Shear Modulus (GPa) = 27.38007 32.56055 29.97031
#
# Velocity S-wave (km/s) = 3.54609 3.86704 3.71004
# Velocity P-wave (km/s) = 5.97282 6.65193 6.32150
#
# Compressibility (1/GPa) = 0.02428929
#
# Stress axis : x y z
#
# Youngs Moduli (GPa) = 91.09345 54.00258 54.12512
#
# Poissons Ratio (x) = 0.25377 0.33423
# Poissons Ratio (y) = 0.42806 0.05232
# Poissons Ratio (z) = 0.56251 0.05220
#
# Static dielectric constant tensor:
#      x y z
#    x 4.603210 -1.150350 -0.359590 
#    y -1.150350 7.071840 0.771420 
#    z -0.359590 0.771420 4.154280 
# 
# 
# High freq. dielectric constant tensor:
#      x y z
#    x 1.869660 0.015870 -0.010800 
#    y 0.015870 1.856690 0.006340 
#    z -0.010800 0.006340 1.857850 
# 
# From -- ./inp_files/206970.got.cif
#   From: 2010.06.25/outbox.cif.g09.slc.cpg/sg2_104_cif.got.tgz:206970.got - 2010.06.27 13:26:56.
