data_PCOD8016764
_publ_section_title
;
Structure prediction by ZEFSAII (Michael W. Deem and Ramdas Pophale) SiO2 
 PCOD8016764
Probable space group: P -1
;
_chemical_formula_sum "Si O2"
_cell_formula_units_Z 16
_cell_length_a 13.365684
_cell_length_b 9.813083
_cell_length_c 15.671774
_cell_angle_alpha 131.569245
_cell_angle_beta 46.622009
_cell_angle_gamma 93.470998
_cell_volume 767.841149
_symmetry_space_group_name_H-M "P -1"
_symmetry_group_IT_number 2
_symmetry_cell_setting 'triclinic'
loop_
_space_group_symop_operation_xyz
x,y,z
-x,-y,-z
loop_
_atom_site_type_symbol
_atom_site_label
_atom_site_fract_x
_atom_site_fract_y
_atom_site_fract_z
Si Si1 0.244831 0.597208 0.652771
Si Si2 0.960567 0.582716 0.764523
Si Si3 0.251713 0.902147 0.085060
Si Si4 0.402901 0.299863 0.976449
Si Si5 0.676978 0.185444 0.172986
Si Si6 0.795764 0.314228 0.478282
Si Si7 0.696397 0.811200 0.722019
Si Si8 0.447968 0.578094 0.187599
O O1 0.481118 0.317504 0.396549
O O2 0.200891 0.778809 0.830742
O O3 0.193984 0.744378 0.652907
O O4 0.119363 0.529883 0.714041
O O5 0.807165 0.578857 0.888359
O O6 0.823723 0.879977 0.936446
O O7 0.084321 0.378478 0.528947
O O8 0.311590 0.055856 0.134013
O O9 0.016014 0.111029 0.302947
O O10 0.371765 0.704646 0.849594
O O11 0.327748 0.707995 0.039585
O O12 0.534986 0.243427 0.795310
O O13 0.524990 0.028038 0.843568
O O14 0.347134 0.526008 0.162242
O O15 0.674232 0.623126 0.686370
O O16 0.682280 0.277139 0.589340
#
# Coordination Sequence:
#
# PCOD8016764 Si02
#       8
#     2   2   2   2   2   2   2   2
#     4  10  22  36  56  91 116 148 192 242 294 337
#     4  11  20  36  59  85 117 151 189 236 287 343
#     4  11  21  33  59  87 123 148 186 237 298 340
#     4  10  23  39  57  80 123 162 194 225 285 350
#     4  11  21  36  58  89 120 146 188 245 294 343
#     4  11  20  34  59  90 116 145 190 243 290 340
#     4  10  22  34  57  93 117 149 188 238 290 348
#     4  10  23  39  55  84 120 163 191 231 282 348
#
# _framework density 20.837641000000001
#
# number of rings (size 3 to 8) (size 9 to 14) (size 15 to 20)
#    0.000    1.500    3.750    3.000    1.750    2.000 
#    0.000    3.750    0.000    1.500    0.000    0.000 
#    0.000    0.000    0.000    0.000    0.000    0.000 
#
# Total GULP energy -198241.120838 kJ/mol
# GULP energy per Si atom -12390.070052 kJ/mol
# Density = 2.079021 g / cm^3
# Si number density = 20.837641 Si / 1000 Ang^3
#
#
#
# Elastic Constant Matrix: (Units=GPa)
#
#
# Indices 1 2 3 4 5 6 
#
# 1 152.0595 38.8568 47.2325 -14.0246 -1.6104 2.7773
# 2 38.8568 61.9912 32.4316 -16.8953 0.4828 4.9142
# 3 47.2325 32.4316 65.5336 -14.3659 -3.3258 5.1278
# 4 -14.0246 -16.8953 -14.3659 28.3627 -1.4634 -6.8938
# 5 -1.6104 0.4828 -3.3258 -1.4634 37.3515 -7.8071
# 6 2.7773 4.9142 5.1278 -6.8938 -7.8071 19.7097
#
#
#
# Elastic Compliance Matrix: (Units=1/GPa)
#
#
# Indices 1 2 3 4 5 6 
#
# 1 0.008881 -0.002972 -0.004913 0.000382 0.000204 0.000982
# 2 -0.002972 0.024754 -0.008142 0.008872 -0.001021 -0.000936
# 3 -0.004913 -0.008142 0.024056 0.004744 0.001994 -0.001087
# 4 0.000382 0.008872 0.004744 0.047072 0.005319 0.015071
# 5 0.000204 -0.001021 0.001994 0.005319 0.029991 0.013447
# 6 0.000982 -0.000936 -0.001087 0.015071 0.013447 0.061712
#
#
# Mechanical properties :
#
#
# Convention : Reuss Voigt Hill
#
# Bulk Modulus (GPa) = 39.00626 57.40289 48.20457
# Shear Modulus (GPa) = 21.09114 27.82232 24.45673
#
# Velocity S-wave (km/s) = 3.18491 3.65800 3.42962
# Velocity P-wave (km/s) = 5.68195 6.74157 6.23431
#
# Compressibility (1/GPa) = 0.02563691
#
# Stress axis : x y z
#
# Youngs Moduli (GPa) = 112.59527 40.39766 41.56964
#
# Poissons Ratio (x) = 0.12006 0.20424
# Poissons Ratio (y) = 0.33462 0.33847
# Poissons Ratio (z) = 0.55320 0.32892
#
# Static dielectric constant tensor:
#      x y z
#    x 3.981350 -0.085120 -0.185140 
#    y -0.085120 3.441630 -0.001270 
#    z -0.185140 -0.001270 3.922360 
# 
# 
# High freq. dielectric constant tensor:
#      x y z
#    x 1.818770 -0.008670 -0.021810 
#    y -0.008670 1.760870 -0.001070 
#    z -0.021810 -0.001070 1.831640 
# 
# From -- ./inp_files/528920.got.cif
#   From: 2010.06.25/outbox.cif.g09.slc.cpg/sg2_265_cif.got.tgz:528920.got - 2010.06.27 13:26:56.
