data_PCOD8016410
_publ_section_title
;
Structure prediction by ZEFSAII (Michael W. Deem and Ramdas Pophale) SiO2 
 PCOD8016410
Probable space group: P -1
;
_chemical_formula_sum "Si O2"
_cell_formula_units_Z 16
_cell_length_a 10.240668
_cell_length_b 9.661882
_cell_length_c 11.843605
_cell_angle_alpha 132.411067
_cell_angle_beta 112.602155
_cell_angle_gamma 96.905488
_cell_volume 663.551645
_symmetry_space_group_name_H-M "P -1"
_symmetry_group_IT_number 2
_symmetry_cell_setting 'triclinic'
loop_
_space_group_symop_operation_xyz
x,y,z
-x,-y,-z
loop_
_atom_site_type_symbol
_atom_site_label
_atom_site_fract_x
_atom_site_fract_y
_atom_site_fract_z
Si Si1 0.308319 0.328643 0.305642
Si Si2 0.813095 0.401924 0.342832
Si Si3 0.735797 0.063273 0.573776
Si Si4 0.287240 0.188355 0.980026
Si Si5 0.684010 0.247759 0.449700
Si Si6 0.101345 0.132285 0.346996
Si Si7 0.366097 0.653271 0.181073
Si Si8 0.412861 0.809686 0.047801
O O1 0.500000 0.500000 0.500000
O O2 0.309536 0.192678 0.124766
O O3 0.254526 0.503369 0.351224
O O4 0.179647 0.146968 0.256456
O O5 0.706384 0.237513 0.318268
O O6 0.792387 0.609585 0.431790
O O7 0.743504 0.254340 0.123541
O O8 0.000000 0.500000 0.500000
O O9 0.777143 0.161122 0.512296
O O10 0.743314 0.252878 0.758296
O O11 0.875884 0.023143 0.644791
O O12 0.556654 0.821625 0.385078
O O13 0.289757 0.405847 0.065580
O O14 0.433918 0.178371 0.962583
O O15 0.098889 0.965414 0.773452
O O16 0.480329 0.044466 0.270101
O O17 0.350325 0.625257 0.024542
#
# Coordination Sequence:
#
# PCOD8016410 Si02
#       8
#     2   2   2   2   2   2   2   2
#     4  11  23  42  70  97 135 178 230 280 335 401
#     4  11  24  45  66  99 140 178 226 281 343 410
#     4  10  21  44  69  99 134 170 236 278 341 398
#     4  12  23  44  65 101 140 176 228 280 341 411
#     4  10  22  43  69  99 129 179 222 279 341 402
#     4  11  26  41  67 102 138 182 223 282 340 404
#     4  10  22  41  71  98 133 179 227 284 332 408
#     4  11  24  42  70 102 132 179 230 277 345 406
#
# _framework density 24.112667999999999
#
# number of rings (size 3 to 8) (size 9 to 14) (size 15 to 20)
#    0.000    1.250    1.250    4.875    3.500    3.500 
#    4.500    3.750    0.000    0.000    0.000    0.000 
#    0.000    0.000    0.000    0.000    0.000    0.000 
#
# Total GULP energy -198241.969475 kJ/mol
# GULP energy per Si atom -12390.123092 kJ/mol
# Density = 2.405779 g / cm^3
# Si number density = 24.112668 Si / 1000 Ang^3
#
#
#
# Elastic Constant Matrix: (Units=GPa)
#
#
# Indices 1 2 3 4 5 6 
#
# 1 45.6031 14.5225 24.0156 -13.1919 9.4683 -0.4250
# 2 14.5225 127.2854 47.2555 -4.7517 1.8804 0.2366
# 3 24.0156 47.2555 104.9486 -18.0597 -1.2424 4.0533
# 4 -13.1919 -4.7517 -18.0597 42.9460 -0.1113 0.0790
# 5 9.4683 1.8804 -1.2424 -0.1113 36.2335 -5.2979
# 6 -0.4250 0.2366 4.0533 0.0790 -5.2979 30.8732
#
#
#
# Elastic Compliance Matrix: (Units=1/GPa)
#
#
# Indices 1 2 3 4 5 6 
#
# 1 0.028312 -0.001027 -0.004982 0.006469 -0.007534 -0.000258
# 2 -0.001027 0.009516 -0.004251 -0.001052 -0.000313 0.000420
# 3 -0.004982 -0.004251 0.013279 0.003591 0.001772 -0.001485
# 4 0.006469 -0.001052 0.003591 0.026663 -0.001534 -0.000706
# 5 -0.007534 -0.000313 0.001772 -0.001534 0.030353 0.004879
# 6 -0.000258 0.000420 -0.001485 -0.000706 0.004879 0.033418
#
#
# Mechanical properties :
#
#
# Convention : Reuss Voigt Hill
#
# Bulk Modulus (GPa) = 32.69392 49.93605 41.31499
# Shear Modulus (GPa) = 29.02634 34.81344 31.91989
#
# Velocity S-wave (km/s) = 3.47332 3.80384 3.64233
# Velocity P-wave (km/s) = 5.44734 6.32824 5.90424
#
# Compressibility (1/GPa) = 0.03058673
#
# Stress axis : x y z
#
# Youngs Moduli (GPa) = 35.32029 105.08319 75.30824
#
# Poissons Ratio (x) = 0.10795 0.37521
# Poissons Ratio (y) = 0.03628 0.32012
# Poissons Ratio (z) = 0.17597 0.44668
#
# Static dielectric constant tensor:
#      x y z
#    x 3.856030 -0.138940 -0.248330 
#    y -0.138940 4.507960 0.229450 
#    z -0.248330 0.229450 4.612420 
# 
# 
# High freq. dielectric constant tensor:
#      x y z
#    x 1.926560 0.005410 -0.009450 
#    y 0.005410 1.982550 0.006580 
#    z -0.009450 0.006580 1.957650 
# 
# From -- ./inp_files/312104.got.cif
#   From: 2010.06.25/outbox.cif.g09.slc.cpg/sg2_157_cif.got.tgz:312104.got - 2010.06.27 13:26:56.
