data_PCOD8016416
_publ_section_title
;
Structure prediction by ZEFSAII (Michael W. Deem and Ramdas Pophale) SiO2 
 PCOD8016416
Probable space group: P -1
;
_chemical_formula_sum "Si O2"
_cell_formula_units_Z 16
_cell_length_a 14.946504
_cell_length_b 11.913648
_cell_length_c 8.918644
_cell_angle_alpha 86.383195
_cell_angle_beta 80.199820
_cell_angle_gamma 148.768688
_cell_volume 740.686527
_symmetry_space_group_name_H-M "P -1"
_symmetry_group_IT_number 2
_symmetry_cell_setting 'triclinic'
loop_
_space_group_symop_operation_xyz
x,y,z
-x,-y,-z
loop_
_atom_site_type_symbol
_atom_site_label
_atom_site_fract_x
_atom_site_fract_y
_atom_site_fract_z
Si Si1 0.594867 0.536407 0.835094
Si Si2 0.689731 0.051815 0.787103
Si Si3 0.035001 0.495804 0.152752
Si Si4 0.313652 0.605345 0.114083
Si Si5 0.192600 0.033661 0.414801
Si Si6 0.455160 0.329526 0.584895
Si Si7 0.771081 0.507097 0.530278
Si Si8 0.286120 0.785851 0.532017
O O1 0.707464 0.553923 0.876782
O O2 0.436731 0.317229 0.775000
O O3 0.744343 0.774880 0.678624
O O4 0.500000 0.500000 0.000000
O O5 0.840533 0.266451 0.839927
O O6 0.729545 0.968051 0.731924
O O7 0.705884 0.150598 0.635288
O O8 0.485076 0.835778 0.943280
O O9 0.127394 0.472064 0.126495
O O10 0.833652 0.265452 0.318185
O O11 0.000000 0.500000 0.000000
O O12 0.344797 0.665464 0.276516
O O13 0.962866 0.779551 0.506281
O O14 0.271932 0.091394 0.556203
O O15 0.500000 0.500000 0.500000
O O16 0.632394 0.439986 0.484420
O O17 0.821013 0.452400 0.421954
O O18 0.500000 0.000000 0.500000
#
# Coordination Sequence:
#
# PCOD8016416 Si02
#       8
#     2   2   2   2   2   2   2   2
#     4  10  21  44  70 101 136 183 232 287 355 415
#     4  12  23  44  69  96 141 180 226 288 352 413
#     4  12  26  44  67 105 140 180 237 285 353 425
#     4  11  24  42  69  98 136 181 228 285 351 412
#     4  11  22  44  73  98 137 185 231 291 351 418
#     4   9  22  40  69 100 132 176 235 283 346 419
#     4  11  23  43  69 101 137 181 236 286 354 421
#     4  12  25  43  69 101 135 187 233 284 354 425
#
# _framework density 21.601580999999999
#
# number of rings (size 3 to 8) (size 9 to 14) (size 15 to 20)
#    0.000    1.000    3.750    3.000    1.750    4.500 
#    2.250    0.000    0.000    5.250    0.000    0.000 
#    0.000    0.000    0.000    0.000    0.000    0.000 
#
# Total GULP energy -198255.861701 kJ/mol
# GULP energy per Si atom -12390.991356 kJ/mol
# Density = 2.155242 g / cm^3
# Si number density = 21.601581 Si / 1000 Ang^3
#
#
#
# Elastic Constant Matrix: (Units=GPa)
#
#
# Indices 1 2 3 4 5 6 
#
# 1 176.8484 49.6152 59.7802 2.2269 2.4160 4.3597
# 2 49.6152 111.2952 51.8120 3.5645 7.1255 12.5746
# 3 59.7802 51.8120 130.0016 1.2783 -5.9278 7.7273
# 4 2.2269 3.5645 1.2783 35.1837 4.0594 -1.2254
# 5 2.4160 7.1255 -5.9278 4.0594 37.9184 1.9859
# 6 4.3597 12.5746 7.7273 -1.2254 1.9859 32.1595
#
#
#
# Elastic Compliance Matrix: (Units=1/GPa)
#
#
# Indices 1 2 3 4 5 6 
#
# 1 0.007056 -0.002002 -0.002495 -0.000082 -0.000478 0.000452
# 2 -0.002002 0.012255 -0.003864 -0.000805 -0.002512 -0.003467
# 3 -0.002495 -0.003864 0.010550 -0.000163 0.002596 -0.000852
# 4 -0.000082 -0.000805 -0.000163 0.028925 -0.003052 0.001656
# 5 -0.000478 -0.002512 0.002596 -0.003052 0.027681 -0.001403
# 6 0.000452 -0.003467 -0.000852 0.001656 -0.001403 0.032744
#
#
# Mechanical properties :
#
#
# Convention : Reuss Voigt Hill
#
# Bulk Modulus (GPa) = 76.10648 82.28442 79.19545
# Shear Modulus (GPa) = 35.63498 38.18152 36.90825
#
# Velocity S-wave (km/s) = 4.06599 4.20877 4.13799
# Velocity P-wave (km/s) = 7.57307 7.86084 7.71830
#
# Compressibility (1/GPa) = 0.01313948
#
# Stress axis : x y z
#
# Youngs Moduli (GPa) = 141.72547 81.60056 94.78679
#
# Poissons Ratio (x) = 0.16337 0.23645
# Poissons Ratio (y) = 0.28374 0.36626
# Poissons Ratio (z) = 0.35354 0.31531
#
# Static dielectric constant tensor:
#      x y z
#    x 4.382950 -0.150690 -0.099260 
#    y -0.150690 4.048050 0.208940 
#    z -0.099260 0.208940 4.108750 
# 
# 
# High freq. dielectric constant tensor:
#      x y z
#    x 1.873530 -0.010490 -0.001530 
#    y -0.010490 1.834520 0.007850 
#    z -0.001530 0.007850 1.847480 
# 
# From -- ./inp_files/202275.got.cif
#   From: 2010.06.25/outbox.cif.g09.slc.cpg/sg2_102_cif.got.tgz:202275.got - 2010.06.27 13:26:56.
