data_PCOD8016827
_publ_section_title
;
Structure prediction by ZEFSAII (Michael W. Deem and Ramdas Pophale) SiO2 
 PCOD8016827
Probable space group: P -1
;
_chemical_formula_sum "Si O2"
_cell_formula_units_Z 14
_cell_length_a 10.628983
_cell_length_b 13.917886
_cell_length_c 14.851763
_cell_angle_alpha 137.013759
_cell_angle_beta 56.441045
_cell_angle_gamma 148.776850
_cell_volume 759.891438
_symmetry_space_group_name_H-M "P -1"
_symmetry_group_IT_number 2
_symmetry_cell_setting 'triclinic'
loop_
_space_group_symop_operation_xyz
x,y,z
-x,-y,-z
loop_
_atom_site_type_symbol
_atom_site_label
_atom_site_fract_x
_atom_site_fract_y
_atom_site_fract_z
Si Si1 0.504508 0.502951 0.863283
Si Si2 0.947360 0.811074 0.433859
Si Si3 0.054061 0.993952 0.706773
Si Si4 0.552304 0.652375 0.764953
Si Si5 0.664364 0.216028 0.016611
Si Si6 0.516062 0.743098 0.166376
Si Si7 0.186900 0.719421 0.194717
O O1 0.616478 0.591542 0.779234
O O2 0.627565 0.467366 0.849441
O O3 0.209541 0.249892 0.794378
O O4 0.541877 0.679888 0.018613
O O5 0.658839 0.561219 0.364432
O O6 0.008520 0.857628 0.547260
O O7 0.125569 0.828986 0.329340
O O8 0.000000 0.000000 0.500000
O O9 0.795275 0.859679 0.753451
O O10 0.209722 0.021759 0.739965
O O11 0.463341 0.727270 0.900703
O O12 0.944712 0.440476 0.095669
O O13 0.678601 0.161768 0.873589
O O14 0.500000 0.000000 0.000000
O O15 0.371943 0.781778 0.235197
#
# Coordination Sequence:
#
# PCOD8016827 Si02
#       7
#     2   2   2   2   2   2   2
#     4   9  19  37  58  89 111 153 189 234 294 337
#     4  11  22  39  61  81 115 164 193 235 287 334
#     4  10  22  36  59  85 118 153 192 234 284 348
#     4  11  21  37  62  88 115 148 199 240 288 341
#     4  10  23  35  60  89 113 153 186 246 298 325
#     4   9  19  39  59  86 116 153 191 234 296 336
#     4  10  22  40  57  83 123 147 196 239 279 353
#
# _framework density 18.423683
#
# number of rings (size 3 to 8) (size 9 to 14) (size 15 to 20)
#    0.857    1.143    2.857    0.429    4.000    1.143 
#    2.571    0.000    0.000    1.714    0.000    0.000 
#    0.000    0.000    0.000    0.000    0.000    0.000 
#
# Total GULP energy -173518.600104 kJ/mol
# GULP energy per Si atom -12394.185722 kJ/mol
# Density = 1.838175 g / cm^3
# Si number density = 18.423683 Si / 1000 Ang^3
#
#
#
# Elastic Constant Matrix: (Units=GPa)
#
#
# Indices 1 2 3 4 5 6 
#
# 1 99.8486 26.7806 48.0865 -1.7340 4.2265 6.5506
# 2 26.7806 97.2891 37.8619 -8.3536 6.7299 -3.5183
# 3 48.0865 37.8619 117.7005 -10.5267 15.7977 4.5162
# 4 -1.7340 -8.3536 -10.5267 22.9755 -1.6079 -1.5553
# 5 4.2265 6.7299 15.7977 -1.6079 30.0091 -2.0053
# 6 6.5506 -3.5183 4.5162 -1.5553 -2.0053 23.8823
#
#
#
# Elastic Compliance Matrix: (Units=1/GPa)
#
#
# Indices 1 2 3 4 5 6 
#
# 1 0.013027 -0.002049 -0.004853 -0.002130 0.000864 -0.003023
# 2 -0.002049 0.012400 -0.002907 0.003191 -0.000584 0.003097
# 3 -0.004853 -0.002907 0.012512 0.003837 -0.005156 -0.001646
# 4 -0.002130 0.003191 0.003837 0.046531 0.000283 0.003383
# 5 0.000864 -0.000584 -0.005156 0.000283 0.036310 0.003719
# 6 -0.003023 0.003097 -0.001646 0.003383 0.003719 0.044001
#
#
# Mechanical properties :
#
#
# Convention : Reuss Voigt Hill
#
# Bulk Modulus (GPa) = 54.58184 60.03289 57.30737
# Shear Modulus (GPa) = 26.24556 28.84733 27.54644
#
# Velocity S-wave (km/s) = 3.77842 3.96128 3.87093
# Velocity P-wave (km/s) = 6.98037 7.31968 7.15204
#
# Compressibility (1/GPa) = 0.01832111
#
# Stress axis : x y z
#
# Youngs Moduli (GPa) = 76.76411 80.64295 79.92033
#
# Poissons Ratio (x) = 0.16524 0.38788
# Poissons Ratio (y) = 0.15729 0.23232
# Poissons Ratio (z) = 0.37257 0.23442
#
# Static dielectric constant tensor:
#      x y z
#    x 3.366860 -0.007770 0.183970 
#    y -0.007770 3.258890 0.026820 
#    z 0.183970 0.026820 3.400590 
# 
# 
# High freq. dielectric constant tensor:
#      x y z
#    x 1.712240 -0.004300 0.015880 
#    y -0.004300 1.699050 -0.003090 
#    z 0.015880 -0.003090 1.709560 
# 
# From -- ./inp_files/416808.got.cif
#   From: 2010.06.25/outbox.cif.g09.slc.cpg/sg2_209_cif.got.tgz:416808.got - 2010.06.27 13:26:56.
