data_PCOD8016153
_publ_section_title
;
Structure prediction by ZEFSAII (Michael W. Deem and Ramdas Pophale) SiO2 
 PCOD8016153
Probable space group: P -1
;
_chemical_formula_sum "Si O2"
_cell_formula_units_Z 16
_cell_length_a 9.153570
_cell_length_b 20.578732
_cell_length_c 24.409435
_cell_angle_alpha 20.508500
_cell_angle_beta 29.587905
_cell_angle_gamma 41.105160
_cell_volume 744.329201
_symmetry_space_group_name_H-M "P -1"
_symmetry_group_IT_number 2
_symmetry_cell_setting 'triclinic'
loop_
_space_group_symop_operation_xyz
x,y,z
-x,-y,-z
loop_
_atom_site_type_symbol
_atom_site_label
_atom_site_fract_x
_atom_site_fract_y
_atom_site_fract_z
Si Si1 0.744546 0.726244 0.043785
Si Si2 0.609304 0.200289 0.275225
Si Si3 0.160635 0.200064 0.321753
Si Si4 0.348758 0.293933 0.681260
Si Si5 0.572032 0.477480 0.877259
Si Si6 0.337768 0.891418 0.193765
Si Si7 0.187401 0.594592 0.650092
Si Si8 0.825091 0.443506 0.711420
O O1 0.761239 0.602594 0.189758
O O2 0.388676 0.615233 0.226295
O O3 0.015794 0.716841 0.921676
O O4 0.817297 0.958708 0.847932
O O5 0.423940 0.189751 0.286772
O O6 0.515393 0.328025 0.250438
O O7 0.500000 0.000000 0.500000
O O8 0.903086 0.276448 0.375012
O O9 0.326019 0.344398 0.105494
O O10 0.000000 0.000000 0.500000
O O11 0.500000 0.500000 0.500000
O O12 0.385872 0.126269 0.842282
O O13 0.503109 0.274632 0.587489
O O14 0.993549 0.280759 0.793498
O O15 0.565914 0.400931 0.878211
O O16 0.925151 0.521598 0.747015
O O17 0.065486 0.673327 0.446650
O O18 0.500000 0.000000 0.000000
#
# Coordination Sequence:
#
# PCOD8016153 Si02
#       8
#     2   2   2   2   2   2   2   2
#     4  12  25  43  68 103 139 179 229 290 343 407
#     4  11  24  41  66  97 137 178 223 287 345 403
#     4  11  25  42  68 102 134 185 234 281 347 423
#     4  10  21  43  71  95 133 180 225 284 344 409
#     4  11  21  46  67  94 136 179 230 274 346 417
#     4  11  25  43  70 101 139 178 233 289 348 408
#     4  11  21  44  70  91 136 184 222 277 351 408
#     4  11  26  44  71 102 136 187 232 280 353 418
#
# _framework density 21.495864999999998
#
# number of rings (size 3 to 8) (size 9 to 14) (size 15 to 20)
#    0.000    1.000    5.000    3.000    3.500    5.000 
#    0.000    0.000    0.000    0.000    0.000    0.000 
#    0.000    0.000    0.000    0.000    0.000    0.000 
#
# Total GULP energy -198281.096470 kJ/mol
# GULP energy per Si atom -12392.568529 kJ/mol
# Density = 2.144694 g / cm^3
# Si number density = 21.495865 Si / 1000 Ang^3
#
#
#
# Elastic Constant Matrix: (Units=GPa)
#
#
# Indices 1 2 3 4 5 6 
#
# 1 -14.2744 55.6801 46.3033 11.5951 16.2565 -23.0396
# 2 55.6801 132.0823 46.9108 4.4301 11.0432 -14.9745
# 3 46.3033 46.9108 91.9804 3.9158 26.0491 -5.8759
# 4 11.5951 4.4301 3.9158 38.1410 0.8518 11.3455
# 5 16.2565 11.0432 26.0491 0.8518 48.1602 0.1453
# 6 -23.0396 -14.9745 -5.8759 11.3455 0.1453 40.9835
#
#
#
# Elastic Compliance Matrix: (Units=1/GPa)
#
#
# Indices 1 2 3 4 5 6 
#
# 1 -0.016605 0.003802 0.005002 0.006758 0.001935 -0.009106
# 2 0.003802 0.008784 -0.005896 -0.003170 -0.000069 0.005380
# 3 0.005002 -0.005896 0.013940 -0.003150 -0.007831 0.003556
# 4 0.006758 -0.003170 -0.003150 0.026383 -0.000302 -0.005113
# 5 0.001935 -0.000069 -0.007831 -0.000302 0.024368 -0.000063
# 6 -0.009106 0.005380 0.003556 -0.005113 -0.000063 0.023172
#
#
# Mechanical properties :
#
#
# Convention : Reuss Voigt Hill
#
# Bulk Modulus (GPa) = 83.77859 56.39740 70.08799
# Shear Modulus (GPa) = 63.93569 29.51653 46.72611
#
# Velocity S-wave (km/s) = 5.45965 3.70959 4.66738
# Velocity P-wave (km/s) = 8.87709 6.68143 7.85634
#
# Compressibility (1/GPa) = 0.01193622
#
# Stress axis : x y z
#
# Youngs Moduli (GPa) = -60.22241 113.84202 71.73614
#
# Poissons Ratio (x) = -0.43288 -0.35884
# Poissons Ratio (y) = 0.22900 0.42296
# Poissons Ratio (z) = 0.30125 0.67122
#
# Static dielectric constant tensor:
#      x y z
#    x 3.892320 -0.196140 0.409680 
#    y -0.196140 4.185480 -0.345850 
#    z 0.409680 -0.345850 2.586290 
# 
# 
# High freq. dielectric constant tensor:
#      x y z
#    x 1.841400 -0.008990 0.021000 
#    y -0.008990 1.866540 0.003610 
#    z 0.021000 0.003610 1.835240 
# 
# From -- ./inp_files/271321.got.cif
#   From: 2010.06.25/outbox.cif.g09.slc.cpg/sg2_136_cif.got.tgz:271321.got - 2010.06.27 13:26:56.
