data_PCOD8016372
_publ_section_title
;
Structure prediction by ZEFSAII (Michael W. Deem and Ramdas Pophale) SiO2 
 PCOD8016372
Probable space group: P -1
;
_chemical_formula_sum "Si O2"
_cell_formula_units_Z 16
_cell_length_a 8.651338
_cell_length_b 12.253862
_cell_length_c 15.555073
_cell_angle_alpha 47.706035
_cell_angle_beta 37.403899
_cell_angle_gamma 46.942058
_cell_volume 699.487018
_symmetry_space_group_name_H-M "P -1"
_symmetry_group_IT_number 2
_symmetry_cell_setting 'triclinic'
loop_
_space_group_symop_operation_xyz
x,y,z
-x,-y,-z
loop_
_atom_site_type_symbol
_atom_site_label
_atom_site_fract_x
_atom_site_fract_y
_atom_site_fract_z
Si Si1 0.748362 0.252444 0.440144
Si Si2 0.923633 0.931085 0.450905
Si Si3 0.142134 0.328694 0.110245
Si Si4 0.740963 0.683251 0.588228
Si Si5 0.424094 0.993015 0.134741
Si Si6 0.852722 0.623409 0.373808
Si Si7 0.954167 0.840695 0.076261
Si Si8 0.209810 0.642039 0.909417
O O1 0.934966 0.183497 0.474399
O O2 0.444222 0.359189 0.541139
O O3 0.883362 0.359330 0.270095
O O4 0.734425 0.103015 0.470874
O O5 0.724952 0.855860 0.532134
O O6 0.158296 0.942889 0.277830
O O7 0.363352 0.160545 0.120252
O O8 0.055263 0.321642 0.052585
O O9 0.280902 0.459197 0.999713
O O10 0.837439 0.669691 0.455244
O O11 0.448696 0.665940 0.735168
O O12 0.954612 0.556093 0.622248
O O13 0.656475 0.874091 0.151331
O O14 0.500000 0.000000 0.000000
O O15 0.984793 0.730815 0.204027
O O16 0.162332 0.750120 0.957811
O O17 0.000000 0.000000 0.000000
#
# Coordination Sequence:
#
# PCOD8016372 Si02
#       8
#     2   2   2   2   2   2   2   2
#     4  10  21  44  68  98 129 177 228 282 340 405
#     4  10  24  41  69  99 133 175 228 282 341 410
#     4  10  23  43  74  97 138 181 239 283 338 428
#     4  11  27  45  71  99 139 185 230 285 346 413
#     4  11  23  44  69 103 136 184 232 282 350 410
#     4  11  26  47  64 102 139 179 233 280 347 408
#     4  12  29  45  70 106 146 181 232 294 349 414
#     4  11  25  46  68 104 137 190 229 284 356 406
#
# _framework density 22.873906999999999
#
# number of rings (size 3 to 8) (size 9 to 14) (size 15 to 20)
#    0.000    1.250    3.750    0.000    7.000    3.500 
#    0.000    0.000    0.000    0.000    0.000    0.000 
#    0.000    0.000    0.000    0.000    0.000    0.000 
#
# Total GULP energy -198426.498523 kJ/mol
# GULP energy per Si atom -12401.656158 kJ/mol
# Density = 2.282184 g / cm^3
# Si number density = 22.873907 Si / 1000 Ang^3
#
#
#
# Elastic Constant Matrix: (Units=GPa)
#
#
# Indices 1 2 3 4 5 6 
#
# 1 43.8070 24.8908 27.5548 -7.1974 -3.4295 6.3587
# 2 24.8908 83.7387 36.2500 -6.8384 -4.5594 14.6548
# 3 27.5548 36.2500 120.2889 -10.5752 14.0944 17.7814
# 4 -7.1974 -6.8384 -10.5752 37.2055 0.4440 -6.4264
# 5 -3.4295 -4.5594 14.0944 0.4440 37.2958 -5.3681
# 6 6.3587 14.6548 17.7814 -6.4264 -5.3681 44.0029
#
#
#
# Elastic Compliance Matrix: (Units=1/GPa)
#
#
# Indices 1 2 3 4 5 6 
#
# 1 0.030616 -0.006418 -0.005407 0.003310 0.004163 0.000890
# 2 -0.006418 0.015821 -0.003109 0.000276 0.002114 -0.002787
# 3 -0.005407 -0.003109 0.011796 0.001203 -0.005851 -0.003488
# 4 0.003310 0.000276 0.001203 0.028446 -0.000009 0.003097
# 5 0.004163 0.002114 -0.005851 -0.000009 0.030350 0.004760
# 6 0.000890 -0.002787 -0.003488 0.003097 0.004760 0.025968
#
#
# Mechanical properties :
#
#
# Convention : Reuss Voigt Hill
#
# Bulk Modulus (GPa) = 35.25654 47.24730 41.25192
# Shear Modulus (GPa) = 27.42417 34.31011 30.86714
#
# Velocity S-wave (km/s) = 3.46631 3.87714 3.67747
# Velocity P-wave (km/s) = 5.60957 6.38305 6.00877
#
# Compressibility (1/GPa) = 0.02836353
#
# Stress axis : x y z
#
# Youngs Moduli (GPa) = 32.66258 63.20712 84.77549
#
# Poissons Ratio (x) = 0.40569 0.45841
# Poissons Ratio (y) = 0.20964 0.26357
# Poissons Ratio (z) = 0.17662 0.19651
#
# Static dielectric constant tensor:
#      x y z
#    x 3.903420 -0.173580 0.134550 
#    y -0.173580 4.273740 -0.096480 
#    z 0.134550 -0.096480 4.191230 
# 
# 
# High freq. dielectric constant tensor:
#      x y z
#    x 1.891570 -0.008240 0.010550 
#    y -0.008240 1.905210 -0.006530 
#    z 0.010550 -0.006530 1.912570 
# 
# From -- ./inp_files/190011.got.cif
#   From: 2010.06.25/outbox.cif.g09.slc.cpg/sg2_96_cif.got.tgz:190011.got - 2010.06.27 13:26:56.
