data_PCOD8016043
_publ_section_title
;
Structure prediction by ZEFSAII (Michael W. Deem and Ramdas Pophale) SiO2 
 PCOD8016043
Probable space group: P -1
;
_chemical_formula_sum "Si O2"
_cell_formula_units_Z 16
_cell_length_a 9.730630
_cell_length_b 15.516135
_cell_length_c 11.348070
_cell_angle_alpha 151.208180
_cell_angle_beta 73.818877
_cell_angle_gamma 115.738234
_cell_volume 722.534371
_symmetry_space_group_name_H-M "P -1"
_symmetry_group_IT_number 2
_symmetry_cell_setting 'triclinic'
loop_
_space_group_symop_operation_xyz
x,y,z
-x,-y,-z
loop_
_atom_site_type_symbol
_atom_site_label
_atom_site_fract_x
_atom_site_fract_y
_atom_site_fract_z
Si Si1 0.152519 0.594895 0.651563
Si Si2 0.358557 0.953034 0.890782
Si Si3 0.550432 0.026194 0.352085
Si Si4 0.222223 0.697771 0.028266
Si Si5 0.163974 0.958111 0.544536
Si Si6 0.325175 0.342208 0.364602
Si Si7 0.819611 0.713535 0.410464
Si Si8 0.622052 0.718998 0.252276
O O1 0.231945 0.441173 0.429425
O O2 0.000000 0.500000 0.500000
O O3 0.218835 0.796201 0.806412
O O4 0.146364 0.646686 0.853606
O O5 0.400165 0.869342 0.661231
O O6 0.319242 0.134973 0.073273
O O7 0.500000 0.000000 0.000000
O O8 0.710921 0.050656 0.403305
O O9 0.474606 0.148634 0.590764
O O10 0.413551 0.805305 0.103479
O O11 0.151053 0.827638 0.273530
O O12 0.174863 0.495302 0.869241
O O13 0.993805 0.887241 0.561251
O O14 0.229775 0.188718 0.763663
O O15 0.500000 0.500000 0.500000
O O16 0.249424 0.295585 0.455337
O O17 0.695202 0.749129 0.400212
O O18 0.500000 0.500000 0.000000
#
# Coordination Sequence:
#
# PCOD8016043 Si02
#       8
#     2   2   2   2   2   2   2   2
#     4  11  26  45  68 107 138 179 235 289 353 411
#     4  12  22  44  71  98 136 185 234 286 346 410
#     4  11  23  42  69  96 132 179 229 275 340 421
#     4  10  21  43  69  92 136 180 220 278 342 417
#     4  11  24  42  67 100 135 176 225 280 348 400
#     4  11  24  44  72 100 134 184 238 284 346 424
#     4  11  23  41  64 100 134 169 228 290 341 397
#     4  11  23  42  65  98 135 180 229 273 337 420
#
# _framework density 22.144275
#
# number of rings (size 3 to 8) (size 9 to 14) (size 15 to 20)
#    0.000    1.000    2.500    5.250    5.250    0.500 
#    0.000    0.000    0.000    0.000    0.000    0.000 
#    0.000    0.000    0.000    0.000    0.000    0.000 
#
# Total GULP energy -198217.898077 kJ/mol
# GULP energy per Si atom -12388.618630 kJ/mol
# Density = 2.209387 g / cm^3
# Si number density = 22.144275 Si / 1000 Ang^3
#
#
#
# Elastic Constant Matrix: (Units=GPa)
#
#
# Indices 1 2 3 4 5 6 
#
# 1 134.9936 38.7466 41.4927 6.8896 29.8072 2.4220
# 2 38.7466 122.9426 34.2777 16.4140 17.4769 19.4222
# 3 41.4927 34.2777 83.6538 24.3099 18.2717 6.2704
# 4 6.8896 16.4140 24.3099 47.2649 -5.4108 2.3405
# 5 29.8072 17.4769 18.2717 -5.4108 39.2129 2.0932
# 6 2.4220 19.4222 6.2704 2.3405 2.0932 37.4471
#
#
#
# Elastic Compliance Matrix: (Units=1/GPa)
#
#
# Indices 1 2 3 4 5 6 
#
# 1 0.010056 -0.001679 -0.003220 0.000098 -0.005438 0.001057
# 2 -0.001679 0.010665 -0.001828 -0.002593 -0.002727 -0.004802
# 3 -0.003220 -0.001828 0.018439 -0.009077 -0.006529 -0.000999
# 4 0.000098 -0.002593 -0.009077 0.027724 0.009103 0.000617
# 5 -0.005438 -0.002727 -0.006529 0.009103 0.035132 0.000327
# 6 0.001057 -0.004802 -0.000999 0.000617 0.000327 0.029237
#
#
# Mechanical properties :
#
#
# Convention : Reuss Voigt Hill
#
# Bulk Modulus (GPa) = 38.90084 63.40265 51.15175
# Shear Modulus (GPa) = 32.62082 39.92318 36.27200
#
# Velocity S-wave (km/s) = 3.84227 4.25062 4.05159
# Velocity P-wave (km/s) = 6.10649 7.26527 6.71094
#
# Compressibility (1/GPa) = 0.02570638
#
# Stress axis : x y z
#
# Youngs Moduli (GPa) = 99.44201 93.76301 54.23237
#
# Poissons Ratio (x) = 0.15739 0.17463
# Poissons Ratio (y) = 0.16692 0.09916
# Poissons Ratio (z) = 0.32021 0.17144
#
# Static dielectric constant tensor:
#      x y z
#    x 4.192850 -0.063540 -0.034430 
#    y -0.063540 4.336490 0.239350 
#    z -0.034430 0.239350 4.118170 
# 
# 
# High freq. dielectric constant tensor:
#      x y z
#    x 1.870210 -0.003790 0.008070 
#    y -0.003790 1.894080 0.016030 
#    z 0.008070 0.016030 1.859540 
# 
# From -- ./inp_files/271870.got.cif
#   From: 2010.06.25/outbox.cif.g09.slc.cpg/sg2_136_cif.got.tgz:271870.got - 2010.06.27 13:26:56.
