data_PCOD8016451
_publ_section_title
;
Structure prediction by ZEFSAII (Michael W. Deem and Ramdas Pophale) SiO2 
 PCOD8016451
Probable space group: P -1
;
_chemical_formula_sum "Si O2"
_cell_formula_units_Z 16
_cell_length_a 12.021600
_cell_length_b 8.609088
_cell_length_c 9.384218
_cell_angle_alpha 56.329285
_cell_angle_beta 58.930336
_cell_angle_gamma 65.880003
_cell_volume 682.025890
_symmetry_space_group_name_H-M "P -1"
_symmetry_group_IT_number 2
_symmetry_cell_setting 'triclinic'
loop_
_space_group_symop_operation_xyz
x,y,z
-x,-y,-z
loop_
_atom_site_type_symbol
_atom_site_label
_atom_site_fract_x
_atom_site_fract_y
_atom_site_fract_z
Si Si1 0.737546 0.117375 0.274810
Si Si2 0.861281 0.431961 0.620664
Si Si3 0.636638 0.227398 0.564455
Si Si4 0.003846 0.712474 0.938053
Si Si5 0.816238 0.725008 0.277001
Si Si6 0.354018 0.540293 0.010867
Si Si7 0.884638 0.041820 0.669030
Si Si8 0.362678 0.375120 0.779011
O O1 0.634270 0.113319 0.474913
O O2 0.855810 0.220228 0.205835
O O3 0.782299 0.903509 0.310142
O O4 0.668055 0.238010 0.128025
O O5 0.790494 0.539466 0.474060
O O6 0.761111 0.492058 0.787502
O O7 0.898327 0.208108 0.686979
O O8 0.000000 0.500000 0.500000
O O9 0.746057 0.104710 0.652266
O O10 0.504032 0.243140 0.734399
O O11 0.655882 0.435812 0.399150
O O12 0.892992 0.850295 0.850993
O O13 0.967817 0.718272 0.128318
O O14 0.000000 0.500000 0.000000
O O15 0.739303 0.741958 0.167891
O O16 0.500000 0.500000 0.000000
O O17 0.339470 0.415468 0.942281
O O18 0.000000 0.000000 0.500000
#
# Coordination Sequence:
#
# PCOD8016451 Si02
#       8
#     2   2   2   2   2   2   2   2
#     4  11  24  45  68 102 148 187 236 304 370 431
#     4  12  26  45  71 110 146 188 245 305 365 438
#     4  10  21  44  71 103 139 187 244 296 360 433
#     4  12  24  44  70 103 146 194 239 296 370 439
#     4  12  25  44  69 104 144 191 240 296 373 435
#     4  11  25  48  74 102 144 196 251 308 367 431
#     4  12  23  42  72 108 144 188 245 301 360 436
#     4  10  23  45  75 101 142 193 239 298 368 435
#
# _framework density 23.459519
#
# number of rings (size 3 to 8) (size 9 to 14) (size 15 to 20)
#    0.000    0.750    2.500    5.625    3.500    1.500 
#    0.000    1.250    0.000    0.000    0.000    0.000 
#    0.000    0.000    0.000    0.000    0.000    0.000 
#
# Total GULP energy -198282.003956 kJ/mol
# GULP energy per Si atom -12392.625247 kJ/mol
# Density = 2.340612 g / cm^3
# Si number density = 23.459519 Si / 1000 Ang^3
#
#
#
# Elastic Constant Matrix: (Units=GPa)
#
#
# Indices 1 2 3 4 5 6 
#
# 1 122.1365 45.5668 37.5838 1.2382 10.1272 -14.9705
# 2 45.5668 168.5313 63.4929 12.5551 1.7322 -6.8696
# 3 37.5838 63.4929 140.9949 29.0151 5.5794 -13.5423
# 4 1.2382 12.5551 29.0151 54.6942 -12.2250 4.2538
# 5 10.1272 1.7322 5.5794 -12.2250 32.8805 -0.4454
# 6 -14.9705 -6.8696 -13.5423 4.2538 -0.4454 46.6320
#
#
#
# Elastic Compliance Matrix: (Units=1/GPa)
#
#
# Indices 1 2 3 4 5 6 
#
# 1 0.009893 -0.002025 -0.001442 0.000243 -0.002573 0.002412
# 2 -0.002025 0.007563 -0.002948 0.000071 0.000746 -0.000391
# 3 -0.001442 -0.002948 0.010358 -0.005714 -0.003248 0.002601
# 4 0.000243 0.000071 -0.005714 0.023737 0.009667 -0.003644
# 5 -0.002573 0.000746 -0.003248 0.009667 0.035282 -0.002204
# 6 0.002412 -0.000391 0.002601 -0.003644 -0.002204 0.023228
#
#
# Mechanical properties :
#
#
# Convention : Reuss Voigt Hill
#
# Bulk Modulus (GPa) = 66.73049 80.54995 73.64022
# Shear Modulus (GPa) = 39.09755 45.84262 42.47008
#
# Velocity S-wave (km/s) = 4.08683 4.42533 4.25944
# Velocity P-wave (km/s) = 7.12574 7.77957 7.45982
#
# Compressibility (1/GPa) = 0.01498565
#
# Stress axis : x y z
#
# Youngs Moduli (GPa) = 101.07879 132.22772 96.54051
#
# Poissons Ratio (x) = 0.26777 0.13919
# Poissons Ratio (y) = 0.20469 0.28456
# Poissons Ratio (z) = 0.14573 0.38974
#
# Static dielectric constant tensor:
#      x y z
#    x 4.142650 -0.176550 0.126590 
#    y -0.176550 4.109790 0.268450 
#    z 0.126590 0.268450 4.596510 
# 
# 
# High freq. dielectric constant tensor:
#      x y z
#    x 1.924900 -0.015590 0.011840 
#    y -0.015590 1.939620 0.017930 
#    z 0.011840 0.017930 1.937080 
# 
# From -- ./inp_files/242428.got.cif
#   From: 2010.06.25/outbox.cif.g09.slc.cpg/sg2_122_cif.got.tgz:242428.got - 2010.06.27 13:26:56.
