data_PCOD8016193
_publ_section_title
;
Structure prediction by ZEFSAII (Michael W. Deem and Ramdas Pophale) SiO2 
 PCOD8016193
Probable space group: P -1
;
_chemical_formula_sum "Si O2"
_cell_formula_units_Z 16
_cell_length_a 8.213867
_cell_length_b 15.303028
_cell_length_c 9.221109
_cell_angle_alpha 110.788398
_cell_angle_beta 132.301408
_cell_angle_gamma 98.059755
_cell_volume 670.280436
_symmetry_space_group_name_H-M "P -1"
_symmetry_group_IT_number 2
_symmetry_cell_setting 'triclinic'
loop_
_space_group_symop_operation_xyz
x,y,z
-x,-y,-z
loop_
_atom_site_type_symbol
_atom_site_label
_atom_site_fract_x
_atom_site_fract_y
_atom_site_fract_z
Si Si1 0.258552 0.541130 0.090132
Si Si2 0.916755 0.409197 0.274586
Si Si3 0.095518 0.306911 0.868152
Si Si4 0.697036 0.990101 0.409647
Si Si5 0.411825 0.194786 0.955573
Si Si6 0.210652 0.824911 0.649093
Si Si7 0.825309 0.717953 0.621917
Si Si8 0.867767 0.143182 0.860679
O O1 0.516248 0.657853 0.363534
O O2 0.177980 0.547801 0.885192
O O3 0.302997 0.439825 0.076225
O O4 0.000000 0.500000 0.000000
O O5 0.679177 0.287314 0.098305
O O6 0.000000 0.500000 0.500000
O O7 0.142601 0.383637 0.368954
O O8 0.933565 0.281485 0.607688
O O9 0.891458 0.247981 0.847068
O O10 0.254954 0.247649 0.944396
O O11 0.399572 0.921982 0.248483
O O12 0.726196 0.067786 0.339871
O O13 0.882101 0.060728 0.700721
O O14 0.760511 0.903032 0.325879
O O15 0.505983 0.149758 0.117087
O O16 0.005333 0.792459 0.638639
O O17 0.893980 0.803275 0.848154
#
# Coordination Sequence:
#
# PCOD8016193 Si02
#       8
#     2   2   2   2   2   2   2   2
#     4  12  27  44  70 103 139 184 229 287 353 419
#     4  11  23  41  68 100 138 183 227 288 345 403
#     4  11  25  43  65  99 140 178 233 284 342 415
#     4  10  21  43  73 100 140 186 234 283 343 404
#     4  11  22  40  72  98 139 182 231 284 339 403
#     4  10  22  41  71 101 135 179 234 284 333 410
#     4  11  23  43  69 104 140 179 233 285 347 414
#     4  10  22  41  68 101 141 184 222 289 345 400
#
# _framework density 23.870608000000001
#
# number of rings (size 3 to 8) (size 9 to 14) (size 15 to 20)
#    0.000    1.250    2.500    4.125    0.000    7.500 
#    0.000    0.625    2.750    0.000    0.000    0.000 
#    0.000    0.000    0.000    0.000    0.000    0.000 
#
# Total GULP energy -198222.428502 kJ/mol
# GULP energy per Si atom -12388.901781 kJ/mol
# Density = 2.381628 g / cm^3
# Si number density = 23.870608 Si / 1000 Ang^3
#
#
#
# Elastic Constant Matrix: (Units=GPa)
#
#
# Indices 1 2 3 4 5 6 
#
# 1 65.7115 47.2805 57.9144 -13.7389 -8.4548 -6.3647
# 2 47.2805 115.6467 60.8230 1.7210 -12.4401 6.1979
# 3 57.9144 60.8230 193.9806 -10.8955 -19.5592 9.9393
# 4 -13.7389 1.7210 -10.8955 25.1761 -5.4913 -6.7788
# 5 -8.4548 -12.4401 -19.5592 -5.4913 37.7607 -4.3866
# 6 -6.3647 6.1979 9.9393 -6.7788 -4.3866 32.8884
#
#
#
# Elastic Compliance Matrix: (Units=1/GPa)
#
#
# Indices 1 2 3 4 5 6 
#
# 1 0.037422 -0.012725 -0.006003 0.024865 0.006723 0.017476
# 2 -0.012725 0.014927 -0.001203 -0.010638 -0.000942 -0.007230
# 3 -0.006003 -0.001203 0.007648 -0.000314 0.001819 -0.003068
# 4 0.024865 -0.010638 -0.000314 0.062655 0.013525 0.021630
# 5 0.006723 -0.000942 0.001819 0.013525 0.031506 0.007919
# 6 0.017476 -0.007230 -0.003068 0.021630 0.007919 0.041592
#
#
# Mechanical properties :
#
#
# Convention : Reuss Voigt Hill
#
# Bulk Modulus (GPa) = 49.67052 78.59717 64.13385
# Shear Modulus (GPa) = 20.63347 33.11977 26.87662
#
# Velocity S-wave (km/s) = 2.94324 3.72892 3.35913
# Velocity P-wave (km/s) = 5.69242 7.17897 6.47847
#
# Compressibility (1/GPa) = 0.02013267
#
# Stress axis : x y z
#
# Youngs Moduli (GPa) = 26.72231 66.99324 130.75772
#
# Poissons Ratio (x) = 0.85252 0.78499
# Poissons Ratio (y) = 0.34005 0.15731
# Poissons Ratio (z) = 0.16043 0.08060
#
# Static dielectric constant tensor:
#      x y z
#    x 4.462860 0.519590 0.269110 
#    y 0.519590 4.829200 1.028820 
#    z 0.269110 1.028820 5.784870 
# 
# 
# High freq. dielectric constant tensor:
#      x y z
#    x 1.936880 0.023610 -0.004760 
#    y 0.023610 1.949960 0.012840 
#    z -0.004760 0.012840 1.965690 
# 
# From -- ./inp_files/208549.got.cif
#   From: 2010.06.25/outbox.cif.g09.slc.cpg/sg2_105_cif.got.tgz:208549.got - 2010.06.27 13:26:56.
