data_PCOD8016170
_publ_section_title
;
Structure prediction by ZEFSAII (Michael W. Deem and Ramdas Pophale) SiO2 
 PCOD8016170
Probable space group: P -1
;
_chemical_formula_sum "Si O2"
_cell_formula_units_Z 16
_cell_length_a 9.483013
_cell_length_b 21.088745
_cell_length_c 11.486182
_cell_angle_alpha 139.178042
_cell_angle_beta 48.360766
_cell_angle_gamma 152.715718
_cell_volume 688.096229
_symmetry_space_group_name_H-M "P -1"
_symmetry_group_IT_number 2
_symmetry_cell_setting 'triclinic'
loop_
_space_group_symop_operation_xyz
x,y,z
-x,-y,-z
loop_
_atom_site_type_symbol
_atom_site_label
_atom_site_fract_x
_atom_site_fract_y
_atom_site_fract_z
Si Si1 0.100436 0.386749 0.782296
Si Si2 0.295959 0.631867 0.169632
Si Si3 0.028092 0.467851 0.567867
Si Si4 0.034598 0.783464 0.744489
Si Si5 0.302861 0.292231 0.396157
Si Si6 0.086998 0.003425 0.656315
Si Si7 0.831448 0.095952 0.922308
Si Si8 0.731045 0.097946 0.736805
O O1 0.309607 0.391107 0.610886
O O2 0.971730 0.406178 0.782174
O O3 0.819268 0.220315 0.772068
O O4 0.301371 0.529782 0.961932
O O5 0.616184 0.813123 0.219421
O O6 0.222618 0.584627 0.281176
O O7 0.367727 0.624751 0.653071
O O8 0.000000 0.500000 0.500000
O O9 0.946159 0.322806 0.404765
O O10 0.761756 0.706262 0.700345
O O11 0.363542 0.954495 0.754160
O O12 0.952947 0.792328 0.929849
O O13 0.031200 0.108595 0.326434
O O14 0.825844 0.977779 0.734983
O O15 0.162936 0.963923 0.453582
O O16 0.917809 0.185215 0.877955
O O17 0.500000 0.000000 0.000000
#
# Coordination Sequence:
#
# PCOD8016170 Si02
#       8
#     2   2   2   2   2   2   2   2
#     4  10  23  42  69 103 135 182 227 291 332 410
#     4  11  24  43  70  99 143 176 233 278 349 400
#     4  12  28  43  69 102 144 182 224 284 351 410
#     4  11  23  44  70 100 142 184 227 284 342 409
#     4  11  25  45  74 100 137 182 237 277 345 409
#     4  11  23  43  71  99 133 182 234 281 341 405
#     4  10  25  39  66  99 143 175 224 285 340 403
#     4  10  21  43  71  99 138 177 236 278 345 399
#
# _framework density 23.252562999999999
#
# number of rings (size 3 to 8) (size 9 to 14) (size 15 to 20)
#    0.000    1.250    2.500    1.500    7.000    6.500 
#    0.000    1.250    0.000    0.000    0.000    0.000 
#    0.000    0.000    0.000    0.000    0.000    0.000 
#
# Total GULP energy -198360.876312 kJ/mol
# GULP energy per Si atom -12397.554770 kJ/mol
# Density = 2.319964 g / cm^3
# Si number density = 23.252563 Si / 1000 Ang^3
#
#
#
# Elastic Constant Matrix: (Units=GPa)
#
#
# Indices 1 2 3 4 5 6 
#
# 1 116.4657 20.7586 31.8694 -0.2701 23.3475 -2.3423
# 2 20.7586 86.3622 27.9018 21.9982 9.4241 4.4519
# 3 31.8694 27.9018 97.0939 15.6707 18.1453 5.7767
# 4 -0.2701 21.9982 15.6707 25.2791 -1.3434 -6.9319
# 5 23.3475 9.4241 18.1453 -1.3434 34.2981 -12.6816
# 6 -2.3423 4.4519 5.7767 -6.9319 -12.6816 30.3401
#
#
#
# Elastic Compliance Matrix: (Units=1/GPa)
#
#
# Indices 1 2 3 4 5 6 
#
# 1 0.010679 -0.002001 -0.002458 0.003128 -0.005259 0.000103
# 2 -0.002001 0.018601 0.001121 -0.020641 -0.009509 -0.011788
# 3 -0.002458 0.001121 0.016194 -0.014970 -0.012211 -0.011962
# 4 0.003128 -0.020641 -0.014970 0.078039 0.027647 0.035506
# 5 -0.005259 -0.009509 -0.012211 0.027647 0.054944 0.032596
# 6 0.000103 -0.011788 -0.011962 0.035506 0.032596 0.058712
#
#
# Mechanical properties :
#
#
# Convention : Reuss Voigt Hill
#
# Bulk Modulus (GPa) = 25.77489 51.22013 38.49751
# Shear Modulus (GPa) = 19.47215 32.60958 26.04087
#
# Velocity S-wave (km/s) = 2.89696 3.74894 3.35014
# Velocity P-wave (km/s) = 4.72215 6.38866 5.61754
#
# Compressibility (1/GPa) = 0.03879744
#
# Stress axis : x y z
#
# Youngs Moduli (GPa) = 93.64120 53.76132 61.75193
#
# Poissons Ratio (x) = 0.10757 0.15182
# Poissons Ratio (y) = 0.18736 -0.06924
# Poissons Ratio (z) = 0.23021 -0.06028
#
# Static dielectric constant tensor:
#      x y z
#    x 4.358100 -0.148970 0.169810 
#    y -0.148970 4.176190 -0.106460 
#    z 0.169810 -0.106460 4.651830 
# 
# 
# High freq. dielectric constant tensor:
#      x y z
#    x 1.915400 -0.009870 0.002630 
#    y -0.009870 1.922810 -0.009070 
#    z 0.002630 -0.009070 1.926010 
# 
# From -- ./inp_files/405564.got.cif
#   From: 2010.06.25/outbox.cif.g09.slc.cpg/sg2_203_cif.got.tgz:405564.got - 2010.06.27 13:26:56.
