data_PCOD8016526
_publ_section_title
;
Structure prediction by ZEFSAII (Michael W. Deem and Ramdas Pophale) SiO2 
 PCOD8016526
Probable space group: P -1
;
_chemical_formula_sum "Si O2"
_cell_formula_units_Z 14
_cell_length_a 7.422659
_cell_length_b 9.967958
_cell_length_c 12.798299
_cell_angle_alpha 130.160814
_cell_angle_beta 57.154520
_cell_angle_gamma 125.998763
_cell_volume 564.687600
_symmetry_space_group_name_H-M "P -1"
_symmetry_group_IT_number 2
_symmetry_cell_setting 'triclinic'
loop_
_space_group_symop_operation_xyz
x,y,z
-x,-y,-z
loop_
_atom_site_type_symbol
_atom_site_label
_atom_site_fract_x
_atom_site_fract_y
_atom_site_fract_z
Si Si1 0.623815 0.924065 0.074823
Si Si2 0.091775 0.887813 0.571036
Si Si3 0.104857 0.431261 0.681466
Si Si4 0.158208 0.919221 0.127814
Si Si5 0.259857 0.419744 0.155224
Si Si6 0.707169 0.699160 0.254890
Si Si7 0.826590 0.256467 0.327816
O O1 0.368273 0.872024 0.084962
O O2 0.670333 0.053712 0.227267
O O3 0.648473 0.728225 0.005017
O O4 0.807890 0.036926 0.984339
O O5 0.011924 0.781721 0.433421
O O6 0.198616 0.763474 0.548558
O O7 0.282856 0.099046 0.598923
O O8 0.872408 0.908069 0.711176
O O9 0.901419 0.499100 0.823355
O O10 0.275963 0.435847 0.723440
O O11 0.244947 0.576447 0.616813
O O12 0.922404 0.735982 0.125937
O O13 0.471244 0.599614 0.219358
O O14 0.098482 0.305339 0.243948
#
# Coordination Sequence:
#
# PCOD8016526 Si02
#       7
#     2   2   2   2   2   2   2
#     4  11  21  44  64  91 131 171 210 268 309 383
#     4  10  21  45  63  93 130 166 220 260 313 385
#     4  10  23  41  69  94 130 166 215 265 316 379
#     4   9  23  38  67  88 128 168 218 249 324 377
#     4  10  23  39  67  94 130 164 215 260 322 375
#     4  10  23  44  62 100 130 168 206 264 334 367
#     4  10  23  40  66  94 125 173 215 259 316 372
#
# _framework density 24.792469000000001
#
# number of rings (size 3 to 8) (size 9 to 14) (size 15 to 20)
#    1.714    0.286    1.429    1.286    4.000    2.286 
#    2.571    3.571    0.000    0.000    0.000    0.000 
#    0.000    0.000    0.000    0.000    0.000    0.000 
#
# Total GULP energy -173446.852502 kJ/mol
# GULP energy per Si atom -12389.060893 kJ/mol
# Density = 2.473604 g / cm^3
# Si number density = 24.792469 Si / 1000 Ang^3
#
#
#
# Elastic Constant Matrix: (Units=GPa)
#
#
# Indices 1 2 3 4 5 6 
#
# 1 40.6073 28.8549 -17.9374 -3.4324 -6.2901 -16.0946
# 2 28.8549 40.8617 1.3852 20.9399 -4.1660 -7.0990
# 3 -17.9374 1.3852 43.1067 15.4932 1.0968 -1.2348
# 4 -3.4324 20.9399 15.4932 37.2032 -2.7837 2.1596
# 5 -6.2901 -4.1660 1.0968 -2.7837 24.9072 12.8406
# 6 -16.0946 -7.0990 -1.2348 2.1596 12.8406 36.6906
#
#
#
# Elastic Compliance Matrix: (Units=1/GPa)
#
#
# Indices 1 2 3 4 5 6 
#
# 1 0.284522 -0.261636 0.079343 0.136993 0.005422 0.066895
# 2 -0.261636 0.279868 -0.064388 -0.152388 -0.006973 -0.051377
# 3 0.079343 -0.064388 0.051715 0.020403 -0.003084 0.023965
# 4 0.136993 -0.152388 0.020403 0.116375 0.010509 0.020768
# 5 0.005422 -0.006973 -0.003084 0.010509 0.050641 -0.017416
# 6 0.066895 -0.051377 0.023965 0.020768 -0.017416 0.052338
#
#
# Mechanical properties :
#
#
# Convention : Reuss Voigt Hill
#
# Bulk Modulus (GPa) = 8.14714 16.57568 12.36141
# Shear Modulus (GPa) = 3.65034 27.24506 15.44770
#
# Velocity S-wave (km/s) = 1.21472 3.31860 2.49887
# Velocity P-wave (km/s) = 2.29362 4.62433 3.65001
#
# Compressibility (1/GPa) = 0.12274245
#
# Stress axis : x y z
#
# Youngs Moduli (GPa) = 3.51466 3.57311 19.33668
#
# Poissons Ratio (x) = 0.93486 -1.53423
# Poissons Ratio (y) = 0.91956 1.24506
# Poissons Ratio (z) = -0.27886 0.23007
#
# Static dielectric constant tensor:
#      x y z
#    x 4.184270 -0.131860 -0.148100 
#    y -0.131860 4.248630 0.155370 
#    z -0.148100 0.155370 4.040380 
# 
# 
# High freq. dielectric constant tensor:
#      x y z
#    x 1.981590 -0.011720 -0.001600 
#    y -0.011720 1.977170 0.018100 
#    z -0.001600 0.018100 1.961750 
# 
# From -- ./inp_files/498441.got.cif
#   From: 2010.06.25/outbox.cif.g09.slc.cpg/sg2_250_cif.got.tgz:498441.got - 2010.06.27 13:26:56.
