data_PCOD8016747
_publ_section_title
;
Structure prediction by ZEFSAII (Michael W. Deem and Ramdas Pophale) SiO2 
 PCOD8016747
Probable space group: P -1
;
_chemical_formula_sum "Si O2"
_cell_formula_units_Z 12
_cell_length_a 8.660873
_cell_length_b 10.443888
_cell_length_c 8.632150
_cell_angle_alpha 116.491152
_cell_angle_beta 46.727725
_cell_angle_gamma 103.066252
_cell_volume 504.998502
_symmetry_space_group_name_H-M "P -1"
_symmetry_group_IT_number 2
_symmetry_cell_setting 'triclinic'
loop_
_space_group_symop_operation_xyz
x,y,z
-x,-y,-z
loop_
_atom_site_type_symbol
_atom_site_label
_atom_site_fract_x
_atom_site_fract_y
_atom_site_fract_z
Si Si1 0.503326 0.608651 0.418021
Si Si2 0.724527 0.418711 0.743161
Si Si3 0.418143 0.059847 0.753331
Si Si4 0.160006 0.346434 0.019654
Si Si5 0.796919 0.120421 0.707665
Si Si6 0.226271 0.827167 0.893606
O O1 0.500000 0.500000 0.500000
O O2 0.307570 0.591013 0.424288
O O3 0.448382 0.762801 0.622970
O O4 0.741356 0.588506 0.168895
O O5 0.892187 0.528642 0.745929
O O6 0.810159 0.259792 0.664366
O O7 0.500000 0.500000 0.000000
O O8 0.606647 0.034180 0.735148
O O9 0.500000 0.000000 0.500000
O O10 0.210089 0.990092 0.924720
O O11 0.355608 0.231199 0.879872
O O12 0.960566 0.263766 0.076240
O O13 0.752391 0.179940 0.941792
O O14 0.000000 0.000000 0.500000
#
# Coordination Sequence:
#
# PCOD8016747 Si02
#       6
#     2   2   2   2   2   2
#     4  11  24  44  75 106 147 193 250 309 370 439
#     4  10  21  47  75 103 148 195 240 311 371 427
#     4  12  23  48  72 101 152 194 244 305 364 443
#     4  11  24  46  76 106 150 191 251 303 365 452
#     4  12  26  45  76 110 149 194 250 308 369 444
#     4  12  26  44  71 109 145 201 242 303 378 434
#
# _framework density 23.762447999999999
#
# number of rings (size 3 to 8) (size 9 to 14) (size 15 to 20)
#    0.000    0.667    5.000    4.000    0.000    4.667 
#    0.000    1.667    0.000    0.000    0.000    0.000 
#    0.000    0.000    0.000    0.000    0.000    0.000 
#
# Total GULP energy -148698.573865 kJ/mol
# GULP energy per Si atom -12391.547822 kJ/mol
# Density = 2.370836 g / cm^3
# Si number density = 23.762448 Si / 1000 Ang^3
#
#
#
# Elastic Constant Matrix: (Units=GPa)
#
#
# Indices 1 2 3 4 5 6 
#
# 1 152.2859 72.1286 57.5624 -5.6203 27.7954 13.4365
# 2 72.1286 163.9692 34.4355 -3.4287 11.3486 -0.5806
# 3 57.5624 34.4355 91.3581 13.5641 29.0917 -1.0402
# 4 -5.6203 -3.4287 13.5641 42.9458 -3.1071 -1.2444
# 5 27.7954 11.3486 29.0917 -3.1071 43.6767 0.7482
# 6 13.4365 -0.5806 -1.0402 -1.2444 0.7482 51.3286
#
#
#
# Elastic Compliance Matrix: (Units=1/GPa)
#
#
# Indices 1 2 3 4 5 6 
#
# 1 0.011016 -0.003532 -0.005279 0.002572 -0.002344 -0.002934
# 2 -0.003532 0.007836 -0.001123 0.000618 0.000987 0.000991
# 3 -0.005279 -0.001123 0.018809 -0.007354 -0.009429 0.001710
# 4 0.002572 0.000618 -0.007354 0.026347 0.004979 -0.000249
# 5 -0.002344 0.000987 -0.009429 0.004979 0.030764 0.000106
# 6 -0.002934 0.000991 0.001710 -0.000249 0.000106 0.020289
#
#
# Mechanical properties :
#
#
# Convention : Reuss Voigt Hill
#
# Bulk Modulus (GPa) = 56.19735 81.76288 68.98012
# Shear Modulus (GPa) = 35.49610 43.82266 39.65938
#
# Velocity S-wave (km/s) = 3.86915 4.29907 4.08976
# Velocity P-wave (km/s) = 6.60768 7.68933 7.16893
#
# Compressibility (1/GPa) = 0.01779443
#
# Stress axis : x y z
#
# Youngs Moduli (GPa) = 90.77414 127.61099 53.16487
#
# Poissons Ratio (x) = 0.45069 0.28065
# Poissons Ratio (y) = 0.32059 0.05971
# Poissons Ratio (z) = 0.47919 0.14332
#
# Static dielectric constant tensor:
#      x y z
#    x 5.364590 -1.170210 -0.887780 
#    y -1.170210 7.034300 2.309190 
#    z -0.887780 2.309190 6.181740 
# 
# 
# High freq. dielectric constant tensor:
#      x y z
#    x 1.944290 0.007520 0.017900 
#    y 0.007520 1.960530 0.011000 
#    z 0.017900 0.011000 1.940770 
# 
# From -- ./inp_files/189635.got.cif
#   From: 2010.06.25/outbox.cif.g09.slc.cpg/sg2_95_cif.got.tgz:189635.got - 2010.06.27 13:26:56.
