data_PCOD8016800
_publ_section_title
;
Structure prediction by ZEFSAII (Michael W. Deem and Ramdas Pophale) SiO2 
 PCOD8016800
Probable space group: P -1
;
_chemical_formula_sum "Si O2"
_cell_formula_units_Z 16
_cell_length_a 13.395482
_cell_length_b 12.190955
_cell_length_c 11.568578
_cell_angle_alpha 57.804024
_cell_angle_beta 57.596851
_cell_angle_gamma 106.980829
_cell_volume 794.533497
_symmetry_space_group_name_H-M "P -1"
_symmetry_group_IT_number 2
_symmetry_cell_setting 'triclinic'
loop_
_space_group_symop_operation_xyz
x,y,z
-x,-y,-z
loop_
_atom_site_type_symbol
_atom_site_label
_atom_site_fract_x
_atom_site_fract_y
_atom_site_fract_z
Si Si1 0.328710 0.516862 0.625644
Si Si2 0.200289 0.755401 0.261064
Si Si3 0.998442 0.176058 0.560143
Si Si4 0.393486 0.861659 0.319817
Si Si5 0.452764 0.552699 0.104074
Si Si6 0.775848 0.030649 0.563421
Si Si7 0.030875 0.935645 0.780405
Si Si8 0.345552 0.337300 0.519020
O O1 0.341184 0.681260 0.514926
O O2 0.290060 0.416346 0.581947
O O3 0.537574 0.656945 0.473534
O O4 0.146308 0.318179 0.934554
O O5 0.295888 0.773890 0.303449
O O6 0.000000 0.500000 0.500000
O O7 0.146140 0.857484 0.259328
O O8 0.365546 0.901160 0.973739
O O9 0.228094 0.408804 0.317950
O O10 0.972536 0.180729 0.436468
O O11 0.943173 0.979144 0.737668
O O12 0.289465 0.877684 0.456594
O O13 0.482669 0.501316 0.233566
O O14 0.500000 0.500000 0.000000
O O15 0.597863 0.803097 0.871691
O O16 0.810513 0.003540 0.430299
O O17 0.143836 0.088070 0.738903
#
# Coordination Sequence:
#
# PCOD8016800 Si02
#       8
#     2   2   2   2   2   2   2   2
#     4  11  25  41  61  87 132 168 206 250 302 377
#     4  10  22  40  63  89 126 159 210 256 309 370
#     4  10  22  35  64  97 118 160 202 262 316 357
#     4  10  25  40  60  91 123 170 203 251 313 367
#     4  11  21  38  66  96 126 151 205 267 313 358
#     4  11  22  40  62  92 128 157 205 257 313 370
#     4  11  23  39  63  91 124 162 210 251 305 369
#     4  10  24  40  62  94 120 167 207 258 311 358
#
# _framework density 20.137605000000001
#
# number of rings (size 3 to 8) (size 9 to 14) (size 15 to 20)
#    0.000    1.500    2.500    2.250   14.000    1.500 
#    0.000    0.625    0.000    0.000    0.000    0.000 
#    0.000    0.000    0.000    0.000    0.000    0.000 
#
# Total GULP energy -198437.786557 kJ/mol
# GULP energy per Si atom -12402.361660 kJ/mol
# Density = 2.009177 g / cm^3
# Si number density = 20.137605 Si / 1000 Ang^3
#
#
#
# Elastic Constant Matrix: (Units=GPa)
#
#
# Indices 1 2 3 4 5 6 
#
# 1 95.4219 50.0257 32.1022 -1.1125 1.6961 -22.8439
# 2 50.0257 99.7933 23.9907 2.0374 6.3901 -14.1797
# 3 32.1022 23.9907 95.5691 -6.6955 5.8869 -17.0338
# 4 -1.1125 2.0374 -6.6955 33.6562 0.0917 3.9891
# 5 1.6961 6.3901 5.8869 0.0917 28.7944 -10.6940
# 6 -22.8439 -14.1797 -17.0338 3.9891 -10.6940 33.0398
#
#
#
# Elastic Compliance Matrix: (Units=1/GPa)
#
#
# Indices 1 2 3 4 5 6 
#
# 1 0.017067 -0.006900 -0.002724 -0.000631 0.004404 0.008937
# 2 -0.006900 0.013931 -0.001120 -0.001286 -0.002455 -0.000009
# 3 -0.002724 -0.001120 0.012488 0.002042 -0.000829 0.003560
# 4 -0.000631 -0.001286 0.002042 0.030679 -0.001755 -0.004208
# 5 0.004404 -0.002455 -0.000829 -0.001755 0.040747 0.014964
# 6 0.008937 -0.000009 0.003560 -0.004208 0.014964 0.043628
#
#
# Mechanical properties :
#
#
# Convention : Reuss Voigt Hill
#
# Bulk Modulus (GPa) = 45.45529 55.89129 50.67329
# Shear Modulus (GPa) = 26.68634 31.40913 29.04773
#
# Velocity S-wave (km/s) = 3.64428 3.95362 3.80210
# Velocity P-wave (km/s) = 6.35051 6.97542 6.67029
#
# Compressibility (1/GPa) = 0.02199964
#
# Stress axis : x y z
#
# Youngs Moduli (GPa) = 58.59144 71.78119 80.07560
#
# Poissons Ratio (x) = 0.49531 0.21809
# Poissons Ratio (y) = 0.40430 0.08966
# Poissons Ratio (z) = 0.15957 0.08038
#
# Static dielectric constant tensor:
#      x y z
#    x 3.664760 0.017770 -0.141760 
#    y 0.017770 3.651040 -0.054720 
#    z -0.141760 -0.054720 3.717190 
# 
# 
# High freq. dielectric constant tensor:
#      x y z
#    x 1.782950 -0.003120 -0.010020 
#    y -0.003120 1.787710 -0.004350 
#    z -0.010020 -0.004350 1.784950 
# 
# From -- ./inp_files/427540.got.cif
#   From: 2010.06.25/outbox.cif.g09.slc.cpg/sg2_214_cif.got.tgz:427540.got - 2010.06.27 13:26:56.
