data_PCOD8016001
_publ_section_title
;
Structure prediction by ZEFSAII (Michael W. Deem and Ramdas Pophale) SiO2 
 PCOD8016001
Probable space group: P -1
;
_chemical_formula_sum "Si O2"
_cell_formula_units_Z 14
_cell_length_a 23.409836
_cell_length_b 17.846364
_cell_length_c 9.237497
_cell_angle_alpha 35.227939
_cell_angle_beta 153.067033
_cell_angle_gamma 159.002055
_cell_volume 623.530340
_symmetry_space_group_name_H-M "P -1"
_symmetry_group_IT_number 2
_symmetry_cell_setting 'triclinic'
loop_
_space_group_symop_operation_xyz
x,y,z
-x,-y,-z
loop_
_atom_site_type_symbol
_atom_site_label
_atom_site_fract_x
_atom_site_fract_y
_atom_site_fract_z
Si Si1 0.805485 0.766887 0.076817
Si Si2 0.452186 0.843518 0.036123
Si Si3 0.680952 0.216318 0.485512
Si Si4 0.959473 0.582786 0.161526
Si Si5 0.501201 0.687232 0.971020
Si Si6 0.131037 0.000631 0.886516
Si Si7 0.752619 0.895661 0.492209
O O1 0.792161 0.801022 0.826511
O O2 0.611201 0.515999 0.052533
O O3 0.786152 0.868023 0.987128
O O4 0.026043 0.875294 0.426817
O O5 0.652926 0.924961 0.321358
O O6 0.365136 0.833591 0.709022
O O7 0.284943 0.617624 0.097573
O O8 0.500000 0.000000 0.000000
O O9 0.678963 0.359743 0.317226
O O10 0.911693 0.344382 0.811298
O O11 0.500000 0.000000 0.500000
O O12 0.000000 0.500000 0.500000
O O13 0.008002 0.771528 0.017645
O O14 0.611803 0.735309 0.294209
O O15 0.673507 0.888067 0.939902
O O16 0.000000 0.000000 0.500000
#
# Coordination Sequence:
#
# PCOD8016001 Si02
#       7
#     2   2   2   2   2   2   2
#     4  11  25  41  72  97 138 192 227 284 347 427
#     4  10  24  41  66  98 134 176 230 289 341 415
#     4  10  21  43  68  96 132 178 230 290 344 404
#     4  10  24  44  72  96 135 187 229 283 353 408
#     4  11  23  44  68  99 142 181 232 293 349 407
#     4  12  25  45  70 103 144 178 235 288 355 414
#     4  10  24  42  64 100 139 174 242 279 344 409
#
# _framework density 22.452797
#
# number of rings (size 3 to 8) (size 9 to 14) (size 15 to 20)
#    0.000    1.429    2.857    0.857    8.000    5.714 
#    2.571    0.714    0.000    0.000    0.000    0.000 
#    0.000    0.000    0.000    0.000    0.000    0.000 
#
# Total GULP energy -173453.977540 kJ/mol
# GULP energy per Si atom -12389.569824 kJ/mol
# Density = 2.240169 g / cm^3
# Si number density = 22.452797 Si / 1000 Ang^3
#
#
#
# Elastic Constant Matrix: (Units=GPa)
#
#
# Indices 1 2 3 4 5 6 
#
# 1 152.0147 68.1609 29.7672 19.2754 19.6548 -3.0692
# 2 68.1609 169.8403 35.1364 7.0206 -0.8232 -13.0404
# 3 29.7672 35.1364 56.9197 2.5835 12.2751 -5.1176
# 4 19.2754 7.0206 2.5835 32.0616 4.6459 2.7603
# 5 19.6548 -0.8232 12.2751 4.6459 30.2255 6.6116
# 6 -3.0692 -13.0404 -5.1176 2.7603 6.6116 48.1130
#
#
#
# Elastic Compliance Matrix: (Units=1/GPa)
#
#
# Indices 1 2 3 4 5 6 
#
# 1 0.009595 -0.003329 -0.001622 -0.004207 -0.005131 0.000484
# 2 -0.003329 0.008158 -0.004016 -0.000103 0.003803 0.001055
# 3 -0.001622 -0.004016 0.023031 0.001109 -0.009113 0.002447
# 4 -0.004207 -0.000103 0.001109 0.034180 -0.002581 -0.001785
# 5 -0.005131 0.003803 -0.009113 -0.002581 0.041908 -0.005877
# 6 0.000484 0.001055 0.002447 -0.001785 -0.005877 0.022271
#
#
# Mechanical properties :
#
#
# Convention : Reuss Voigt Hill
#
# Bulk Modulus (GPa) = 43.76241 71.65597 57.70919
# Shear Modulus (GPa) = 30.35923 38.46068 34.40996
#
# Velocity S-wave (km/s) = 3.68113 4.14328 3.91902
# Velocity P-wave (km/s) = 6.13195 7.40759 6.79975
#
# Compressibility (1/GPa) = 0.02285066
#
# Stress axis : x y z
#
# Youngs Moduli (GPa) = 104.21857 122.57322 43.41998
#
# Poissons Ratio (x) = 0.40805 0.07043
# Poissons Ratio (y) = 0.34695 0.17436
# Poissons Ratio (z) = 0.16906 0.49222
#
# Static dielectric constant tensor:
#      x y z
#    x 6.284790 1.092740 2.036850 
#    y 1.092740 4.497560 0.932020 
#    z 2.036850 0.932020 5.651940 
# 
# 
# High freq. dielectric constant tensor:
#      x y z
#    x 1.899210 0.013620 0.019890 
#    y 0.013620 1.884020 0.008870 
#    z 0.019890 0.008870 1.868870 
# 
# From -- ./inp_files/242051.got.cif
#   From: 2010.06.25/outbox.cif.g09.slc.cpg/sg2_122_cif.got.tgz:242051.got - 2010.06.27 13:26:56.
