data_PCOD8016475
_publ_section_title
;
Structure prediction by ZEFSAII (Michael W. Deem and Ramdas Pophale) SiO2 
 PCOD8016475
Probable space group: P -1
;
_chemical_formula_sum "Si O2"
_cell_formula_units_Z 14
_cell_length_a 21.899640
_cell_length_b 8.779375
_cell_length_c 15.524700
_cell_angle_alpha 28.427464
_cell_angle_beta 28.779592
_cell_angle_gamma 47.811865
_cell_volume 616.656876
_symmetry_space_group_name_H-M "P -1"
_symmetry_group_IT_number 2
_symmetry_cell_setting 'triclinic'
loop_
_space_group_symop_operation_xyz
x,y,z
-x,-y,-z
loop_
_atom_site_type_symbol
_atom_site_label
_atom_site_fract_x
_atom_site_fract_y
_atom_site_fract_z
Si Si1 0.848532 0.234049 0.858988
Si Si2 0.671314 0.621433 0.915415
Si Si3 0.780451 0.128769 0.364458
Si Si4 0.941524 0.788263 0.090673
Si Si5 0.670298 0.710609 0.196178
Si Si6 0.702894 0.091304 0.797639
Si Si7 0.578200 0.590434 0.768728
O O1 0.783795 0.468348 0.872575
O O2 0.000000 0.500000 0.500000
O O3 0.861615 0.969956 0.044072
O O4 0.728698 0.015910 0.045091
O O5 0.726262 0.896327 0.631958
O O6 0.635540 0.791222 0.958550
O O7 0.517456 0.318821 0.226614
O O8 0.737494 0.447082 0.267911
O O9 0.724372 0.924800 0.443151
O O10 0.946287 0.255266 0.089600
O O11 0.841945 0.390206 0.436899
O O12 0.000000 0.000000 0.000000
O O13 0.500000 0.500000 0.500000
O O14 0.739845 0.911551 0.922662
O O15 0.595893 0.250113 0.880793
O O16 0.500000 0.500000 0.000000
#
# Coordination Sequence:
#
# PCOD8016475 Si02
#       7
#     2   2   2   2   2   2   2
#     4  12  26  48  74 104 146 195 240 290 365 433
#     4  11  24  43  73 106 143 186 245 296 359 426
#     4  11  23  45  72 101 147 196 234 293 368 423
#     4  12  26  46  73 105 147 188 246 299 358 431
#     4  12  27  49  74 106 145 193 246 295 365 434
#     4  12  26  43  71 109 144 184 243 301 352 432
#     4  10  21  44  71  98 141 191 232 296 361 424
#
# _framework density 22.703063
#
# number of rings (size 3 to 8) (size 9 to 14) (size 15 to 20)
#    0.000    0.571    2.857    6.429    4.000    2.857 
#    0.000    2.143    0.000    0.000    0.000    0.000 
#    0.000    0.000    0.000    0.000    0.000    0.000 
#
# Total GULP energy -173545.907656 kJ/mol
# GULP energy per Si atom -12396.136261 kJ/mol
# Density = 2.265139 g / cm^3
# Si number density = 22.703063 Si / 1000 Ang^3
#
#
#
# Elastic Constant Matrix: (Units=GPa)
#
#
# Indices 1 2 3 4 5 6 
#
# 1 121.4881 31.5721 39.4499 -1.8738 -0.6472 8.2521
# 2 31.5721 148.4341 21.8053 12.2811 -7.9878 -0.9182
# 3 39.4499 21.8053 78.6737 -4.4068 3.1714 -5.7354
# 4 -1.8738 12.2811 -4.4068 32.9304 -3.5898 0.6881
# 5 -0.6472 -7.9878 3.1714 -3.5898 37.0531 -7.1880
# 6 8.2521 -0.9182 -5.7354 0.6881 -7.1880 48.5336
#
#
#
# Elastic Compliance Matrix: (Units=1/GPa)
#
#
# Indices 1 2 3 4 5 6 
#
# 1 0.010407 -0.001558 -0.004926 0.000548 -0.000147 -0.002411
# 2 -0.001558 0.007626 -0.001525 -0.002978 0.001556 0.000502
# 3 -0.004926 -0.001525 0.015955 0.002254 -0.001077 0.002503
# 4 0.000548 -0.002978 0.002254 0.032059 0.002281 0.000000
# 5 -0.000147 0.001556 -0.001077 0.002281 0.028431 0.004106
# 6 -0.002411 0.000502 0.002503 0.000000 0.004106 0.021927
#
#
# Mechanical properties :
#
#
# Convention : Reuss Voigt Hill
#
# Bulk Modulus (GPa) = 55.64789 59.36117 57.50453
# Shear Modulus (GPa) = 36.12361 40.75466 38.43914
#
# Velocity S-wave (km/s) = 3.99323 4.24148 4.11922
# Velocity P-wave (km/s) = 6.76946 7.08452 6.92878
#
# Compressibility (1/GPa) = 0.01797013
#
# Stress axis : x y z
#
# Youngs Moduli (GPa) = 96.08818 131.13596 62.67439
#
# Poissons Ratio (x) = 0.20434 0.30872
# Poissons Ratio (y) = 0.14973 0.09559
# Poissons Ratio (z) = 0.47330 0.20000
#
# Static dielectric constant tensor:
#      x y z
#    x 4.406460 0.077540 -0.318480 
#    y 0.077540 4.172510 -0.060440 
#    z -0.318480 -0.060440 4.373000 
# 
# 
# High freq. dielectric constant tensor:
#      x y z
#    x 1.908200 0.002460 -0.006230 
#    y 0.002460 1.908280 0.005750 
#    z -0.006230 0.005750 1.894180 
# 
# From -- ./inp_files/222821.got.cif
#   From: 2010.06.25/outbox.cif.g09.slc.cpg/sg2_112_cif.got.tgz:222821.got - 2010.06.27 13:26:56.
