data_PCOD8016909
_publ_section_title
;
Structure prediction by ZEFSAII (Michael W. Deem and Ramdas Pophale) SiO2 
 PCOD8016909
Probable space group: P -1
;
_chemical_formula_sum "Si O2"
_cell_formula_units_Z 14
_cell_length_a 10.491115
_cell_length_b 10.138920
_cell_length_c 11.922804
_cell_angle_alpha 90.508805
_cell_angle_beta 95.388082
_cell_angle_gamma 37.418578
_cell_volume 762.665199
_symmetry_space_group_name_H-M "P -1"
_symmetry_group_IT_number 2
_symmetry_cell_setting 'triclinic'
loop_
_space_group_symop_operation_xyz
x,y,z
-x,-y,-z
loop_
_atom_site_type_symbol
_atom_site_label
_atom_site_fract_x
_atom_site_fract_y
_atom_site_fract_z
Si Si1 0.142427 0.782150 0.441671
Si Si2 0.370005 0.362873 0.833183
Si Si3 0.322506 0.949401 0.954591
Si Si4 0.557028 0.493714 0.350184
Si Si5 0.733102 0.070961 0.290070
Si Si6 0.940918 0.664042 0.912626
Si Si7 0.504984 0.972335 0.793210
O O1 0.313475 0.709861 0.371716
O O2 0.281390 0.582688 0.540961
O O3 0.000000 0.000000 0.500000
O O4 0.969303 0.844423 0.354632
O O5 0.412908 0.453836 0.761270
O O6 0.126224 0.560627 0.847465
O O7 0.424683 0.186426 0.765169
O O8 0.507978 0.266542 0.956639
O O9 0.247148 0.920469 0.843374
O O10 0.428261 0.995515 0.912533
O O11 0.128751 0.151818 0.019019
O O12 0.615591 0.291380 0.337409
O O13 0.589706 0.057383 0.302587
O O14 0.759520 0.762084 0.813022
O O15 0.000000 0.500000 0.000000
#
# Coordination Sequence:
#
# PCOD8016909 Si02
#       7
#     2   2   2   2   2   2   2
#     4   9  20  41  61  72 100 140 180 222 277 316
#     4  11  20  33  53  83 113 139 180 215 253 313
#     4   9  19  31  49  80 113 141 173 209 256 311
#     4  10  22  37  58  80  99 138 184 224 263 318
#     4   9  19  36  55  78 108 140 176 217 269 311
#     4  11  15  30  54  75 111 153 175 199 252 320
#     4   9  19  32  50  80 110 142 176 209 256 311
#
# _framework density 18.356677999999999
#
# number of rings (size 3 to 8) (size 9 to 14) (size 15 to 20)
#    0.857    1.429    2.857    0.857    0.000    8.571 
#    0.000    2.143    0.000    8.571    0.000    0.000 
#    0.000    0.000    0.000    0.000    0.000    0.000 
#
# Total GULP energy -173434.616635 kJ/mol
# GULP energy per Si atom -12388.186903 kJ/mol
# Density = 1.831490 g / cm^3
# Si number density = 18.356678 Si / 1000 Ang^3
#
#
#
# Elastic Constant Matrix: (Units=GPa)
#
#
# Indices 1 2 3 4 5 6 
#
# 1 45.5017 41.2061 35.1967 3.9014 23.0441 -9.7406
# 2 41.2061 105.9730 21.9708 -2.7156 14.6275 -25.9782
# 3 35.1967 21.9708 69.4605 -7.5494 26.5178 -10.6997
# 4 3.9014 -2.7156 -7.5494 19.5506 -8.4265 1.5847
# 5 23.0441 14.6275 26.5178 -8.4265 30.7280 -3.9609
# 6 -9.7406 -25.9782 -10.6997 1.5847 -3.9609 30.1167
#
#
#
# Elastic Compliance Matrix: (Units=1/GPa)
#
#
# Indices 1 2 3 4 5 6 
#
# 1 0.102440 -0.029384 -0.029169 -0.058801 -0.054648 -0.006670
# 2 -0.029384 0.021091 0.007395 0.015607 0.011441 0.012000
# 3 -0.029169 0.007395 0.030710 0.017040 -0.002622 0.006614
# 4 -0.058801 0.015607 0.017040 0.091912 0.047411 0.001898
# 5 -0.054648 0.011441 -0.002622 0.047411 0.083309 -0.000276
# 6 -0.006670 0.012000 0.006614 0.001898 -0.000276 0.043611
#
#
# Mechanical properties :
#
#
# Convention : Reuss Voigt Hill
#
# Bulk Modulus (GPa) = 19.25847 46.40915 32.83381
# Shear Modulus (GPa) = 10.14823 24.24986 17.19905
#
# Velocity S-wave (km/s) = 2.35380 3.63855 3.06426
# Velocity P-wave (km/s) = 4.23098 6.55659 5.51770
#
# Compressibility (1/GPa) = 0.05192519
#
# Stress axis : x y z
#
# Youngs Moduli (GPa) = 9.76183 47.41356 32.56298
#
# Poissons Ratio (x) = 1.39318 0.94983
# Poissons Ratio (y) = 0.28684 -0.24080
# Poissons Ratio (z) = 0.28474 -0.35062
#
# Static dielectric constant tensor:
#      x y z
#    x 3.169030 -0.240650 0.274330 
#    y -0.240650 3.455600 -0.138600 
#    z 0.274330 -0.138600 3.395720 
# 
# 
# High freq. dielectric constant tensor:
#      x y z
#    x 1.683700 -0.015110 0.017530 
#    y -0.015110 1.718540 -0.005950 
#    z 0.017530 -0.005950 1.701190 
# 
# From -- ./inp_files/423593.got.cif
#   From: 2010.06.25/outbox.cif.g09.slc.cpg/sg2_212_cif.got.tgz:423593.got - 2010.06.27 13:26:56.
