data_PCOD8016987
_publ_section_title
;
Structure prediction by ZEFSAII (Michael W. Deem and Ramdas Pophale) SiO2 
 PCOD8016987
Probable space group: P -1
;
_chemical_formula_sum "Si O2"
_cell_formula_units_Z 14
_cell_length_a 16.642634
_cell_length_b 5.179827
_cell_length_c 9.291683
_cell_angle_alpha 72.933176
_cell_angle_beta 91.594903
_cell_angle_gamma 61.777518
_cell_volume 661.361878
_symmetry_space_group_name_H-M "P -1"
_symmetry_group_IT_number 2
_symmetry_cell_setting 'triclinic'
loop_
_space_group_symop_operation_xyz
x,y,z
-x,-y,-z
loop_
_atom_site_type_symbol
_atom_site_label
_atom_site_fract_x
_atom_site_fract_y
_atom_site_fract_z
Si Si1 0.849184 0.092541 0.315373
Si Si2 0.849684 0.784830 0.874771
Si Si3 0.393030 0.731534 0.930270
Si Si4 0.765611 0.279204 0.560676
Si Si5 0.297282 0.033532 0.598429
Si Si6 0.026531 0.216626 0.878261
Si Si7 0.714765 0.626187 0.027046
O O1 0.855530 0.155123 0.476142
O O2 0.783030 0.437386 0.191901
O O3 0.797101 0.889783 0.331838
O O4 0.946345 0.906536 0.264354
O O5 0.937666 0.562217 0.814230
O O6 0.800945 0.125956 0.743625
O O7 0.884624 0.799462 0.034965
O O8 0.778213 0.654587 0.900713
O O9 0.336015 0.558427 0.001001
O O10 0.382203 0.836361 0.744766
O O11 0.360984 0.030395 0.980709
O O12 0.500000 0.500000 0.000000
O O13 0.708641 0.652353 0.511545
O O14 0.694298 0.178541 0.505456
O O15 0.000000 0.000000 0.000000
#
# Coordination Sequence:
#
# PCOD8016987 Si02
#       7
#     2   2   2   2   2   2   2
#     4   9  20  37  63  82 121 163 209 251 296 346
#     4  11  25  38  60  90 126 170 208 253 313 355
#     4  11  21  38  68  98 118 150 204 259 303 368
#     4  10  22  37  63  84 124 169 205 243 305 370
#     4   9  19  37  60  87 117 159 200 250 302 361
#     4  11  23  38  59  90 126 163 218 264 295 347
#     4  11  21  38  64  90 123 160 203 250 306 371
#
# _framework density 21.168441000000001
#
# number of rings (size 3 to 8) (size 9 to 14) (size 15 to 20)
#    0.857    0.857    2.857    2.143    2.000    0.571 
#    0.000    1.429    0.000    5.143    0.000    0.000 
#    0.000    0.000    0.000    0.000    0.000    0.000 
#
# Total GULP energy -173470.894163 kJ/mol
# GULP energy per Si atom -12390.778154 kJ/mol
# Density = 2.112026 g / cm^3
# Si number density = 21.168441 Si / 1000 Ang^3
#
#
#
# Elastic Constant Matrix: (Units=GPa)
#
#
# Indices 1 2 3 4 5 6 
#
# 1 70.5654 25.5826 35.4857 -20.2145 -2.6947 3.0134
# 2 25.5826 95.0872 22.5923 -25.6343 2.8395 14.4458
# 3 35.4857 22.5923 91.9223 -31.9079 -2.9291 -1.4376
# 4 -20.2145 -25.6343 -31.9079 36.3516 0.7376 -7.3315
# 5 -2.6947 2.8395 -2.9291 0.7376 22.1275 -8.5052
# 6 3.0134 14.4458 -1.4376 -7.3315 -8.5052 29.7315
#
#
#
# Elastic Compliance Matrix: (Units=1/GPa)
#
#
# Indices 1 2 3 4 5 6 
#
# 1 0.019057 -0.003011 -0.005087 0.004156 0.002263 0.000958
# 2 -0.003011 0.014405 -0.000140 0.007183 -0.004908 -0.006333
# 3 -0.005087 -0.000140 0.017913 0.013914 0.003575 0.005903
# 4 0.004156 0.007183 0.013914 0.049017 0.003588 0.009875
# 5 0.002263 -0.004908 0.003575 0.003588 0.053578 0.018539
# 6 0.000958 -0.006333 0.005903 0.009875 0.018539 0.044639
#
#
# Mechanical properties :
#
#
# Convention : Reuss Voigt Hill
#
# Bulk Modulus (GPa) = 28.65437 47.21068 37.93252
# Shear Modulus (GPa) = 22.05377 29.23641 25.64509
#
# Velocity S-wave (km/s) = 3.23123 3.72039 3.48440
# Velocity P-wave (km/s) = 5.24279 6.38795 5.84349
#
# Compressibility (1/GPa) = 0.03489869
#
# Stress axis : x y z
#
# Youngs Moduli (GPa) = 52.47374 69.41891 55.82555
#
# Poissons Ratio (x) = 0.20904 0.28398
# Poissons Ratio (y) = 0.15801 0.00782
# Poissons Ratio (z) = 0.26693 0.00972
#
# Static dielectric constant tensor:
#      x y z
#    x 3.617540 0.181130 -0.085140 
#    y 0.181130 3.780150 -0.135790 
#    z -0.085140 -0.135790 3.693560 
# 
# 
# High freq. dielectric constant tensor:
#      x y z
#    x 1.794410 0.022040 -0.009880 
#    y 0.022040 1.829300 -0.014480 
#    z -0.009880 -0.014480 1.820760 
# 
# From -- ./inp_files/440913.got.cif
#   From: 2010.06.25/outbox.cif.g09.slc.cpg/sg2_221_cif.got.tgz:440913.got - 2010.06.27 13:26:56.
