data_PCOD8016602
_publ_section_title
;
Structure prediction by ZEFSAII (Michael W. Deem and Ramdas Pophale) SiO2 
 PCOD8016602
Probable space group: P -1
;
_chemical_formula_sum "Si O2"
_cell_formula_units_Z 16
_cell_length_a 8.638795
_cell_length_b 22.708038
_cell_length_c 8.584938
_cell_angle_alpha 149.534581
_cell_angle_beta 127.214463
_cell_angle_gamma 50.979160
_cell_volume 655.086997
_symmetry_space_group_name_H-M "P -1"
_symmetry_group_IT_number 2
_symmetry_cell_setting 'triclinic'
loop_
_space_group_symop_operation_xyz
x,y,z
-x,-y,-z
loop_
_atom_site_type_symbol
_atom_site_label
_atom_site_fract_x
_atom_site_fract_y
_atom_site_fract_z
Si Si1 0.969164 0.892452 0.405759
Si Si2 0.227712 0.852204 0.183330
Si Si3 0.381465 0.157550 0.423050
Si Si4 0.050975 0.378584 0.853352
Si Si5 0.067195 0.352391 0.145751
Si Si6 0.676607 0.297855 0.391926
Si Si7 0.343131 0.489268 0.742582
Si Si8 0.634343 0.103433 0.159166
O O1 0.029437 0.869032 0.207267
O O2 0.163636 0.888299 0.615928
O O3 0.799792 0.017322 0.616267
O O4 0.857149 0.791370 0.151221
O O5 0.432411 0.812653 0.311415
O O6 0.234324 0.748362 0.826375
O O7 0.197065 0.273590 0.602351
O O8 0.436459 0.142203 0.237867
O O9 0.335169 0.036723 0.189143
O O10 0.850387 0.337692 0.680188
O O11 0.124580 0.400942 0.122899
O O12 0.000000 0.500000 0.000000
O O13 0.181810 0.405977 0.475540
O O14 0.820405 0.383636 0.104099
O O15 0.488995 0.418379 0.532681
O O16 0.600609 0.194197 0.199236
O O17 0.500000 0.500000 0.000000
#
# Coordination Sequence:
#
# PCOD8016602 Si02
#       8
#     2   2   2   2   2   2   2   2
#     4  10  21  45  69 103 145 183 235 290 373 435
#     4  10  24  41  69 109 143 182 232 306 362 439
#     4  10  24  44  66 106 143 185 237 296 367 428
#     4  12  27  45  69 106 143 188 251 307 354 426
#     4  11  25  45  75 104 140 200 239 297 365 436
#     4  12  25  43  73 103 141 191 238 301 362 429
#     4  11  24  46  70 103 141 186 247 291 354 431
#     4  10  22  42  71 100 144 187 231 295 362 438
#
# _framework density 24.424236000000001
#
# number of rings (size 3 to 8) (size 9 to 14) (size 15 to 20)
#    0.000    1.250    2.500    1.500    5.250    6.500 
#    0.000    1.875    0.000    0.000    0.000    0.000 
#    0.000    0.000    0.000    0.000    0.000    0.000 
#
# Total GULP energy -198223.964059 kJ/mol
# GULP energy per Si atom -12388.997754 kJ/mol
# Density = 2.436864 g / cm^3
# Si number density = 24.424236 Si / 1000 Ang^3
#
#
#
# Elastic Constant Matrix: (Units=GPa)
#
#
# Indices 1 2 3 4 5 6 
#
# 1 77.4983 31.6731 31.4304 8.3054 -6.9566 -14.5612
# 2 31.6731 67.9525 36.2345 14.1347 -0.5965 -15.2992
# 3 31.4304 36.2345 115.4078 2.8462 -2.0269 -5.9811
# 4 8.3054 14.1347 2.8462 43.0828 -10.4355 -0.2184
# 5 -6.9566 -0.5965 -2.0269 -10.4355 47.7352 8.3305
# 6 -14.5612 -15.2992 -5.9811 -0.2184 8.3305 47.7424
#
#
#
# Elastic Compliance Matrix: (Units=1/GPa)
#
#
# Indices 1 2 3 4 5 6 
#
# 1 0.017079 -0.005740 -0.002658 -0.000821 0.001646 0.002746
# 2 -0.005740 0.022758 -0.005191 -0.006764 -0.003197 0.005419
# 3 -0.002658 -0.005191 0.010926 0.001627 0.000577 -0.001198
# 4 -0.000821 -0.006764 0.001627 0.026997 0.006324 -0.003194
# 5 0.001646 -0.003197 0.000577 0.006324 0.023340 -0.004494
# 6 0.002746 0.005419 -0.001198 -0.003194 -0.004494 0.024139
#
#
# Mechanical properties :
#
#
# Convention : Reuss Voigt Hill
#
# Bulk Modulus (GPa) = 42.39635 51.05940 46.72788
# Shear Modulus (GPa) = 31.19572 38.48015 34.83794
#
# Velocity S-wave (km/s) = 3.57773 3.97355 3.78083
# Velocity P-wave (km/s) = 5.87051 6.48095 6.18327
#
# Compressibility (1/GPa) = 0.02358693
#
# Stress axis : x y z
#
# Youngs Moduli (GPa) = 58.55191 43.93982 91.52199
#
# Poissons Ratio (x) = 0.25221 0.24323
# Poissons Ratio (y) = 0.33609 0.47506
# Poissons Ratio (z) = 0.15561 0.22808
#
# Static dielectric constant tensor:
#      x y z
#    x 4.306540 -0.248160 -0.098440 
#    y -0.248160 4.374890 0.158460 
#    z -0.098440 0.158460 4.600550 
# 
# 
# High freq. dielectric constant tensor:
#      x y z
#    x 1.954280 -0.026080 -0.006590 
#    y -0.026080 1.959760 0.006260 
#    z -0.006590 0.006260 1.990520 
# 
# From -- ./inp_files/226843.got.cif
#   From: 2010.06.25/outbox.cif.g09.slc.cpg/sg2_114_cif.got.tgz:226843.got - 2010.06.27 13:26:56.
