data_PCOD8016309
_publ_section_title
;
Structure prediction by ZEFSAII (Michael W. Deem and Ramdas Pophale) SiO2 
 PCOD8016309
Probable space group: P -1
;
_chemical_formula_sum "Si O2"
_cell_formula_units_Z 16
_cell_length_a 12.691369
_cell_length_b 17.603581
_cell_length_c 8.702951
_cell_angle_alpha 120.301403
_cell_angle_beta 130.845019
_cell_angle_gamma 28.774402
_cell_volume 695.302722
_symmetry_space_group_name_H-M "P -1"
_symmetry_group_IT_number 2
_symmetry_cell_setting 'triclinic'
loop_
_space_group_symop_operation_xyz
x,y,z
-x,-y,-z
loop_
_atom_site_type_symbol
_atom_site_label
_atom_site_fract_x
_atom_site_fract_y
_atom_site_fract_z
Si Si1 0.572230 0.159401 0.394362
Si Si2 0.160267 0.155646 0.147814
Si Si3 0.602903 0.852138 0.059827
Si Si4 0.388565 0.695317 0.623220
Si Si5 0.102157 0.682712 0.245648
Si Si6 0.915774 0.614120 0.661402
Si Si7 0.804924 0.027664 0.799788
Si Si8 0.581996 0.695856 0.064291
O O1 0.568933 0.082438 0.186992
O O2 0.649696 0.212465 0.452514
O O3 0.287523 0.320706 0.352175
O O4 0.771975 0.030919 0.589617
O O5 0.179665 0.239734 0.340836
O O6 0.102988 0.110987 0.172958
O O7 0.934733 0.279066 0.932480
O O8 0.428478 0.999948 0.159774
O O9 0.693289 0.714920 0.084572
O O10 0.845541 0.779956 0.171057
O O11 0.162314 0.744937 0.445222
O O12 0.666252 0.504440 0.684368
O O13 0.362966 0.757715 0.827843
O O14 0.000000 0.500000 0.500000
O O15 0.179058 0.494877 0.880449
O O16 0.529612 0.204244 0.782988
O O17 0.000000 0.000000 0.000000
#
# Coordination Sequence:
#
# PCOD8016309 Si02
#       8
#     2   2   2   2   2   2   2   2
#     4  11  22  42  69  95 132 174 227 263 336 384
#     4  11  24  43  69  97 135 170 225 275 326 392
#     4  10  22  41  71 100 126 170 219 287 321 382
#     4  10  22  38  68  98 132 173 213 284 324 398
#     4  11  20  38  64 104 134 158 223 275 343 374
#     4  12  23  42  69  97 131 174 223 275 318 393
#     4  11  25  45  65  96 140 181 215 266 335 407
#     4  10  21  44  66  95 129 175 224 263 331 390
#
# _framework density 23.011561
#
# number of rings (size 3 to 8) (size 9 to 14) (size 15 to 20)
#    0.000    1.250    3.750    1.875    0.000    3.500 
#    0.000    8.125    0.000    0.000    0.000    0.000 
#    0.000    0.000    0.000    0.000    0.000    0.000 
#
# Total GULP energy -198360.197801 kJ/mol
# GULP energy per Si atom -12397.512363 kJ/mol
# Density = 2.295919 g / cm^3
# Si number density = 23.011561 Si / 1000 Ang^3
#
#
#
# Elastic Constant Matrix: (Units=GPa)
#
#
# Indices 1 2 3 4 5 6 
#
# 1 117.8475 38.1883 66.5678 2.5160 12.9707 23.7110
# 2 38.1883 82.9837 42.1299 12.2331 5.4343 22.1073
# 3 66.5678 42.1299 129.2306 6.6998 12.9598 8.2423
# 4 2.5160 12.2331 6.6998 42.9604 3.7371 1.4538
# 5 12.9707 5.4343 12.9598 3.7371 42.9857 0.1501
# 6 23.7110 22.1073 8.2423 1.4538 0.1501 26.3494
#
#
#
# Elastic Compliance Matrix: (Units=1/GPa)
#
#
# Indices 1 2 3 4 5 6 
#
# 1 0.014798 -0.000576 -0.006544 0.000898 -0.002460 -0.010821
# 2 -0.000576 0.019035 -0.004780 -0.004143 -0.000383 -0.013726
# 3 -0.006544 -0.004780 0.012414 -0.000295 -0.001159 0.006040
# 4 0.000898 -0.004143 -0.000295 0.024559 -0.001798 0.001416
# 5 -0.002460 -0.000383 -0.001159 -0.001798 0.024550 0.002857
# 6 -0.010821 -0.013726 0.006040 0.001416 0.002857 0.057222
#
#
# Mechanical properties :
#
#
# Convention : Reuss Voigt Hill
#
# Bulk Modulus (GPa) = 44.55176 69.31487 56.93332
# Shear Modulus (GPa) = 27.19456 34.67081 30.93269
#
# Velocity S-wave (km/s) = 3.44143 3.88579 3.67034
# Velocity P-wave (km/s) = 5.93244 7.09364 6.53887
#
# Compressibility (1/GPa) = 0.02244580
#
# Stress axis : x y z
#
# Youngs Moduli (GPa) = 67.57871 52.53469 80.55465
#
# Poissons Ratio (x) = 0.03024 0.52718
# Poissons Ratio (y) = 0.03890 0.38508
# Poissons Ratio (z) = 0.44226 0.25113
#
# Static dielectric constant tensor:
#      x y z
#    x 4.121880 0.210720 -0.078720 
#    y 0.210720 4.284580 -0.086760 
#    z -0.078720 -0.086760 4.476420 
# 
# 
# High freq. dielectric constant tensor:
#      x y z
#    x 1.901090 0.015190 0.004970 
#    y 0.015190 1.914620 0.002960 
#    z 0.004970 0.002960 1.922860 
# 
# From -- ./inp_files/279730.got.cif
#   From: 2010.06.25/outbox.cif.g09.slc.cpg/sg2_140_cif.got.tgz:279730.got - 2010.06.27 13:26:56.
