data_PCOD8016284
_publ_section_title
;
Structure prediction by ZEFSAII (Michael W. Deem and Ramdas Pophale) SiO2 
 PCOD8016284
Probable space group: P -1
;
_chemical_formula_sum "Si O2"
_cell_formula_units_Z 16
_cell_length_a 8.170673
_cell_length_b 11.829799
_cell_length_c 26.579664
_cell_angle_alpha 29.510399
_cell_angle_beta 44.114485
_cell_angle_gamma 35.949492
_cell_volume 742.137777
_symmetry_space_group_name_H-M "P -1"
_symmetry_group_IT_number 2
_symmetry_cell_setting 'triclinic'
loop_
_space_group_symop_operation_xyz
x,y,z
-x,-y,-z
loop_
_atom_site_type_symbol
_atom_site_label
_atom_site_fract_x
_atom_site_fract_y
_atom_site_fract_z
Si Si1 0.419904 0.263017 0.884064
Si Si2 0.586773 0.674746 0.709891
Si Si3 0.697536 0.205589 0.631126
Si Si4 0.186222 0.315430 0.158279
Si Si5 0.386907 0.991658 0.904307
Si Si6 0.967171 0.752318 0.380978
Si Si7 0.240810 0.605396 0.121319
Si Si8 0.104048 0.505069 0.597164
O O1 0.599650 0.397934 0.799684
O O2 0.104229 0.490914 0.880652
O O3 0.451210 0.181782 0.849808
O O4 0.500000 0.000000 0.000000
O O5 0.640958 0.645723 0.768985
O O6 0.829022 0.679791 0.624165
O O7 0.300471 0.960337 0.652366
O O8 0.369024 0.354369 0.634349
O O9 0.857484 0.290302 0.524922
O O10 0.758111 0.251996 0.658453
O O11 0.835866 0.881971 0.720270
O O12 0.411497 0.127355 0.140769
O O13 0.270622 0.497260 0.099811
O O14 0.416884 0.749665 0.027069
O O15 0.076890 0.169964 0.880990
O O16 0.936192 0.704899 0.346947
O O17 0.000000 0.500000 0.500000
#
# Coordination Sequence:
#
# PCOD8016284 Si02
#       8
#     2   2   2   2   2   2   2   2
#     4  11  24  42  61  95 136 167 224 273 312 406
#     4  12  23  43  68  97 133 177 215 273 340 385
#     4  10  21  44  65  98 133 168 226 273 321 408
#     4  11  22  41  65  90 129 178 214 269 339 383
#     4  10  22  41  63  92 128 178 216 269 333 389
#     4  10  23  44  65  97 133 171 225 278 322 400
#     4  10  22  40  63  95 132 160 228 276 316 404
#     4  10  24  43  69  96 135 174 220 276 334 393
#
# _framework density 21.559339999999999
#
# number of rings (size 3 to 8) (size 9 to 14) (size 15 to 20)
#    0.000    1.500    2.500    1.875    1.750    2.500 
#    4.500   10.000    0.000    0.000    0.000    0.000 
#    0.000    0.000    0.000    0.000    0.000    0.000 
#
# Total GULP energy -198287.668553 kJ/mol
# GULP energy per Si atom -12392.979285 kJ/mol
# Density = 2.151027 g / cm^3
# Si number density = 21.559340 Si / 1000 Ang^3
#
#
#
# Elastic Constant Matrix: (Units=GPa)
#
#
# Indices 1 2 3 4 5 6 
#
# 1 123.4141 45.6043 23.1375 2.8120 1.2390 -10.8654
# 2 45.6043 111.8528 44.4020 -5.3594 6.9585 0.8621
# 3 23.1375 44.4020 101.4944 -16.7545 7.0180 -10.4008
# 4 2.8120 -5.3594 -16.7545 32.1359 -2.3516 7.1793
# 5 1.2390 6.9585 7.0180 -2.3516 27.4007 -9.0098
# 6 -10.8654 0.8621 -10.4008 7.1793 -9.0098 23.2043
#
#
#
# Elastic Compliance Matrix: (Units=1/GPa)
#
#
# Indices 1 2 3 4 5 6 
#
# 1 0.010506 -0.004490 -0.000446 -0.003255 0.002795 0.006979
# 2 -0.004490 0.013076 -0.004908 0.001223 -0.003960 -0.006704
# 3 -0.000446 -0.004908 0.013425 0.005249 -0.000327 0.004240
# 4 -0.003255 0.001223 0.005249 0.036736 -0.002103 -0.011400
# 5 0.002795 -0.003960 -0.000327 -0.002103 0.043473 0.018839
# 6 0.006979 -0.006704 0.004240 -0.011400 0.018839 0.059355
#
#
# Mechanical properties :
#
#
# Convention : Reuss Voigt Hill
#
# Bulk Modulus (GPa) = 57.74216 62.56097 60.15156
# Shear Modulus (GPa) = 24.74844 31.45602 28.10223
#
# Velocity S-wave (km/s) = 3.39178 3.82389 3.61429
# Velocity P-wave (km/s) = 6.49460 6.96973 6.73636
#
# Compressibility (1/GPa) = 0.01731837
#
# Stress axis : x y z
#
# Youngs Moduli (GPa) = 95.18234 76.47585 74.48575
#
# Poissons Ratio (x) = 0.34338 0.03324
# Poissons Ratio (y) = 0.42737 0.36560
# Poissons Ratio (z) = 0.04248 0.37537
#
# Static dielectric constant tensor:
#      x y z
#    x 4.681400 0.184100 -0.265110 
#    y 0.184100 3.634600 -0.279760 
#    z -0.265110 -0.279760 4.030020 
# 
# 
# High freq. dielectric constant tensor:
#      x y z
#    x 1.864150 0.001570 -0.003400 
#    y 0.001570 1.824830 -0.017070 
#    z -0.003400 -0.017070 1.851720 
# 
# From -- ./inp_files/117284.got.cif
#   From: 2010.06.25/outbox.cif.g09.slc.cpg/sg2_59_cif.got.tgz:117284.got - 2010.06.27 13:26:56.
