data_PCOD8016440
_publ_section_title
;
Structure prediction by ZEFSAII (Michael W. Deem and Ramdas Pophale) SiO2 
 PCOD8016440
Probable space group: P -1
;
_chemical_formula_sum "Si O2"
_cell_formula_units_Z 14
_cell_length_a 9.130787
_cell_length_b 8.888462
_cell_length_c 11.427307
_cell_angle_alpha 62.767376
_cell_angle_beta 61.832925
_cell_angle_gamma 53.109586
_cell_volume 633.617756
_symmetry_space_group_name_H-M "P -1"
_symmetry_group_IT_number 2
_symmetry_cell_setting 'triclinic'
loop_
_space_group_symop_operation_xyz
x,y,z
-x,-y,-z
loop_
_atom_site_type_symbol
_atom_site_label
_atom_site_fract_x
_atom_site_fract_y
_atom_site_fract_z
Si Si1 0.719854 0.723889 0.733709
Si Si2 0.872759 0.968473 0.966558
Si Si3 0.725695 0.348217 0.768660
Si Si4 0.094680 0.272102 0.561124
Si Si5 0.010737 0.646436 0.852002
Si Si6 0.359039 0.107404 0.745423
Si Si7 0.574498 0.564020 0.338069
O O1 0.742102 0.511987 0.779136
O O2 0.794889 0.812206 0.571435
O O3 0.828065 0.716398 0.813494
O O4 0.496656 0.876979 0.770494
O O5 0.993939 0.832925 0.860913
O O6 0.713891 0.184979 0.909196
O O7 0.780585 0.854207 0.106627
O O8 0.000000 0.000000 0.000000
O O9 0.537880 0.451540 0.724947
O O10 0.921394 0.227736 0.662314
O O11 0.242811 0.191403 0.640281
O O12 0.000000 0.500000 0.500000
O O13 0.199998 0.561075 0.730119
O O14 0.000000 0.500000 0.000000
O O15 0.477839 0.215953 0.692640
O O16 0.500000 0.500000 0.500000
#
# Coordination Sequence:
#
# PCOD8016440 Si02
#       7
#     2   2   2   2   2   2   2
#     4  11  25  44  72 103 141 189 238 292 360 424
#     4  12  26  46  72 102 143 188 244 292 353 431
#     4  11  24  42  70 104 141 185 238 292 351 422
#     4  10  21  44  70  99 140 186 232 293 355 417
#     4  12  26  47  72 101 145 192 235 293 361 416
#     4  12  25  45  72 102 146 188 236 296 356 425
#     4  12  26  46  72 108 143 186 244 295 354 425
#
# _framework density 22.09534
#
# number of rings (size 3 to 8) (size 9 to 14) (size 15 to 20)
#    0.000    0.571    2.857    6.429    4.000    2.857 
#    0.000    2.857    0.000    0.000    0.000    0.000 
#    0.000    0.000    0.000    0.000    0.000    0.000 
#
# Total GULP energy -173583.537430 kJ/mol
# GULP energy per Si atom -12398.824102 kJ/mol
# Density = 2.204505 g / cm^3
# Si number density = 22.095340 Si / 1000 Ang^3
#
#
#
# Elastic Constant Matrix: (Units=GPa)
#
#
# Indices 1 2 3 4 5 6 
#
# 1 124.6881 37.0781 42.9158 -13.1721 16.7960 -7.9415
# 2 37.0781 111.8558 45.4830 -4.9607 8.6669 -1.4766
# 3 42.9158 45.4830 137.6186 -8.0715 5.7870 0.0145
# 4 -13.1721 -4.9607 -8.0715 30.6895 -3.5311 -2.6997
# 5 16.7960 8.6669 5.7870 -3.5311 43.1362 -7.0282
# 6 -7.9415 -1.4766 0.0145 -2.6997 -7.0282 41.4474
#
#
#
# Elastic Compliance Matrix: (Units=1/GPa)
#
#
# Indices 1 2 3 4 5 6 
#
# 1 0.010221 -0.002124 -0.002178 0.003301 -0.002724 0.001637
# 2 -0.002124 0.010897 -0.002899 -0.000046 -0.001008 -0.000192
# 3 -0.002178 -0.002899 0.008949 0.000941 0.000238 -0.000422
# 4 0.003301 -0.000046 0.000941 0.034752 0.001968 0.003228
# 5 -0.002724 -0.001008 0.000238 0.001968 0.025201 0.003844
# 6 0.001637 -0.000192 -0.000422 0.003228 0.003844 0.025296
#
#
# Mechanical properties :
#
#
# Convention : Reuss Voigt Hill
#
# Bulk Modulus (GPa) = 63.83407 69.45736 66.64572
# Shear Modulus (GPa) = 37.05410 39.63364 38.34387
#
# Velocity S-wave (km/s) = 4.09957 4.23987 4.17031
# Velocity P-wave (km/s) = 7.16671 7.44797 7.30869
#
# Compressibility (1/GPa) = 0.01566562
#
# Stress axis : x y z
#
# Youngs Moduli (GPa) = 97.83883 91.77246 111.74506
#
# Poissons Ratio (x) = 0.19488 0.24333
# Poissons Ratio (y) = 0.20776 0.32399
# Poissons Ratio (z) = 0.21304 0.26608
#
# Static dielectric constant tensor:
#      x y z
#    x 3.880910 0.010520 -0.028960 
#    y 0.010520 3.848580 0.237080 
#    z -0.028960 0.237080 4.230510 
# 
# 
# High freq. dielectric constant tensor:
#      x y z
#    x 1.871750 -0.003670 0.003420 
#    y -0.003670 1.869370 -0.005570 
#    z 0.003420 -0.005570 1.886580 
# 
# From -- ./inp_files/222820.got.cif
#   From: 2010.06.25/outbox.cif.g09.slc.cpg/sg2_112_cif.got.tgz:222820.got - 2010.06.27 13:26:56.
