data_PCOD8016532
_publ_section_title
;
Structure prediction by ZEFSAII (Michael W. Deem and Ramdas Pophale) SiO2 
 PCOD8016532
Probable space group: P -1
;
_chemical_formula_sum "Si O2"
_cell_formula_units_Z 16
_cell_length_a 14.472517
_cell_length_b 13.647234
_cell_length_c 8.334456
_cell_angle_alpha 118.878692
_cell_angle_beta 123.272563
_cell_angle_gamma 29.853341
_cell_volume 684.989181
_symmetry_space_group_name_H-M "P -1"
_symmetry_group_IT_number 2
_symmetry_cell_setting 'triclinic'
loop_
_space_group_symop_operation_xyz
x,y,z
-x,-y,-z
loop_
_atom_site_type_symbol
_atom_site_label
_atom_site_fract_x
_atom_site_fract_y
_atom_site_fract_z
Si Si1 0.802132 0.486056 0.897904
Si Si2 0.848917 0.758616 0.745005
Si Si3 0.440216 0.394574 0.983545
Si Si4 0.025046 0.265933 0.649845
Si Si5 0.294124 0.195846 0.029508
Si Si6 0.705433 0.643679 0.449867
Si Si7 0.308023 0.939361 0.420223
Si Si8 0.769228 0.203171 0.952513
O O1 0.916876 0.307682 0.741396
O O2 0.601865 0.599477 0.864792
O O3 0.748826 0.637183 0.856503
O O4 0.928929 0.412622 0.118752
O O5 0.806545 0.679634 0.542111
O O6 0.800009 0.904165 0.702295
O O7 0.716049 0.863307 0.860315
O O8 0.392852 0.323806 0.777696
O O9 0.665924 0.242294 0.049554
O O10 0.291708 0.618141 0.977271
O O11 0.868827 0.420735 0.485789
O O12 0.129225 0.293152 0.825445
O O13 0.189359 0.047592 0.559852
O O14 0.500000 0.000000 0.000000
O O15 0.528685 0.802519 0.538257
O O16 0.318480 0.798868 0.276704
O O17 0.000000 0.000000 0.000000
#
# Coordination Sequence:
#
# PCOD8016532 Si02
#       8
#     2   2   2   2   2   2   2   2
#     4  11  22  41  59  91 131 171 204 245 311 374
#     4  11  21  39  57  95 130 171 202 243 305 373
#     4  10  24  39  69  91 118 162 206 264 310 363
#     4  11  22  40  58  90 133 170 199 254 305 368
#     4  11  23  37  59  87 137 173 208 244 301 375
#     4  11  21  39  60  94 129 158 208 254 307 367
#     4  11  25  37  66  94 124 163 213 259 306 366
#     4  10  21  45  64  91 118 154 214 264 311 360
#
# _framework density 23.358035000000001
#
# number of rings (size 3 to 8) (size 9 to 14) (size 15 to 20)
#    0.000    1.250    2.500    4.125    5.250    1.000 
#    0.000    0.625    0.000   12.000    0.000    0.000 
#    0.000    0.000    0.000    0.000    0.000    0.000 
#
# Total GULP energy -198270.650693 kJ/mol
# GULP energy per Si atom -12391.915668 kJ/mol
# Density = 2.330487 g / cm^3
# Si number density = 23.358035 Si / 1000 Ang^3
#
#
#
# Elastic Constant Matrix: (Units=GPa)
#
#
# Indices 1 2 3 4 5 6 
#
# 1 97.9531 32.1461 29.3754 16.5967 -19.2081 -40.5385
# 2 32.1461 101.1242 12.5878 12.1711 -8.9271 -36.8458
# 3 29.3754 12.5878 57.2515 16.5970 -3.0654 2.0032
# 4 16.5967 12.1711 16.5970 41.2155 -6.5120 -10.3096
# 5 -19.2081 -8.9271 -3.0654 -6.5120 25.5411 15.1085
# 6 -40.5385 -36.8458 2.0032 -10.3096 15.1085 46.3359
#
#
#
# Elastic Compliance Matrix: (Units=1/GPa)
#
#
# Indices 1 2 3 4 5 6 
#
# 1 0.022777 0.002369 -0.013144 0.001412 0.004108 0.021354
# 2 0.002369 0.015057 -0.005212 0.000082 -0.002494 0.015103
# 3 -0.013144 -0.005212 0.028813 -0.009468 0.000712 -0.019228
# 4 0.001412 0.000082 -0.009468 0.029818 0.003247 0.007286
# 5 0.004108 -0.002494 0.000712 0.003247 0.050701 -0.014229
# 6 0.021354 0.015103 -0.019228 0.007286 -0.014229 0.059365
#
#
# Mechanical properties :
#
#
# Convention : Reuss Voigt Hill
#
# Bulk Modulus (GPa) = 28.84118 44.94969 36.89544
# Shear Modulus (GPa) = 19.99493 34.76648 27.38070
#
# Velocity S-wave (km/s) = 2.92895 3.86219 3.42748
# Velocity P-wave (km/s) = 4.87982 6.25893 5.61190
#
# Compressibility (1/GPa) = 0.03467265
#
# Stress axis : x y z
#
# Youngs Moduli (GPa) = 43.90329 66.41261 34.70711
#
# Poissons Ratio (x) = -0.15732 0.45620
# Poissons Ratio (y) = -0.10400 0.18089
# Poissons Ratio (z) = 0.57708 0.34613
#
# Static dielectric constant tensor:
#      x y z
#    x 4.354540 -0.528270 0.020730 
#    y -0.528270 4.441130 0.261800 
#    z 0.020730 0.261800 4.133740 
# 
# 
# High freq. dielectric constant tensor:
#      x y z
#    x 1.912040 -0.039070 -0.007130 
#    y -0.039070 1.926260 0.014050 
#    z -0.007130 0.014050 1.909680 
# 
# From -- ./inp_files/315988.got.cif
#   From: 2010.06.25/outbox.cif.g09.slc.cpg/sg2_158_cif.got.tgz:315988.got - 2010.06.27 13:26:56.
