data_PCOD8016728
_publ_section_title
;
Structure prediction by ZEFSAII (Michael W. Deem and Ramdas Pophale) SiO2 
 PCOD8016728
Probable space group: P -1
;
_chemical_formula_sum "Si O2"
_cell_formula_units_Z 16
_cell_length_a 13.978487
_cell_length_b 13.283343
_cell_length_c 15.060599
_cell_angle_alpha 30.229550
_cell_angle_beta 141.074815
_cell_angle_gamma 118.349815
_cell_volume 691.405145
_symmetry_space_group_name_H-M "P -1"
_symmetry_group_IT_number 2
_symmetry_cell_setting 'triclinic'
loop_
_space_group_symop_operation_xyz
x,y,z
-x,-y,-z
loop_
_atom_site_type_symbol
_atom_site_label
_atom_site_fract_x
_atom_site_fract_y
_atom_site_fract_z
Si Si1 0.926286 0.484613 0.590259
Si Si2 0.798262 0.038761 0.107946
Si Si3 0.662898 0.759016 0.920616
Si Si4 0.463014 0.291278 0.958916
Si Si5 0.211893 0.758087 0.865265
Si Si6 0.706350 0.709411 0.790335
Si Si7 0.955424 0.288035 0.943016
Si Si8 0.571048 0.846134 0.263758
O O1 0.757289 0.528437 0.375330
O O2 0.956421 0.294348 0.833127
O O3 0.141002 0.323654 0.822641
O O4 0.883667 0.743600 0.400120
O O5 0.750984 0.169990 0.069433
O O6 0.934564 0.076519 0.121817
O O7 0.585924 0.194433 0.790784
O O8 0.721180 0.619473 0.972747
O O9 0.517795 0.062505 0.567632
O O10 0.556415 0.689716 0.962497
O O11 0.604831 0.352896 0.984336
O O12 0.576379 0.004017 0.224767
O O13 0.210120 0.519500 0.044968
O O14 0.000000 0.000000 0.500000
O O15 0.840117 0.796808 0.807103
O O16 0.780298 0.575862 0.625584
O O17 0.500000 0.000000 0.000000
#
# Coordination Sequence:
#
# PCOD8016728 Si02
#       8
#     2   2   2   2   2   2   2   2
#     4  10  21  47  66  96 132 162 215 278 312 381
#     4  11  23  38  69 100 126 169 213 257 341 381
#     4  10  23  46  65  85 127 178 217 266 313 374
#     4  11  22  39  70  93 125 174 210 260 336 372
#     4  12  24  40  62 100 132 165 214 267 318 395
#     4  10  25  44  61  90 133 168 221 266 308 381
#     4  11  21  40  66  92 132 169 206 266 326 380
#     4  11  19  40  64  95 136 163 200 273 328 381
#
# _framework density 23.141279000000001
#
# number of rings (size 3 to 8) (size 9 to 14) (size 15 to 20)
#    0.000    1.250    3.750    3.000    3.500    1.000 
#    9.000    0.625    0.000    0.000    0.000    0.000 
#    0.000    0.000    0.000    0.000    0.000    0.000 
#
# Total GULP energy -198220.823787 kJ/mol
# GULP energy per Si atom -12388.801487 kJ/mol
# Density = 2.308861 g / cm^3
# Si number density = 23.141279 Si / 1000 Ang^3
#
#
#
# Elastic Constant Matrix: (Units=GPa)
#
#
# Indices 1 2 3 4 5 6 
#
# 1 121.3813 16.3351 10.7969 7.0714 3.3632 29.0179
# 2 16.3351 71.2160 13.4196 4.2666 0.6257 12.8568
# 3 10.7969 13.4196 109.0592 10.8663 24.6741 6.5248
# 4 7.0714 4.2666 10.8663 19.3943 5.2110 5.1654
# 5 3.3632 0.6257 24.6741 5.2110 30.0061 -1.1188
# 6 29.0179 12.8568 6.5248 5.1654 -1.1188 29.2885
#
#
#
# Elastic Compliance Matrix: (Units=1/GPa)
#
#
# Indices 1 2 3 4 5 6 
#
# 1 0.010903 -0.000556 0.000025 -0.000664 -0.001507 -0.010504
# 2 -0.000556 0.015562 -0.001656 -0.001068 0.001073 -0.005682
# 3 0.000025 -0.001656 0.011897 -0.003377 -0.009228 -0.001705
# 4 -0.000664 -0.001068 -0.003377 0.058279 -0.007572 -0.008688
# 5 -0.001507 0.001073 -0.009228 -0.007572 0.042602 0.006040
# 6 -0.010504 -0.005682 -0.001705 -0.008688 0.006040 0.049187
#
#
# Mechanical properties :
#
#
# Convention : Reuss Voigt Hill
#
# Bulk Modulus (GPa) = 29.42416 42.52885 35.97650
# Shear Modulus (GPa) = 24.49383 33.14477 28.81930
#
# Velocity S-wave (km/s) = 3.25691 3.78865 3.53280
# Velocity P-wave (km/s) = 5.18516 6.12832 5.67636
#
# Compressibility (1/GPa) = 0.03398568
#
# Stress axis : x y z
#
# Youngs Moduli (GPa) = 91.72073 64.26014 84.05481
#
# Poissons Ratio (x) = 0.03574 -0.00207
# Poissons Ratio (y) = 0.05101 0.13922
# Poissons Ratio (z) = -0.00226 0.10644
#
# Static dielectric constant tensor:
#      x y z
#    x 4.307630 0.461740 0.339250 
#    y 0.461740 3.616560 0.157440 
#    z 0.339250 0.157440 4.232540 
# 
# 
# High freq. dielectric constant tensor:
#      x y z
#    x 1.919480 0.007610 0.021490 
#    y 0.007610 1.891300 0.016110 
#    z 0.021490 0.016110 1.919000 
# 
# From -- ./inp_files/522203.got.cif
#   From: 2010.06.25/outbox.cif.g09.slc.cpg/sg2_262_cif.got.tgz:522203.got - 2010.06.27 13:26:56.
