data_PCOD8016466
_publ_section_title
;
Structure prediction by ZEFSAII (Michael W. Deem and Ramdas Pophale) SiO2 
 PCOD8016466
Probable space group: P -1
;
_chemical_formula_sum "Si O2"
_cell_formula_units_Z 16
_cell_length_a 12.270855
_cell_length_b 9.174717
_cell_length_c 15.487217
_cell_angle_alpha 80.367912
_cell_angle_beta 26.430202
_cell_angle_gamma 92.288855
_cell_volume 689.895321
_symmetry_space_group_name_H-M "P -1"
_symmetry_group_IT_number 2
_symmetry_cell_setting 'triclinic'
loop_
_space_group_symop_operation_xyz
x,y,z
-x,-y,-z
loop_
_atom_site_type_symbol
_atom_site_label
_atom_site_fract_x
_atom_site_fract_y
_atom_site_fract_z
Si Si1 0.441977 0.595842 0.954349
Si Si2 0.358737 0.221659 0.674550
Si Si3 0.977024 0.166536 0.515490
Si Si4 0.241106 0.384419 0.960417
Si Si5 0.934155 0.296684 0.704422
Si Si6 0.174674 0.847651 0.837292
Si Si7 0.301829 0.674764 0.408526
Si Si8 0.454203 0.314962 0.408868
O O1 0.720226 0.693579 0.696886
O O2 0.227019 0.469704 0.051589
O O3 0.500000 0.500000 0.000000
O O4 0.332064 0.728123 0.049216
O O5 0.601167 0.295637 0.564191
O O6 0.458964 0.334487 0.507308
O O7 0.306880 0.038506 0.703176
O O8 0.071949 0.210242 0.913719
O O9 0.825696 0.182642 0.707788
O O10 0.824848 0.199489 0.538515
O O11 0.000000 0.000000 0.500000
O O12 0.436558 0.291773 0.841235
O O13 0.374163 0.508338 0.772994
O O14 0.939484 0.254209 0.161066
O O15 0.074103 0.492337 0.568789
O O16 0.137991 0.238622 0.614064
O O17 0.412398 0.802820 0.707704
#
# Coordination Sequence:
#
# PCOD8016466 Si02
#       8
#     2   2   2   2   2   2   2   2
#     4  12  24  45  72  98 133 185 234 277 337 411
#     4  10  24  41  68 100 136 185 220 278 342 401
#     4  12  26  47  72 102 137 173 224 293 345 395
#     4  10  23  42  68 102 131 183 227 283 330 405
#     4  11  25  43  70 103 133 180 231 276 338 412
#     4  10  23  43  62 100 141 177 223 277 340 402
#     4  10  21  44  71  96 136 180 227 272 341 413
#     4  11  23  41  67  95 141 174 227 275 333 405
#
# _framework density 23.191925999999999
#
# number of rings (size 3 to 8) (size 9 to 14) (size 15 to 20)
#    0.000    1.250    3.750    1.875    5.250    5.000 
#    6.750    0.000    0.000    0.000    0.000    0.000 
#    0.000    0.000    0.000    0.000    0.000    0.000 
#
# Total GULP energy -198378.209550 kJ/mol
# GULP energy per Si atom -12398.638097 kJ/mol
# Density = 2.313914 g / cm^3
# Si number density = 23.191926 Si / 1000 Ang^3
#
#
#
# Elastic Constant Matrix: (Units=GPa)
#
#
# Indices 1 2 3 4 5 6 
#
# 1 142.5965 65.9921 30.8736 17.7372 8.4135 2.4656
# 2 65.9921 126.3522 27.9442 25.1835 3.1371 0.4460
# 3 30.8736 27.9442 48.7657 22.5029 -3.3532 -3.9500
# 4 17.7372 25.1835 22.5029 39.5959 -3.3678 -9.7044
# 5 8.4135 3.1371 -3.3532 -3.3678 31.3108 15.8834
# 6 2.4656 0.4460 -3.9500 -9.7044 15.8834 45.4346
#
#
#
# Elastic Compliance Matrix: (Units=1/GPa)
#
#
# Indices 1 2 3 4 5 6 
#
# 1 0.010041 -0.004329 -0.004282 0.000503 -0.002771 0.000201
# 2 -0.004329 0.011501 -0.001823 -0.004589 -0.000197 -0.000948
# 3 -0.004282 -0.001823 0.031182 -0.014690 0.003868 -0.001529
# 4 0.000503 -0.004589 -0.014690 0.037977 -0.000778 0.007124
# 5 -0.002771 -0.000197 0.003868 -0.000778 0.039955 -0.013645
# 6 0.000201 -0.000948 -0.001529 0.007124 -0.013645 0.028167
#
#
# Mechanical properties :
#
#
# Convention : Reuss Voigt Hill
#
# Bulk Modulus (GPa) = 31.39098 63.03711 47.21405
# Shear Modulus (GPa) = 26.27284 36.12857 31.20071
#
# Velocity S-wave (km/s) = 3.36943 3.95119 3.67185
# Velocity P-wave (km/s) = 5.35743 6.93221 6.19506
#
# Compressibility (1/GPa) = 0.03185628
#
# Stress axis : x y z
#
# Youngs Moduli (GPa) = 99.59165 86.94528 32.06934
#
# Poissons Ratio (x) = 0.37642 0.13734
# Poissons Ratio (y) = 0.43117 0.05845
# Poissons Ratio (z) = 0.42650 0.15846
#
# Static dielectric constant tensor:
#      x y z
#    x 4.096400 -0.067730 -0.263610 
#    y -0.067730 4.217190 0.352480 
#    z -0.263610 0.352480 4.298440 
# 
# 
# High freq. dielectric constant tensor:
#      x y z
#    x 1.914130 0.002740 -0.011630 
#    y 0.002740 1.913640 0.029610 
#    z -0.011630 0.029610 1.912740 
# 
# From -- ./inp_files/299677.got.cif
#   From: 2010.06.25/outbox.cif.g09.slc.cpg/sg2_150_cif.got.tgz:299677.got - 2010.06.27 13:26:56.
