data_PCOD8016431
_publ_section_title
;
Structure prediction by ZEFSAII (Michael W. Deem and Ramdas Pophale) SiO2 
 PCOD8016431
Probable space group: P -1
;
_chemical_formula_sum "Si O2"
_cell_formula_units_Z 16
_cell_length_a 19.290613
_cell_length_b 5.286152
_cell_length_c 16.946737
_cell_angle_alpha 88.244669
_cell_angle_beta 159.507698
_cell_angle_gamma 97.949711
_cell_volume 574.262579
_symmetry_space_group_name_H-M "P -1"
_symmetry_group_IT_number 2
_symmetry_cell_setting 'triclinic'
loop_
_space_group_symop_operation_xyz
x,y,z
-x,-y,-z
loop_
_atom_site_type_symbol
_atom_site_label
_atom_site_fract_x
_atom_site_fract_y
_atom_site_fract_z
Si Si1 0.594508 0.853312 0.447533
Si Si2 0.822238 0.131813 0.819070
Si Si3 0.295803 0.858250 0.586289
Si Si4 0.928362 0.563353 0.794578
Si Si5 0.979670 0.015648 0.342585
Si Si6 0.824732 0.642511 0.320982
Si Si7 0.517805 0.449559 0.876803
Si Si8 0.811718 0.412219 0.069273
O O1 0.757029 0.705729 0.592916
O O2 0.609079 0.917663 0.557900
O O3 0.674215 0.133407 0.477987
O O4 0.364180 0.673231 0.184737
O O5 0.856423 0.371278 0.792542
O O6 0.845867 0.226388 0.934833
O O7 0.000000 0.000000 0.000000
O O8 0.372250 0.633751 0.710533
O O9 0.066742 0.823214 0.381489
O O10 0.432841 0.157510 0.753003
O O11 0.978873 0.448456 0.763486
O O12 0.180215 0.255364 0.594095
O O13 0.840421 0.149183 0.141884
O O14 0.860435 0.890399 0.296156
O O15 0.000000 0.500000 0.500000
O O16 0.599121 0.443747 0.053802
O O17 0.733892 0.583986 0.051276
#
# Coordination Sequence:
#
# PCOD8016431 Si02
#       8
#     2   2   2   2   2   2   2   2
#     4  10  22  40  68  99 141 172 228 287 343 411
#     4   9  21  42  65  99 137 179 224 280 343 419
#     4  11  26  45  71 105 140 182 236 298 350 419
#     4  10  21  44  70  97 136 180 229 280 349 413
#     4  11  25  45  70 102 138 187 236 289 360 417
#     4  11  24  44  68  95 143 187 233 294 353 421
#     4  11  26  46  68 103 143 179 239 296 352 421
#     4  11  23  45  69 103 135 182 233 289 349 412
#
# _framework density 27.861822
#
# number of rings (size 3 to 8) (size 9 to 14) (size 15 to 20)
#    0.000    1.500    2.500    1.500    7.000    2.500 
#    9.000    5.625    0.000    0.000    0.000    0.000 
#    0.000    0.000    0.000    0.000    0.000    0.000 
#
# Total GULP energy -198245.123726 kJ/mol
# GULP energy per Si atom -12390.320233 kJ/mol
# Density = 2.779841 g / cm^3
# Si number density = 27.861822 Si / 1000 Ang^3
#
#
#
# Elastic Constant Matrix: (Units=GPa)
#
#
# Indices 1 2 3 4 5 6 
#
# 1 130.8922 10.8399 15.6820 -12.3434 -14.9520 -38.3917
# 2 10.8399 71.3425 16.7141 -30.3452 -4.9234 -7.7429
# 3 15.6820 16.7141 132.4674 -22.6022 -32.3765 -20.3922
# 4 -12.3434 -30.3452 -22.6022 42.1385 -3.7315 0.7931
# 5 -14.9520 -4.9234 -32.3765 -3.7315 44.2790 10.8099
# 6 -38.3917 -7.7429 -20.3922 0.7931 10.8099 53.0606
#
#
#
# Elastic Compliance Matrix: (Units=1/GPa)
#
#
# Indices 1 2 3 4 5 6 
#
# 1 0.010392 0.001158 0.001375 0.004759 0.003216 0.007490
# 2 0.001158 0.021352 0.001723 0.016984 0.004621 0.003420
# 3 0.001375 0.001723 0.011306 0.008411 0.008731 0.003686
# 4 0.004759 0.016984 0.008411 0.042794 0.011758 0.006119
# 5 0.003216 0.004621 0.008731 0.011758 0.031623 -0.000262
# 6 0.007490 0.003420 0.003686 0.006119 -0.000262 0.026144
#
#
# Mechanical properties :
#
#
# Convention : Reuss Voigt Hill
#
# Bulk Modulus (GPa) = 19.39470 46.79711 33.09591
# Shear Modulus (GPa) = 32.83311 47.32670 40.07990
#
# Velocity S-wave (km/s) = 3.43655 4.12591 3.79690
# Velocity P-wave (km/s) = 4.76682 6.28729 5.57910
#
# Compressibility (1/GPa) = 0.05156047
#
# Stress axis : x y z
#
# Youngs Moduli (GPa) = 96.22410 46.83505 88.45223
#
# Poissons Ratio (x) = -0.05424 -0.12159
# Poissons Ratio (y) = -0.11144 -0.15238
# Poissons Ratio (z) = -0.13227 -0.08068
#
# Static dielectric constant tensor:
#      x y z
#    x 5.750410 -0.611900 -0.573780 
#    y -0.611900 5.180990 0.908670 
#    z -0.573780 0.908670 6.000230 
# 
# 
# High freq. dielectric constant tensor:
#      x y z
#    x 2.140970 -0.022200 -0.022770 
#    y -0.022200 2.133740 0.031280 
#    z -0.022770 0.031280 2.165020 
# 
# From -- ./inp_files/576797.got.cif
#   From: 2010.06.25/outbox.cif.g09.slc.cpg/sg2_289_cif.got.tgz:576797.got - 2010.06.27 13:26:56.
