data_PCOD8016890
_publ_section_title
;
Structure prediction by ZEFSAII (Michael W. Deem and Ramdas Pophale) SiO2 
 PCOD8016890
Probable space group: P -1
;
_chemical_formula_sum "Si O2"
_cell_formula_units_Z 16
_cell_length_a 12.007670
_cell_length_b 9.918476
_cell_length_c 8.990143
_cell_angle_alpha 51.426254
_cell_angle_beta 62.572058
_cell_angle_gamma 80.962923
_cell_volume 729.805439
_symmetry_space_group_name_H-M "P -1"
_symmetry_group_IT_number 2
_symmetry_cell_setting 'triclinic'
loop_
_space_group_symop_operation_xyz
x,y,z
-x,-y,-z
loop_
_atom_site_type_symbol
_atom_site_label
_atom_site_fract_x
_atom_site_fract_y
_atom_site_fract_z
Si Si1 0.293692 0.648178 0.839970
Si Si2 0.464933 0.402422 0.435630
Si Si3 0.308460 0.587498 0.203194
Si Si4 0.111720 0.230166 0.551186
Si Si5 0.094320 0.364456 0.033936
Si Si6 0.826344 0.153864 0.720045
Si Si7 0.200670 0.189341 0.831740
Si Si8 0.856337 0.100531 0.406882
O O1 0.417643 0.681421 0.636157
O O2 0.207482 0.789039 0.750626
O O3 0.338784 0.678978 0.961579
O O4 0.213187 0.447788 0.009363
O O5 0.500000 0.500000 0.500000
O O6 0.434092 0.534520 0.234681
O O7 0.343807 0.249257 0.642259
O O8 0.197790 0.420225 0.365038
O O9 0.266587 0.722533 0.251004
O O10 0.108238 0.145712 0.776554
O O11 0.971157 0.255952 0.575391
O O12 0.164060 0.100410 0.493674
O O13 0.010873 0.177637 0.268175
O O14 0.152690 0.343273 0.849202
O O15 0.000000 0.500000 0.000000
O O16 0.791300 0.109965 0.600101
O O17 0.803871 0.976457 0.948180
#
# Coordination Sequence:
#
# PCOD8016890 Si02
#       8
#     2   2   2   2   2   2   2   2
#     4  11  23  44  68  91 132 172 217 267 320 376
#     4  11  23  45  67  93 129 172 219 269 316 380
#     4  11  26  41  67  99 125 172 220 263 322 385
#     4  11  24  40  65  97 138 166 211 267 327 385
#     4  10  22  36  68  98 131 166 216 257 331 380
#     4  12  24  41  64  98 138 169 213 261 328 385
#     4  11  24  41  65  96 131 175 214 263 322 384
#     4  11  24  41  66 101 131 170 211 266 323 388
#
# _framework density 21.923651
#
# number of rings (size 3 to 8) (size 9 to 14) (size 15 to 20)
#    0.000    1.000    2.500    3.750   10.500    0.000 
#    0.000    9.375    0.000    0.000    0.000    0.000 
#    0.000    0.000    0.000    0.000    0.000    0.000 
#
# Total GULP energy -198441.892102 kJ/mol
# GULP energy per Si atom -12402.618256 kJ/mol
# Density = 2.187375 g / cm^3
# Si number density = 21.923651 Si / 1000 Ang^3
#
#
#
# Elastic Constant Matrix: (Units=GPa)
#
#
# Indices 1 2 3 4 5 6 
#
# 1 68.6266 2.7310 7.3511 10.5189 8.8923 0.5319
# 2 2.7310 102.7881 14.7864 21.7011 -2.7428 0.7727
# 3 7.3511 14.7864 73.4325 19.8416 12.1600 -0.0070
# 4 10.5189 21.7011 19.8416 34.8254 -0.8020 5.5665
# 5 8.8923 -2.7428 12.1600 -0.8020 40.7911 14.2843
# 6 0.5319 0.7727 -0.0070 5.5665 14.2843 30.0318
#
#
#
# Elastic Compliance Matrix: (Units=1/GPa)
#
#
# Indices 1 2 3 4 5 6 
#
# 1 0.016047 0.000639 0.000794 -0.006326 -0.004945 0.003224
# 2 0.000639 0.011277 -0.000475 -0.007079 0.000321 0.000858
# 3 0.000794 -0.000475 0.017984 -0.011300 -0.007826 0.005819
# 4 -0.006326 -0.007079 -0.011300 0.043656 0.009433 -0.012287
# 5 -0.004945 0.000321 -0.007826 0.009433 0.034458 -0.018060
# 6 0.003224 0.000858 0.005819 -0.012287 -0.018060 0.044088
#
#
# Mechanical properties :
#
#
# Convention : Reuss Voigt Hill
#
# Bulk Modulus (GPa) = 21.17628 32.73159 26.95394
# Shear Modulus (GPa) = 27.57327 35.79490 31.68408
#
# Velocity S-wave (km/s) = 3.55025 4.04506 3.80570
# Velocity P-wave (km/s) = 5.14643 6.06456 5.62426
#
# Compressibility (1/GPa) = 0.04722264
#
# Stress axis : x y z
#
# Youngs Moduli (GPa) = 62.31827 88.67771 55.60482
#
# Poissons Ratio (x) = -0.05666 -0.04413
# Poissons Ratio (y) = -0.03982 0.02641
# Poissons Ratio (z) = -0.04945 0.04212
#
# Static dielectric constant tensor:
#      x y z
#    x 4.130870 0.181490 0.067670 
#    y 0.181490 4.147020 0.146030 
#    z 0.067670 0.146030 3.991620 
# 
# 
# High freq. dielectric constant tensor:
#      x y z
#    x 1.858970 0.003840 0.012990 
#    y 0.003840 1.869950 0.013640 
#    z 0.012990 0.013640 1.860970 
# 
# From -- ./inp_files/189809.got.cif
#   From: 2010.06.25/outbox.cif.g09.slc.cpg/sg2_95_cif.got.tgz:189809.got - 2010.06.27 13:26:56.
