data_PCOD8016722
_publ_section_title
;
Structure prediction by ZEFSAII (Michael W. Deem and Ramdas Pophale) SiO2 
 PCOD8016722
Probable space group: P -1
;
_chemical_formula_sum "Si O2"
_cell_formula_units_Z 10
_cell_length_a 8.251102
_cell_length_b 8.528555
_cell_length_c 8.751144
_cell_angle_alpha 95.696964
_cell_angle_beta 79.403511
_cell_angle_gamma 44.195617
_cell_volume 397.246612
_symmetry_space_group_name_H-M "P -1"
_symmetry_group_IT_number 2
_symmetry_cell_setting 'triclinic'
loop_
_space_group_symop_operation_xyz
x,y,z
-x,-y,-z
loop_
_atom_site_type_symbol
_atom_site_label
_atom_site_fract_x
_atom_site_fract_y
_atom_site_fract_z
Si Si1 0.510177 0.043942 0.257268
Si Si2 0.631906 0.376729 0.622829
Si Si3 0.384395 0.318090 0.005196
Si Si4 0.176171 0.093634 0.530393
Si Si5 0.231719 0.732451 0.979707
O O1 0.723345 0.970481 0.318152
O O2 0.401813 0.240149 0.167039
O O3 0.278120 0.166285 0.418867
O O4 0.637024 0.803753 0.126749
O O5 0.500000 0.500000 0.500000
O O6 0.412860 0.581710 0.792420
O O7 0.875073 0.312720 0.602194
O O8 0.718148 0.134874 0.595958
O O9 0.626033 0.257801 0.920282
O O10 0.159299 0.610162 0.050031
O O11 0.000000 0.000000 0.000000
#
# Coordination Sequence:
#
# PCOD8016722 Si02
#       5
#     2   2   2   2   2
#     4  10  21  46  77 115 140 192 237 328 366 434
#     4  11  24  44  74 109 142 201 245 304 364 453
#     4  10  23  44  74 105 148 186 256 292 383 425
#     4  10  23  45  77 106 152 179 256 303 384 424
#     4  11  25  45  71 107 148 202 246 296 359 460
#
# _framework density 25.173279999999998
#
# number of rings (size 3 to 8) (size 9 to 14) (size 15 to 20)
#    0.000    1.600    2.000    1.200    2.800    4.800 
#    0.000   22.000    0.000    1.200    0.000    0.000 
#    0.000    0.000    0.000    0.000    0.000    0.000 
#
# Total GULP energy -123900.966054 kJ/mol
# GULP energy per Si atom -12390.096605 kJ/mol
# Density = 2.511598 g / cm^3
# Si number density = 25.173280 Si / 1000 Ang^3
#
#
#
# Elastic Constant Matrix: (Units=GPa)
#
#
# Indices 1 2 3 4 5 6 
#
# 1 122.4773 57.5493 57.5938 -4.2371 19.0718 -2.7393
# 2 57.5493 206.3186 83.9512 -7.3328 -2.2891 9.4789
# 3 57.5938 83.9512 134.4446 -7.9528 12.4716 -18.1369
# 4 -4.2371 -7.3328 -7.9528 43.8991 2.4673 0.2253
# 5 19.0718 -2.2891 12.4716 2.4673 40.9519 -5.9940
# 6 -2.7393 9.4789 -18.1369 0.2253 -5.9940 50.3057
#
#
#
# Elastic Compliance Matrix: (Units=1/GPa)
#
#
# Indices 1 2 3 4 5 6 
#
# 1 0.011284 -0.001758 -0.003407 0.000433 -0.004462 -0.000816
# 2 -0.001758 0.007262 -0.004345 0.000151 0.002132 -0.002777
# 3 -0.003407 -0.004345 0.012521 0.001291 -0.001826 0.004924
# 4 0.000433 0.000151 0.001291 0.023190 -0.001966 0.000123
# 5 -0.004462 0.002132 -0.001826 -0.001966 0.027582 0.001992
# 6 -0.000816 -0.002777 0.004924 0.000123 0.001992 0.022369
#
#
# Mechanical properties :
#
#
# Convention : Reuss Voigt Hill
#
# Bulk Modulus (GPa) = 83.00707 95.71434 89.36071
# Shear Modulus (GPa) = 39.29468 44.64107 41.96787
#
# Velocity S-wave (km/s) = 3.95519 4.21569 4.08752
# Velocity P-wave (km/s) = 7.34193 7.86135 7.60607
#
# Compressibility (1/GPa) = 0.01204717
#
# Stress axis : x y z
#
# Youngs Moduli (GPa) = 88.61849 137.70741 79.86827
#
# Poissons Ratio (x) = 0.24208 0.27211
# Poissons Ratio (y) = 0.15578 0.34702
# Poissons Ratio (z) = 0.30192 0.59833
#
# Static dielectric constant tensor:
#      x y z
#    x 3.605680 0.465080 0.155070 
#    y 0.465080 4.861160 -0.311230 
#    z 0.155070 -0.311230 4.974470 
# 
# 
# High freq. dielectric constant tensor:
#      x y z
#    x 2.002870 0.015960 0.012670 
#    y 0.015960 2.012450 -0.011730 
#    z 0.012670 -0.011730 2.020160 
# 
# From -- ./inp_files/24769.got.cif
#   From: 2010.06.25/outbox.cif.g09.slc.cpg/sg2_13_cif.got.tgz:24769.got - 2010.06.27 13:26:56.
