data_PCOD8016236
_publ_section_title
;
Structure prediction by ZEFSAII (Michael W. Deem and Ramdas Pophale) SiO2 
 PCOD8016236
Probable space group: P -1
;
_chemical_formula_sum "Si O2"
_cell_formula_units_Z 16
_cell_length_a 18.624143
_cell_length_b 12.583153
_cell_length_c 10.697858
_cell_angle_alpha 136.015387
_cell_angle_beta 125.610636
_cell_angle_gamma 26.495656
_cell_volume 761.190076
_symmetry_space_group_name_H-M "P -1"
_symmetry_group_IT_number 2
_symmetry_cell_setting 'triclinic'
loop_
_space_group_symop_operation_xyz
x,y,z
-x,-y,-z
loop_
_atom_site_type_symbol
_atom_site_label
_atom_site_fract_x
_atom_site_fract_y
_atom_site_fract_z
Si Si1 0.007431 0.840586 0.702729
Si Si2 0.903719 0.553695 0.055033
Si Si3 0.250731 0.930912 0.554015
Si Si4 0.630448 0.786821 0.847356
Si Si5 0.606089 0.484591 0.458201
Si Si6 0.369373 0.374173 0.624970
Si Si7 0.566176 0.830742 0.236153
Si Si8 0.931200 0.296996 0.073439
O O1 0.192190 0.546827 0.588490
O O2 0.990279 0.795236 0.787140
O O3 0.883874 0.935432 0.565397
O O4 0.969138 0.075739 0.868701
O O5 0.003668 0.317758 0.066429
O O6 0.786182 0.843099 0.252207
O O7 0.808720 0.561484 0.889246
O O8 0.000000 0.500000 0.000000
O O9 0.427979 0.667453 0.445260
O O10 0.257310 0.819245 0.592696
O O11 0.621380 0.629186 0.655122
O O12 0.581197 0.981030 0.852378
O O13 0.500000 0.000000 0.000000
O O14 0.642346 0.450374 0.317058
O O15 0.412331 0.340213 0.787021
O O16 0.519141 0.054543 0.452246
O O17 0.734948 0.608548 0.143945
#
# Coordination Sequence:
#
# PCOD8016236 Si02
#       8
#     2   2   2   2   2   2   2   2
#     4  10  23  39  69  91 120 158 207 255 308 353
#     4  12  26  38  57  90 128 156 201 252 302 356
#     4  11  24  40  58  94 122 161 197 254 310 359
#     4  11  19  39  62  83 112 169 200 239 297 369
#     4  10  22  39  63  85 124 157 204 247 300 370
#     4   9  19  37  59  92 113 154 204 251 290 358
#     4   9  18  34  65  85 112 153 212 239 286 366
#     4  10  21  44  63  89 124 166 201 245 309 377
#
# _framework density 21.019717
#
# number of rings (size 3 to 8) (size 9 to 14) (size 15 to 20)
#    0.000    1.750    2.500    1.500    5.250    1.000 
#    2.250    0.000    0.000    3.000    0.000    0.000 
#    0.000    0.000    0.000    0.000    0.000    0.000 
#
# Total GULP energy -198243.584316 kJ/mol
# GULP energy per Si atom -12390.224020 kJ/mol
# Density = 2.097188 g / cm^3
# Si number density = 21.019717 Si / 1000 Ang^3
#
#
#
# Elastic Constant Matrix: (Units=GPa)
#
#
# Indices 1 2 3 4 5 6 
#
# 1 129.1300 43.6172 10.9643 -5.0384 -1.5748 44.2493
# 2 43.6172 109.0259 25.2156 -6.4010 6.8788 32.2344
# 3 10.9643 25.2156 50.0535 3.6180 3.6588 8.5793
# 4 -5.0384 -6.4010 3.6180 26.7285 -0.4068 -7.7387
# 5 -1.5748 6.8788 3.6588 -0.4068 22.7476 0.5665
# 6 44.2493 32.2344 8.5793 -7.7387 0.5665 53.7417
#
#
#
# Elastic Compliance Matrix: (Units=1/GPa)
#
#
# Indices 1 2 3 4 5 6 
#
# 1 0.011254 -0.002274 -0.000014 -0.000718 0.001656 -0.008021
# 2 -0.002274 0.012998 -0.005142 0.001946 -0.003107 -0.004789
# 3 -0.000014 -0.005142 0.023305 -0.004797 -0.002248 -0.001292
# 4 -0.000718 0.001946 -0.004797 0.040130 0.000703 0.005961
# 5 0.001656 -0.003107 -0.002248 0.000703 0.045377 0.000482
# 6 -0.008021 -0.004789 -0.001292 0.005961 0.000482 0.029144
#
#
# Mechanical properties :
#
#
# Convention : Reuss Voigt Hill
#
# Bulk Modulus (GPa) = 30.58523 49.75599 40.17061
# Shear Modulus (GPa) = 26.60044 34.53772 30.56908
#
# Velocity S-wave (km/s) = 3.56125 4.05793 3.81767
# Velocity P-wave (km/s) = 5.61180 6.75856 6.21170
#
# Compressibility (1/GPa) = 0.03269552
#
# Stress axis : x y z
#
# Youngs Moduli (GPa) = 88.85512 76.93687 42.90992
#
# Poissons Ratio (x) = 0.17499 0.00059
# Poissons Ratio (y) = 0.20210 0.22066
# Poissons Ratio (z) = 0.00122 0.39563
#
# Static dielectric constant tensor:
#      x y z
#    x 4.039880 0.608640 -0.316450 
#    y 0.608640 4.055310 0.129060 
#    z -0.316450 0.129060 3.458090 
# 
# 
# High freq. dielectric constant tensor:
#      x y z
#    x 1.825170 0.028820 -0.024810 
#    y 0.028820 1.836500 0.007560 
#    z -0.024810 0.007560 1.796430 
# 
# From -- ./inp_files/244492.got.cif
#   From: 2010.06.25/outbox.cif.g09.slc.cpg/sg2_123_cif.got.tgz:244492.got - 2010.06.27 13:26:56.
