data_PCOD8016483
_publ_section_title
;
Structure prediction by ZEFSAII (Michael W. Deem and Ramdas Pophale) SiO2 
 PCOD8016483
Probable space group: P -1
;
_chemical_formula_sum "Si O2"
_cell_formula_units_Z 14
_cell_length_a 9.588002
_cell_length_b 11.909386
_cell_length_c 12.226451
_cell_angle_alpha 53.630915
_cell_angle_beta 34.009970
_cell_angle_gamma 56.627380
_cell_volume 623.453195
_symmetry_space_group_name_H-M "P -1"
_symmetry_group_IT_number 2
_symmetry_cell_setting 'triclinic'
loop_
_space_group_symop_operation_xyz
x,y,z
-x,-y,-z
loop_
_atom_site_type_symbol
_atom_site_label
_atom_site_fract_x
_atom_site_fract_y
_atom_site_fract_z
Si Si1 0.436182 0.688754 0.410394
Si Si2 0.587422 0.771932 0.610559
Si Si3 0.055903 0.365791 0.119359
Si Si4 0.889331 0.005766 0.188656
Si Si5 0.264549 0.417655 0.186116
Si Si6 0.328770 0.098794 0.975641
Si Si7 0.720781 0.535903 0.494805
O O1 0.682763 0.610766 0.357146
O O2 0.392972 0.611941 0.365594
O O3 0.200791 0.687870 0.643841
O O4 0.485864 0.849729 0.267213
O O5 0.770937 0.865068 0.375288
O O6 0.684757 0.729226 0.694189
O O7 0.577859 0.628269 0.630796
O O8 0.309409 0.854991 0.749530
O O9 0.224529 0.391732 0.099669
O O10 0.206142 0.241790 0.026262
O O11 0.000000 0.500000 0.000000
O O12 0.119920 0.010502 0.117297
O O13 0.000000 0.000000 0.000000
O O14 0.017007 0.509858 0.344052
O O15 0.500000 0.500000 0.000000
O O16 0.500000 0.000000 0.000000
#
# Coordination Sequence:
#
# PCOD8016483 Si02
#       7
#     2   2   2   2   2   2   2
#     4  10  23  43  73 103 141 181 234 286 361 416
#     4  11  26  47  72 101 144 185 240 290 356 415
#     4  11  26  49  73 103 143 186 239 292 361 424
#     4  11  28  49  72  97 143 197 237 284 354 427
#     4  11  27  40  74 111 140 179 232 298 359 419
#     4  12  28  43  73 105 141 188 237 293 351 425
#     4  10  21  44  72 103 138 181 227 300 352 417
#
# _framework density 22.455575
#
# number of rings (size 3 to 8) (size 9 to 14) (size 15 to 20)
#    0.000    1.143    0.000    4.714   16.000    1.714 
#    0.000    0.000    0.000    0.000    0.000    0.000 
#    0.000    0.000    0.000    0.000    0.000    0.000 
#
# Total GULP energy -173602.837368 kJ/mol
# GULP energy per Si atom -12400.202669 kJ/mol
# Density = 2.240446 g / cm^3
# Si number density = 22.455575 Si / 1000 Ang^3
#
#
#
# Elastic Constant Matrix: (Units=GPa)
#
#
# Indices 1 2 3 4 5 6 
#
# 1 150.1938 37.5150 48.8116 3.5201 -3.2352 -21.7861
# 2 37.5150 85.5756 31.9659 6.6267 -0.0985 -14.4844
# 3 48.8116 31.9659 131.6537 -6.9416 -2.7920 -16.4681
# 4 3.5201 6.6267 -6.9416 26.3539 -3.7638 9.6163
# 5 -3.2352 -0.0985 -2.7920 -3.7638 40.7205 3.5433
# 6 -21.7861 -14.4844 -16.4681 9.6163 3.5433 42.8957
#
#
#
# Elastic Compliance Matrix: (Units=1/GPa)
#
#
# Indices 1 2 3 4 5 6 
#
# 1 0.008473 -0.002103 -0.002353 -0.002400 0.000004 0.003227
# 2 -0.002103 0.014766 -0.002599 -0.005876 -0.001230 0.004339
# 3 -0.002353 -0.002599 0.009378 0.003267 0.000687 0.000739
# 4 -0.002400 -0.005876 0.003267 0.046008 0.005377 -0.012707
# 5 0.000004 -0.001230 0.000687 0.005377 0.025400 -0.003453
# 6 0.003227 0.004339 0.000739 -0.012707 -0.003453 0.029834
#
#
# Mechanical properties :
#
#
# Convention : Reuss Voigt Hill
#
# Bulk Modulus (GPa) = 54.03404 67.11202 60.57303
# Shear Modulus (GPa) = 32.43843 38.60273 35.52058
#
# Velocity S-wave (km/s) = 3.80486 4.15067 3.98152
# Velocity P-wave (km/s) = 6.58920 7.27476 6.94045
#
# Compressibility (1/GPa) = 0.01850685
#
# Stress axis : x y z
#
# Youngs Moduli (GPa) = 118.02677 67.72199 106.62786
#
# Poissons Ratio (x) = 0.14243 0.25094
# Poissons Ratio (y) = 0.24823 0.27709
# Poissons Ratio (z) = 0.27777 0.17599
#
# Static dielectric constant tensor:
#      x y z
#    x 4.654480 0.304710 -0.403420 
#    y 0.304710 4.431830 -0.382050 
#    z -0.403420 -0.382050 4.704510 
# 
# 
# High freq. dielectric constant tensor:
#      x y z
#    x 1.898790 -0.006650 -0.003550 
#    y -0.006650 1.878180 0.004140 
#    z -0.003550 0.004140 1.897150 
# 
# From -- ./inp_files/391917.got.cif
#   From: 2010.06.25/outbox.cif.g09.slc.cpg/sg2_196_cif.got.tgz:391917.got - 2010.06.27 13:26:56.
