data_PCOD8016326
_publ_section_title
;
Structure prediction by ZEFSAII (Michael W. Deem and Ramdas Pophale) SiO2 
 PCOD8016326
Probable space group: P -1
;
_chemical_formula_sum "Si O2"
_cell_formula_units_Z 12
_cell_length_a 11.884454
_cell_length_b 8.947039
_cell_length_c 8.973026
_cell_angle_alpha 100.874286
_cell_angle_beta 59.889177
_cell_angle_gamma 139.245260
_cell_volume 506.932243
_symmetry_space_group_name_H-M "P -1"
_symmetry_group_IT_number 2
_symmetry_cell_setting 'triclinic'
loop_
_space_group_symop_operation_xyz
x,y,z
-x,-y,-z
loop_
_atom_site_type_symbol
_atom_site_label
_atom_site_fract_x
_atom_site_fract_y
_atom_site_fract_z
Si Si1 0.458002 0.485408 0.353629
Si Si2 0.958169 0.365931 0.146070
Si Si3 0.727974 0.894823 0.047192
Si Si4 0.138214 0.999745 0.335557
Si Si5 0.363526 0.744146 0.121359
Si Si6 0.825034 0.473586 0.491502
O O1 0.500000 0.500000 0.500000
O O2 0.666788 0.697296 0.155696
O O3 0.363715 0.243922 0.300469
O O4 0.324569 0.518998 0.436457
O O5 0.182372 0.518996 0.090010
O O6 0.816655 0.337800 0.345020
O O7 0.820768 0.097797 0.140818
O O8 0.000000 0.500000 0.000000
O O9 0.525910 0.763752 0.063105
O O10 0.884864 0.996725 0.828151
O O11 0.000000 0.000000 0.500000
O O12 0.061384 0.760215 0.387311
O O13 0.235047 0.669616 0.343630
O O14 0.500000 0.000000 0.000000
#
# Coordination Sequence:
#
# PCOD8016326 Si02
#       6
#     2   2   2   2   2   2
#     4  10  24  43  68  98 127 179 227 273 325 389
#     4  12  23  42  68 103 135 170 220 274 340 398
#     4  11  24  45  68  98 138 172 220 279 331 399
#     4  10  21  44  67  89 133 176 219 270 329 388
#     4  11  23  41  64  99 136 179 209 267 339 395
#     4  10  23  43  67  97 137 172 219 276 332 397
#
# _framework density 23.671804999999999
#
# number of rings (size 3 to 8) (size 9 to 14) (size 15 to 20)
#    0.000    1.333    3.333    1.000    2.333    4.000 
#    3.000    3.333    0.000    0.000    0.000    0.000 
#    0.000    0.000    0.000    0.000    0.000    0.000 
#
# Total GULP energy -148671.497559 kJ/mol
# GULP energy per Si atom -12389.291463 kJ/mol
# Density = 2.361793 g / cm^3
# Si number density = 23.671805 Si / 1000 Ang^3
#
#
#
# Elastic Constant Matrix: (Units=GPa)
#
#
# Indices 1 2 3 4 5 6 
#
# 1 81.0993 30.6179 30.5728 -0.7596 28.7638 14.2806
# 2 30.6179 148.9560 80.8711 6.5273 16.3373 6.5304
# 3 30.5728 80.8711 196.6979 -4.6058 45.2576 -12.3103
# 4 -0.7596 6.5273 -4.6058 48.7488 -7.3239 9.2939
# 5 28.7638 16.3373 45.2576 -7.3239 43.3622 -3.8003
# 6 14.2806 6.5304 -12.3103 9.2939 -3.8003 30.9202
#
#
#
# Elastic Compliance Matrix: (Units=1/GPa)
#
#
# Indices 1 2 3 4 5 6 
#
# 1 0.019599 -0.002336 0.000341 0.000608 -0.013271 -0.010237
# 2 -0.002336 0.009315 -0.004058 -0.001002 0.001934 -0.001965
# 3 0.000341 -0.004058 0.008616 -0.000394 -0.007465 0.003331
# 4 0.000608 -0.001002 -0.000394 0.022403 0.003598 -0.006518
# 5 -0.013271 0.001934 -0.007465 0.003598 0.040113 0.006598
# 6 -0.010237 -0.001965 0.003331 -0.006518 0.006598 0.041580
#
#
# Mechanical properties :
#
#
# Convention : Reuss Voigt Hill
#
# Bulk Modulus (GPa) = 39.33274 78.98628 59.15951
# Shear Modulus (GPa) = 30.82492 43.58568 37.20530
#
# Velocity S-wave (km/s) = 3.61249 4.29563 3.96879
# Velocity P-wave (km/s) = 5.83541 7.61859 6.78583
#
# Compressibility (1/GPa) = 0.02542411
#
# Stress axis : x y z
#
# Youngs Moduli (GPa) = 51.02275 107.35729 116.06167
#
# Poissons Ratio (x) = 0.25081 -0.03962
# Poissons Ratio (y) = 0.11920 0.47098
# Poissons Ratio (z) = -0.01742 0.43566
#
# Static dielectric constant tensor:
#      x y z
#    x 2.473970 -0.105040 0.667200 
#    y -0.105040 5.399510 -0.963550 
#    z 0.667200 -0.963550 4.939070 
# 
# 
# High freq. dielectric constant tensor:
#      x y z
#    x 1.915360 0.002420 0.012480 
#    y 0.002420 1.943690 -0.008210 
#    z 0.012480 -0.008210 1.969170 
# 
# From -- ./inp_files/158769.got.cif
#   From: 2010.06.25/outbox.cif.g09.slc.cpg/sg2_80_cif.got.tgz:158769.got - 2010.06.27 13:26:56.
