data_PCOD8016683
_publ_section_title
;
Structure prediction by ZEFSAII (Michael W. Deem and Ramdas Pophale) SiO2 
 PCOD8016683
Probable space group: P -1
;
_chemical_formula_sum "Si O2"
_cell_formula_units_Z 16
_cell_length_a 9.823337
_cell_length_b 17.823556
_cell_length_c 11.789932
_cell_angle_alpha 127.341890
_cell_angle_beta 96.633068
_cell_angle_gamma 40.011154
_cell_volume 770.792361
_symmetry_space_group_name_H-M "P -1"
_symmetry_group_IT_number 2
_symmetry_cell_setting 'triclinic'
loop_
_space_group_symop_operation_xyz
x,y,z
-x,-y,-z
loop_
_atom_site_type_symbol
_atom_site_label
_atom_site_fract_x
_atom_site_fract_y
_atom_site_fract_z
Si Si1 0.772752 0.620480 0.920618
Si Si2 0.240099 0.395984 0.348140
Si Si3 0.264197 0.909894 0.427897
Si Si4 0.724112 0.963061 0.669386
Si Si5 0.824560 0.477582 0.003490
Si Si6 0.297854 0.037291 0.975704
Si Si7 0.278910 0.066133 0.734622
Si Si8 0.194209 0.636143 0.594608
O O1 0.887781 0.530120 0.723824
O O2 0.952252 0.587517 0.976504
O O3 0.788668 0.514966 0.898909
O O4 0.449641 0.860329 0.102126
O O5 0.288867 0.471277 0.462206
O O6 0.000000 0.500000 0.500000
O O7 0.542497 0.158367 0.168881
O O8 0.519512 0.680429 0.219824
O O9 0.219720 0.015269 0.422207
O O10 0.336319 0.926535 0.563195
O O11 0.000000 0.000000 0.500000
O O12 0.024965 0.757680 0.572313
O O13 0.542871 0.976088 0.642171
O O14 0.964361 0.289697 0.860461
O O15 0.236934 0.087542 0.884221
O O16 0.997538 0.218824 0.181993
O O17 0.500000 0.000000 0.000000
O O18 0.500000 0.500000 0.500000
#
# Coordination Sequence:
#
# PCOD8016683 Si02
#       8
#     2   2   2   2   2   2   2   2
#     4   9  19  40  66  97 125 168 225 285 318 392
#     4  12  24  39  73  98 130 186 231 280 344 401
#     4  11  26  42  64 102 139 173 220 283 349 408
#     4  10  21  46  68  93 140 174 228 289 329 410
#     4   9  21  38  65  94 128 167 223 270 328 400
#     4  12  23  46  69 103 142 174 240 293 331 410
#     4  11  23  41  74  95 129 185 225 280 336 405
#     4  12  28  45  67 104 140 187 230 289 352 411
#
# _framework density 20.757860000000001
#
# number of rings (size 3 to 8) (size 9 to 14) (size 15 to 20)
#    0.000    1.250    3.750    1.875    5.250    3.000 
#    4.500    0.000    0.000    0.000    0.000    0.000 
#    0.000    0.000    0.000    0.000    0.000    0.000 
#
# Total GULP energy -198355.915287 kJ/mol
# GULP energy per Si atom -12397.244705 kJ/mol
# Density = 2.071061 g / cm^3
# Si number density = 20.757860 Si / 1000 Ang^3
#
#
#
# Elastic Constant Matrix: (Units=GPa)
#
#
# Indices 1 2 3 4 5 6 
#
# 1 120.8243 55.5443 63.4410 1.2833 -9.7510 -4.7400
# 2 55.5443 102.5601 63.2866 7.4700 -4.7549 4.1629
# 3 63.4410 63.2866 130.3604 -3.9686 -15.1776 3.0230
# 4 1.2833 7.4700 -3.9686 45.9345 1.1727 -1.2631
# 5 -9.7510 -4.7549 -15.1776 1.1727 26.7641 3.5898
# 6 -4.7400 4.1629 3.0230 -1.2631 3.5898 23.2529
#
#
#
# Elastic Compliance Matrix: (Units=1/GPa)
#
#
# Indices 1 2 3 4 5 6 
#
# 1 0.012653 -0.004554 -0.003904 0.000125 0.001079 0.003742
# 2 -0.004554 0.016053 -0.005781 -0.003025 -0.001554 -0.002975
# 3 -0.003904 -0.005781 0.013090 0.001989 0.005176 -0.002154
# 4 0.000125 -0.003025 0.001989 0.022489 -0.000566 0.001618
# 5 0.001079 -0.001554 0.005176 -0.000566 0.041324 -0.006585
# 6 0.003742 -0.002975 -0.002154 0.001618 -0.006585 0.045685
#
#
# Mechanical properties :
#
#
# Convention : Reuss Voigt Hill
#
# Bulk Modulus (GPa) = 75.08677 79.80985 77.44831
# Shear Modulus (GPa) = 27.14259 30.62183 28.88221
#
# Velocity S-wave (km/s) = 3.61997 3.84499 3.73418
# Velocity P-wave (km/s) = 7.32963 7.63174 7.48221
#
# Compressibility (1/GPa) = 0.01331793
#
# Stress axis : x y z
#
# Youngs Moduli (GPa) = 79.03571 62.29250 76.39168
#
# Poissons Ratio (x) = 0.28371 0.29821
# Poissons Ratio (y) = 0.35997 0.44162
# Poissons Ratio (z) = 0.30853 0.36011
#
# Static dielectric constant tensor:
#      x y z
#    x 3.579330 0.325710 0.074750 
#    y 0.325710 4.124260 0.392830 
#    z 0.074750 0.392830 4.473840 
# 
# 
# High freq. dielectric constant tensor:
#      x y z
#    x 1.786910 0.020460 0.005900 
#    y 0.020460 1.819820 0.001390 
#    z 0.005900 0.001390 1.829820 
# 
# From -- ./inp_files/403255.got.cif
#   From: 2010.06.25/outbox.cif.g09.slc.cpg/sg2_202_cif.got.tgz:403255.got - 2010.06.27 13:26:56.
