data_PCOD8016899
_publ_section_title
;
Structure prediction by ZEFSAII (Michael W. Deem and Ramdas Pophale) SiO2 
 PCOD8016899
Probable space group: P -1
;
_chemical_formula_sum "Si O2"
_cell_formula_units_Z 16
_cell_length_a 16.045608
_cell_length_b 12.832384
_cell_length_c 21.667661
_cell_angle_alpha 26.604050
_cell_angle_beta 154.679389
_cell_angle_gamma 152.727296
_cell_volume 775.108961
_symmetry_space_group_name_H-M "P -1"
_symmetry_group_IT_number 2
_symmetry_cell_setting 'triclinic'
loop_
_space_group_symop_operation_xyz
x,y,z
-x,-y,-z
loop_
_atom_site_type_symbol
_atom_site_label
_atom_site_fract_x
_atom_site_fract_y
_atom_site_fract_z
Si Si1 0.658806 0.137876 0.907006
Si Si2 0.604887 0.131304 0.242999
Si Si3 0.682440 0.952801 0.510994
Si Si4 0.324677 0.084634 0.183458
Si Si5 0.846652 0.902542 0.249604
Si Si6 0.077479 0.411568 0.857063
Si Si7 0.549637 0.439890 0.768387
Si Si8 0.071889 0.585216 0.895556
O O1 0.526187 0.193516 0.843251
O O2 0.849535 0.399887 0.875315
O O3 0.490223 0.011478 0.807858
O O4 0.751983 0.944136 0.099036
O O5 0.422335 0.193861 0.122874
O O6 0.814846 0.388553 0.231839
O O7 0.667455 0.948310 0.427806
O O8 0.595392 0.673046 0.629603
O O9 0.931927 0.120552 0.606059
O O10 0.522957 0.081679 0.359497
O O11 0.225458 0.263617 0.052878
O O12 0.148911 0.791916 0.212328
O O13 0.888812 0.134625 0.202788
O O14 0.675317 0.638251 0.304834
O O15 0.051472 0.560463 0.820966
O O16 0.743506 0.501604 0.913692
#
# Coordination Sequence:
#
# PCOD8016899 Si02
#       8
#     2   2   2   2   2   2   2   2
#     4  11  19  39  58  86 117 153 193 228 276 342
#     4  10  22  37  59  86 112 148 191 235 281 335
#     4  10  22  37  54  89 120 144 184 241 292 323
#     4   9  23  38  59  85 112 150 190 243 278 331
#     4  11  21  37  61  84 116 155 187 229 287 341
#     4  11  20  41  62  83 110 153 199 229 279 340
#     4  11  21  36  59  84 120 153 186 229 285 346
#     4  11  19  37  61  85 113 155 194 232 272 341
#
# _framework density 20.642258999999999
#
# number of rings (size 3 to 8) (size 9 to 14) (size 15 to 20)
#    0.750    0.750    3.750    4.125    1.750    0.500 
#    2.250    1.875    0.000    1.500    0.000    0.000 
#    0.000    0.000    0.000    0.000    0.000    0.000 
#
# Total GULP energy -198275.654015 kJ/mol
# GULP energy per Si atom -12392.228376 kJ/mol
# Density = 2.059528 g / cm^3
# Si number density = 20.642259 Si / 1000 Ang^3
#
#
#
# Elastic Constant Matrix: (Units=GPa)
#
#
# Indices 1 2 3 4 5 6 
#
# 1 50.8081 22.7062 1.2825 -2.9910 -11.0483 29.7715
# 2 22.7062 64.2632 13.6145 -2.4274 -16.1620 36.7526
# 3 1.2825 13.6145 86.9865 12.4036 -5.2778 24.0977
# 4 -2.9910 -2.4274 12.4036 19.7942 4.4729 3.1417
# 5 -11.0483 -16.1620 -5.2778 4.4729 31.8267 0.9012
# 6 29.7715 36.7526 24.0977 3.1417 0.9012 41.7082
#
#
#
# Elastic Compliance Matrix: (Units=1/GPa)
#
#
# Indices 1 2 3 4 5 6 
#
# 1 0.075055 0.044310 0.024408 0.006301 0.054786 -0.108381
# 2 0.044310 0.073402 0.020935 0.006897 0.058278 -0.110183
# 3 0.024408 0.020935 0.024186 -0.006739 0.025475 -0.049887
# 4 0.006301 0.006897 -0.006739 0.059068 -0.003416 -0.011057
# 5 0.054786 0.058278 0.025475 -0.003416 0.087762 -0.106818
# 6 -0.108381 -0.110183 -0.049887 -0.011057 -0.106818 0.230395
#
#
# Mechanical properties :
#
#
# Convention : Reuss Voigt Hill
#
# Bulk Modulus (GPa) = 2.84132 30.80713 16.82423
# Shear Modulus (GPa) = 10.24848 29.62945 19.93897
#
# Velocity S-wave (km/s) = 2.23060 3.79275 3.11131
# Velocity P-wave (km/s) = 2.83082 5.84266 4.59076
#
# Compressibility (1/GPa) = 0.35194910
#
# Stress axis : x y z
#
# Youngs Moduli (GPa) = 13.32364 13.62366 41.34568
#
# Poissons Ratio (x) = -0.60367 -1.00918
# Poissons Ratio (y) = -0.59037 -0.86556
# Poissons Ratio (z) = -0.32521 -0.28521
#
# Static dielectric constant tensor:
#      x y z
#    x 3.706500 0.371540 0.016130 
#    y 0.371540 3.678100 0.169110 
#    z 0.016130 0.169110 3.640940 
# 
# 
# High freq. dielectric constant tensor:
#      x y z
#    x 1.802350 0.034640 -0.006550 
#    y 0.034640 1.801270 0.014230 
#    z -0.006550 0.014230 1.790450 
# 
# From -- ./inp_files/597958.got.cif
#   From: 2010.06.25/outbox.cif.g09.slc.cpg/sg2_299_cif.got.tgz:597958.got - 2010.06.27 13:26:56.
