data_PCOD8016132
_publ_section_title
;
Structure prediction by ZEFSAII (Michael W. Deem and Ramdas Pophale) SiO2 
 PCOD8016132
Probable space group: P -1
;
_chemical_formula_sum "Si O2"
_cell_formula_units_Z 14
_cell_length_a 14.378807
_cell_length_b 5.182573
_cell_length_c 8.442055
_cell_angle_alpha 113.216160
_cell_angle_beta 81.787307
_cell_angle_gamma 82.954092
_cell_volume 561.038257
_symmetry_space_group_name_H-M "P -1"
_symmetry_group_IT_number 2
_symmetry_cell_setting 'triclinic'
loop_
_space_group_symop_operation_xyz
x,y,z
-x,-y,-z
loop_
_atom_site_type_symbol
_atom_site_label
_atom_site_fract_x
_atom_site_fract_y
_atom_site_fract_z
Si Si1 0.553302 0.983138 0.815709
Si Si2 0.857069 0.296971 0.546952
Si Si3 0.747761 0.346225 0.278132
Si Si4 0.356896 0.154919 0.774019
Si Si5 0.982489 0.703099 0.297638
Si Si6 0.331322 0.525598 0.179345
Si Si7 0.916664 0.229679 0.006035
O O1 0.619258 0.664006 0.726870
O O2 0.471450 0.032412 0.712290
O O3 0.612639 0.234190 0.838866
O O4 0.500000 0.000000 0.000000
O O5 0.820225 0.423148 0.414462
O O6 0.772754 0.325468 0.702082
O O7 0.945675 0.451105 0.617029
O O8 0.903282 0.961855 0.442629
O O9 0.672319 0.629494 0.313658
O O10 0.809666 0.197590 0.075513
O O11 0.692567 0.114567 0.307604
O O12 0.322672 0.312960 0.985020
O O13 0.925170 0.530188 0.156661
O O14 0.067736 0.791094 0.189785
O O15 0.000000 0.000000 0.000000
#
# Coordination Sequence:
#
# PCOD8016132 Si02
#       7
#     2   2   2   2   2   2   2
#     4  10  21  43  71 102 130 171 229 287 332 394
#     4  11  25  44  64 100 139 184 215 281 346 402
#     4  12  25  42  66 101 137 178 226 276 333 406
#     4  11  23  44  71  97 131 178 230 280 330 402
#     4  10  24  47  66  93 141 178 230 279 335 397
#     4  11  23  42  72 102 133 174 228 281 340 402
#     4  11  23  43  70  97 126 181 234 278 324 395
#
# _framework density 24.953735999999999
#
# number of rings (size 3 to 8) (size 9 to 14) (size 15 to 20)
#    0.000    1.143    1.429    6.000    4.000    2.857 
#    2.571    4.286    0.000    0.000    0.000    0.000 
#    0.000    0.000    0.000    0.000    0.000    0.000 
#
# Total GULP energy -173479.133451 kJ/mol
# GULP energy per Si atom -12391.366675 kJ/mol
# Density = 2.489694 g / cm^3
# Si number density = 24.953736 Si / 1000 Ang^3
#
#
#
# Elastic Constant Matrix: (Units=GPa)
#
#
# Indices 1 2 3 4 5 6 
#
# 1 104.6156 56.0199 25.8889 -3.0308 3.3317 -38.2494
# 2 56.0199 153.6871 16.2132 -8.6057 2.0992 -20.5399
# 3 25.8889 16.2132 67.2830 2.6552 -1.1703 -9.9121
# 4 -3.0308 -8.6057 2.6552 29.7340 -5.5267 0.0534
# 5 3.3317 2.0992 -1.1703 -5.5267 32.5202 -9.7833
# 6 -38.2494 -20.5399 -9.9121 0.0534 -9.7833 44.0397
#
#
#
# Elastic Compliance Matrix: (Units=1/GPa)
#
#
# Indices 1 2 3 4 5 6 
#
# 1 0.017396 -0.004182 -0.003804 0.001333 0.002441 0.012843
# 2 -0.004182 0.008207 -0.000421 0.002038 0.000278 0.000160
# 3 -0.003804 -0.000421 0.016576 -0.001837 0.000827 0.000417
# 4 0.001333 0.002038 -0.001837 0.035759 0.006687 0.003137
# 5 0.002441 0.000278 0.000827 0.006687 0.034697 0.010136
# 6 0.012843 0.000160 0.000417 0.003137 0.010136 0.036277
#
#
# Mechanical properties :
#
#
# Convention : Reuss Voigt Hill
#
# Bulk Modulus (GPa) = 39.42271 57.98109 48.70190
# Shear Modulus (GPa) = 28.70583 36.42302 32.56443
#
# Velocity S-wave (km/s) = 3.39538 3.82464 3.61639
# Velocity P-wave (km/s) = 5.58606 6.54139 6.08251
#
# Compressibility (1/GPa) = 0.02536609
#
# Stress axis : x y z
#
# Youngs Moduli (GPa) = 57.48458 121.84453 60.32868
#
# Poissons Ratio (x) = 0.50954 0.22949
# Poissons Ratio (y) = 0.24040 0.02537
# Poissons Ratio (z) = 0.21867 0.05124
#
# Static dielectric constant tensor:
#      x y z
#    x 7.125710 -1.597350 6.431660 
#    y -1.597350 5.013660 -3.096460 
#    z 6.431660 -3.096460 22.958140 
# 
# 
# High freq. dielectric constant tensor:
#      x y z
#    x 2.010630 -0.017830 -0.005990 
#    y -0.017830 1.991980 -0.011480 
#    z -0.005990 -0.011480 1.988960 
# 
# From -- ./inp_files/289144.got.cif
#   From: 2010.06.25/outbox.cif.g09.slc.cpg/sg2_145_cif.got.tgz:289144.got - 2010.06.27 13:26:56.
