data_PCOD8016822
_publ_section_title
;
Structure prediction by ZEFSAII (Michael W. Deem and Ramdas Pophale) SiO2 
 PCOD8016822
Probable space group: P -1
;
_chemical_formula_sum "Si O2"
_cell_formula_units_Z 14
_cell_length_a 16.642657
_cell_length_b 19.820736
_cell_length_c 13.399548
_cell_angle_alpha 26.450810
_cell_angle_beta 24.229319
_cell_angle_gamma 22.704085
_cell_volume 658.085309
_symmetry_space_group_name_H-M "P -1"
_symmetry_group_IT_number 2
_symmetry_cell_setting 'triclinic'
loop_
_space_group_symop_operation_xyz
x,y,z
-x,-y,-z
loop_
_atom_site_type_symbol
_atom_site_label
_atom_site_fract_x
_atom_site_fract_y
_atom_site_fract_z
Si Si1 0.248707 0.210927 0.864948
Si Si2 0.870056 0.212335 0.398215
Si Si3 0.548184 0.148096 0.214689
Si Si4 0.021075 0.450497 0.425545
Si Si5 0.163653 0.973934 0.151004
Si Si6 0.618503 0.286903 0.394686
Si Si7 0.654154 0.386441 0.881576
O O1 0.485257 0.183539 0.678246
O O2 0.138642 0.361152 0.703248
O O3 0.313450 0.023655 0.985311
O O4 0.054897 0.269339 0.096617
O O5 0.640965 0.331534 0.425757
O O6 0.805213 0.209765 0.591482
O O7 0.000000 0.000000 0.500000
O O8 0.291826 0.338354 0.227635
O O9 0.500000 0.000000 0.500000
O O10 0.664020 0.200359 0.101723
O O11 0.727499 0.075063 0.016397
O O12 0.000000 0.500000 0.500000
O O13 0.923186 0.325279 0.678988
O O14 0.884134 0.150904 0.225552
O O15 0.463254 0.483500 0.254993
O O16 0.500000 0.500000 0.000000
#
# Coordination Sequence:
#
# PCOD8016822 Si02
#       7
#     2   2   2   2   2   2   2
#     4   9  18  36  63  85 112 163 201 232 292 356
#     4   8  17  33  57  89 118 154 195 240 288 355
#     4  12  26  40  59  89 126 154 195 256 309 346
#     4  11  22  40  62  83 115 160 207 244 288 366
#     4  10  22  36  57  91 124 150 192 250 304 338
#     4   9  19  37  63  86 117 155 203 239 283 362
#     4  11  24  40  64  85 114 163 208 239 292 361
#
# _framework density 21.273838999999999
#
# number of rings (size 3 to 8) (size 9 to 14) (size 15 to 20)
#    0.000    2.286    1.429    2.571    4.000    6.857 
#    0.000    2.857    0.000    3.429    0.000    0.000 
#    0.000    0.000    0.000    0.000    0.000    0.000 
#
# Total GULP energy -173484.621280 kJ/mol
# GULP energy per Si atom -12391.758663 kJ/mol
# Density = 2.122542 g / cm^3
# Si number density = 21.273839 Si / 1000 Ang^3
#
#
#
# Elastic Constant Matrix: (Units=GPa)
#
#
# Indices 1 2 3 4 5 6 
#
# 1 81.9091 24.0219 58.6753 6.0650 -10.5109 5.4439
# 2 24.0219 44.1764 20.6796 14.6026 -5.5242 8.1182
# 3 58.6753 20.6796 144.2054 11.3329 -14.2682 19.1988
# 4 6.0650 14.6026 11.3329 31.5027 -1.8273 -2.3503
# 5 -10.5109 -5.5242 -14.2682 -1.8273 52.0790 2.2744
# 6 5.4439 8.1182 19.1988 -2.3503 2.2744 30.6278
#
#
#
# Elastic Compliance Matrix: (Units=1/GPa)
#
#
# Indices 1 2 3 4 5 6 
#
# 1 0.019781 -0.008943 -0.007425 0.003339 0.000965 0.003693
# 2 -0.008943 0.033825 0.001456 -0.015077 0.002072 -0.009600
# 3 -0.007425 0.001456 0.011066 -0.003598 0.001842 -0.006416
# 4 0.003339 -0.015077 -0.003598 0.039988 -0.000892 0.008793
# 5 0.000965 0.002072 0.001842 -0.000892 0.020240 -0.003447
# 6 0.003693 -0.009600 -0.006416 0.008793 -0.003447 0.039490
#
#
# Mechanical properties :
#
#
# Convention : Reuss Voigt Hill
#
# Bulk Modulus (GPa) = 28.69542 53.00496 40.85019
# Shear Modulus (GPa) = 24.29195 33.96949 29.13072
#
# Velocity S-wave (km/s) = 3.38282 4.00030 3.70445
# Velocity P-wave (km/s) = 5.36431 6.80486 6.12707
#
# Compressibility (1/GPa) = 0.03484877
#
# Stress axis : x y z
#
# Youngs Moduli (GPa) = 50.55277 29.56431 90.36678
#
# Poissons Ratio (x) = 0.26438 0.67097
# Poissons Ratio (y) = 0.45207 -0.13157
# Poissons Ratio (z) = 0.37535 -0.04305
#
# Static dielectric constant tensor:
#      x y z
#    x 4.415680 -0.212210 0.052170 
#    y -0.212210 3.546540 0.027300 
#    z 0.052170 0.027300 4.929730 
# 
# 
# High freq. dielectric constant tensor:
#      x y z
#    x 1.829910 -0.017200 -0.002990 
#    y -0.017200 1.792420 0.001800 
#    z -0.002990 0.001800 1.863190 
# 
# From -- ./inp_files/456604.got.cif
#   From: 2010.06.25/outbox.cif.g09.slc.cpg/sg2_229_cif.got.tgz:456604.got - 2010.06.27 13:26:56.
