data_PCOD8016874
_publ_section_title
;
Structure prediction by ZEFSAII (Michael W. Deem and Ramdas Pophale) SiO2 
 PCOD8016874
Probable space group: P -1
;
_chemical_formula_sum "Si O2"
_cell_formula_units_Z 14
_cell_length_a 5.257753
_cell_length_b 14.211847
_cell_length_c 14.746403
_cell_angle_alpha 143.138835
_cell_angle_beta 107.162178
_cell_angle_gamma 86.017375
_cell_volume 604.285752
_symmetry_space_group_name_H-M "P -1"
_symmetry_group_IT_number 2
_symmetry_cell_setting 'triclinic'
loop_
_space_group_symop_operation_xyz
x,y,z
-x,-y,-z
loop_
_atom_site_type_symbol
_atom_site_label
_atom_site_fract_x
_atom_site_fract_y
_atom_site_fract_z
Si Si1 0.714507 0.366775 0.855713
Si Si2 0.728479 0.390452 0.249992
Si Si3 0.690686 0.668076 0.688392
Si Si4 0.007428 0.029626 0.681058
Si Si5 0.741266 0.760535 0.572599
Si Si6 0.533972 0.657048 0.005109
Si Si7 0.393271 0.881449 0.499392
O O1 0.606581 0.283263 0.876618
O O2 0.754860 0.235856 0.687576
O O3 0.511271 0.465683 0.869095
O O4 0.000000 0.500000 0.000000
O O5 0.481778 0.286896 0.211292
O O6 0.785507 0.584670 0.419960
O O7 0.011575 0.345282 0.260125
O O8 0.635599 0.330771 0.093058
O O9 0.500000 0.500000 0.500000
O O10 0.734210 0.794744 0.706348
O O11 0.150555 0.218412 0.871801
O O12 0.184439 0.981989 0.582965
O O13 0.994752 0.906633 0.670145
O O14 0.691422 0.005027 0.592181
O O15 0.453299 0.771263 0.504412
#
# Coordination Sequence:
#
# PCOD8016874 Si02
#       7
#     2   2   2   2   2   2   2
#     4  11  27  43  73  93 132 171 225 275 328 394
#     4  11  23  38  68  94 133 168 221 272 321 377
#     4  10  22  36  64 102 125 170 221 271 315 384
#     4  10  25  41  70  92 140 172 216 264 332 392
#     4   9  21  39  66  92 132 164 223 257 324 379
#     4  11  26  46  62 103 130 174 219 275 331 391
#     4  10  24  43  66  97 128 179 210 274 320 393
#
# _framework density 23.167846999999998
#
# number of rings (size 3 to 8) (size 9 to 14) (size 15 to 20)
#    0.857    0.857    1.429    1.714   16.000    1.143 
#    0.000    1.429    0.000    0.000    0.000    0.000 
#    0.000    0.000    0.000    0.000    0.000    0.000 
#
# Total GULP energy -173526.820856 kJ/mol
# GULP energy per Si atom -12394.772918 kJ/mol
# Density = 2.311512 g / cm^3
# Si number density = 23.167847 Si / 1000 Ang^3
#
#
#
# Elastic Constant Matrix: (Units=GPa)
#
#
# Indices 1 2 3 4 5 6 
#
# 1 148.4304 43.5522 41.5142 -16.5788 7.8554 15.8473
# 2 43.5522 98.9766 69.9082 -14.4576 -4.5876 26.2759
# 3 41.5142 69.9082 101.7778 -19.6168 10.5504 11.5474
# 4 -16.5788 -14.4576 -19.6168 42.6526 -0.6599 4.3399
# 5 7.8554 -4.5876 10.5504 -0.6599 38.9611 -1.5627
# 6 15.8473 26.2759 11.5474 4.3399 -1.5627 35.5528
#
#
#
# Elastic Compliance Matrix: (Units=1/GPa)
#
#
# Indices 1 2 3 4 5 6 
#
# 1 0.008200 -0.001978 -0.001152 0.002181 -0.001624 -0.002156
# 2 -0.001978 0.026890 -0.016462 0.002274 0.007516 -0.013592
# 3 -0.001152 -0.016462 0.022603 0.003788 -0.007580 0.004543
# 4 0.002181 0.002274 0.003788 0.027532 -0.001024 -0.007289
# 5 -0.001624 0.007516 -0.007580 -0.001024 0.028875 -0.000975
# 6 -0.002156 -0.013592 0.004543 -0.007289 -0.000975 0.038505
#
#
# Mechanical properties :
#
#
# Convention : Reuss Voigt Hill
#
# Bulk Modulus (GPa) = 54.03216 73.23711 63.63463
# Shear Modulus (GPa) = 25.25785 36.38065 30.81925
#
# Velocity S-wave (km/s) = 3.30542 3.96701 3.65123
# Velocity P-wave (km/s) = 6.15958 7.25693 6.73065
#
# Compressibility (1/GPa) = 0.01850750
#
# Stress axis : x y z
#
# Youngs Moduli (GPa) = 121.95598 37.18878 44.24224
#
# Poissons Ratio (x) = 0.07358 0.05098
# Poissons Ratio (y) = 0.24129 0.72830
# Poissons Ratio (z) = 0.14054 0.61219
#
# Static dielectric constant tensor:
#      x y z
#    x 4.309600 0.248180 -0.056150 
#    y 0.248180 5.177980 0.057060 
#    z -0.056150 0.057060 4.018560 
# 
# 
# High freq. dielectric constant tensor:
#      x y z
#    x 1.916900 0.006830 0.005170 
#    y 0.006830 1.933650 -0.007520 
#    z 0.005170 -0.007520 1.893770 
# 
# From -- ./inp_files/484533.got.cif
#   From: 2010.06.25/outbox.cif.g09.slc.cpg/sg2_243_cif.got.tgz:484533.got - 2010.06.27 13:26:56.
