data_PCOD8016023
_publ_section_title
;
Structure prediction by ZEFSAII (Michael W. Deem and Ramdas Pophale) SiO2 
 PCOD8016023
Probable space group: P -1
;
_chemical_formula_sum "Si O2"
_cell_formula_units_Z 14
_cell_length_a 9.943571
_cell_length_b 11.533953
_cell_length_c 9.205192
_cell_angle_alpha 68.237374
_cell_angle_beta 63.742123
_cell_angle_gamma 40.219177
_cell_volume 610.366281
_symmetry_space_group_name_H-M "P -1"
_symmetry_group_IT_number 2
_symmetry_cell_setting 'triclinic'
loop_
_space_group_symop_operation_xyz
x,y,z
-x,-y,-z
loop_
_atom_site_type_symbol
_atom_site_label
_atom_site_fract_x
_atom_site_fract_y
_atom_site_fract_z
Si Si1 0.639561 0.023659 0.352660
Si Si2 0.878508 0.221011 0.720807
Si Si3 0.443407 0.046796 0.172062
Si Si4 0.505187 0.362521 0.359193
Si Si5 0.735167 0.357813 0.019543
Si Si6 0.784083 0.592614 0.984514
Si Si7 0.599102 0.205034 0.695850
O O1 0.648609 0.974424 0.201248
O O2 0.500307 0.232926 0.340406
O O3 0.500000 0.000000 0.500000
O O4 0.872862 0.895040 0.378121
O O5 0.719998 0.430048 0.655792
O O6 0.809301 0.137155 0.706682
O O7 0.874995 0.197367 0.908468
O O8 0.266170 0.262776 0.168162
O O9 0.355034 0.963792 0.305043
O O10 0.500000 0.000000 0.000000
O O11 0.713552 0.309153 0.212675
O O12 0.541060 0.327430 0.530460
O O13 0.500000 0.500000 0.000000
O O14 0.828693 0.441153 0.943033
O O15 0.597005 0.677485 0.151703
O O16 0.000000 0.500000 0.000000
#
# Coordination Sequence:
#
# PCOD8016023 Si02
#       7
#     2   2   2   2   2   2   2
#     4  12  27  48  67 106 141 184 233 288 355 412
#     4  11  26  44  75 100 140 190 233 286 347 412
#     4  10  24  45  65  97 144 172 230 288 336 417
#     4  11  24  46  74 101 147 179 237 290 341 422
#     4  10  21  43  69 101 135 180 235 279 341 415
#     4  11  24  41  72 104 134 182 231 287 348 408
#     4  11  23  47  67 105 141 183 232 283 352 414
#
# _framework density 22.937048000000001
#
# number of rings (size 3 to 8) (size 9 to 14) (size 15 to 20)
#    0.000    1.143    4.286    2.143    6.000    4.000 
#    0.000    0.000    0.000    0.000    0.000    0.000 
#    0.000    0.000    0.000    0.000    0.000    0.000 
#
# Total GULP energy -173474.610351 kJ/mol
# GULP energy per Si atom -12391.043596 kJ/mol
# Density = 2.288484 g / cm^3
# Si number density = 22.937048 Si / 1000 Ang^3
#
#
#
# Elastic Constant Matrix: (Units=GPa)
#
#
# Indices 1 2 3 4 5 6 
#
# 1 206.5042 59.3099 25.0964 -9.4869 3.6048 2.6580
# 2 59.3099 75.1562 23.5749 -19.4258 -7.2066 9.9242
# 3 25.0964 23.5749 83.7082 -13.2006 2.6356 -5.6804
# 4 -9.4869 -19.4258 -13.2006 33.1359 6.6472 -6.4321
# 5 3.6048 -7.2066 2.6356 6.6472 38.0119 0.1335
# 6 2.6580 9.9242 -5.6804 -6.4321 0.1335 46.9520
#
#
#
# Elastic Compliance Matrix: (Units=1/GPa)
#
#
# Indices 1 2 3 4 5 6 
#
# 1 0.006424 -0.005419 -0.000497 -0.001144 -0.001404 0.000569
# 2 -0.005419 0.021638 -0.003498 0.008366 0.003408 -0.003554
# 3 -0.000497 -0.003498 0.014074 0.004493 -0.002388 0.003093
# 4 -0.001144 0.008366 0.004493 0.038419 -0.005350 0.004118
# 5 -0.001404 0.003408 -0.002388 -0.005350 0.028194 -0.001743
# 6 0.000569 -0.003554 0.003093 0.004118 -0.001743 0.022961
#
#
# Mechanical properties :
#
#
# Convention : Reuss Voigt Hill
#
# Bulk Modulus (GPa) = 42.90578 64.59231 53.74904
# Shear Modulus (GPa) = 31.58414 40.77914 36.18164
#
# Velocity S-wave (km/s) = 3.71481 4.22106 3.97600
# Velocity P-wave (km/s) = 6.09477 7.20959 6.67550
#
# Compressibility (1/GPa) = 0.02330688
#
# Stress axis : x y z
#
# Youngs Moduli (GPa) = 155.66759 46.21536 71.05185
#
# Poissons Ratio (x) = 0.25043 0.03534
# Poissons Ratio (y) = 0.84353 0.24857
# Poissons Ratio (z) = 0.07743 0.16168
#
# Static dielectric constant tensor:
#      x y z
#    x 6.183760 0.147130 0.253940 
#    y 0.147130 4.669570 -0.234760 
#    z 0.253940 -0.234760 5.068510 
# 
# 
# High freq. dielectric constant tensor:
#      x y z
#    x 1.917160 0.025860 0.011640 
#    y 0.025860 1.890800 -0.008520 
#    z 0.011640 -0.008520 1.912080 
# 
# From -- ./inp_files/176000.got.cif
#   From: 2010.06.25/outbox.cif.g09.slc.cpg/sg2_88_cif.got.tgz:176000.got - 2010.06.27 13:26:56.
