data_PCOD8016053
_publ_section_title
;
Structure prediction by ZEFSAII (Michael W. Deem and Ramdas Pophale) SiO2 
 PCOD8016053
Probable space group: P -1
;
_chemical_formula_sum "Si O2"
_cell_formula_units_Z 14
_cell_length_a 8.752434
_cell_length_b 12.134944
_cell_length_c 11.157406
_cell_angle_alpha 79.078738
_cell_angle_beta 102.308897
_cell_angle_gamma 143.223153
_cell_volume 692.814565
_symmetry_space_group_name_H-M "P -1"
_symmetry_group_IT_number 2
_symmetry_cell_setting 'triclinic'
loop_
_space_group_symop_operation_xyz
x,y,z
-x,-y,-z
loop_
_atom_site_type_symbol
_atom_site_label
_atom_site_fract_x
_atom_site_fract_y
_atom_site_fract_z
Si Si1 0.218997 0.181256 0.343565
Si Si2 0.947798 0.718133 0.201929
Si Si3 0.617734 0.878733 0.826612
Si Si4 0.580591 0.478899 0.762345
Si Si5 0.565706 0.053594 0.637289
Si Si6 0.790391 0.466176 0.019245
Si Si7 0.642644 0.825539 0.381659
O O1 0.340958 0.201573 0.239266
O O2 0.234903 0.325136 0.310509
O O3 0.378880 0.227340 0.474267
O O4 0.928577 0.973766 0.348661
O O5 0.123938 0.767421 0.329118
O O6 0.687597 0.614257 0.235898
O O7 0.903110 0.595276 0.124573
O O8 0.107678 0.912709 0.127918
O O9 0.462476 0.748100 0.942664
O O10 0.456652 0.884984 0.729249
O O11 0.548364 0.357127 0.692173
O O12 0.713838 0.513551 0.898308
O O13 0.439862 0.093090 0.661179
O O14 0.500000 0.000000 0.500000
O O15 0.000000 0.500000 0.000000
#
# Coordination Sequence:
#
# PCOD8016053 Si02
#       7
#     2   2   2   2   2   2   2
#     4  11  23  41  70  96 136 169 218 269 325 391
#     4  10  23  43  65  95 131 169 222 262 326 387
#     4  10  23  44  67  95 133 171 219 265 330 384
#     4  12  25  42  67  99 132 176 220 266 325 386
#     4  10  21  43  69  95 132 174 212 268 329 384
#     4  12  27  45  65  96 134 173 225 270 319 395
#     4  11  22  43  65 100 133 171 218 268 323 391
#
# _framework density 20.207428
#
# number of rings (size 3 to 8) (size 9 to 14) (size 15 to 20)
#    0.857    0.286    4.286    1.714    4.000    2.286 
#    0.000    1.429    0.000    0.000    0.000    0.000 
#    0.000    0.000    0.000    0.000    0.000    0.000 
#
# Total GULP energy -173601.414887 kJ/mol
# GULP energy per Si atom -12400.101063 kJ/mol
# Density = 2.016143 g / cm^3
# Si number density = 20.207428 Si / 1000 Ang^3
#
#
#
# Elastic Constant Matrix: (Units=GPa)
#
#
# Indices 1 2 3 4 5 6 
#
# 1 97.5402 3.7745 25.1074 5.0717 1.1668 -13.6127
# 2 3.7745 88.2351 20.1285 -3.7607 -0.6512 -17.9617
# 3 25.1074 20.1285 48.3931 -0.3058 16.3797 3.0407
# 4 5.0717 -3.7607 -0.3058 40.6132 -0.9993 -2.1455
# 5 1.1668 -0.6512 16.3797 -0.9993 39.0888 2.7158
# 6 -13.6127 -17.9617 3.0407 -2.1455 2.7158 37.2770
#
#
#
# Elastic Compliance Matrix: (Units=1/GPa)
#
#
# Indices 1 2 3 4 5 6 
#
# 1 0.013684 0.003087 -0.009946 -0.001047 0.003298 0.006996
# 2 0.003087 0.015401 -0.009820 0.001542 0.003682 0.009170
# 3 -0.009946 -0.009820 0.035270 -0.000286 -0.013942 -0.010242
# 4 -0.001047 0.001542 -0.000286 0.025005 0.000693 0.001772
# 5 0.003298 0.003682 -0.013942 0.000693 0.031275 0.001877
# 6 0.006996 0.009170 -0.010242 0.001772 0.001877 0.034600
#
#
# Mechanical properties :
#
#
# Convention : Reuss Voigt Hill
#
# Bulk Modulus (GPa) = 32.26165 36.90992 34.58578
# Shear Modulus (GPa) = 25.13505 35.73965 30.43735
#
# Velocity S-wave (km/s) = 3.53065 4.21008 3.88525
# Velocity P-wave (km/s) = 5.71144 6.47597 6.10569
#
# Compressibility (1/GPa) = 0.03099656
#
# Stress axis : x y z
#
# Youngs Moduli (GPa) = 73.07666 64.93050 28.35295
#
# Poissons Ratio (x) = -0.20046 0.28201
# Poissons Ratio (y) = -0.22561 0.27843
# Poissons Ratio (z) = 0.72684 0.63764
#
# Static dielectric constant tensor:
#      x y z
#    x 3.672860 -0.110830 0.119420 
#    y -0.110830 3.803450 0.131980 
#    z 0.119420 0.131980 3.667890 
# 
# 
# High freq. dielectric constant tensor:
#      x y z
#    x 1.794910 -0.013960 0.001790 
#    y -0.013960 1.794330 0.005630 
#    z 0.001790 0.005630 1.783000 
# 
# From -- ./inp_files/390049.got.cif
#   From: 2010.06.25/outbox.cif.g09.slc.cpg/sg2_196_cif.got.tgz:390049.got - 2010.06.27 13:26:56.
