data_PCOD8016896
_publ_section_title
;
Structure prediction by ZEFSAII (Michael W. Deem and Ramdas Pophale) SiO2 
 PCOD8016896
Probable space group: P -1
;
_chemical_formula_sum "Si O2"
_cell_formula_units_Z 16
_cell_length_a 14.674630
_cell_length_b 14.864222
_cell_length_c 13.515284
_cell_angle_alpha 29.030160
_cell_angle_beta 28.647061
_cell_angle_gamma 38.067975
_cell_volume 683.321971
_symmetry_space_group_name_H-M "P -1"
_symmetry_group_IT_number 2
_symmetry_cell_setting 'triclinic'
loop_
_space_group_symop_operation_xyz
x,y,z
-x,-y,-z
loop_
_atom_site_type_symbol
_atom_site_label
_atom_site_fract_x
_atom_site_fract_y
_atom_site_fract_z
Si Si1 0.838141 0.553986 0.525943
Si Si2 0.204739 0.301092 0.199652
Si Si3 0.102254 0.899058 0.883685
Si Si4 0.774729 0.171672 0.965130
Si Si5 0.348179 0.215963 0.360194
Si Si6 0.882581 0.618524 0.204523
Si Si7 0.534292 0.444035 0.409267
Si Si8 0.170362 0.870183 0.632701
O O1 0.657740 0.647510 0.670018
O O2 0.905043 0.672060 0.251254
O O3 0.000000 0.500000 0.500000
O O4 0.772041 0.365020 0.719701
O O5 0.256148 0.309386 0.258094
O O6 0.008381 0.426492 0.245575
O O7 0.173475 0.089858 0.395252
O O8 0.374051 0.385817 0.895877
O O9 0.118595 0.767373 0.091379
O O10 0.216424 0.826998 0.746439
O O11 0.218503 0.058794 0.669930
O O12 0.892736 0.003293 0.957446
O O13 0.558945 0.122995 0.229428
O O14 0.663724 0.597754 0.411918
O O15 0.961989 0.785189 0.901950
O O16 0.500000 0.500000 0.500000
O O17 0.670824 0.251611 0.463766
#
# Coordination Sequence:
#
# PCOD8016896 Si02
#       8
#     2   2   2   2   2   2   2   2
#     4  12  20  36  59  91 131 174 217 257 315 387
#     4  10  23  45  67 100 138 173 219 275 333 406
#     4  10  22  37  53  87 129 171 218 265 308 386
#     4  11  22  33  54  82 127 177 221 261 311 373
#     4  11  22  36  57  90 129 175 218 257 316 391
#     4  11  24  43  68  98 139 179 218 279 333 389
#     4  11  27  48  72 101 130 168 227 288 343 400
#     4  10  24  43  69  98 135 173 223 273 338 402
#
# _framework density 23.415022
#
# number of rings (size 3 to 8) (size 9 to 14) (size 15 to 20)
#    0.000    1.250    2.500    3.000    5.250    5.500 
#    0.000    1.250    0.000    0.000    0.000    0.000 
#    0.000    0.000    0.000    0.000    0.000    0.000 
#
# Total GULP energy -198251.810030 kJ/mol
# GULP energy per Si atom -12390.738127 kJ/mol
# Density = 2.336173 g / cm^3
# Si number density = 23.415022 Si / 1000 Ang^3
#
#
#
# Elastic Constant Matrix: (Units=GPa)
#
#
# Indices 1 2 3 4 5 6 
#
# 1 46.2483 17.5151 23.1585 6.6662 -1.6028 12.3117
# 2 17.5151 117.8755 72.7613 3.9727 -3.4875 8.0836
# 3 23.1585 72.7613 170.6600 -5.1283 -3.0039 -11.3457
# 4 6.6662 3.9727 -5.1283 45.7691 -9.2330 -2.1614
# 5 -1.6028 -3.4875 -3.0039 -9.2330 22.7028 10.4512
# 6 12.3117 8.0836 -11.3457 -2.1614 10.4512 33.6170
#
#
#
# Elastic Compliance Matrix: (Units=1/GPa)
#
#
# Indices 1 2 3 4 5 6 
#
# 1 0.028702 0.000075 -0.004898 -0.004137 0.006347 -0.014422
# 2 0.000075 0.012609 -0.005776 -0.001343 0.003475 -0.006175
# 3 -0.004898 -0.005776 0.009492 0.002124 -0.002469 0.007291
# 4 -0.004137 -0.001343 0.002124 0.024733 0.009258 0.001267
# 5 0.006347 0.003475 -0.002469 0.009258 0.058388 -0.021550
# 6 -0.014422 -0.006175 0.007291 0.001267 -0.021550 0.045755
#
#
# Mechanical properties :
#
#
# Convention : Reuss Voigt Hill
#
# Bulk Modulus (GPa) = 33.77816 62.40594 48.09205
# Shear Modulus (GPa) = 23.72512 35.17439 29.44976
#
# Velocity S-wave (km/s) = 3.18660 3.88005 3.55030
# Velocity P-wave (km/s) = 5.29116 6.83981 6.11471
#
# Compressibility (1/GPa) = 0.02960493
#
# Stress axis : x y z
#
# Youngs Moduli (GPa) = 34.84056 79.30670 105.35285
#
# Poissons Ratio (x) = -0.00594 0.51603
# Poissons Ratio (y) = -0.00261 0.60851
# Poissons Ratio (z) = 0.17065 0.45807
#
# Static dielectric constant tensor:
#      x y z
#    x 2.834780 -3.619240 2.653050 
#    y -3.619240 -7.986080 8.730880 
#    z 2.653050 8.730880 -1.562230 
# 
# 
# High freq. dielectric constant tensor:
#      x y z
#    x 1.874320 0.001400 0.001260 
#    y 0.001400 1.933230 -0.007540 
#    z 0.001260 -0.007540 1.969850 
# 
# From -- ./inp_files/533580.got.cif
#   From: 2010.06.25/outbox.cif.g09.slc.cpg/sg2_267_cif.got.tgz:533580.got - 2010.06.27 13:26:56.
