data_PCOD8016825
_publ_section_title
;
Structure prediction by ZEFSAII (Michael W. Deem and Ramdas Pophale) SiO2 
 PCOD8016825
Probable space group: P -1
;
_chemical_formula_sum "Si O2"
_cell_formula_units_Z 16
_cell_length_a 6.548491
_cell_length_b 29.493285
_cell_length_c 12.370579
_cell_angle_alpha 152.467034
_cell_angle_beta 56.498980
_cell_angle_gamma 132.761482
_cell_volume 801.975987
_symmetry_space_group_name_H-M "P -1"
_symmetry_group_IT_number 2
_symmetry_cell_setting 'triclinic'
loop_
_space_group_symop_operation_xyz
x,y,z
-x,-y,-z
loop_
_atom_site_type_symbol
_atom_site_label
_atom_site_fract_x
_atom_site_fract_y
_atom_site_fract_z
Si Si1 0.499991 0.235532 0.648227
Si Si2 0.300723 0.159062 0.174828
Si Si3 0.031703 0.515915 0.650709
Si Si4 0.072793 0.719195 0.740875
Si Si5 0.582840 0.684860 0.947324
Si Si6 0.066311 0.314735 0.535256
Si Si7 0.456915 0.442252 0.109434
Si Si8 0.742277 0.964668 0.853562
O O1 0.453347 0.229685 0.779618
O O2 0.291223 0.112090 0.402431
O O3 0.818680 0.270458 0.601174
O O4 0.442755 0.333784 0.823236
O O5 0.617733 0.198588 0.126118
O O6 0.275778 0.271508 0.424044
O O7 0.270440 0.106646 0.189973
O O8 0.055742 0.071952 0.982135
O O9 0.000000 0.500000 0.500000
O O10 0.025853 0.411280 0.490385
O O11 0.785230 0.533944 0.812524
O O12 0.322559 0.629495 0.825102
O O13 0.064566 0.738425 0.655846
O O14 0.864093 0.750618 0.932801
O O15 0.589919 0.585931 0.807610
O O16 0.237378 0.449817 0.769392
O O17 0.500000 0.000000 0.000000
#
# Coordination Sequence:
#
# PCOD8016825 Si02
#       8
#     2   2   2   2   2   2   2   2
#     4  10  22  43  61  91 131 168 200 265 325 360
#     4  11  24  37  70  97 112 162 221 262 306 361
#     4  12  20  36  61  92 130 181 209 237 305 391
#     4  12  21  38  61  95 127 165 216 253 302 373
#     4  10  24  38  57  92 137 168 200 256 314 370
#     4  12  21  40  64  95 132 161 209 260 307 384
#     4  10  22  36  58  95 133 162 200 248 320 374
#     4  11  22  46  66  91 122 162 218 266 311 371
#
# _framework density 19.950721000000001
#
# number of rings (size 3 to 8) (size 9 to 14) (size 15 to 20)
#    0.750    0.250    6.250    1.500    0.000    1.000 
#    0.000    2.500    0.000    3.000    0.000    0.000 
#    0.000    0.000    0.000    0.000    0.000    0.000 
#
# Total GULP energy -198332.641208 kJ/mol
# GULP energy per Si atom -12395.790075 kJ/mol
# Density = 1.990531 g / cm^3
# Si number density = 19.950721 Si / 1000 Ang^3
#
#
#
# Elastic Constant Matrix: (Units=GPa)
#
#
# Indices 1 2 3 4 5 6 
#
# 1 105.4441 37.4615 49.1893 -10.0859 11.7610 20.7006
# 2 37.4615 69.9739 40.9935 -16.7814 5.8640 29.8046
# 3 49.1893 40.9935 125.4043 -8.7221 19.6472 12.2837
# 4 -10.0859 -16.7814 -8.7221 31.0800 1.7430 -2.2644
# 5 11.7610 5.8640 19.6472 1.7430 28.0669 13.1526
# 6 20.7006 29.8046 12.2837 -2.2644 13.1526 45.0446
#
#
#
# Elastic Compliance Matrix: (Units=1/GPa)
#
#
# Indices 1 2 3 4 5 6 
#
# 1 0.013079 -0.003651 -0.003421 0.001229 -0.001368 -0.002201
# 2 -0.003651 0.030188 -0.007125 0.011347 0.007996 -0.018118
# 3 -0.003421 -0.007125 0.012363 -0.000647 -0.008159 0.005265
# 4 0.001229 0.011347 -0.000647 0.038264 -0.002329 -0.005293
# 5 -0.001368 0.007996 -0.008159 -0.002329 0.048177 -0.016621
# 6 -0.002201 -0.018118 0.005265 -0.005293 -0.016621 0.038351
#
#
# Mechanical properties :
#
#
# Convention : Reuss Voigt Hill
#
# Bulk Modulus (GPa) = 36.71672 61.79013 49.25343
# Shear Modulus (GPa) = 22.94680 32.38350 27.66515
#
# Velocity S-wave (km/s) = 3.39510 4.03323 3.72785
# Velocity P-wave (km/s) = 5.81486 7.26140 6.57801
#
# Compressibility (1/GPa) = 0.02723554
#
# Stress axis : x y z
#
# Youngs Moduli (GPa) = 76.45841 33.12566 80.88705
#
# Poissons Ratio (x) = 0.12094 0.27675
# Poissons Ratio (y) = 0.27913 0.57632
# Poissons Ratio (z) = 0.26160 0.23602
#
# Static dielectric constant tensor:
#      x y z
#    x 3.746270 0.121590 -0.024560 
#    y 0.121590 3.575120 0.074110 
#    z -0.024560 0.074110 3.573610 
# 
# 
# High freq. dielectric constant tensor:
#      x y z
#    x 1.786660 0.013490 -0.002040 
#    y 0.013490 1.765710 0.004920 
#    z -0.002040 0.004920 1.761140 
# 
# From -- ./inp_files/371461.got.cif
#   From: 2010.06.25/outbox.cif.g09.slc.cpg/sg2_186_cif.got.tgz:371461.got - 2010.06.27 13:26:56.
