data_PCOD8016474
_publ_section_title
;
Structure prediction by ZEFSAII (Michael W. Deem and Ramdas Pophale) SiO2 
 PCOD8016474
Probable space group: P -1
;
_chemical_formula_sum "Si O2"
_cell_formula_units_Z 14
_cell_length_a 12.460302
_cell_length_b 5.439934
_cell_length_c 9.237870
_cell_angle_alpha 78.883061
_cell_angle_beta 91.251751
_cell_angle_gamma 99.478075
_cell_volume 606.003474
_symmetry_space_group_name_H-M "P -1"
_symmetry_group_IT_number 2
_symmetry_cell_setting 'triclinic'
loop_
_space_group_symop_operation_xyz
x,y,z
-x,-y,-z
loop_
_atom_site_type_symbol
_atom_site_label
_atom_site_fract_x
_atom_site_fract_y
_atom_site_fract_z
Si Si1 0.466188 0.724869 0.383697
Si Si2 0.652278 0.196100 0.372567
Si Si3 0.141283 0.032780 0.649485
Si Si4 0.117265 0.541807 0.073126
Si Si5 0.560836 0.603819 0.131518
Si Si6 0.214248 0.121885 0.947589
Si Si7 0.058851 0.356741 0.396847
O O1 0.500000 0.500000 0.500000
O O2 0.354889 0.765714 0.455938
O O3 0.459275 0.664952 0.219442
O O4 0.562845 0.958033 0.364364
O O5 0.626885 0.420669 0.243914
O O6 0.772724 0.156482 0.344560
O O7 0.157879 0.176615 0.787343
O O8 0.153752 0.241410 0.497738
O O9 0.021838 0.869496 0.657640
O O10 0.110949 0.534211 0.248483
O O11 0.181356 0.320732 0.041434
O O12 0.000000 0.500000 0.000000
O O13 0.178734 0.825311 0.014744
O O14 0.654099 0.841169 0.067000
O O15 0.500000 0.500000 0.000000
O O16 0.000000 0.500000 0.500000
#
# Coordination Sequence:
#
# PCOD8016474 Si02
#       7
#     2   2   2   2   2   2   2
#     4   9  20  41  69  98 132 183 241 300 365 426
#     4  10  21  44  71  98 136 192 242 300 366 434
#     4  11  24  45  74 104 142 193 249 294 367 446
#     4  12  26  48  75 107 152 192 246 307 373 451
#     4  11  25  46  69 104 147 190 248 308 367 442
#     4  12  26  48  76 107 144 207 243 295 390 444
#     4  11  27  45  72 108 147 187 242 311 359 437
#
# _framework density 23.102176
#
# number of rings (size 3 to 8) (size 9 to 14) (size 15 to 20)
#    0.000    1.143    2.857    2.143    6.000    0.571 
#   10.286    0.000    0.000    0.000    0.000    0.000 
#    0.000    0.000    0.000    0.000    0.000    0.000 
#
# Total GULP energy -173477.934319 kJ/mol
# GULP energy per Si atom -12391.281023 kJ/mol
# Density = 2.304959 g / cm^3
# Si number density = 23.102176 Si / 1000 Ang^3
#
#
#
# Elastic Constant Matrix: (Units=GPa)
#
#
# Indices 1 2 3 4 5 6 
#
# 1 66.9050 27.6154 59.6785 -0.3976 -12.4889 -5.5013
# 2 27.6154 121.6744 54.8410 -3.8582 -12.3576 7.1260
# 3 59.6785 54.8410 193.1952 15.4440 -18.1839 0.8642
# 4 -0.3976 -3.8582 15.4440 43.5148 -4.4753 -10.3871
# 5 -12.4889 -12.3576 -18.1839 -4.4753 35.6165 6.5823
# 6 -5.5013 7.1260 0.8642 -10.3871 6.5823 44.2731
#
#
#
# Elastic Compliance Matrix: (Units=1/GPa)
#
#
# Indices 1 2 3 4 5 6 
#
# 1 0.022378 -0.001952 -0.006300 0.003483 0.003748 0.003478
# 2 -0.001952 0.009998 -0.002133 0.001422 0.002208 -0.001805
# 3 -0.006300 -0.002133 0.008104 -0.003384 0.001049 -0.001548
# 4 0.003483 0.001422 -0.003384 0.026004 0.002135 0.006053
# 5 0.003748 0.002208 0.001049 0.002135 0.031723 -0.004126
# 6 0.003478 -0.001805 -0.001548 0.006053 -0.004126 0.025373
#
#
# Mechanical properties :
#
#
# Convention : Reuss Voigt Hill
#
# Bulk Modulus (GPa) = 50.73465 74.00494 62.36980
# Shear Modulus (GPa) = 33.13009 40.65688 36.89349
#
# Velocity S-wave (km/s) = 3.79102 4.19963 4.00055
# Velocity P-wave (km/s) = 6.41647 7.45783 6.95666
#
# Compressibility (1/GPa) = 0.01971039
#
# Stress axis : x y z
#
# Youngs Moduli (GPa) = 44.68711 100.01964 123.39988
#
# Poissons Ratio (x) = 0.19525 0.77737
# Poissons Ratio (y) = 0.08723 0.26319
# Poissons Ratio (z) = 0.28151 0.21333
#
# Static dielectric constant tensor:
#      x y z
#    x 4.016920 -0.525800 -0.176370 
#    y -0.525800 3.741870 0.552020 
#    z -0.176370 0.552020 4.392460 
# 
# 
# High freq. dielectric constant tensor:
#      x y z
#    x 1.898080 0.001810 -0.021570 
#    y 0.001810 1.926130 0.001740 
#    z -0.021570 0.001740 1.927190 
# 
# From -- ./inp_files/27567.got.cif
#   From: 2010.06.25/outbox.cif.g09.slc.cpg/sg2_14_cif.got.tgz:27567.got - 2010.06.27 13:26:56.
