data_PCOD8016710
_publ_section_title
;
Structure prediction by ZEFSAII (Michael W. Deem and Ramdas Pophale) SiO2 
 PCOD8016710
Probable space group: P -1
;
_chemical_formula_sum "Si O2"
_cell_formula_units_Z 16
_cell_length_a 11.079408
_cell_length_b 9.460211
_cell_length_c 19.404387
_cell_angle_alpha 143.403959
_cell_angle_beta 138.847811
_cell_angle_gamma 37.502719
_cell_volume 699.435558
_symmetry_space_group_name_H-M "P -1"
_symmetry_group_IT_number 2
_symmetry_cell_setting 'triclinic'
loop_
_space_group_symop_operation_xyz
x,y,z
-x,-y,-z
loop_
_atom_site_type_symbol
_atom_site_label
_atom_site_fract_x
_atom_site_fract_y
_atom_site_fract_z
Si Si1 0.660445 0.894582 0.588956
Si Si2 0.084360 0.874164 0.772691
Si Si3 0.162695 0.110400 0.765347
Si Si4 0.307002 0.275147 0.679488
Si Si5 0.879099 0.177586 0.081761
Si Si6 0.155586 0.425753 0.269336
Si Si7 0.494491 0.839441 0.138599
Si Si8 0.875744 0.316230 0.507862
O O1 0.529432 0.035485 0.656110
O O2 0.500000 0.000000 0.500000
O O3 0.764534 0.572618 0.510395
O O4 0.845791 0.967262 0.685211
O O5 0.171900 0.001325 0.803612
O O6 0.232754 0.549399 0.710884
O O7 0.087387 0.983931 0.894588
O O8 0.183436 0.903424 0.632176
O O9 0.357614 0.166655 0.862747
O O10 0.946556 0.388532 0.769231
O O11 0.356947 0.331993 0.801080
O O12 0.128619 0.184686 0.563273
O O13 0.979125 0.377020 0.215004
O O14 0.637784 0.302215 0.002521
O O15 0.000000 0.000000 0.000000
O O16 0.212798 0.589920 0.415601
O O17 0.350760 0.151499 0.221127
#
# Coordination Sequence:
#
# PCOD8016710 Si02
#       8
#     2   2   2   2   2   2   2   2
#     4  11  21  38  64  94 127 171 218 257 312 378
#     4  11  24  43  62  97 135 165 208 271 324 374
#     4  12  26  39  61  98 140 169 202 260 335 386
#     4  11  21  40  67  92 124 170 223 259 305 377
#     4  10  21  46  72  90 120 167 227 272 305 371
#     4  11  22  44  64  93 129 167 220 266 312 373
#     4  11  24  41  68  95 119 172 226 261 313 379
#     4  11  22  41  62  97 133 172 207 263 316 382
#
# _framework density 22.875589999999999
#
# number of rings (size 3 to 8) (size 9 to 14) (size 15 to 20)
#    0.000    1.000    5.000    2.625    0.000    8.000 
#    0.000    2.500    0.000    0.000    0.000    0.000 
#    0.000    0.000    0.000    0.000    0.000    0.000 
#
# Total GULP energy -198341.259550 kJ/mol
# GULP energy per Si atom -12396.328722 kJ/mol
# Density = 2.282352 g / cm^3
# Si number density = 22.875590 Si / 1000 Ang^3
#
#
#
# Elastic Constant Matrix: (Units=GPa)
#
#
# Indices 1 2 3 4 5 6 
#
# 1 68.3772 23.2825 7.8673 -21.7079 -4.7883 4.1502
# 2 23.2825 107.3106 2.5762 -32.6862 -0.9538 3.8008
# 3 7.8673 2.5762 73.3227 -27.1297 -3.9392 -1.3982
# 4 -21.7079 -32.6862 -27.1297 34.8629 -5.5595 -8.2812
# 5 -4.7883 -0.9538 -3.9392 -5.5595 35.1446 -6.3459
# 6 4.1502 3.8008 -1.3982 -8.2812 -6.3459 46.6041
#
#
#
# Elastic Compliance Matrix: (Units=1/GPa)
#
#
# Indices 1 2 3 4 5 6 
#
# 1 0.020232 0.001688 0.005810 0.020534 0.007219 0.002867
# 2 0.001688 0.016456 0.009165 0.025657 0.006527 0.004230
# 3 0.005810 0.009165 0.027108 0.036925 0.011301 0.007649
# 4 0.020534 0.025657 0.036925 0.103211 0.027438 0.019263
# 5 0.007219 0.006527 0.011301 0.027438 0.036857 0.009058
# 6 0.002867 0.004230 0.007649 0.019263 0.009058 0.025743
#
#
# Mechanical properties :
#
#
# Convention : Reuss Voigt Hill
#
# Bulk Modulus (GPa) = 10.29622 35.16250 22.72936
# Shear Modulus (GPa) = 21.86708 37.67461 29.77084
#
# Velocity S-wave (km/s) = 3.09514 4.06265 3.61144
# Velocity P-wave (km/s) = 4.15739 6.11648 5.22950
#
# Compressibility (1/GPa) = 0.09712305
#
# Stress axis : x y z
#
# Youngs Moduli (GPa) = 49.42664 60.76902 36.88899
#
# Poissons Ratio (x) = -0.10258 -0.21433
# Poissons Ratio (y) = -0.08344 -0.33810
# Poissons Ratio (z) = -0.28717 -0.55697
#
# Static dielectric constant tensor:
#      x y z
#    x 4.210280 -0.220950 -0.018690 
#    y -0.220950 4.213090 -0.117250 
#    z -0.018690 -0.117250 4.417600 
# 
# 
# High freq. dielectric constant tensor:
#      x y z
#    x 1.896370 -0.016870 -0.007220 
#    y -0.016870 1.921000 -0.010940 
#    z -0.007220 -0.010940 1.898820 
# 
# From -- ./inp_files/594261.got.cif
#   From: 2010.06.25/outbox.cif.g09.slc.cpg/sg2_298_cif.got.tgz:594261.got - 2010.06.27 13:26:56.
