data_PCOD8016769
_publ_section_title
;
Structure prediction by ZEFSAII (Michael W. Deem and Ramdas Pophale) SiO2 
 PCOD8016769
Probable space group: P -1
;
_chemical_formula_sum "Si O2"
_cell_formula_units_Z 14
_cell_length_a 5.435001
_cell_length_b 27.231156
_cell_length_c 15.146886
_cell_angle_alpha 18.507540
_cell_angle_beta 114.624430
_cell_angle_gamma 115.266186
_cell_volume 642.970089
_symmetry_space_group_name_H-M "P -1"
_symmetry_group_IT_number 2
_symmetry_cell_setting 'triclinic'
loop_
_space_group_symop_operation_xyz
x,y,z
-x,-y,-z
loop_
_atom_site_type_symbol
_atom_site_label
_atom_site_fract_x
_atom_site_fract_y
_atom_site_fract_z
Si Si1 0.009154 0.769763 0.748479
Si Si2 0.521152 0.167391 0.176111
Si Si3 0.183278 0.771536 0.584451
Si Si4 0.093768 0.894936 0.815794
Si Si5 0.567177 0.016801 0.128002
Si Si6 0.303615 0.195068 0.649947
Si Si7 0.528150 0.516633 0.079953
O O1 0.292761 0.723638 0.912012
O O2 0.031934 0.831933 0.544356
O O3 0.922276 0.922749 0.525979
O O4 0.798695 0.616459 0.985075
O O5 0.687118 0.176246 0.093206
O O6 0.206917 0.206996 0.054915
O O7 0.500000 0.000000 0.500000
O O8 0.444166 0.889056 0.398167
O O9 0.995239 0.750557 0.504093
O O10 0.270130 0.607276 0.911695
O O11 0.200696 0.880249 0.957689
O O12 0.680995 0.938712 0.192397
O O13 0.341763 0.125548 0.871760
O O14 0.521478 0.346480 0.412107
O O15 0.500000 0.500000 0.000000
#
# Coordination Sequence:
#
# PCOD8016769 Si02
#       7
#     2   2   2   2   2   2   2
#     4  11  22  34  59  90 120 154 198 251 313 355
#     4  10  22  34  60  91 123 152 203 260 311 356
#     4  12  20  37  60  83 125 157 198 252 297 366
#     4  11  20  39  59  90 122 157 204 258 307 356
#     4  11  22  38  61  84 123 155 205 250 298 364
#     4  11  24  38  55  90 120 163 198 242 307 371
#     4  12  22  38  56  86 126 157 200 245 308 366
#
# _framework density 21.773951
#
# number of rings (size 3 to 8) (size 9 to 14) (size 15 to 20)
#    0.000    0.857    5.714    4.286    2.000    0.000 
#    0.000    0.000    0.000    1.714    0.000    0.000 
#    0.000    0.000    0.000    0.000    0.000    0.000 
#
# Total GULP energy -173482.275535 kJ/mol
# GULP energy per Si atom -12391.591110 kJ/mol
# Density = 2.172439 g / cm^3
# Si number density = 21.773951 Si / 1000 Ang^3
#
#
#
# Elastic Constant Matrix: (Units=GPa)
#
#
# Indices 1 2 3 4 5 6 
#
# 1 93.1016 34.0157 -0.4821 2.9642 -0.1770 17.7615
# 2 34.0157 123.4972 30.4582 8.7138 1.9333 43.0339
# 3 -0.4821 30.4582 46.8256 10.9365 0.5706 2.2002
# 4 2.9642 8.7138 10.9365 27.1312 5.8566 -1.5421
# 5 -0.1770 1.9333 0.5706 5.8566 13.5796 3.4858
# 6 17.7615 43.0339 2.2002 -1.5421 3.4858 43.0139
#
#
#
# Elastic Compliance Matrix: (Units=1/GPa)
#
#
# Indices 1 2 3 4 5 6 
#
# 1 0.012428 -0.003183 0.002750 -0.001998 0.001956 -0.002318
# 2 -0.003183 0.016885 -0.009695 -0.002712 0.003092 -0.015430
# 3 0.002750 -0.009695 0.029514 -0.009251 0.002492 0.006521
# 4 -0.001998 -0.002712 -0.009251 0.046693 -0.021291 0.007410
# 5 0.001956 0.003092 0.002492 -0.021291 0.085308 -0.011705
# 6 -0.002318 -0.015430 0.006521 0.007410 -0.011705 0.040524
#
#
# Mechanical properties :
#
#
# Convention : Reuss Voigt Hill
#
# Bulk Modulus (GPa) = 25.92634 43.48978 34.70806
# Shear Modulus (GPa) = 18.90604 30.04042 24.47323
#
# Velocity S-wave (km/s) = 2.94987 3.71839 3.35620
# Velocity P-wave (km/s) = 4.85131 6.20096 5.56719
#
# Compressibility (1/GPa) = 0.03857081
#
# Stress axis : x y z
#
# Youngs Moduli (GPa) = 80.46489 59.22381 33.88167
#
# Poissons Ratio (x) = 0.18853 -0.09319
# Poissons Ratio (y) = 0.25615 0.32849
# Poissons Ratio (z) = -0.22131 0.57419
#
# Static dielectric constant tensor:
#      x y z
#    x 4.192100 0.495750 0.223780 
#    y 0.495750 4.754200 0.008230 
#    z 0.223780 0.008230 3.889090 
# 
# 
# High freq. dielectric constant tensor:
#      x y z
#    x 1.856540 0.020170 0.004250 
#    y 0.020170 1.869250 0.008310 
#    z 0.004250 0.008310 1.796150 
# 
# From -- ./inp_files/39928.got.cif
#   From: 2010.06.25/outbox.cif.g09.slc.cpg/sg2_20_cif.got.tgz:39928.got - 2010.06.27 13:26:56.
