data_PCOD8016716
_publ_section_title
;
Structure prediction by ZEFSAII (Michael W. Deem and Ramdas Pophale) SiO2 
 PCOD8016716
Probable space group: P -1
;
_chemical_formula_sum "Si O2"
_cell_formula_units_Z 14
_cell_length_a 11.141882
_cell_length_b 16.083979
_cell_length_c 15.981553
_cell_angle_alpha 155.639794
_cell_angle_beta 31.533976
_cell_angle_gamma 147.273082
_cell_volume 589.291223
_symmetry_space_group_name_H-M "P -1"
_symmetry_group_IT_number 2
_symmetry_cell_setting 'triclinic'
loop_
_space_group_symop_operation_xyz
x,y,z
-x,-y,-z
loop_
_atom_site_type_symbol
_atom_site_label
_atom_site_fract_x
_atom_site_fract_y
_atom_site_fract_z
Si Si1 0.072880 0.215113 0.447046
Si Si2 0.560533 0.949821 0.510706
Si Si3 0.379131 0.000603 0.984830
Si Si4 0.602358 0.426265 0.625728
Si Si5 0.249754 0.146830 0.453591
Si Si6 0.751836 0.818818 0.002520
Si Si7 0.022327 0.614164 0.764247
O O1 0.249360 0.186177 0.239431
O O2 0.220732 0.261378 0.488620
O O3 0.956875 0.396019 0.654248
O O4 0.847876 0.006396 0.402993
O O5 0.500000 0.000000 0.500000
O O6 0.443878 0.704491 0.379217
O O7 0.456816 0.081475 0.759481
O O8 0.500000 0.000000 0.000000
O O9 0.580083 0.009022 0.801956
O O10 0.171175 0.782926 0.896414
O O11 0.371331 0.336806 0.619911
O O12 0.652446 0.672076 0.845835
O O13 0.836019 0.397564 0.415963
O O14 0.000000 0.000000 0.500000
O O15 0.791617 0.679548 0.930392
O O16 0.000000 0.000000 0.000000
#
# Coordination Sequence:
#
# PCOD8016716 Si02
#       7
#     2   2   2   2   2   2   2
#     4  11  24  44  72 105 144 179 231 292 342 414
#     4  12  26  44  71 104 143 179 234 298 345 410
#     4   9  22  41  71 100 137 184 226 276 350 411
#     4  11  25  44  73 102 138 186 230 288 353 414
#     4  10  21  46  74 106 145 178 230 288 348 417
#     4  12  27  46  72 101 138 190 239 283 352 414
#     4  11  24  43  72 103 136 184 239 282 347 415
#
# _framework density 23.757353999999999
#
# number of rings (size 3 to 8) (size 9 to 14) (size 15 to 20)
#    0.000    1.143    2.857    2.143    4.000    8.571 
#    0.000    0.714    0.000    0.000    0.000    0.000 
#    0.000    0.000    0.000    0.000    0.000    0.000 
#
# Total GULP energy -173524.795313 kJ/mol
# GULP energy per Si atom -12394.628237 kJ/mol
# Density = 2.370328 g / cm^3
# Si number density = 23.757354 Si / 1000 Ang^3
#
#
#
# Elastic Constant Matrix: (Units=GPa)
#
#
# Indices 1 2 3 4 5 6 
#
# 1 107.8540 29.8491 34.5591 7.9639 21.5415 -2.6942
# 2 29.8491 92.1820 32.8115 -3.7420 12.5304 7.6372
# 3 34.5591 32.8115 106.7297 -1.5221 13.3577 14.4747
# 4 7.9639 -3.7420 -1.5221 35.8662 6.6959 -2.4744
# 5 21.5415 12.5304 13.3577 6.6959 43.5241 9.8866
# 6 -2.6942 7.6372 14.4747 -2.4744 9.8866 42.4468
#
#
#
# Elastic Compliance Matrix: (Units=1/GPa)
#
#
# Indices 1 2 3 4 5 6 
#
# 1 0.012125 -0.002554 -0.003012 -0.001970 -0.004777 0.003254
# 2 -0.002554 0.013078 -0.002808 0.002062 -0.001721 -0.001037
# 3 -0.003012 -0.002808 0.011774 0.000751 -0.000632 -0.003510
# 4 -0.001970 0.002062 0.000751 0.029624 -0.004887 0.002113
# 5 -0.004777 -0.001721 -0.000632 -0.004887 0.028293 -0.006653
# 6 0.003254 -0.001037 -0.003510 0.002113 -0.006653 0.026822
#
#
# Mechanical properties :
#
#
# Convention : Reuss Voigt Hill
#
# Bulk Modulus (GPa) = 49.43688 55.68945 52.56317
# Shear Modulus (GPa) = 34.43358 38.33716 36.38537
#
# Velocity S-wave (km/s) = 3.81121 4.02144 3.91774
# Velocity P-wave (km/s) = 6.34203 6.71226 6.52977
#
# Compressibility (1/GPa) = 0.02022781
#
# Stress axis : x y z
#
# Youngs Moduli (GPa) = 82.47563 76.46305 84.93247
#
# Poissons Ratio (x) = 0.19529 0.25585
# Poissons Ratio (y) = 0.21065 0.23851
# Poissons Ratio (z) = 0.24845 0.21472
#
# Static dielectric constant tensor:
#      x y z
#    x 4.498810 0.064800 0.137950 
#    y 0.064800 4.325820 -0.254630 
#    z 0.137950 -0.254630 4.699220 
# 
# 
# High freq. dielectric constant tensor:
#      x y z
#    x 1.959990 0.006930 0.007720 
#    y 0.006930 1.930770 -0.003870 
#    z 0.007720 -0.003870 1.936380 
# 
# From -- ./inp_files/104906.got.cif
#   From: 2010.06.25/outbox.cif.g09.slc.cpg/sg2_53_cif.got.tgz:104906.got - 2010.06.27 13:26:56.
