data_PCOD8016126
_publ_section_title
;
Structure prediction by ZEFSAII (Michael W. Deem and Ramdas Pophale) SiO2 
 PCOD8016126
Probable space group: P -1
;
_chemical_formula_sum "Si O2"
_cell_formula_units_Z 16
_cell_length_a 15.972633
_cell_length_b 6.714600
_cell_length_c 9.333290
_cell_angle_alpha 74.876671
_cell_angle_beta 51.102297
_cell_angle_gamma 97.419543
_cell_volume 692.531186
_symmetry_space_group_name_H-M "P -1"
_symmetry_group_IT_number 2
_symmetry_cell_setting 'triclinic'
loop_
_space_group_symop_operation_xyz
x,y,z
-x,-y,-z
loop_
_atom_site_type_symbol
_atom_site_label
_atom_site_fract_x
_atom_site_fract_y
_atom_site_fract_z
Si Si1 0.670087 0.844753 0.542390
Si Si2 0.433687 0.878990 0.820475
Si Si3 0.035838 0.567488 0.218981
Si Si4 0.614506 0.720742 0.305042
Si Si5 0.966678 0.770518 0.496327
Si Si6 0.718802 0.473919 0.718239
Si Si7 0.272971 0.583298 0.830080
Si Si8 0.191932 0.693121 0.610547
O O1 0.567896 0.921335 0.689765
O O2 0.672873 0.835447 0.369467
O O3 0.654388 0.610893 0.676896
O O4 0.790219 0.048017 0.426840
O O5 0.391033 0.773164 0.729350
O O6 0.415576 0.112512 0.800671
O O7 0.364440 0.704542 0.049188
O O8 0.984432 0.370030 0.426770
O O9 0.028856 0.785250 0.268734
O O10 0.944690 0.479277 0.201041
O O11 0.165065 0.603540 0.026629
O O12 0.500000 0.500000 0.500000
O O13 0.710823 0.652271 0.130237
O O14 0.826950 0.652517 0.654235
O O15 0.000000 0.000000 0.500000
O O16 0.759398 0.330459 0.591676
O O17 0.264441 0.623628 0.664462
#
# Coordination Sequence:
#
# PCOD8016126 Si02
#       8
#     2   2   2   2   2   2   2   2
#     4  12  24  44  70 102 140 183 236 287 360 416
#     4  12  26  44  72 104 135 186 240 288 349 421
#     4  10  23  42  67 103 137 182 234 284 353 413
#     4  12  25  45  73 100 140 191 237 286 353 418
#     4  10  21  43  70  99 142 186 225 287 352 417
#     4  11  25  45  68 106 142 179 232 291 359 415
#     4  12  23  45  70 102 140 184 239 290 341 427
#     4  11  24  44  70  98 147 183 223 296 357 412
#
# _framework density 23.103653000000001
#
# number of rings (size 3 to 8) (size 9 to 14) (size 15 to 20)
#    0.000    0.750    5.000    2.625    0.000    2.500 
#    0.000    0.625    0.000    0.000    0.000    0.000 
#    0.000    0.000    0.000    0.000    0.000    0.000 
#
# Total GULP energy -198333.892117 kJ/mol
# GULP energy per Si atom -12395.868257 kJ/mol
# Density = 2.305107 g / cm^3
# Si number density = 23.103653 Si / 1000 Ang^3
#
#
#
# Elastic Constant Matrix: (Units=GPa)
#
#
# Indices 1 2 3 4 5 6 
#
# 1 81.1869 31.9581 19.7757 1.2695 1.5278 -1.6771
# 2 31.9581 144.8921 42.6781 9.0792 -5.6350 -0.0786
# 3 19.7757 42.6781 76.9717 11.3498 -8.9880 -4.7977
# 4 1.2695 9.0792 11.3498 28.9998 -9.6706 8.4448
# 5 1.5278 -5.6350 -8.9880 -9.6706 34.0344 0.2980
# 6 -1.6771 -0.0786 -4.7977 8.4448 0.2980 54.6608
#
#
#
# Elastic Compliance Matrix: (Units=1/GPa)
#
#
# Indices 1 2 3 4 5 6 
#
# 1 0.013900 -0.002431 -0.002478 0.000581 -0.001517 0.000124
# 2 -0.002431 0.008697 -0.004060 -0.000866 0.000233 -0.000286
# 3 -0.002478 -0.004060 0.017059 -0.005110 0.002473 0.002191
# 4 0.000581 -0.000866 -0.005110 0.042296 0.010560 -0.007024
# 5 -0.001517 0.000233 0.002473 0.010560 0.033157 -0.001641
# 6 0.000124 -0.000286 0.002191 -0.007024 -0.001641 0.019585
#
#
# Mechanical properties :
#
#
# Convention : Reuss Voigt Hill
#
# Bulk Modulus (GPa) = 46.04890 54.65272 50.35081
# Shear Modulus (GPa) = 31.27512 37.44825 34.36169
#
# Velocity S-wave (km/s) = 3.68324 4.03038 3.86072
# Velocity P-wave (km/s) = 6.16953 6.73539 6.45866
#
# Compressibility (1/GPa) = 0.02171605
#
# Stress axis : x y z
#
# Youngs Moduli (GPa) = 71.94269 114.98034 58.62098
#
# Poissons Ratio (x) = 0.27954 0.14527
# Poissons Ratio (y) = 0.17491 0.23803
# Poissons Ratio (z) = 0.17829 0.46688
#
# Static dielectric constant tensor:
#      x y z
#    x 4.557040 -0.018230 0.010650 
#    y -0.018230 4.412450 0.253840 
#    z 0.010650 0.253840 3.937660 
# 
# 
# High freq. dielectric constant tensor:
#      x y z
#    x 1.929280 0.003600 0.002230 
#    y 0.003600 1.919000 0.015290 
#    z 0.002230 0.015290 1.893970 
# 
# From -- ./inp_files/84252.got.cif
#   From: 2010.06.25/outbox.cif.g09.slc.cpg/sg2_43_cif.got.tgz:84252.got - 2010.06.27 13:26:56.
