data_PCOD8016748
_publ_section_title
;
Structure prediction by ZEFSAII (Michael W. Deem and Ramdas Pophale) SiO2 
 PCOD8016748
Probable space group: P -1
;
_chemical_formula_sum "Si O2"
_cell_formula_units_Z 14
_cell_length_a 10.926847
_cell_length_b 11.849160
_cell_length_c 5.410251
_cell_angle_alpha 117.261351
_cell_angle_beta 112.547745
_cell_angle_gamma 79.759159
_cell_volume 575.081548
_symmetry_space_group_name_H-M "P -1"
_symmetry_group_IT_number 2
_symmetry_cell_setting 'triclinic'
loop_
_space_group_symop_operation_xyz
x,y,z
-x,-y,-z
loop_
_atom_site_type_symbol
_atom_site_label
_atom_site_fract_x
_atom_site_fract_y
_atom_site_fract_z
Si Si1 0.022249 0.922350 0.188572
Si Si2 0.410165 0.601256 0.311799
Si Si3 0.909526 0.671191 0.973706
Si Si4 0.621181 0.669171 0.926118
Si Si5 0.852373 0.402440 0.571184
Si Si6 0.743574 0.215385 0.947553
Si Si7 0.521122 0.078205 0.843985
O O1 0.921437 0.803316 0.968804
O O2 0.174932 0.873958 0.266553
O O3 0.000000 0.000000 0.500000
O O4 0.000000 0.000000 0.000000
O O5 0.549368 0.644353 0.581246
O O6 0.418313 0.455681 0.063157
O O7 0.293688 0.597944 0.423897
O O8 0.375967 0.706778 0.190500
O O9 0.041629 0.658704 0.225042
O O10 0.779185 0.677337 0.046520
O O11 0.895183 0.545088 0.665382
O O12 0.577256 0.802824 0.136227
O O13 0.850091 0.313905 0.239520
O O14 0.673015 0.128733 0.015032
O O15 0.500000 0.000000 0.500000
O O16 0.500000 0.000000 0.000000
#
# Coordination Sequence:
#
# PCOD8016748 Si02
#       7
#     2   2   2   2   2   2   2
#     4  12  29  49  75 109 155 211 257 309 375 470
#     4  10  21  47  76 111 147 195 250 324 397 447
#     4  10  23  46  77 111 152 192 256 321 382 457
#     4  10  23  46  77 111 152 192 256 321 382 457
#     4  10  21  47  76 111 147 195 250 324 397 447
#     4  12  26  48  80 104 156 200 260 320 392 448
#     4  12  29  49  75 109 155 211 257 309 375 470
#
# _framework density 24.344373999999998
#
# number of rings (size 3 to 8) (size 9 to 14) (size 15 to 20)
#    0.000    1.143    2.857    1.714    4.000    1.143 
#   10.286    0.000    0.000    0.000    0.000    0.000 
#    0.000    0.000    0.000    0.000    0.000    0.000 
#
# Total GULP energy -173535.714073 kJ/mol
# GULP energy per Si atom -12395.408148 kJ/mol
# Density = 2.428897 g / cm^3
# Si number density = 24.344374 Si / 1000 Ang^3
#
#
#
# Elastic Constant Matrix: (Units=GPa)
#
#
# Indices 1 2 3 4 5 6 
#
# 1 81.5031 53.4439 25.7074 13.4542 4.2038 1.8923
# 2 53.4439 176.4022 72.1311 21.1695 -13.9295 15.8984
# 3 25.7074 72.1311 121.0344 17.1900 -8.6451 3.5429
# 4 13.4542 21.1695 17.1900 40.7257 -6.1380 -3.5288
# 5 4.2038 -13.9295 -8.6451 -6.1380 38.2057 5.0392
# 6 1.8923 15.8984 3.5429 -3.5288 5.0392 49.7569
#
#
#
# Elastic Compliance Matrix: (Units=1/GPa)
#
#
# Indices 1 2 3 4 5 6 
#
# 1 0.016299 -0.004796 -0.000486 -0.003238 -0.004325 0.001156
# 2 -0.004796 0.009500 -0.004128 -0.001383 0.003229 -0.002984
# 3 -0.000486 -0.004128 0.011190 -0.002288 0.000672 0.000311
# 4 -0.003238 -0.001383 -0.002288 0.028045 0.003529 0.002360
# 5 -0.004325 0.003229 0.000672 0.003529 0.029021 -0.003604
# 6 0.001156 -0.002984 0.000311 0.002360 -0.003604 0.021517
#
#
# Mechanical properties :
#
#
# Convention : Reuss Voigt Hill
#
# Bulk Modulus (GPa) = 55.04723 75.72273 65.38498
# Shear Modulus (GPa) = 35.60003 40.91482 38.25742
#
# Velocity S-wave (km/s) = 3.82822 4.10404 3.96853
# Velocity P-wave (km/s) = 6.49625 7.32324 6.92211
#
# Compressibility (1/GPa) = 0.01816622
#
# Stress axis : x y z
#
# Youngs Moduli (GPa) = 61.35523 105.26407 89.36818
#
# Poissons Ratio (x) = 0.50486 0.04347
# Poissons Ratio (y) = 0.29427 0.36895
# Poissons Ratio (z) = 0.02984 0.43458
#
# Static dielectric constant tensor:
#      x y z
#    x 4.547610 -0.031290 0.084440 
#    y -0.031290 4.802560 0.485910 
#    z 0.084440 0.485910 4.195340 
# 
# 
# High freq. dielectric constant tensor:
#      x y z
#    x 1.984330 -0.004500 0.004630 
#    y -0.004500 1.983560 0.025850 
#    z 0.004630 0.025850 1.946410 
# 
# From -- ./inp_files/67991.got.cif
#   From: 2010.06.25/outbox.cif.g09.slc.cpg/sg2_34_cif.got.tgz:67991.got - 2010.06.27 13:26:56.
