data_PCOD8016258
_publ_section_title
;
Structure prediction by ZEFSAII (Michael W. Deem and Ramdas Pophale) SiO2 
 PCOD8016258
Probable space group: P -1
;
_chemical_formula_sum "Si O2"
_cell_formula_units_Z 14
_cell_length_a 18.512467
_cell_length_b 12.599643
_cell_length_c 6.341920
_cell_angle_alpha 51.295781
_cell_angle_beta 41.357974
_cell_angle_gamma 38.328914
_cell_volume 603.773532
_symmetry_space_group_name_H-M "P -1"
_symmetry_group_IT_number 2
_symmetry_cell_setting 'triclinic'
loop_
_space_group_symop_operation_xyz
x,y,z
-x,-y,-z
loop_
_atom_site_type_symbol
_atom_site_label
_atom_site_fract_x
_atom_site_fract_y
_atom_site_fract_z
Si Si1 0.303849 0.338508 0.981507
Si Si2 0.502108 0.868058 0.815708
Si Si3 0.213205 0.162290 0.141658
Si Si4 0.061840 0.692986 0.184247
Si Si5 0.604624 0.543886 0.713915
Si Si6 0.913065 0.883016 0.882492
Si Si7 0.148214 0.803334 0.202101
O O1 0.379583 0.409888 0.616611
O O2 0.400572 0.185043 0.126039
O O3 0.261701 0.277158 0.950173
O O4 0.167818 0.486793 0.225906
O O5 0.548849 0.698813 0.803094
O O6 0.500000 0.000000 0.500000
O O7 0.346739 0.963389 0.128315
O O8 0.173259 0.174684 0.964608
O O9 0.084974 0.225082 0.491093
O O10 0.136895 0.770314 0.021172
O O11 0.032853 0.733405 0.952331
O O12 0.750848 0.377125 0.679415
O O13 0.500000 0.500000 0.000000
O O14 0.990498 0.903789 0.500841
O O15 0.814775 0.065325 0.000938
#
# Coordination Sequence:
#
# PCOD8016258 Si02
#       7
#     2   2   2   2   2   2   2
#     4  12  26  48  73 107 149 188 243 301 364 429
#     4  12  27  49  74 102 150 196 238 302 360 433
#     4  11  26  42  71 108 137 189 238 291 364 428
#     4  11  23  43  73 108 142 187 235 305 362 429
#     4  12  26  46  75 102 148 195 244 295 362 432
#     4  10  22  41  72 100 147 181 239 295 362 420
#     4  10  21  44  65 105 140 189 236 297 355 423
#
# _framework density 23.187501999999999
#
# number of rings (size 3 to 8) (size 9 to 14) (size 15 to 20)
#    0.000    0.857    4.286    2.143    2.000    2.286 
#    2.571    0.000    0.000    0.000    0.000    0.000 
#    0.000    0.000    0.000    0.000    0.000    0.000 
#
# Total GULP energy -173483.560294 kJ/mol
# GULP energy per Si atom -12391.682878 kJ/mol
# Density = 2.313473 g / cm^3
# Si number density = 23.187502 Si / 1000 Ang^3
#
#
#
# Elastic Constant Matrix: (Units=GPa)
#
#
# Indices 1 2 3 4 5 6 
#
# 1 195.3860 74.2453 46.4735 -9.6464 20.4688 12.3565
# 2 74.2453 149.3432 37.3636 17.1861 2.1212 -1.6596
# 3 46.4735 37.3636 82.3238 2.0395 -3.3142 -7.1747
# 4 -9.6464 17.1861 2.0395 42.7616 -5.5666 0.3247
# 5 20.4688 2.1212 -3.3142 -5.5666 28.7753 -4.4252
# 6 12.3565 -1.6596 -7.1747 0.3247 -4.4252 41.8242
#
#
#
# Elastic Compliance Matrix: (Units=1/GPa)
#
#
# Indices 1 2 3 4 5 6 
#
# 1 0.008383 -0.003478 -0.003816 0.002689 -0.006233 -0.003949
# 2 -0.003478 0.009450 -0.002080 -0.004379 0.000871 0.001172
# 3 -0.003816 -0.002080 0.015840 -0.000119 0.005334 0.004327
# 4 0.002689 -0.004379 -0.000119 0.026198 0.003335 -0.000839
# 5 -0.006233 0.000871 0.005334 0.003335 0.041481 0.007154
# 6 -0.003949 0.001172 0.004327 -0.000839 0.007154 0.026629
#
#
# Mechanical properties :
#
#
# Convention : Reuss Voigt Hill
#
# Bulk Modulus (GPa) = 66.99742 82.57976 74.78859
# Shear Modulus (GPa) = 32.95922 40.60358 36.78140
#
# Velocity S-wave (km/s) = 3.77426 4.18915 3.98711
# Velocity P-wave (km/s) = 6.92459 7.68699 7.31573
#
# Compressibility (1/GPa) = 0.01492595
#
# Stress axis : x y z
#
# Youngs Moduli (GPa) = 119.29460 105.82197 63.13121
#
# Poissons Ratio (x) = 0.36801 0.24088
# Poissons Ratio (y) = 0.41486 0.13132
# Poissons Ratio (z) = 0.45518 0.22012
#
# Static dielectric constant tensor:
#      x y z
#    x 4.597130 0.144850 0.090100 
#    y 0.144850 4.473150 0.305380 
#    z 0.090100 0.305380 3.879000 
# 
# 
# High freq. dielectric constant tensor:
#      x y z
#    x 1.930890 0.005640 0.009310 
#    y 0.005640 1.932660 0.022440 
#    z 0.009310 0.022440 1.888160 
# 
# From -- ./inp_files/78705.got.cif
#   From: 2010.06.25/outbox.cif.g09.slc.cpg/sg2_40_cif.got.tgz:78705.got - 2010.06.27 13:26:56.
