data_PCOD8016726
_publ_section_title
;
Structure prediction by ZEFSAII (Michael W. Deem and Ramdas Pophale) SiO2 
 PCOD8016726
Probable space group: P -1
;
_chemical_formula_sum "Si O2"
_cell_formula_units_Z 16
_cell_length_a 18.645321
_cell_length_b 22.012872
_cell_length_c 12.408878
_cell_angle_alpha 28.429670
_cell_angle_beta 36.665163
_cell_angle_gamma 17.263626
_cell_volume 693.562390
_symmetry_space_group_name_H-M "P -1"
_symmetry_group_IT_number 2
_symmetry_cell_setting 'triclinic'
loop_
_space_group_symop_operation_xyz
x,y,z
-x,-y,-z
loop_
_atom_site_type_symbol
_atom_site_label
_atom_site_fract_x
_atom_site_fract_y
_atom_site_fract_z
Si Si1 0.530740 0.234919 0.660102
Si Si2 0.724567 0.531372 0.882137
Si Si3 0.640389 0.794113 0.746407
Si Si4 0.124910 0.485894 0.623858
Si Si5 0.158026 0.794865 0.295803
Si Si6 0.227203 0.174157 0.830673
Si Si7 0.887967 0.098017 0.363207
Si Si8 0.192934 0.984382 0.799012
O O1 0.360170 0.285004 0.732803
O O2 0.360737 0.493015 0.528716
O O3 0.689560 0.166732 0.486984
O O4 0.727866 0.979675 0.896856
O O5 0.718394 0.582160 0.936192
O O6 0.448858 0.822002 0.711833
O O7 0.953387 0.397939 0.758570
O O8 0.749416 0.359055 0.101351
O O9 0.898143 0.620899 0.744995
O O10 0.500000 0.000000 0.500000
O O11 0.452589 0.954640 0.819655
O O12 0.218843 0.322752 0.660214
O O13 0.016671 0.726297 0.348564
O O14 0.265511 0.816282 0.067825
O O15 0.097817 0.884729 0.351508
O O16 0.908369 0.985224 0.235331
O O17 0.000000 0.000000 0.500000
#
# Coordination Sequence:
#
# PCOD8016726 Si02
#       8
#     2   2   2   2   2   2   2   2
#     4  11  24  46  67 101 133 173 227 271 338 398
#     4  11  24  42  66  98 135 170 223 273 328 406
#     4  11  25  45  63  98 133 174 224 272 333 389
#     4  10  24  45  68  96 134 170 229 278 319 407
#     4  10  25  42  69  98 139 178 216 281 335 398
#     4  11  26  42  71  95 131 185 216 276 332 392
#     4  12  26  43  67 103 136 178 221 273 341 407
#     4  10  21  47  65 100 137 175 224 275 339 392
#
# _framework density 23.069302
#
# number of rings (size 3 to 8) (size 9 to 14) (size 15 to 20)
#    0.000    1.250    3.750    0.375    3.500    6.500 
#    2.250    0.000    0.000    0.000    0.000    0.000 
#    0.000    0.000    0.000    0.000    0.000    0.000 
#
# Total GULP energy -198350.153373 kJ/mol
# GULP energy per Si atom -12396.884586 kJ/mol
# Density = 2.301680 g / cm^3
# Si number density = 23.069302 Si / 1000 Ang^3
#
#
#
# Elastic Constant Matrix: (Units=GPa)
#
#
# Indices 1 2 3 4 5 6 
#
# 1 80.1256 40.7035 26.3263 6.7361 -13.4267 -3.0569
# 2 40.7035 121.4856 -0.4557 7.0469 -6.4628 -3.2796
# 3 26.3263 -0.4557 50.5830 -7.2162 -14.3487 13.8634
# 4 6.7361 7.0469 -7.2162 31.4788 -0.2838 -4.1007
# 5 -13.4267 -6.4628 -14.3487 -0.2838 32.0538 -1.6935
# 6 -3.0569 -3.2796 13.8634 -4.1007 -1.6935 43.9014
#
#
#
# Elastic Compliance Matrix: (Units=1/GPa)
#
#
# Indices 1 2 3 4 5 6 
#
# 1 0.020726 -0.006458 -0.012196 -0.005192 0.002107 0.004409
# 2 -0.006458 0.010455 0.004007 -0.000147 0.001148 -0.000904
# 3 -0.012196 0.004007 0.032798 0.008048 0.009936 -0.009772
# 4 -0.005192 -0.000147 0.008048 0.034825 0.001728 0.000406
# 5 0.002107 0.001148 0.009936 0.001728 0.036705 -0.001328
# 6 0.004409 -0.000904 -0.009772 0.000406 -0.001328 0.026090
#
#
# Mechanical properties :
#
#
# Convention : Reuss Voigt Hill
#
# Bulk Modulus (GPa) = 28.83007 42.81583 35.82295
# Shear Modulus (GPa) = 24.69688 33.86146 29.27917
#
# Velocity S-wave (km/s) = 3.27548 3.83536 3.56642
# Velocity P-wave (km/s) = 5.17970 6.18169 5.70274
#
# Compressibility (1/GPa) = 0.03468600
#
# Stress axis : x y z
#
# Youngs Moduli (GPa) = 48.24867 95.64516 30.48943
#
# Poissons Ratio (x) = 0.61765 0.37186
# Poissons Ratio (y) = 0.31157 -0.12218
# Poissons Ratio (z) = 0.58846 -0.38329
#
# Static dielectric constant tensor:
#      x y z
#    x 4.391330 0.009380 -0.237050 
#    y 0.009380 4.498400 -0.020460 
#    z -0.237050 -0.020460 4.239130 
# 
# 
# High freq. dielectric constant tensor:
#      x y z
#    x 1.907080 -0.014600 -0.031240 
#    y -0.014600 1.924770 -0.018410 
#    z -0.031240 -0.018410 1.901610 
# 
# From -- ./inp_files/467038.got.cif
#   From: 2010.06.25/outbox.cif.g09.slc.cpg/sg2_234_cif.got.tgz:467038.got - 2010.06.27 13:26:56.
