data_PCOD8016868
_publ_section_title
;
Structure prediction by ZEFSAII (Michael W. Deem and Ramdas Pophale) SiO2 
 PCOD8016868
Probable space group: P -1
;
_chemical_formula_sum "Si O2"
_cell_formula_units_Z 16
_cell_length_a 13.635330
_cell_length_b 9.241323
_cell_length_c 16.245881
_cell_angle_alpha 80.405156
_cell_angle_beta 157.850846
_cell_angle_gamma 96.681407
_cell_volume 757.013022
_symmetry_space_group_name_H-M "P -1"
_symmetry_group_IT_number 2
_symmetry_cell_setting 'triclinic'
loop_
_space_group_symop_operation_xyz
x,y,z
-x,-y,-z
loop_
_atom_site_type_symbol
_atom_site_label
_atom_site_fract_x
_atom_site_fract_y
_atom_site_fract_z
Si Si1 0.355994 0.697587 0.159391
Si Si2 0.928576 0.944003 0.801721
Si Si3 0.268603 0.377163 0.081297
Si Si4 0.680201 0.351744 0.672025
Si Si5 0.798618 0.940767 0.235626
Si Si6 0.763147 0.893423 0.390181
Si Si7 0.521362 0.848805 0.604194
Si Si8 0.697285 0.856994 0.992006
O O1 0.367905 0.537101 0.143989
O O2 0.346842 0.695599 0.250520
O O3 0.620669 0.763914 0.332062
O O4 0.097945 0.796142 0.913674
O O5 0.802233 0.906052 0.795275
O O6 0.686974 0.009656 0.548072
O O7 0.131889 0.068193 0.952974
O O8 0.455750 0.269518 0.295107
O O9 0.313282 0.310824 0.030478
O O10 0.972790 0.388987 0.880224
O O11 0.500000 0.500000 0.500000
O O12 0.595630 0.221466 0.561888
O O13 0.855603 0.846783 0.372950
O O14 0.845626 0.848163 0.196395
O O15 0.980940 0.076315 0.361317
O O16 0.500000 0.000000 0.000000
O O17 0.583432 0.049962 0.230546
#
# Coordination Sequence:
#
# PCOD8016868 Si02
#       8
#     2   2   2   2   2   2   2   2
#     4  11  23  41  63  93 128 171 219 261 311 378
#     4  10  22  38  59  91 121 168 223 267 298 366
#     4  12  24  42  58  92 139 173 214 256 315 377
#     4  12  23  39  60  86 131 185 212 256 310 367
#     4   9  19  42  66  95 121 155 203 263 334 381
#     4   9  21  40  69  92 122 157 210 267 317 382
#     4  11  23  37  59  86 127 175 219 266 311 356
#     4  10  22  36  63  93 125 165 207 262 317 383
#
# _framework density 21.135701999999998
#
# number of rings (size 3 to 8) (size 9 to 14) (size 15 to 20)
#    0.000    1.500    3.750    1.125    3.500    4.000 
#    2.250    0.625    0.000    6.750    0.000    0.000 
#    0.000    0.000    0.000    0.000    0.000    0.000 
#
# Total GULP energy -198290.120892 kJ/mol
# GULP energy per Si atom -12393.132556 kJ/mol
# Density = 2.108760 g / cm^3
# Si number density = 21.135702 Si / 1000 Ang^3
#
#
#
# Elastic Constant Matrix: (Units=GPa)
#
#
# Indices 1 2 3 4 5 6 
#
# 1 106.2278 66.0281 48.6778 24.0944 -2.1185 -8.3468
# 2 66.0281 124.8132 60.9057 2.8574 -6.3936 -3.7837
# 3 48.6778 60.9057 110.5358 10.4600 4.5565 3.7491
# 4 24.0944 2.8574 10.4600 38.0886 1.0709 -6.0373
# 5 -2.1185 -6.3936 4.5565 1.0709 34.0303 15.4847
# 6 -8.3468 -3.7837 3.7491 -6.0373 15.4847 21.8509
#
#
#
# Elastic Compliance Matrix: (Units=1/GPa)
#
#
# Indices 1 2 3 4 5 6 
#
# 1 0.018059 -0.007930 -0.002792 -0.009253 -0.001874 0.004776
# 2 -0.007930 0.014805 -0.005276 0.005246 0.002907 -0.000171
# 3 -0.002792 -0.005276 0.013576 -0.002206 -0.000996 -0.004213
# 4 -0.009253 0.005246 -0.002206 0.034219 -0.005389 0.011026
# 5 -0.001874 0.002907 -0.000996 -0.005389 0.045480 -0.033759
# 6 0.004776 -0.000171 -0.004213 0.011026 -0.033759 0.075252
#
#
# Mechanical properties :
#
#
# Convention : Reuss Voigt Hill
#
# Bulk Modulus (GPa) = 69.23523 76.97779 73.10651
# Shear Modulus (GPa) = 20.99047 29.85829 25.42438
#
# Velocity S-wave (km/s) = 3.15481 3.76266 3.47206
# Velocity P-wave (km/s) = 6.78963 7.44155 7.12305
#
# Compressibility (1/GPa) = 0.01444351
#
# Stress axis : x y z
#
# Youngs Moduli (GPa) = 55.37378 67.54301 73.65754
#
# Poissons Ratio (x) = 0.53564 0.20568
# Poissons Ratio (y) = 0.43913 0.38861
# Poissons Ratio (z) = 0.15463 0.35635
#
# Static dielectric constant tensor:
#      x y z
#    x 4.117020 -0.073400 -0.026660 
#    y -0.073400 3.781910 -0.002240 
#    z -0.026660 -0.002240 4.026640 
# 
# 
# High freq. dielectric constant tensor:
#      x y z
#    x 1.819960 -0.001540 0.007440 
#    y -0.001540 1.805770 0.004890 
#    z 0.007440 0.004890 1.840470 
# 
# From -- ./inp_files/572663.got.cif
#   From: 2010.06.25/outbox.cif.g09.slc.cpg/sg2_287_cif.got.tgz:572663.got - 2010.06.27 13:26:56.
