data_PCOD8016913
_publ_section_title
;
Structure prediction by ZEFSAII (Michael W. Deem and Ramdas Pophale) SiO2 
 PCOD8016913
Probable space group: P -1
;
_chemical_formula_sum "Si O2"
_cell_formula_units_Z 12
_cell_length_a 6.835155
_cell_length_b 8.912849
_cell_length_c 14.320711
_cell_angle_alpha 62.281600
_cell_angle_beta 109.824387
_cell_angle_gamma 127.549777
_cell_volume 610.378384
_symmetry_space_group_name_H-M "P -1"
_symmetry_group_IT_number 2
_symmetry_cell_setting 'triclinic'
loop_
_space_group_symop_operation_xyz
x,y,z
-x,-y,-z
loop_
_atom_site_type_symbol
_atom_site_label
_atom_site_fract_x
_atom_site_fract_y
_atom_site_fract_z
Si Si1 0.167920 0.875886 0.645798
Si Si2 0.947193 0.804050 0.168353
Si Si3 0.232466 0.942783 0.999393
Si Si4 0.648616 0.701555 0.525781
Si Si5 0.072348 0.168728 0.186897
Si Si6 0.583790 0.359412 0.294589
O O1 0.347889 0.799525 0.677412
O O2 0.921565 0.751232 0.578918
O O3 0.096535 0.845389 0.751300
O O4 0.323674 0.113429 0.580951
O O5 0.818244 0.581293 0.250945
O O6 0.166395 0.845874 0.120285
O O7 0.049483 0.953822 0.230932
O O8 0.768423 0.850915 0.065102
O O9 0.030644 0.783286 0.936974
O O10 0.500000 0.000000 0.000000
O O11 0.500000 0.500000 0.500000
O O12 0.492678 0.673477 0.600780
O O13 0.359935 0.334730 0.202967
#
# Coordination Sequence:
#
# PCOD8016913 Si02
#       6
#     2   2   2   2   2   2
#     4  10  22  37  58  88 117 149 190 234 286 335
#     4   9  21  38  56  86 114 150 196 233 280 343
#     4   9  20  39  61  81 116 155 191 236 285 335
#     4  10  22  40  58  85 117 151 191 232 280 348
#     4   9  21  37  58  85 116 151 190 239 276 340
#     4  11  22  37  60  88 116 149 193 236 287 337
#
# _framework density 19.659935999999998
#
# number of rings (size 3 to 8) (size 9 to 14) (size 15 to 20)
#    1.000    1.333    0.000    1.500    2.333    5.333 
#    0.000    1.667    0.000    0.000    0.000    0.000 
#    0.000    0.000    0.000    0.000    0.000    0.000 
#
# Total GULP energy -148732.168085 kJ/mol
# GULP energy per Si atom -12394.347340 kJ/mol
# Density = 1.961519 g / cm^3
# Si number density = 19.659936 Si / 1000 Ang^3
#
#
#
# Elastic Constant Matrix: (Units=GPa)
#
#
# Indices 1 2 3 4 5 6 
#
# 1 120.1581 23.5319 25.2512 5.0362 -28.0296 2.7918
# 2 23.5319 92.1374 9.0596 5.2002 -13.3246 -5.6294
# 3 25.2512 9.0596 27.4016 5.7506 -14.3901 -2.9517
# 4 5.0362 5.2002 5.7506 37.3323 -2.1307 -5.1848
# 5 -28.0296 -13.3246 -14.3901 -2.1307 24.7294 0.3451
# 6 2.7918 -5.6294 -2.9517 -5.1848 0.3451 21.4426
#
#
#
# Elastic Compliance Matrix: (Units=1/GPa)
#
#
# Indices 1 2 3 4 5 6 
#
# 1 0.012160 -0.001287 -0.005961 -0.000409 0.009627 -0.002996
# 2 -0.001287 0.012132 0.000425 -0.000851 0.005209 0.003122
# 3 -0.005961 0.000425 0.057683 -0.005654 0.026453 0.007035
# 4 -0.000409 -0.000851 -0.005654 0.028558 -0.001835 0.005986
# 5 0.009627 0.005209 0.026453 -0.001835 0.069360 0.002195
# 6 -0.002996 0.003122 0.007035 0.005986 0.002195 0.050226
#
#
# Mechanical properties :
#
#
# Convention : Reuss Voigt Hill
#
# Bulk Modulus (GPa) = 14.63509 39.48694 27.06102
# Shear Modulus (GPa) = 18.75880 28.82448 23.79164
#
# Velocity S-wave (km/s) = 3.09231 3.83319 3.48251
# Velocity P-wave (km/s) = 4.49556 6.30236 5.47402
#
# Compressibility (1/GPa) = 0.06832892
#
# Stress axis : x y z
#
# Youngs Moduli (GPa) = 82.23993 82.42445 17.33604
#
# Poissons Ratio (x) = 0.10609 0.10334
# Poissons Ratio (y) = 0.10586 -0.00737
# Poissons Ratio (z) = 0.49024 -0.03504
#
# Static dielectric constant tensor:
#      x y z
#    x 3.519190 -0.001180 -0.194120 
#    y -0.001180 3.445800 0.124220 
#    z -0.194120 0.124220 3.509070 
# 
# 
# High freq. dielectric constant tensor:
#      x y z
#    x 1.771030 0.000960 -0.019730 
#    y 0.000960 1.754690 0.007390 
#    z -0.019730 0.007390 1.760470 
# 
# From -- ./inp_files/7145.got.cif
#   From: 2010.06.25/outbox.cif.g09.slc.cpg/sg2_4_cif.got.tgz:7145.got - 2010.06.27 13:26:56.
