data_PCOD8016567
_publ_section_title
;
Structure prediction by ZEFSAII (Michael W. Deem and Ramdas Pophale) SiO2 
 PCOD8016567
Probable space group: P -1
;
_chemical_formula_sum "Si O2"
_cell_formula_units_Z 16
_cell_length_a 12.896158
_cell_length_b 9.908403
_cell_length_c 13.493861
_cell_angle_alpha 99.646273
_cell_angle_beta 143.802756
_cell_angle_gamma 106.071714
_cell_volume 709.210337
_symmetry_space_group_name_H-M "P -1"
_symmetry_group_IT_number 2
_symmetry_cell_setting 'triclinic'
loop_
_space_group_symop_operation_xyz
x,y,z
-x,-y,-z
loop_
_atom_site_type_symbol
_atom_site_label
_atom_site_fract_x
_atom_site_fract_y
_atom_site_fract_z
Si Si1 0.271325 0.072888 0.967357
Si Si2 0.240242 0.541698 0.682440
Si Si3 0.804793 0.244974 0.015494
Si Si4 0.780322 0.751583 0.455357
Si Si5 0.558664 0.840262 0.436931
Si Si6 0.293264 0.490565 0.304090
Si Si7 0.324782 0.554976 0.966220
Si Si8 0.088222 0.246280 0.918667
O O1 0.214814 0.167026 0.009614
O O2 0.275728 0.939883 0.019442
O O3 0.535612 0.231942 0.138651
O O4 0.066796 0.957189 0.706331
O O5 0.223628 0.416596 0.568771
O O6 0.282391 0.485995 0.812130
O O7 0.000000 0.500000 0.500000
O O8 0.786431 0.354759 0.095750
O O9 0.089219 0.391425 0.219578
O O10 0.623258 0.175473 0.775647
O O11 0.643869 0.740162 0.444646
O O12 0.623147 0.721173 0.236861
O O13 0.411706 0.707853 0.405215
O O14 0.789356 0.065905 0.666931
O O15 0.500000 0.500000 0.500000
O O16 0.160985 0.371109 0.086084
O O17 0.183623 0.372577 0.907978
#
# Coordination Sequence:
#
# PCOD8016567 Si02
#       8
#     2   2   2   2   2   2   2   2
#     4  11  25  45  69 101 136 177 227 278 337 402
#     4  12  26  42  68 102 139 178 230 275 337 398
#     4  11  25  43  69 100 138 176 222 285 339 389
#     4  10  21  45  67  95 135 176 224 277 333 393
#     4  10  23  44  68 100 135 177 221 278 339 400
#     4  12  24  45  72  99 139 177 224 277 340 399
#     4  11  24  45  70  96 138 181 226 282 336 392
#     4  11  24  45  70 100 134 178 229 269 340 409
#
# _framework density 22.560302
#
# number of rings (size 3 to 8) (size 9 to 14) (size 15 to 20)
#    0.000    1.000    3.750    3.000    1.750    6.000 
#    2.250    0.000    0.000    0.000    0.000    0.000 
#    0.000    0.000    0.000    0.000    0.000    0.000 
#
# Total GULP energy -198391.924279 kJ/mol
# GULP energy per Si atom -12399.495267 kJ/mol
# Density = 2.250895 g / cm^3
# Si number density = 22.560302 Si / 1000 Ang^3
#
#
#
# Elastic Constant Matrix: (Units=GPa)
#
#
# Indices 1 2 3 4 5 6 
#
# 1 61.7805 37.0495 31.0379 6.6107 20.0788 4.4300
# 2 37.0495 128.8679 24.3373 4.5224 17.8854 2.8760
# 3 31.0379 24.3373 128.7289 6.5403 34.5915 9.6967
# 4 6.6107 4.5224 6.5403 36.0671 0.5951 6.6923
# 5 20.0788 17.8854 34.5915 0.5951 35.2303 -5.1132
# 6 4.4300 2.8760 9.6967 6.6923 -5.1132 35.0894
#
#
#
# Elastic Compliance Matrix: (Units=1/GPa)
#
#
# Indices 1 2 3 4 5 6 
#
# 1 0.023704 -0.004980 -0.001849 -0.002679 -0.009549 -0.002954
# 2 -0.004980 0.009490 -0.000009 -0.000166 -0.002027 -0.000410
# 3 -0.001849 -0.000009 0.011502 -0.000753 -0.010858 -0.004383
# 4 -0.002679 -0.000166 -0.000753 0.029256 0.001152 -0.004852
# 5 -0.009549 -0.002027 -0.010858 0.001152 0.047097 0.011015
# 6 -0.002954 -0.000410 -0.004383 -0.004852 0.011015 0.032647
#
#
# Mechanical properties :
#
#
# Convention : Reuss Voigt Hill
#
# Bulk Modulus (GPa) = 32.23917 56.02519 44.13218
# Shear Modulus (GPa) = 28.13535 36.40751 32.27143
#
# Velocity S-wave (km/s) = 3.53529 4.02155 3.78623
# Velocity P-wave (km/s) = 5.56647 6.81552 6.22241
#
# Compressibility (1/GPa) = 0.03101817
#
# Stress axis : x y z
#
# Youngs Moduli (GPa) = 42.18692 105.37643 86.94080
#
# Poissons Ratio (x) = 0.52482 0.16076
# Poissons Ratio (y) = 0.21011 0.00081
# Poissons Ratio (z) = 0.07801 0.00099
#
# Static dielectric constant tensor:
#      x y z
#    x 4.096430 -0.140540 0.116210 
#    y -0.140540 3.997510 0.063780 
#    z 0.116210 0.063780 4.379490 
# 
# 
# High freq. dielectric constant tensor:
#      x y z
#    x 1.884620 -0.011630 0.011330 
#    y -0.011630 1.889080 -0.000760 
#    z 0.011330 -0.000760 1.905520 
# 
# From -- ./inp_files/505937.got.cif
#   From: 2010.06.25/outbox.cif.g09.slc.cpg/sg2_253_cif.got.tgz:505937.got - 2010.06.27 13:26:56.
