data_PCOD8016785
_publ_section_title
;
Structure prediction by ZEFSAII (Michael W. Deem and Ramdas Pophale) SiO2 
 PCOD8016785
Probable space group: P -1
;
_chemical_formula_sum "Si O2"
_cell_formula_units_Z 12
_cell_length_a 5.295356
_cell_length_b 9.432585
_cell_length_c 12.368695
_cell_angle_alpha 71.383214
_cell_angle_beta 113.378210
_cell_angle_gamma 94.864837
_cell_volume 536.788949
_symmetry_space_group_name_H-M "P -1"
_symmetry_group_IT_number 2
_symmetry_cell_setting 'triclinic'
loop_
_space_group_symop_operation_xyz
x,y,z
-x,-y,-z
loop_
_atom_site_type_symbol
_atom_site_label
_atom_site_fract_x
_atom_site_fract_y
_atom_site_fract_z
Si Si1 0.447072 0.331394 0.375971
Si Si2 0.897446 0.726767 0.855760
Si Si3 0.773456 0.565306 0.072928
Si Si4 0.237944 0.905922 0.003028
Si Si5 0.941245 0.669913 0.483607
Si Si6 0.429645 0.343503 0.760150
O O1 0.345996 0.231198 0.280920
O O2 0.234268 0.309691 0.442040
O O3 0.450397 0.508518 0.308171
O O4 0.756691 0.261800 0.470372
O O5 0.988471 0.562127 0.868484
O O6 0.805722 0.712319 0.969079
O O7 0.131230 0.848442 0.880225
O O8 0.768802 0.609729 0.185863
O O9 0.500000 0.500000 0.000000
O O10 0.319786 0.764328 0.128749
O O11 0.500000 0.000000 0.000000
O O12 0.000000 0.000000 0.000000
O O13 0.755967 0.743751 0.337056
O O14 0.000000 0.500000 0.500000
#
# Coordination Sequence:
#
# PCOD8016785 Si02
#       6
#     2   2   2   2   2   2
#     4  11  22  37  64  96 122 157 194 255 324 373
#     4  11  22  37  61  91 128 155 209 262 312 375
#     4  11  19  35  62  96 120 160 194 257 340 361
#     4  12  28  42  61  88 123 175 214 251 301 359
#     4  10  22  35  59  96 127 158 192 242 324 383
#     4  11  21  41  63  91 134 156 203 258 307 377
#
# _framework density 22.355153000000001
#
# number of rings (size 3 to 8) (size 9 to 14) (size 15 to 20)
#    0.000    1.000    3.333    6.000    0.000    5.333 
#    0.000    0.000    0.000    6.000    0.000    0.000 
#    0.000    0.000    0.000    0.000    0.000    0.000 
#
# Total GULP energy -148703.793510 kJ/mol
# GULP energy per Si atom -12391.982792 kJ/mol
# Density = 2.230427 g / cm^3
# Si number density = 22.355153 Si / 1000 Ang^3
#
#
#
# Elastic Constant Matrix: (Units=GPa)
#
#
# Indices 1 2 3 4 5 6 
#
# 1 140.2946 32.0477 54.8494 24.9485 4.2240 8.5366
# 2 32.0477 69.3220 45.0906 25.1807 10.3134 9.9331
# 3 54.8494 45.0906 137.8405 48.4708 18.0817 8.7339
# 4 24.9485 25.1807 48.4708 37.0254 8.3535 12.4721
# 5 4.2240 10.3134 18.0817 8.3535 51.7123 13.4424
# 6 8.5366 9.9331 8.7339 12.4721 13.4424 36.2302
#
#
#
# Elastic Compliance Matrix: (Units=1/GPa)
#
#
# Indices 1 2 3 4 5 6 
#
# 1 0.008803 -0.002031 -0.002476 -0.001241 0.000974 -0.000855
# 2 -0.002031 0.020528 -0.002727 -0.008342 -0.001335 -0.001125
# 3 -0.002476 -0.002727 0.015409 -0.017578 -0.003050 0.004799
# 4 -0.001241 -0.008342 -0.017578 0.061130 0.001920 -0.014939
# 5 0.000974 -0.001335 -0.003050 0.001920 0.022385 -0.008095
# 6 -0.000855 -0.001125 0.004799 -0.014939 -0.008095 0.035100
#
#
# Mechanical properties :
#
#
# Convention : Reuss Voigt Hill
#
# Bulk Modulus (GPa) = 33.03268 67.93694 50.48481
# Shear Modulus (GPa) = 26.60785 39.35819 32.98302
#
# Velocity S-wave (km/s) = 3.45372 4.20049 3.84527
# Velocity P-wave (km/s) = 5.54190 7.34719 6.50745
#
# Compressibility (1/GPa) = 0.03027305
#
# Stress axis : x y z
#
# Youngs Moduli (GPa) = 113.59628 48.71316 64.89573
#
# Poissons Ratio (x) = 0.09893 0.16066
# Poissons Ratio (y) = 0.23070 0.17699
# Poissons Ratio (z) = 0.28123 0.13285
#
# Static dielectric constant tensor:
#      x y z
#    x 2.588580 -1.049200 0.613450 
#    y -1.049200 2.337200 1.080650 
#    z 0.613450 1.080650 4.269270 
# 
# 
# High freq. dielectric constant tensor:
#      x y z
#    x 1.897870 0.013840 0.013950 
#    y 0.013840 1.835990 0.038400 
#    z 0.013950 0.038400 1.885420 
# 
# From -- ./inp_files/124107.got.cif
#   From: 2010.06.25/outbox.cif.g09.slc.cpg/sg2_63_cif.got.tgz:124107.got - 2010.06.27 13:26:56.
