data_PCOD8016010
_publ_section_title
;
Structure prediction by ZEFSAII (Michael W. Deem and Ramdas Pophale) SiO2 
 PCOD8016010
Probable space group: P -1
;
_chemical_formula_sum "Si O2"
_cell_formula_units_Z 10
_cell_length_a 9.516243
_cell_length_b 8.326452
_cell_length_c 9.469773
_cell_angle_alpha 60.946703
_cell_angle_beta 139.059036
_cell_angle_gamma 131.303134
_cell_volume 369.244320
_symmetry_space_group_name_H-M "P -1"
_symmetry_group_IT_number 2
_symmetry_cell_setting 'triclinic'
loop_
_space_group_symop_operation_xyz
x,y,z
-x,-y,-z
loop_
_atom_site_type_symbol
_atom_site_label
_atom_site_fract_x
_atom_site_fract_y
_atom_site_fract_z
Si Si1 0.166701 0.863228 0.180806
Si Si2 0.123441 0.561903 0.720842
Si Si3 0.635014 0.916938 0.037263
Si Si4 0.612703 0.778840 0.597929
Si Si5 0.245068 0.302198 0.547264
O O1 0.396379 0.833305 0.406783
O O2 0.919267 0.645772 0.135385
O O3 0.169842 0.899934 0.998998
O O4 0.187786 0.066308 0.197294
O O5 0.419080 0.723477 0.861783
O O6 0.000000 0.500000 0.500000
O O7 0.997779 0.675897 0.662223
O O8 0.785291 0.834757 0.278211
O O9 0.500000 0.000000 0.000000
O O10 0.500541 0.530896 0.657885
O O11 0.746192 0.826127 0.527241
#
# Coordination Sequence:
#
# PCOD8016010 Si02
#       5
#     2   2   2   2   2
#     4  10  21  43  68  97 141 174 223 280 337 398
#     4  11  26  46  72 100 136 183 225 275 344 403
#     4  12  25  45  70 103 138 175 227 288 330 394
#     4   9  18  40  68  96 136 182 215 281 336 395
#     4  10  22  42  71  99 137 177 231 274 334 406
#
# _framework density 27.082339999999999
#
# number of rings (size 3 to 8) (size 9 to 14) (size 15 to 20)
#    0.000    1.600    2.000    3.600    0.000    4.800 
#    0.000    4.000    0.000    0.000    0.000    0.000 
#    0.000    0.000    0.000    0.000    0.000    0.000 
#
# Total GULP energy -124072.353291 kJ/mol
# GULP energy per Si atom -12407.235329 kJ/mol
# Density = 2.702070 g / cm^3
# Si number density = 27.082340 Si / 1000 Ang^3
#
#
#
# Elastic Constant Matrix: (Units=GPa)
#
#
# Indices 1 2 3 4 5 6 
#
# 1 91.5852 31.7755 9.2197 -2.6007 -24.7901 -2.0419
# 2 31.7755 120.5622 42.2181 -30.9070 -21.5817 9.6725
# 3 9.2197 42.2181 83.5558 -13.5104 -35.6863 14.4096
# 4 -2.6007 -30.9070 -13.5104 45.6944 10.3812 -12.8157
# 5 -24.7901 -21.5817 -35.6863 10.3812 45.9702 -7.4008
# 6 -2.0419 9.6725 14.4096 -12.8157 -7.4008 47.9665
#
#
#
# Elastic Compliance Matrix: (Units=1/GPa)
#
#
# Indices 1 2 3 4 5 6 
#
# 1 0.014630 -0.004358 0.004178 -0.002843 0.009892 0.001013
# 2 -0.004358 0.012981 -0.006066 0.007495 -0.002557 0.000627
# 3 0.004178 -0.006066 0.021713 -0.002013 0.016207 -0.003159
# 4 -0.002843 0.007495 -0.002013 0.029037 -0.005180 0.005931
# 5 0.009892 -0.002557 0.016207 -0.005180 0.039770 0.000820
# 6 0.001013 0.000627 -0.003159 0.005931 0.000820 0.023425
#
#
# Mechanical properties :
#
#
# Convention : Reuss Voigt Hill
#
# Bulk Modulus (GPa) = 27.15095 51.34776 39.24935
# Shear Modulus (GPa) = 30.06142 42.09221 36.07682
#
# Velocity S-wave (km/s) = 3.33528 3.94665 3.65378
# Velocity P-wave (km/s) = 4.98791 6.30627 5.68543
#
# Compressibility (1/GPa) = 0.03683112
#
# Stress axis : x y z
#
# Youngs Moduli (GPa) = 68.35440 77.03680 46.05466
#
# Poissons Ratio (x) = 0.33575 -0.19242
# Poissons Ratio (y) = 0.29791 0.27938
# Poissons Ratio (z) = -0.28560 0.46732
#
# Static dielectric constant tensor:
#      x y z
#    x 4.977290 -0.059950 0.010290 
#    y -0.059950 5.476760 -0.077820 
#    z 0.010290 -0.077820 4.650710 
# 
# 
# High freq. dielectric constant tensor:
#      x y z
#    x 2.100420 -0.001300 0.002430 
#    y -0.001300 2.099120 -0.002720 
#    z 0.002430 -0.002720 2.090250 
# 
# From -- ./inp_files/143882.got.cif
#   From: 2010.06.25/outbox.cif.g09.slc.cpg/sg2_72_cif.got.tgz:143882.got - 2010.06.27 13:26:56.
