data_PCOD8016327
_publ_section_title
;
Structure prediction by ZEFSAII (Michael W. Deem and Ramdas Pophale) SiO2 
 PCOD8016327
Probable space group: P -1
;
_chemical_formula_sum "Si O2"
_cell_formula_units_Z 16
_cell_length_a 9.245732
_cell_length_b 15.842789
_cell_length_c 18.779257
_cell_angle_alpha 150.126716
_cell_angle_beta 37.638667
_cell_angle_gamma 144.855573
_cell_volume 755.063407
_symmetry_space_group_name_H-M "P -1"
_symmetry_group_IT_number 2
_symmetry_cell_setting 'triclinic'
loop_
_space_group_symop_operation_xyz
x,y,z
-x,-y,-z
loop_
_atom_site_type_symbol
_atom_site_label
_atom_site_fract_x
_atom_site_fract_y
_atom_site_fract_z
Si Si1 0.384602 0.186879 0.521845
Si Si2 0.328063 0.724429 0.900209
Si Si3 0.447971 0.096027 0.200762
Si Si4 0.946278 0.835354 0.499102
Si Si5 0.654285 0.702273 0.002424
Si Si6 0.345973 0.410649 0.229607
Si Si7 0.848274 0.448475 0.821041
Si Si8 0.771295 0.104372 0.218009
O O1 0.220441 0.231579 0.557448
O O2 0.574637 0.373672 0.625611
O O3 0.561236 0.095169 0.351894
O O4 0.183178 0.041856 0.550021
O O5 0.395006 0.760376 0.816934
O O6 0.553579 0.683758 0.818151
O O7 0.047596 0.544049 0.878836
O O8 0.294548 0.891574 0.075905
O O9 0.235095 0.161209 0.362733
O O10 0.649132 0.091569 0.178305
O O11 0.061328 0.683683 0.358783
O O12 0.431646 0.680892 0.130174
O O13 0.829143 0.922732 0.077115
O O14 0.525116 0.597234 0.902343
O O15 0.840645 0.612918 0.895020
O O16 0.031783 0.296815 0.263932
#
# Coordination Sequence:
#
# PCOD8016327 Si02
#       8
#     2   2   2   2   2   2   2   2
#     4  10  22  41  66  97 125 166 216 264 317 374
#     4  11  24  41  65  99 128 162 221 267 305 377
#     4  10  24  41  67  95 129 171 208 265 321 372
#     4  10  21  44  67  90 130 168 211 265 319 375
#     4  11  25  42  67  95 130 172 205 262 327 376
#     4  12  24  40  66  98 127 168 217 261 316 379
#     4  11  24  45  65  95 131 166 215 260 316 387
#     4  11  22  44  65  92 134 171 207 260 327 379
#
# _framework density 21.190273000000001
#
# number of rings (size 3 to 8) (size 9 to 14) (size 15 to 20)
#    0.000    1.250    3.750    1.500    5.250    1.000 
#    4.500    0.625    0.000    0.000    0.000    0.000 
#    0.000    0.000    0.000    0.000    0.000    0.000 
#
# Total GULP energy -198451.513723 kJ/mol
# GULP energy per Si atom -12403.219608 kJ/mol
# Density = 2.114204 g / cm^3
# Si number density = 21.190273 Si / 1000 Ang^3
#
#
#
# Elastic Constant Matrix: (Units=GPa)
#
#
# Indices 1 2 3 4 5 6 
#
# 1 92.6796 53.6786 61.2708 0.9241 -1.1533 -1.9620
# 2 53.6786 84.2985 45.2172 5.7328 2.0074 11.0551
# 3 61.2708 45.2172 129.2820 7.3737 -8.2017 -0.3875
# 4 0.9241 5.7328 7.3737 27.5346 6.6504 2.1001
# 5 -1.1533 2.0074 -8.2017 6.6504 34.5501 5.6884
# 6 -1.9620 11.0551 -0.3875 2.1001 5.6884 27.9471
#
#
#
# Elastic Compliance Matrix: (Units=1/GPa)
#
#
# Indices 1 2 3 4 5 6 
#
# 1 0.021814 -0.011281 -0.006686 0.003394 -0.001848 0.006022
# 2 -0.011281 0.021539 -0.002057 -0.002844 -0.000068 -0.009113
# 3 -0.006686 -0.002057 0.012032 -0.003395 0.003394 0.000075
# 4 0.003394 -0.002844 -0.003395 0.039677 -0.008164 -0.000004
# 5 -0.001848 -0.000068 0.003394 -0.008164 0.032252 -0.006007
# 6 0.006022 -0.009113 0.000075 -0.000004 -0.006007 0.041034
#
#
# Mechanical properties :
#
#
# Convention : Reuss Voigt Hill
#
# Bulk Modulus (GPa) = 65.19295 69.62147 67.40721
# Shear Modulus (GPa) = 23.41837 27.74593 25.58215
#
# Velocity S-wave (km/s) = 3.32798 3.62245 3.47833
# Velocity P-wave (km/s) = 6.75275 7.10091 6.92901
#
# Compressibility (1/GPa) = 0.01533908
#
# Stress axis : x y z
#
# Youngs Moduli (GPa) = 45.84168 46.42680 83.11188
#
# Poissons Ratio (x) = 0.52374 0.55565
# Poissons Ratio (y) = 0.51714 0.17092
# Poissons Ratio (z) = 0.30648 0.09548
#
# Static dielectric constant tensor:
#      x y z
#    x 3.763820 0.015630 0.010850 
#    y 0.015630 3.747190 0.014870 
#    z 0.010850 0.014870 3.846210 
# 
# 
# High freq. dielectric constant tensor:
#      x y z
#    x 1.822330 0.003780 -0.003150 
#    y 0.003780 1.834790 0.002570 
#    z -0.003150 0.002570 1.840530 
# 
# From -- ./inp_files/189373.got.cif
#   From: 2010.06.25/outbox.cif.g09.slc.cpg/sg2_95_cif.got.tgz:189373.got - 2010.06.27 13:26:56.
