data_PCOD8016439
_publ_section_title
;
Structure prediction by ZEFSAII (Michael W. Deem and Ramdas Pophale) SiO2 
 PCOD8016439
Probable space group: P -1
;
_chemical_formula_sum "Si O2"
_cell_formula_units_Z 14
_cell_length_a 8.212180
_cell_length_b 11.842182
_cell_length_c 8.951811
_cell_angle_alpha 62.179057
_cell_angle_beta 57.048753
_cell_angle_gamma 53.491793
_cell_volume 573.802157
_symmetry_space_group_name_H-M "P -1"
_symmetry_group_IT_number 2
_symmetry_cell_setting 'triclinic'
loop_
_space_group_symop_operation_xyz
x,y,z
-x,-y,-z
loop_
_atom_site_type_symbol
_atom_site_label
_atom_site_fract_x
_atom_site_fract_y
_atom_site_fract_z
Si Si1 0.001905 0.781786 0.132036
Si Si2 0.801135 0.122322 0.615014
Si Si3 0.480063 0.646037 0.599280
Si Si4 0.917186 0.361368 0.522674
Si Si5 0.691761 0.083537 0.013305
Si Si6 0.647647 0.678242 0.805745
Si Si7 0.845276 0.434158 0.061803
O O1 0.999409 0.669827 0.326952
O O2 0.199966 0.819011 0.038822
O O3 0.016472 0.711834 0.007015
O O4 0.780552 0.931823 0.147193
O O5 0.589767 0.216277 0.559295
O O6 0.889433 0.224830 0.576466
O O7 0.719975 0.060186 0.833933
O O8 0.000000 0.000000 0.500000
O O9 0.700780 0.511536 0.518854
O O10 0.500983 0.699074 0.720520
O O11 0.281903 0.601441 0.719445
O O12 0.101656 0.369013 0.326460
O O13 0.443013 0.176800 0.136877
O O14 0.651764 0.549163 0.983393
O O15 0.000000 0.500000 0.000000
#
# Coordination Sequence:
#
# PCOD8016439 Si02
#       7
#     2   2   2   2   2   2   2
#     4  10  21  44  70  99 138 182 234 287 350 416
#     4  11  25  46  71 102 140 184 236 291 355 416
#     4  12  24  46  72 101 144 184 230 291 357 412
#     4  11  25  45  69 103 141 184 237 289 346 419
#     4  10  23  44  73  98 136 189 233 284 349 416
#     4  12  25  44  70 107 138 185 240 285 349 420
#     4  12  24  42  71 106 141 180 234 296 352 421
#
# _framework density 24.398652999999999
#
# number of rings (size 3 to 8) (size 9 to 14) (size 15 to 20)
#    0.000    0.857    2.857    4.714    4.000    1.714 
#    0.000    1.429    0.000    0.000    0.000    0.000 
#    0.000    0.000    0.000    0.000    0.000    0.000 
#
# Total GULP energy -173616.371090 kJ/mol
# GULP energy per Si atom -12401.169364 kJ/mol
# Density = 2.434312 g / cm^3
# Si number density = 24.398653 Si / 1000 Ang^3
#
#
#
# Elastic Constant Matrix: (Units=GPa)
#
#
# Indices 1 2 3 4 5 6 
#
# 1 68.2048 33.4257 27.7703 8.8352 13.6279 -10.7579
# 2 33.4257 182.8652 51.2755 28.2893 5.3630 -29.7754
# 3 27.7703 51.2755 93.2479 19.7608 8.1796 -26.0763
# 4 8.8352 28.2893 19.7608 46.2282 -8.8468 7.0649
# 5 13.6279 5.3630 8.1796 -8.8468 30.0339 7.8467
# 6 -10.7579 -29.7754 -26.0763 7.0649 7.8467 30.6457
#
#
#
# Elastic Compliance Matrix: (Units=1/GPa)
#
#
# Indices 1 2 3 4 5 6 
#
# 1 0.021357 0.000633 0.002210 -0.011579 -0.018352 0.017361
# 2 0.000633 0.009583 0.003024 -0.012092 -0.011011 0.017712
# 3 0.002210 0.003024 0.026893 -0.024786 -0.026374 0.039064
# 4 -0.011579 -0.012092 -0.024786 0.060835 0.048643 -0.063383
# 5 -0.018352 -0.011011 -0.026374 0.048643 0.083990 -0.072301
# 6 0.017361 0.017712 0.039064 -0.063383 -0.072301 0.122299
#
#
# Mechanical properties :
#
#
# Convention : Reuss Voigt Hill
#
# Bulk Modulus (GPa) = 14.37474 63.25123 38.81298
# Shear Modulus (GPa) = 14.86275 36.83799 25.85037
#
# Velocity S-wave (km/s) = 2.47080 3.88988 3.25853
# Velocity P-wave (km/s) = 3.74756 6.79376 5.48632
#
# Compressibility (1/GPa) = 0.06956648
#
# Stress axis : x y z
#
# Youngs Moduli (GPa) = 46.82328 104.35679 37.18384
#
# Poissons Ratio (x) = -0.06604 -0.08219
# Poissons Ratio (y) = -0.02963 -0.11243
# Poissons Ratio (z) = -0.10349 -0.31554
#
# Static dielectric constant tensor:
#      x y z
#    x 4.225050 -0.037870 0.274400 
#    y -0.037870 4.389170 -0.002640 
#    z 0.274400 -0.002640 4.820300 
# 
# 
# High freq. dielectric constant tensor:
#      x y z
#    x 1.956080 -0.003470 0.016440 
#    y -0.003470 1.982580 0.003680 
#    z 0.016440 0.003680 1.976500 
# 
# From -- ./inp_files/156658.got.cif
#   From: 2010.06.25/outbox.cif.g09.slc.cpg/sg2_79_cif.got.tgz:156658.got - 2010.06.27 13:26:56.
