data_PCOD8016406
_publ_section_title
;
Structure prediction by ZEFSAII (Michael W. Deem and Ramdas Pophale) SiO2 
 PCOD8016406
Probable space group: P -1
;
_chemical_formula_sum "Si O2"
_cell_formula_units_Z 16
_cell_length_a 5.085867
_cell_length_b 9.507559
_cell_length_c 15.815437
_cell_angle_alpha 75.878474
_cell_angle_beta 100.255182
_cell_angle_gamma 104.061455
_cell_volume 713.654516
_symmetry_space_group_name_H-M "P -1"
_symmetry_group_IT_number 2
_symmetry_cell_setting 'triclinic'
loop_
_space_group_symop_operation_xyz
x,y,z
-x,-y,-z
loop_
_atom_site_type_symbol
_atom_site_label
_atom_site_fract_x
_atom_site_fract_y
_atom_site_fract_z
Si Si1 0.470501 0.080850 0.243821
Si Si2 0.846938 0.493395 0.361549
Si Si3 0.034184 0.254430 0.183805
Si Si4 0.306155 0.538194 0.247137
Si Si5 0.866420 0.088438 0.045161
Si Si6 0.457736 0.092839 0.565434
Si Si7 0.552257 0.139461 0.864068
Si Si8 0.994946 0.722819 0.475785
O O1 0.237313 0.162280 0.253496
O O2 0.721581 0.204460 0.203522
O O3 0.593950 0.003485 0.339010
O O4 0.320841 0.958312 0.183545
O O5 0.550120 0.464291 0.305788
O O6 0.820816 0.595396 0.426011
O O7 0.091217 0.564424 0.302035
O O8 0.909636 0.338424 0.421282
O O9 0.138686 0.428792 0.183131
O O10 0.051746 0.225039 0.087294
O O11 0.447801 0.697208 0.193588
O O12 0.746952 0.965396 0.127563
O O13 0.663245 0.157243 0.963989
O O14 0.000000 0.000000 0.000000
O O15 0.192063 0.162506 0.527111
O O16 0.738355 0.212439 0.574277
O O17 0.500000 0.000000 0.500000
#
# Coordination Sequence:
#
# PCOD8016406 Si02
#       8
#     2   2   2   2   2   2   2   2
#     4  11  23  43  66  95 133 182 224 270 334 405
#     4  11  25  44  70  89 139 174 226 278 341 402
#     4  11  25  42  67  98 139 174 216 278 344 396
#     4  12  26  42  68 103 131 176 224 283 334 400
#     4  10  21  44  69  98 134 175 219 271 338 405
#     4  12  26  40  68  99 138 174 232 282 329 391
#     4  10  23  41  71  98 130 176 226 272 326 410
#     4  11  24  45  64  97 126 184 226 282 336 395
#
# _framework density 22.419812
#
# number of rings (size 3 to 8) (size 9 to 14) (size 15 to 20)
#    0.000    1.000    1.250    4.875    7.000    3.500 
#    0.000    0.625    0.000    0.000    0.000    0.000 
#    0.000    0.000    0.000    0.000    0.000    0.000 
#
# Total GULP energy -198309.377078 kJ/mol
# GULP energy per Si atom -12394.336067 kJ/mol
# Density = 2.236878 g / cm^3
# Si number density = 22.419812 Si / 1000 Ang^3
#
#
#
# Elastic Constant Matrix: (Units=GPa)
#
#
# Indices 1 2 3 4 5 6 
#
# 1 104.2613 19.6689 20.0069 -0.7234 5.3537 -4.1350
# 2 19.6689 103.2721 43.6375 13.3773 5.0715 -3.1004
# 3 20.0069 43.6375 95.1263 8.2401 -4.8953 2.8890
# 4 -0.7234 13.3773 8.2401 28.2288 -0.3121 4.2737
# 5 5.3537 5.0715 -4.8953 -0.3121 30.0545 5.8655
# 6 -4.1350 -3.1004 2.8890 4.2737 5.8655 29.8972
#
#
#
# Elastic Compliance Matrix: (Units=1/GPa)
#
#
# Indices 1 2 3 4 5 6 
#
# 1 0.010372 -0.001131 -0.001929 0.001066 -0.002312 0.001805
# 2 -0.001131 0.013241 -0.005673 -0.005175 -0.003639 0.003219
# 3 -0.001929 -0.005673 0.013901 -0.000938 0.004116 -0.002872
# 4 0.001066 -0.005175 -0.000938 0.039160 0.002171 -0.006322
# 5 -0.002312 -0.003639 0.004116 0.002171 0.036670 -0.008599
# 6 0.001805 0.003219 -0.002872 -0.006322 -0.008599 0.036900
#
#
# Mechanical properties :
#
#
# Convention : Reuss Voigt Hill
#
# Bulk Modulus (GPa) = 49.87791 52.14293 51.01042
# Shear Modulus (GPa) = 28.67085 32.25918 30.46502
#
# Velocity S-wave (km/s) = 3.57994 3.79736 3.69025
# Velocity P-wave (km/s) = 6.27562 6.52185 6.39992
#
# Compressibility (1/GPa) = 0.02004896
#
# Stress axis : x y z
#
# Youngs Moduli (GPa) = 96.40903 75.52039 71.93826
#
# Poissons Ratio (x) = 0.08540 0.13877
# Poissons Ratio (y) = 0.10902 0.40812
# Poissons Ratio (z) = 0.18597 0.42844
#
# Static dielectric constant tensor:
#      x y z
#    x 5.345630 -0.849500 0.062880 
#    y -0.849500 4.527300 -0.345570 
#    z 0.062880 -0.345570 3.306070 
# 
# 
# High freq. dielectric constant tensor:
#      x y z
#    x 1.888060 -0.000110 0.001230 
#    y -0.000110 1.879820 0.016910 
#    z 0.001230 0.016910 1.884210 
# 
# From -- ./inp_files/480437.got.cif
#   From: 2010.06.25/outbox.cif.g09.slc.cpg/sg2_241_cif.got.tgz:480437.got - 2010.06.27 13:26:56.
