data_PCOD8016017
_publ_section_title
;
Structure prediction by ZEFSAII (Michael W. Deem and Ramdas Pophale) SiO2 
 PCOD8016017
Probable space group: P -1
;
_chemical_formula_sum "Si O2"
_cell_formula_units_Z 14
_cell_length_a 8.188612
_cell_length_b 20.375804
_cell_length_c 12.245677
_cell_angle_alpha 148.274770
_cell_angle_beta 34.539337
_cell_angle_gamma 143.512494
_cell_volume 571.397932
_symmetry_space_group_name_H-M "P -1"
_symmetry_group_IT_number 2
_symmetry_cell_setting 'triclinic'
loop_
_space_group_symop_operation_xyz
x,y,z
-x,-y,-z
loop_
_atom_site_type_symbol
_atom_site_label
_atom_site_fract_x
_atom_site_fract_y
_atom_site_fract_z
Si Si1 0.367167 0.435292 0.321101
Si Si2 0.782783 0.859213 0.044583
Si Si3 0.305398 0.894480 0.639661
Si Si4 0.151700 0.171574 0.635389
Si Si5 0.164754 0.954089 0.173229
Si Si6 0.968055 0.617524 0.358406
Si Si7 0.412032 0.471856 0.884579
O O1 0.647004 0.558278 0.389276
O O2 0.075946 0.417826 0.536010
O O3 0.314132 0.477068 0.284648
O O4 0.424523 0.293174 0.086246
O O5 0.890902 0.869139 0.124742
O O6 0.597811 0.960848 0.268516
O O7 0.099466 0.904701 0.868935
O O8 0.586347 0.856229 0.475788
O O9 0.112757 0.777926 0.495851
O O10 0.236677 0.317203 0.748210
O O11 0.858019 0.134473 0.828092
O O12 0.086930 0.082822 0.436872
O O13 0.500000 0.000000 0.000000
O O14 0.188421 0.550666 0.086787
O O15 0.500000 0.500000 0.000000
#
# Coordination Sequence:
#
# PCOD8016017 Si02
#       7
#     2   2   2   2   2   2   2
#     4  10  24  44  69 100 131 182 225 273 335 395
#     4  10  22  42  71  95 132 177 221 280 329 386
#     4  10  21  43  68  99 131 172 229 272 330 396
#     4  11  25  42  64 102 133 172 227 268 335 406
#     4  11  24  44  66  96 136 176 219 277 336 395
#     4  10  23  45  66  98 137 176 230 273 329 399
#     4  12  24  42  67  98 138 177 217 277 334 402
#
# _framework density 24.501315000000002
#
# number of rings (size 3 to 8) (size 9 to 14) (size 15 to 20)
#    0.000    1.429    2.857    1.286    2.000    4.571 
#    2.571    0.000    0.000    0.000    0.000    0.000 
#    0.000    0.000    0.000    0.000    0.000    0.000 
#
# Total GULP energy -173475.402422 kJ/mol
# GULP energy per Si atom -12391.100173 kJ/mol
# Density = 2.444555 g / cm^3
# Si number density = 24.501315 Si / 1000 Ang^3
#
#
#
# Elastic Constant Matrix: (Units=GPa)
#
#
# Indices 1 2 3 4 5 6 
#
# 1 41.1474 -0.1481 16.6960 -3.5845 20.5078 -2.6736
# 2 -0.1481 115.9565 44.2949 12.8797 5.5158 -20.2320
# 3 16.6960 44.2949 106.0685 15.3459 15.0778 -9.3225
# 4 -3.5845 12.8797 15.3459 56.5923 6.9032 9.6938
# 5 20.5078 5.5158 15.0778 6.9032 34.9942 1.4431
# 6 -2.6736 -20.2320 -9.3225 9.6938 1.4431 39.6544
#
#
#
# Elastic Compliance Matrix: (Units=1/GPa)
#
#
# Indices 1 2 3 4 5 6 
#
# 1 0.037490 0.002606 -0.004476 0.005231 -0.021580 0.002312
# 2 0.002606 0.011524 -0.004233 -0.002110 -0.001336 0.005624
# 3 -0.004476 -0.004233 0.012646 -0.002760 -0.001666 0.001247
# 4 0.005231 -0.002110 -0.002760 0.020971 -0.005421 -0.006302
# 5 -0.021580 -0.001336 -0.001666 -0.005421 0.043335 -0.002780
# 6 0.002312 0.005624 0.001247 -0.006302 -0.002780 0.030178
#
#
# Mechanical properties :
#
#
# Convention : Reuss Voigt Hill
#
# Bulk Modulus (GPa) = 20.22078 42.76200 31.49139
# Shear Modulus (GPa) = 27.05157 39.73682 33.39419
#
# Velocity S-wave (km/s) = 3.32638 4.03156 3.69583
# Velocity P-wave (km/s) = 4.79833 6.25796 5.57611
#
# Compressibility (1/GPa) = 0.04945407
#
# Stress axis : x y z
#
# Youngs Moduli (GPa) = 26.67407 86.77905 79.07820
#
# Poissons Ratio (x) = -0.22618 0.35393
# Poissons Ratio (y) = -0.06952 0.33474
# Poissons Ratio (z) = 0.11938 0.36734
#
# Static dielectric constant tensor:
#      x y z
#    x 4.033470 -0.068380 0.225020 
#    y -0.068380 4.724650 -0.071760 
#    z 0.225020 -0.071760 5.280460 
# 
# 
# High freq. dielectric constant tensor:
#      x y z
#    x 1.941390 -0.003840 0.032800 
#    y -0.003840 1.987610 -0.001660 
#    z 0.032800 -0.001660 1.987430 
# 
# From -- ./inp_files/256581.got.cif
#   From: 2010.06.25/outbox.cif.g09.slc.cpg/sg2_129_cif.got.tgz:256581.got - 2010.06.27 13:26:56.
