data_PCOD8016933
_publ_section_title
;
Structure prediction by ZEFSAII (Michael W. Deem and Ramdas Pophale) SiO2 
 PCOD8016933
Probable space group: P -1
;
_chemical_formula_sum "Si O2"
_cell_formula_units_Z 12
_cell_length_a 15.483614
_cell_length_b 5.290083
_cell_length_c 19.753047
_cell_angle_alpha 96.237925
_cell_angle_beta 20.417687
_cell_angle_gamma 88.353402
_cell_volume 519.817464
_symmetry_space_group_name_H-M "P -1"
_symmetry_group_IT_number 2
_symmetry_cell_setting 'triclinic'
loop_
_space_group_symop_operation_xyz
x,y,z
-x,-y,-z
loop_
_atom_site_type_symbol
_atom_site_label
_atom_site_fract_x
_atom_site_fract_y
_atom_site_fract_z
Si Si1 0.098747 0.074471 0.266351
Si Si2 0.889496 0.277666 0.046678
Si Si3 0.273969 0.520892 0.540331
Si Si4 0.622619 0.742358 0.819206
Si Si5 0.976284 0.797835 0.455942
Si Si6 0.224198 0.078806 0.665866
O O1 0.273603 0.067945 0.204181
O O2 0.929925 0.378541 0.370730
O O3 0.904656 0.928888 0.436333
O O4 0.299274 0.879237 0.056738
O O5 0.571230 0.399029 0.289614
O O6 0.000000 0.500000 0.000000
O O7 0.977580 0.211562 0.902149
O O8 0.000000 0.000000 0.000000
O O9 0.205037 0.300029 0.628304
O O10 0.217486 0.800507 0.631757
O O11 0.733425 0.449052 0.765983
O O12 0.737892 0.706841 0.656250
O O13 0.000000 0.000000 0.500000
O O14 0.500000 0.000000 0.500000
#
# Coordination Sequence:
#
# PCOD8016933 Si02
#       6
#     2   2   2   2   2   2
#     4  10  22  37  60  89 125 164 211 257 317 368
#     4  12  23  43  72  92 124 172 214 264 333 390
#     4  12  26  43  66 104 131 170 221 277 316 394
#     4   9  19  39  61  84 125 170 205 252 318 373
#     4   9  18  36  61  85 115 166 209 252 307 382
#     4  12  24  45  70  94 132 171 219 268 335 396
#
# _framework density 23.085025999999999
#
# number of rings (size 3 to 8) (size 9 to 14) (size 15 to 20)
#    0.000    1.333    3.333    2.000    2.333    1.333 
#    9.000    0.000    0.000    0.000    0.000    0.000 
#    0.000    0.000    0.000    0.000    0.000    0.000 
#
# Total GULP energy -148698.869278 kJ/mol
# GULP energy per Si atom -12391.572440 kJ/mol
# Density = 2.303248 g / cm^3
# Si number density = 23.085026 Si / 1000 Ang^3
#
#
#
# Elastic Constant Matrix: (Units=GPa)
#
#
# Indices 1 2 3 4 5 6 
#
# 1 50.0984 21.6234 42.6824 -8.3726 6.2890 -34.1066
# 2 21.6234 119.4631 40.3153 7.5805 10.1904 -36.7512
# 3 42.6824 40.3153 188.3082 9.8803 18.7296 -31.6216
# 4 -8.3726 7.5805 9.8803 36.7406 -6.9859 6.7692
# 5 6.2890 10.1904 18.7296 -6.9859 28.9119 3.8641
# 6 -34.1066 -36.7512 -31.6216 6.7692 3.8641 52.0542
#
#
#
# Elastic Compliance Matrix: (Units=1/GPa)
#
#
# Indices 1 2 3 4 5 6 
#
# 1 0.044107 0.003081 -0.005071 0.003608 -0.010304 0.028290
# 2 0.003081 0.012657 -0.000304 -0.005553 -0.007890 0.012078
# 3 -0.005071 -0.000304 0.007608 -0.004480 -0.005074 0.002044
# 4 0.003608 -0.005553 -0.004480 0.034827 0.013804 -0.009832
# 5 -0.010304 -0.007890 -0.005074 0.013804 0.049018 -0.020839
# 6 0.028290 0.012078 0.002044 -0.009832 -0.020839 0.050341
#
#
# Mechanical properties :
#
#
# Convention : Reuss Voigt Hill
#
# Bulk Modulus (GPa) = 16.72677 63.01241 39.86959
# Shear Modulus (GPa) = 22.41417 40.42458 31.41937
#
# Velocity S-wave (km/s) = 3.11937 4.18917 3.69321
# Velocity P-wave (km/s) = 4.49838 7.12418 5.95774
#
# Compressibility (1/GPa) = 0.05978440
#
# Stress axis : x y z
#
# Youngs Moduli (GPa) = 22.67197 79.00985 131.44398
#
# Poissons Ratio (x) = -0.24341 0.66653
# Poissons Ratio (y) = -0.06985 0.03991
# Poissons Ratio (z) = 0.11497 0.02399
#
# Static dielectric constant tensor:
#      x y z
#    x 5.069130 1.062950 -0.096280 
#    y 1.062950 7.427800 -1.361580 
#    z -0.096280 -1.361580 5.670830 
# 
# 
# High freq. dielectric constant tensor:
#      x y z
#    x 1.886560 -0.010730 0.025100 
#    y -0.010730 1.933610 0.003570 
#    z 0.025100 0.003570 1.928080 
# 
# From -- ./inp_files/97905.got.cif
#   From: 2010.06.25/outbox.cif.g09.slc.cpg/sg2_49_cif.got.tgz:97905.got - 2010.06.27 13:26:56.
