data_PCOD8016807
_publ_section_title
;
Structure prediction by ZEFSAII (Michael W. Deem and Ramdas Pophale) SiO2 
 PCOD8016807
Probable space group: P -1
;
_chemical_formula_sum "Si O2"
_cell_formula_units_Z 16
_cell_length_a 8.928213
_cell_length_b 16.936409
_cell_length_c 8.860792
_cell_angle_alpha 51.810923
_cell_angle_beta 50.708406
_cell_angle_gamma 69.083038
_cell_volume 813.711568
_symmetry_space_group_name_H-M "P -1"
_symmetry_group_IT_number 2
_symmetry_cell_setting 'triclinic'
loop_
_space_group_symop_operation_xyz
x,y,z
-x,-y,-z
loop_
_atom_site_type_symbol
_atom_site_label
_atom_site_fract_x
_atom_site_fract_y
_atom_site_fract_z
Si Si1 0.579478 0.128698 0.890918
Si Si2 0.773742 0.422539 0.382634
Si Si3 0.173168 0.024554 0.237885
Si Si4 0.258112 0.717690 0.161021
Si Si5 0.939375 0.776911 0.067557
Si Si6 0.620846 0.402584 0.042498
Si Si7 0.011314 0.611194 0.012269
Si Si8 0.525662 0.696790 0.455393
O O1 0.618865 0.192334 0.942130
O O2 0.547329 0.199042 0.684523
O O3 0.768520 0.067791 0.797208
O O4 0.380442 0.062404 0.135288
O O5 0.828269 0.362466 0.568133
O O6 0.809850 0.542876 0.239199
O O7 0.554468 0.394787 0.496036
O O8 0.923238 0.386223 0.204920
O O9 0.097377 0.107388 0.073945
O O10 0.000000 0.000000 0.500000
O O11 0.092140 0.768917 0.112784
O O12 0.394069 0.655135 0.039062
O O13 0.000440 0.727821 0.927944
O O14 0.754922 0.704500 0.315792
O O15 0.550787 0.320411 0.307592
O O16 0.500000 0.500000 0.000000
O O17 0.839469 0.439013 0.907364
#
# Coordination Sequence:
#
# PCOD8016807 Si02
#       8
#     2   2   2   2   2   2   2   2
#     4   9  21  45  62  89 120 152 201 251 301 359
#     4   9  19  37  55  81 113 163 190 241 276 348
#     4  10  22  40  70  88 114 156 200 247 310 369
#     4  10  22  38  60  85 124 151 193 249 293 343
#     4  10  22  37  60  89 114 153 196 241 305 354
#     4  10  22  36  54  84 124 162 195 233 298 348
#     4   9  20  37  56  81 119 158 199 233 293 349
#     4   9  20  39  57  82 118 162 189 242 290 356
#
# _framework density 19.662987000000001
#
# number of rings (size 3 to 8) (size 9 to 14) (size 15 to 20)
#    0.000    2.500    0.000    0.000   10.500    2.000 
#   20.250    0.625    0.000    0.000    0.000    0.000 
#    0.000    0.000    0.000    0.000    0.000    0.000 
#
# Total GULP energy -198253.447063 kJ/mol
# GULP energy per Si atom -12390.840441 kJ/mol
# Density = 1.961823 g / cm^3
# Si number density = 19.662987 Si / 1000 Ang^3
#
#
#
# Elastic Constant Matrix: (Units=GPa)
#
#
# Indices 1 2 3 4 5 6 
#
# 1 76.4147 59.0088 47.8406 4.3627 4.8151 4.1274
# 2 59.0088 126.1930 39.1651 9.0925 7.4954 5.0578
# 3 47.8406 39.1651 105.0258 5.8959 -2.4766 10.7328
# 4 4.3627 9.0925 5.8959 22.3645 0.9465 0.6408
# 5 4.8151 7.4954 -2.4766 0.9465 34.2242 4.4220
# 6 4.1274 5.0578 10.7328 0.6408 4.4220 31.6162
#
#
#
# Elastic Compliance Matrix: (Units=1/GPa)
#
#
# Indices 1 2 3 4 5 6 
#
# 1 0.025591 -0.009343 -0.008425 0.001090 -0.002365 0.001323
# 2 -0.009343 0.012712 -0.000289 -0.003199 -0.001342 -0.000463
# 3 -0.008425 -0.000289 0.014050 -0.001949 0.002834 -0.003980
# 4 0.001090 -0.003199 -0.001949 0.046348 -0.000904 0.000218
# 5 -0.002365 -0.001342 0.002834 -0.000904 0.030685 -0.004712
# 6 0.001323 -0.000463 -0.003980 0.000218 -0.004712 0.033537
#
#
# Mechanical properties :
#
#
# Convention : Reuss Voigt Hill
#
# Bulk Modulus (GPa) = 61.58223 66.62917 64.10570
# Shear Modulus (GPa) = 24.45589 28.41557 26.43573
#
# Velocity S-wave (km/s) = 3.53051 3.80561 3.67064
# Velocity P-wave (km/s) = 6.92865 7.29859 7.11602
#
# Compressibility (1/GPa) = 0.01623845
#
# Stress axis : x y z
#
# Youngs Moduli (GPa) = 39.07563 78.66741 71.17385
#
# Poissons Ratio (x) = 0.73498 0.59966
# Poissons Ratio (y) = 0.36508 0.02059
# Poissons Ratio (z) = 0.32922 0.02275
#
# Static dielectric constant tensor:
#      x y z
#    x 3.724600 -0.012020 -0.193160 
#    y -0.012020 3.683930 -0.015920 
#    z -0.193160 -0.015920 3.660580 
# 
# 
# High freq. dielectric constant tensor:
#      x y z
#    x 1.762060 0.002140 -0.005320 
#    y 0.002140 1.765970 0.000320 
#    z -0.005320 0.000320 1.765860 
# 
# From -- ./inp_files/215646.got.cif
#   From: 2010.06.25/outbox.cif.g09.slc.cpg/sg2_108_cif.got.tgz:215646.got - 2010.06.27 13:26:56.
