data_PCOD8016029
_publ_section_title
;
Structure prediction by ZEFSAII (Michael W. Deem and Ramdas Pophale) SiO2 
 PCOD8016029
Probable space group: P -1
;
_chemical_formula_sum "Si O2"
_cell_formula_units_Z 16
_cell_length_a 19.534104
_cell_length_b 9.199180
_cell_length_c 7.616065
_cell_angle_alpha 49.732487
_cell_angle_beta 93.575012
_cell_angle_gamma 57.688781
_cell_volume 683.663133
_symmetry_space_group_name_H-M "P -1"
_symmetry_group_IT_number 2
_symmetry_cell_setting 'triclinic'
loop_
_space_group_symop_operation_xyz
x,y,z
-x,-y,-z
loop_
_atom_site_type_symbol
_atom_site_label
_atom_site_fract_x
_atom_site_fract_y
_atom_site_fract_z
Si Si1 0.296361 0.141210 0.769503
Si Si2 0.187099 0.232224 0.346151
Si Si3 0.263940 0.947174 0.218041
Si Si4 0.556823 0.676785 0.770360
Si Si5 0.208974 0.771263 0.813666
Si Si6 0.185062 0.714021 0.464802
Si Si7 0.520580 0.542651 0.226714
Si Si8 0.963416 0.122331 0.204501
O O1 0.270411 0.152185 0.554700
O O2 0.264212 0.421366 0.594288
O O3 0.233924 0.128374 0.898475
O O4 0.419872 0.861614 0.036818
O O5 0.242710 0.118216 0.254748
O O6 0.158330 0.081797 0.523006
O O7 0.079053 0.573672 0.055538
O O8 0.192447 0.910807 0.236065
O O9 0.387688 0.637333 0.474072
O O10 0.501398 0.635211 0.673223
O O11 0.500000 0.000000 0.500000
O O12 0.677227 0.452446 0.903570
O O13 0.562856 0.573779 0.044446
O O14 0.216829 0.639326 0.733979
O O15 0.131567 0.824589 0.896368
O O16 0.065428 0.891240 0.276926
O O17 0.000000 0.000000 0.500000
#
# Coordination Sequence:
#
# PCOD8016029 Si02
#       8
#     2   2   2   2   2   2   2   2
#     4  12  26  42  70 102 141 183 224 281 342 402
#     4  11  23  45  72  96 139 179 226 289 334 410
#     4  11  24  45  69  96 144 178 229 278 339 407
#     4  11  23  38  73 104 137 180 231 278 340 410
#     4  10  21  43  69 103 132 181 228 277 350 403
#     4  10  24  44  62 100 137 174 234 282 332 409
#     4  11  23  43  63 104 140 181 229 275 337 415
#     4  10  23  41  72 102 132 179 231 282 349 402
#
# _framework density 23.40334
#
# number of rings (size 3 to 8) (size 9 to 14) (size 15 to 20)
#    0.000    1.250    3.750    2.625    5.250    8.500 
#    0.000    1.250    0.000    0.000    0.000    0.000 
#    0.000    0.000    0.000    0.000    0.000    0.000 
#
# Total GULP energy -198427.154186 kJ/mol
# GULP energy per Si atom -12401.697137 kJ/mol
# Density = 2.335007 g / cm^3
# Si number density = 23.403340 Si / 1000 Ang^3
#
#
#
# Elastic Constant Matrix: (Units=GPa)
#
#
# Indices 1 2 3 4 5 6 
#
# 1 131.8945 14.2015 35.4564 -13.2690 9.4901 -2.6259
# 2 14.2015 68.5362 16.6660 -17.8112 -0.9332 3.9118
# 3 35.4564 16.6660 109.6096 -26.8074 -5.5506 2.7076
# 4 -13.2690 -17.8112 -26.8074 41.6502 -0.0679 -0.3099
# 5 9.4901 -0.9332 -5.5506 -0.0679 32.2924 -9.8224
# 6 -2.6259 3.9118 2.7076 -0.3099 -9.8224 23.5204
#
#
#
# Elastic Compliance Matrix: (Units=1/GPa)
#
#
# Indices 1 2 3 4 5 6 
#
# 1 0.008689 -0.001050 -0.002659 0.000605 -0.002974 0.000217
# 2 -0.001050 0.016783 -0.000572 0.006454 -0.000149 -0.002820
# 3 -0.002659 -0.000572 0.011808 0.006510 0.002703 -0.000347
# 4 0.000605 0.006454 0.006510 0.031146 0.000898 -0.000970
# 5 -0.002974 -0.000149 0.002703 0.000898 0.036792 0.014758
# 6 0.000217 -0.002820 -0.000347 -0.000970 0.014758 0.049200
#
#
# Mechanical properties :
#
#
# Convention : Reuss Voigt Hill
#
# Bulk Modulus (GPa) = 34.82015 49.18757 42.00386
# Shear Modulus (GPa) = 28.97665 35.74036 32.35851
#
# Velocity S-wave (km/s) = 3.52254 3.91211 3.72243
# Velocity P-wave (km/s) = 5.60847 6.43965 6.03838
#
# Compressibility (1/GPa) = 0.02871900
#
# Stress axis : x y z
#
# Youngs Moduli (GPa) = 115.09121 59.58253 84.68802
#
# Poissons Ratio (x) = 0.06254 0.22520
# Poissons Ratio (y) = 0.12079 0.04844
# Poissons Ratio (z) = 0.30604 0.03408
#
# Static dielectric constant tensor:
#      x y z
#    x 4.606020 -0.142250 -0.017230 
#    y -0.142250 4.076980 -0.084980 
#    z -0.017230 -0.084980 4.226760 
# 
# 
# High freq. dielectric constant tensor:
#      x y z
#    x 1.932450 -0.007910 -0.005680 
#    y -0.007910 1.907510 -0.006480 
#    z -0.005680 -0.006480 1.928830 
# 
# From -- ./inp_files/343325.got.cif
#   From: 2010.06.25/outbox.cif.g09.slc.cpg/sg2_172_cif.got.tgz:343325.got - 2010.06.27 13:26:56.
