data_PCOD8016821
_publ_section_title
;
Structure prediction by ZEFSAII (Michael W. Deem and Ramdas Pophale) SiO2 
 PCOD8016821
Probable space group: P -1
;
_chemical_formula_sum "Si O2"
_cell_formula_units_Z 16
_cell_length_a 15.204201
_cell_length_b 9.322422
_cell_length_c 14.356076
_cell_angle_alpha 91.564720
_cell_angle_beta 49.123345
_cell_angle_gamma 132.146038
_cell_volume 773.993120
_symmetry_space_group_name_H-M "P -1"
_symmetry_group_IT_number 2
_symmetry_cell_setting 'triclinic'
loop_
_space_group_symop_operation_xyz
x,y,z
-x,-y,-z
loop_
_atom_site_type_symbol
_atom_site_label
_atom_site_fract_x
_atom_site_fract_y
_atom_site_fract_z
Si Si1 0.000914 0.267599 0.396810
Si Si2 0.540571 0.195421 0.017696
Si Si3 0.305064 0.301827 0.471423
Si Si4 0.435349 0.019023 0.295997
Si Si5 0.668917 0.411345 0.664249
Si Si6 0.373141 0.250613 0.019234
Si Si7 0.979780 0.963182 0.168965
Si Si8 0.744378 0.583278 0.158580
O O1 0.200701 0.477777 0.183291
O O2 0.104992 0.394293 0.430734
O O3 0.863091 0.971912 0.481771
O O4 0.825964 0.214163 0.500051
O O5 0.342339 0.082073 0.105798
O O6 0.502749 0.156816 0.152367
O O7 0.500000 0.000000 0.000000
O O8 0.278124 0.439904 0.461968
O O9 0.241011 0.215548 0.623455
O O10 0.565568 0.525027 0.283329
O O11 0.618947 0.294090 0.241837
O O12 0.463002 0.876483 0.279072
O O13 0.519771 0.358863 0.830208
O O14 0.500000 0.500000 0.000000
O O15 0.133950 0.055809 0.144268
O O16 0.906229 0.764875 0.140684
O O17 0.102331 0.228133 0.037374
#
# Coordination Sequence:
#
# PCOD8016821 Si02
#       8
#     2   2   2   2   2   2   2   2
#     4  10  22  36  57  90 118 165 193 237 306 355
#     4  11  22  37  60  89 126 154 196 244 299 361
#     4  11  22  38  62  88 121 152 207 251 294 354
#     4  11  22  40  61  86 127 160 197 244 303 355
#     4  11  22  38  56  93 127 154 197 249 299 360
#     4  11  22  37  61  91 120 155 200 243 299 357
#     4  11  22  41  66  88 117 158 206 248 302 344
#     4  10  23  42  65  86 116 160 207 250 292 360
#
# _framework density 20.672015999999999
#
# number of rings (size 3 to 8) (size 9 to 14) (size 15 to 20)
#    0.000    1.250    3.750    4.125    3.500    0.000 
#    0.000    1.250    0.000    0.000    0.000    0.000 
#    0.000    0.000    0.000    0.000    0.000    0.000 
#
# Total GULP energy -198373.001138 kJ/mol
# GULP energy per Si atom -12398.312571 kJ/mol
# Density = 2.062497 g / cm^3
# Si number density = 20.672016 Si / 1000 Ang^3
#
#
#
# Elastic Constant Matrix: (Units=GPa)
#
#
# Indices 1 2 3 4 5 6 
#
# 1 71.7685 47.3976 20.4695 -8.3377 9.1947 -5.4652
# 2 47.3976 123.6489 20.9507 -10.0116 -0.7339 -9.5966
# 3 20.4695 20.9507 83.7576 1.8595 15.0930 1.7275
# 4 -8.3377 -10.0116 1.8595 30.3136 3.2695 -0.3425
# 5 9.1947 -0.7339 15.0930 3.2695 23.0003 -3.7574
# 6 -5.4652 -9.5966 1.7275 -0.3425 -3.7574 32.0630
#
#
#
# Elastic Compliance Matrix: (Units=1/GPa)
#
#
# Indices 1 2 3 4 5 6 
#
# 1 0.020873 -0.007318 -0.001974 0.004293 -0.007794 0.000606
# 2 -0.007318 0.011625 -0.002104 0.001455 0.004951 0.002941
# 3 -0.001974 -0.002104 0.014694 -0.001177 -0.009219 -0.002851
# 4 0.004293 0.001455 -0.001177 0.035355 -0.005771 0.000932
# 5 -0.007794 0.004951 -0.009219 -0.005771 0.054766 0.007006
# 6 0.000606 0.002941 -0.002851 0.000932 0.007006 0.033157
#
#
# Mechanical properties :
#
#
# Convention : Reuss Voigt Hill
#
# Bulk Modulus (GPa) = 40.98584 50.75672 45.87128
# Shear Modulus (GPa) = 24.82670 29.76585 27.29628
#
# Velocity S-wave (km/s) = 3.46928 3.79873 3.63774
# Velocity P-wave (km/s) = 5.99313 6.62172 6.31525
#
# Compressibility (1/GPa) = 0.02439867
#
# Stress axis : x y z
#
# Youngs Moduli (GPa) = 47.90809 86.02365 68.05413
#
# Poissons Ratio (x) = 0.62955 0.13434
# Poissons Ratio (y) = 0.35061 0.14321
# Poissons Ratio (z) = 0.09457 0.18102
#
# Static dielectric constant tensor:
#      x y z
#    x 3.554250 -0.000050 -0.082900 
#    y -0.000050 3.802120 -0.017780 
#    z -0.082900 -0.017780 3.294170 
# 
# 
# High freq. dielectric constant tensor:
#      x y z
#    x 1.782530 -0.000130 0.002450 
#    y -0.000130 1.813640 0.002880 
#    z 0.002450 0.002880 1.816730 
# 
# From -- ./inp_files/175015.got.cif
#   From: 2010.06.25/outbox.cif.g09.slc.cpg/sg2_88_cif.got.tgz:175015.got - 2010.06.27 13:26:56.
