data_PCOD8016189
_publ_section_title
;
Structure prediction by ZEFSAII (Michael W. Deem and Ramdas Pophale) SiO2 
 PCOD8016189
Probable space group: P -1
;
_chemical_formula_sum "Si O2"
_cell_formula_units_Z 14
_cell_length_a 19.465084
_cell_length_b 9.158703
_cell_length_c 8.929534
_cell_angle_alpha 55.281507
_cell_angle_beta 61.352747
_cell_angle_gamma 29.353193
_cell_volume 640.838668
_symmetry_space_group_name_H-M "P -1"
_symmetry_group_IT_number 2
_symmetry_cell_setting 'triclinic'
loop_
_space_group_symop_operation_xyz
x,y,z
-x,-y,-z
loop_
_atom_site_type_symbol
_atom_site_label
_atom_site_fract_x
_atom_site_fract_y
_atom_site_fract_z
Si Si1 0.350761 0.324377 0.401420
Si Si2 0.093508 0.655712 0.636891
Si Si3 0.938576 0.624718 0.327912
Si Si4 0.146678 0.440775 0.043078
Si Si5 0.645526 0.277466 0.168194
Si Si6 0.356921 0.307719 0.056004
Si Si7 0.341840 0.751553 0.175786
O O1 0.244461 0.395303 0.555085
O O2 0.362515 0.252284 0.257465
O O3 0.302914 0.617780 0.312284
O O4 0.500000 0.000000 0.500000
O O5 0.014036 0.639781 0.655757
O O6 0.110539 0.585980 0.834631
O O7 0.000000 0.000000 0.500000
O O8 0.000000 0.500000 0.500000
O O9 0.000791 0.678860 0.143529
O O10 0.768969 0.947432 0.322649
O O11 0.231529 0.432643 0.043617
O O12 0.229318 0.097667 0.161475
O O13 0.490522 0.507892 0.246634
O O14 0.672991 0.429874 0.084741
O O15 0.654748 0.205591 0.027181
O O16 0.500000 0.000000 0.000000
#
# Coordination Sequence:
#
# PCOD8016189 Si02
#       7
#     2   2   2   2   2   2   2
#     4  11  24  43  70 101 137 175 229 284 339 406
#     4  12  27  45  68 100 140 179 229 281 343 410
#     4  12  27  46  67 101 140 180 227 278 347 415
#     4  12  25  45  71  98 137 178 231 282 343 411
#     4  10  22  41  71  95 135 176 227 276 340 401
#     4  11  23  42  69 103 134 176 229 285 341 396
#     4  10  21  43  72  99 127 181 226 280 341 400
#
# _framework density 21.846371999999999
#
# number of rings (size 3 to 8) (size 9 to 14) (size 15 to 20)
#    0.000    0.857    2.857    3.857    8.000    0.571 
#    2.571    1.429    0.000    0.000    0.000    0.000 
#    0.000    0.000    0.000    0.000    0.000    0.000 
#
# Total GULP energy -173616.434314 kJ/mol
# GULP energy per Si atom -12401.173880 kJ/mol
# Density = 2.179665 g / cm^3
# Si number density = 21.846372 Si / 1000 Ang^3
#
#
#
# Elastic Constant Matrix: (Units=GPa)
#
#
# Indices 1 2 3 4 5 6 
#
# 1 157.6902 31.4208 62.4223 1.2035 19.9657 -6.5222
# 2 31.4208 89.5220 43.7582 -5.5183 12.5896 -13.8134
# 3 62.4223 43.7582 149.4787 3.6934 20.9766 -9.0326
# 4 1.2035 -5.5183 3.6934 41.2665 -9.1449 -3.3650
# 5 19.9657 12.5896 20.9766 -9.1449 36.6013 2.2771
# 6 -6.5222 -13.8134 -9.0326 -3.3650 2.2771 39.2562
#
#
#
# Elastic Compliance Matrix: (Units=1/GPa)
#
#
# Indices 1 2 3 4 5 6 
#
# 1 0.007946 -0.001136 -0.002567 -0.000713 -0.002677 0.000424
# 2 -0.001136 0.014237 -0.003168 0.002089 -0.002213 0.004399
# 3 -0.002567 -0.003168 0.009236 -0.001858 -0.003306 0.000616
# 4 -0.000713 0.002089 -0.001858 0.026466 0.007221 0.002039
# 5 -0.002677 -0.002213 -0.003306 0.007221 0.033447 -0.003305
# 6 0.000424 0.004399 0.000616 0.002039 -0.003305 0.027600
#
#
# Mechanical properties :
#
#
# Convention : Reuss Voigt Hill
#
# Bulk Modulus (GPa) = 56.57283 74.65485 65.61384
# Shear Modulus (GPa) = 36.08358 40.69744 38.39051
#
# Velocity S-wave (km/s) = 4.06852 4.32081 4.19656
# Velocity P-wave (km/s) = 6.92982 7.69021 7.31990
#
# Compressibility (1/GPa) = 0.01767633
#
# Stress axis : x y z
#
# Youngs Moduli (GPa) = 125.85081 70.24080 108.26783
#
# Poissons Ratio (x) = 0.07982 0.27789
# Poissons Ratio (y) = 0.14301 0.34303
# Poissons Ratio (z) = 0.32302 0.22255
#
# Static dielectric constant tensor:
#      x y z
#    x 4.676650 0.027820 -0.066720 
#    y 0.027820 4.121640 -0.006600 
#    z -0.066720 -0.006600 3.611440 
# 
# 
# High freq. dielectric constant tensor:
#      x y z
#    x 1.882080 -0.005890 -0.005560 
#    y -0.005890 1.864740 -0.006830 
#    z -0.005560 -0.006830 1.851200 
# 
# From -- ./inp_files/156572.got.cif
#   From: 2010.06.25/outbox.cif.g09.slc.cpg/sg2_79_cif.got.tgz:156572.got - 2010.06.27 13:26:56.
