data_PCOD8016741
_publ_section_title
;
Structure prediction by ZEFSAII (Michael W. Deem and Ramdas Pophale) SiO2 
 PCOD8016741
Probable space group: P -1
;
_chemical_formula_sum "Si O2"
_cell_formula_units_Z 14
_cell_length_a 8.517110
_cell_length_b 8.977774
_cell_length_c 13.896639
_cell_angle_alpha 97.700965
_cell_angle_beta 120.588089
_cell_angle_gamma 45.700946
_cell_volume 610.956267
_symmetry_space_group_name_H-M "P -1"
_symmetry_group_IT_number 2
_symmetry_cell_setting 'triclinic'
loop_
_space_group_symop_operation_xyz
x,y,z
-x,-y,-z
loop_
_atom_site_type_symbol
_atom_site_label
_atom_site_fract_x
_atom_site_fract_y
_atom_site_fract_z
Si Si1 0.388862 0.551661 0.721776
Si Si2 0.928953 0.271147 0.179845
Si Si3 0.982945 0.087913 0.899686
Si Si4 0.863715 0.731219 0.940406
Si Si5 0.668393 0.069807 0.297715
Si Si6 0.232555 0.583603 0.465295
Si Si7 0.615544 0.820950 0.598198
O O1 0.277426 0.546532 0.786542
O O2 0.357661 0.748816 0.737234
O O3 0.225952 0.594438 0.580510
O O4 0.692819 0.312342 0.788508
O O5 0.903523 0.348621 0.069370
O O6 0.216171 0.166295 0.284796
O O7 0.912460 0.098501 0.160737
O O8 0.160481 0.132291 0.967947
O O9 0.000000 0.000000 0.000000
O O10 0.559776 0.893660 0.821326
O O11 0.000000 0.500000 0.000000
O O12 0.616264 0.108279 0.399720
O O13 0.969517 0.820935 0.355277
O O14 0.500000 0.500000 0.500000
O O15 0.218974 0.417032 0.417282
O O16 0.500000 0.000000 0.500000
#
# Coordination Sequence:
#
# PCOD8016741 Si02
#       7
#     2   2   2   2   2   2   2
#     4  12  24  43  72 103 142 184 235 287 349 414
#     4  10  25  41  70 102 139 177 234 284 348 407
#     4  10  23  44  73 100 140 181 234 283 352 411
#     4  10  21  47  72 101 141 182 232 292 343 415
#     4  11  25  44  72 104 140 185 234 288 356 412
#     4  12  27  44  74 103 140 188 237 283 355 419
#     4  11  24  44  68 102 144 179 232 293 342 415
#
# _framework density 22.914895999999999
#
# number of rings (size 3 to 8) (size 9 to 14) (size 15 to 20)
#    0.000    1.143    2.857    2.143    4.000    8.000 
#    0.000    2.143    0.000    0.000    0.000    0.000 
#    0.000    0.000    0.000    0.000    0.000    0.000 
#
# Total GULP energy -173452.483611 kJ/mol
# GULP energy per Si atom -12389.463115 kJ/mol
# Density = 2.286274 g / cm^3
# Si number density = 22.914896 Si / 1000 Ang^3
#
#
#
# Elastic Constant Matrix: (Units=GPa)
#
#
# Indices 1 2 3 4 5 6 
#
# 1 85.7723 38.3803 31.6837 7.3099 -4.8854 0.1221
# 2 38.3803 122.3087 51.4584 5.9482 4.4888 17.3882
# 3 31.6837 51.4584 95.6363 -7.1780 13.9882 6.5743
# 4 7.3099 5.9482 -7.1780 48.2816 6.5317 4.1012
# 5 -4.8854 4.4888 13.9882 6.5317 32.7147 1.7718
# 6 0.1221 17.3882 6.5743 4.1012 1.7718 44.7997
#
#
#
# Elastic Compliance Matrix: (Units=1/GPa)
#
#
# Indices 1 2 3 4 5 6 
#
# 1 0.015366 -0.003225 -0.004522 -0.003481 0.005258 0.001984
# 2 -0.003225 0.012029 -0.005362 -0.001563 0.000676 -0.003757
# 3 -0.004522 -0.005362 0.016393 0.004889 -0.007901 -0.000447
# 4 -0.003481 -0.001563 0.004889 0.023263 -0.006935 -0.001957
# 5 0.005258 0.000676 -0.007901 -0.006935 0.036018 0.000093
# 6 0.001984 -0.003757 -0.000447 -0.001957 0.000093 0.024015
#
#
# Mechanical properties :
#
#
# Convention : Reuss Voigt Hill
#
# Bulk Modulus (GPa) = 56.91663 60.75135 58.83399
# Shear Modulus (GPa) = 31.41527 37.30551 34.36039
#
# Velocity S-wave (km/s) = 3.70666 4.03923 3.87651
# Velocity P-wave (km/s) = 6.57353 6.95148 6.76514
#
# Compressibility (1/GPa) = 0.01756956
#
# Stress axis : x y z
#
# Youngs Moduli (GPa) = 65.08031 83.13036 61.00203
#
# Poissons Ratio (x) = 0.26809 0.27586
# Poissons Ratio (y) = 0.20988 0.32710
# Poissons Ratio (z) = 0.29430 0.44575
#
# Static dielectric constant tensor:
#      x y z
#    x 3.979580 0.223760 -2.360620 
#    y 0.223760 4.409860 0.605260 
#    z -2.360620 0.605260 -17.966560 
# 
# 
# High freq. dielectric constant tensor:
#      x y z
#    x 1.902180 0.015830 -0.005300 
#    y 0.015830 1.903000 0.013380 
#    z -0.005300 0.013380 1.918480 
# 
# From -- ./inp_files/99512.got.cif
#   From: 2010.06.25/outbox.cif.g09.slc.cpg/sg2_50_cif.got.tgz:99512.got - 2010.06.27 13:26:56.
