data_PCOD8016458
_publ_section_title
;
Structure prediction by ZEFSAII (Michael W. Deem and Ramdas Pophale) SiO2 
 PCOD8016458
Probable space group: P -1
;
_chemical_formula_sum "Si O2"
_cell_formula_units_Z 14
_cell_length_a 18.225541
_cell_length_b 9.790431
_cell_length_c 5.573634
_cell_angle_alpha 67.253378
_cell_angle_beta 120.080504
_cell_angle_gamma 131.317927
_cell_volume 643.974629
_symmetry_space_group_name_H-M "P -1"
_symmetry_group_IT_number 2
_symmetry_cell_setting 'triclinic'
loop_
_space_group_symop_operation_xyz
x,y,z
-x,-y,-z
loop_
_atom_site_type_symbol
_atom_site_label
_atom_site_fract_x
_atom_site_fract_y
_atom_site_fract_z
Si Si1 0.882047 0.600891 0.311212
Si Si2 0.291497 0.048276 0.520187
Si Si3 0.608131 0.025784 0.647791
Si Si4 0.105922 0.817286 0.706640
Si Si5 0.191227 0.151227 0.907157
Si Si6 0.184311 0.616465 0.149542
Si Si7 0.601497 0.696898 0.089651
O O1 0.858921 0.750659 0.147406
O O2 0.835333 0.495568 0.560802
O O3 0.006473 0.701834 0.449897
O O4 0.839904 0.490243 0.069631
O O5 0.378878 0.251692 0.631112
O O6 0.350861 0.968336 0.557106
O O7 0.215935 0.902612 0.694923
O O8 0.214774 0.061991 0.218020
O O9 0.693390 0.217781 0.780811
O O10 0.500000 0.000000 0.500000
O O11 0.594001 0.850871 0.858592
O O12 0.106530 0.980062 0.718041
O O13 0.110496 0.687823 0.996570
O O14 0.299688 0.295424 0.849717
O O15 0.500000 0.500000 0.000000
#
# Coordination Sequence:
#
# PCOD8016458 Si02
#       7
#     2   2   2   2   2   2   2
#     4  12  29  41  74 108 143 188 241 290 342 423
#     4  10  21  44  71  92 143 177 237 287 357 413
#     4  11  25  43  69 100 133 188 228 294 357 419
#     4  11  23  47  71  97 141 194 230 287 361 412
#     4  10  24  43  68 100 140 180 238 295 342 421
#     4  12  26  47  66 108 146 183 236 295 348 422
#     4  10  23  42  68  97 131 182 234 292 355 412
#
# _framework density 21.739985999999998
#
# number of rings (size 3 to 8) (size 9 to 14) (size 15 to 20)
#    0.000    1.143    4.286    2.143    8.000    4.571 
#    0.000    0.000    0.000    0.000    0.000    0.000 
#    0.000    0.000    0.000    0.000    0.000    0.000 
#
# Total GULP energy -173484.267211 kJ/mol
# GULP energy per Si atom -12391.733372 kJ/mol
# Density = 2.169051 g / cm^3
# Si number density = 21.739986 Si / 1000 Ang^3
#
#
#
# Elastic Constant Matrix: (Units=GPa)
#
#
# Indices 1 2 3 4 5 6 
#
# 1 102.3484 55.2793 42.5624 11.0543 10.7926 -14.6202
# 2 55.2793 136.5579 45.6592 31.5140 -5.9562 -3.3405
# 3 42.5624 45.6592 78.1767 24.7102 -13.6274 0.3986
# 4 11.0543 31.5140 24.7102 43.3419 -1.2972 5.1437
# 5 10.7926 -5.9562 -13.6274 -1.2972 39.8501 3.3894
# 6 -14.6202 -3.3405 0.3986 5.1437 3.3894 26.5413
#
#
#
# Elastic Compliance Matrix: (Units=1/GPa)
#
#
# Indices 1 2 3 4 5 6 
#
# 1 0.019107 -0.005246 -0.010180 0.003168 -0.010248 0.010712
# 2 -0.005246 0.011416 -0.001490 -0.005969 0.002473 -0.000590
# 3 -0.010180 -0.001490 0.023976 -0.008972 0.010936 -0.005813
# 4 0.003168 -0.005969 -0.008972 0.032174 -0.003373 -0.004676
# 5 -0.010248 0.002473 0.010936 -0.003373 0.032636 -0.009012
# 6 0.010712 -0.000590 -0.005813 -0.004676 -0.009012 0.045648
#
#
# Mechanical properties :
#
#
# Convention : Reuss Voigt Hill
#
# Bulk Modulus (GPa) = 48.39220 67.12053 57.75636
# Shear Modulus (GPa) = 24.30978 33.51881 28.91430
#
# Velocity S-wave (km/s) = 3.34759 3.93084 3.65088
# Velocity P-wave (km/s) = 6.10325 7.17936 6.66307
#
# Compressibility (1/GPa) = 0.02066449
#
# Stress axis : x y z
#
# Youngs Moduli (GPa) = 52.33809 87.59734 41.70771
#
# Poissons Ratio (x) = 0.45958 0.42460
# Poissons Ratio (y) = 0.27459 0.06216
# Poissons Ratio (z) = 0.53282 0.13055
#
# Static dielectric constant tensor:
#      x y z
#    x 4.110590 -0.192480 -0.214480 
#    y -0.192480 4.226550 0.361250 
#    z -0.214480 0.361250 4.294810 
# 
# 
# High freq. dielectric constant tensor:
#      x y z
#    x 1.844830 -0.004770 -0.001750 
#    y -0.004770 1.865170 0.011340 
#    z -0.001750 0.011340 1.862220 
# 
# From -- ./inp_files/28469.got.cif
#   From: 2010.06.25/outbox.cif.g09.slc.cpg/sg2_15_cif.got.tgz:28469.got - 2010.06.27 13:26:56.
