data_PCOD8016559
_publ_section_title
;
Structure prediction by ZEFSAII (Michael W. Deem and Ramdas Pophale) SiO2 
 PCOD8016559
Probable space group: P -1
;
_chemical_formula_sum "Si O2"
_cell_formula_units_Z 14
_cell_length_a 20.488823
_cell_length_b 9.243180
_cell_length_c 9.578562
_cell_angle_alpha 44.105344
_cell_angle_beta 124.401094
_cell_angle_gamma 147.808410
_cell_volume 668.132333
_symmetry_space_group_name_H-M "P -1"
_symmetry_group_IT_number 2
_symmetry_cell_setting 'triclinic'
loop_
_space_group_symop_operation_xyz
x,y,z
-x,-y,-z
loop_
_atom_site_type_symbol
_atom_site_label
_atom_site_fract_x
_atom_site_fract_y
_atom_site_fract_z
Si Si1 0.794815 0.642153 0.193307
Si Si2 0.691832 0.325891 0.818827
Si Si3 0.557353 0.263027 0.009398
Si Si4 0.629846 0.660883 0.580897
Si Si5 0.872517 0.627480 0.578225
Si Si6 0.816974 0.368908 0.197539
Si Si7 0.039050 0.629527 0.114673
O O1 0.792532 0.574658 0.398884
O O2 0.872922 0.633881 0.200892
O O3 0.654820 0.353072 0.168394
O O4 0.855269 0.987413 0.015817
O O5 0.661601 0.510897 0.641280
O O6 0.794932 0.467309 0.736747
O O7 0.740258 0.364373 0.004983
O O8 0.565715 0.937519 0.908253
O O9 0.621595 0.591549 0.785446
O O10 0.500000 0.000000 0.000000
O O11 0.500000 0.500000 0.500000
O O12 0.734739 0.035356 0.410607
O O13 0.903152 0.456787 0.685129
O O14 0.000000 0.000000 0.500000
O O15 0.921989 0.460788 0.179001
O O16 0.000000 0.500000 0.000000
#
# Coordination Sequence:
#
# PCOD8016559 Si02
#       7
#     2   2   2   2   2   2   2
#     4  12  26  45  71 103 143 181 236 289 342 416
#     4  11  22  43  72 100 144 184 223 286 357 407
#     4  10  21  45  67 102 139 175 226 293 339 406
#     4  11  21  38  72 103 132 178 233 279 347 407
#     4  12  26  46  70 101 144 188 229 286 350 413
#     4  12  23  43  74 104 136 186 234 286 347 409
#     4  12  26  46  71 100 145 184 234 288 345 412
#
# _framework density 20.953934
#
# number of rings (size 3 to 8) (size 9 to 14) (size 15 to 20)
#    0.000    0.571    7.143    2.143    2.000    1.143 
#    0.000    0.714    0.000    0.000    0.000    0.000 
#    0.000    0.000    0.000    0.000    0.000    0.000 
#
# Total GULP energy -173536.636945 kJ/mol
# GULP energy per Si atom -12395.474067 kJ/mol
# Density = 2.090624 g / cm^3
# Si number density = 20.953934 Si / 1000 Ang^3
#
#
#
# Elastic Constant Matrix: (Units=GPa)
#
#
# Indices 1 2 3 4 5 6 
#
# 1 99.0132 36.7264 32.3932 -14.0094 4.5669 4.4208
# 2 36.7264 114.4553 55.2986 -2.2135 -5.6766 1.3998
# 3 32.3932 55.2986 134.0354 -4.0161 6.5249 -0.6771
# 4 -14.0094 -2.2135 -4.0161 37.1989 1.8993 4.2146
# 5 4.5669 -5.6766 6.5249 1.8993 44.5389 -3.4304
# 6 4.4208 1.3998 -0.6771 4.2146 -3.4304 32.0735
#
#
#
# Elastic Compliance Matrix: (Units=1/GPa)
#
#
# Indices 1 2 3 4 5 6 
#
# 1 0.012695 -0.003336 -0.001467 0.004801 -0.001907 -0.002470
# 2 -0.003336 0.011985 -0.004297 -0.001169 0.002570 0.000275
# 3 -0.001467 -0.004297 0.009686 0.000288 -0.001801 0.000364
# 4 0.004801 -0.001169 0.000288 0.029302 -0.002295 -0.004701
# 5 -0.001907 0.002570 -0.001801 -0.002295 0.023563 0.002934
# 6 -0.002470 0.000275 0.000364 -0.004701 0.002934 0.032446
#
#
# Mechanical properties :
#
#
# Convention : Reuss Voigt Hill
#
# Bulk Modulus (GPa) = 61.86253 66.26004 64.06129
# Shear Modulus (GPa) = 34.89987 37.63463 36.26725
#
# Velocity S-wave (km/s) = 4.08555 4.24260 4.16481
# Velocity P-wave (km/s) = 7.20019 7.46257 7.33255
#
# Compressibility (1/GPa) = 0.01616487
#
# Stress axis : x y z
#
# Youngs Moduli (GPa) = 78.77291 83.43651 103.23764
#
# Poissons Ratio (x) = 0.27834 0.15150
# Poissons Ratio (y) = 0.26278 0.44364
# Poissons Ratio (z) = 0.11560 0.35855
#
# Static dielectric constant tensor:
#      x y z
#    x 4.053810 0.285690 0.032190 
#    y 0.285690 3.948470 -0.148690 
#    z 0.032190 -0.148690 4.276930 
# 
# 
# High freq. dielectric constant tensor:
#      x y z
#    x 1.821070 0.017570 0.004340 
#    y 0.017570 1.812960 -0.007160 
#    z 0.004340 -0.007160 1.840270 
# 
# From -- ./inp_files/343336.got.cif
#   From: 2010.06.25/outbox.cif.g09.slc.cpg/sg2_172_cif.got.tgz:343336.got - 2010.06.27 13:26:56.
