data_PCOD8016362
_publ_section_title
;
Structure prediction by ZEFSAII (Michael W. Deem and Ramdas Pophale) SiO2 
 PCOD8016362
Probable space group: P -1
;
_chemical_formula_sum "Si O2"
_cell_formula_units_Z 10
_cell_length_a 8.538430
_cell_length_b 8.386594
_cell_length_c 8.486178
_cell_angle_alpha 47.583405
_cell_angle_beta 63.269592
_cell_angle_gamma 53.364750
_cell_volume 358.851589
_symmetry_space_group_name_H-M "P -1"
_symmetry_group_IT_number 2
_symmetry_cell_setting 'triclinic'
loop_
_space_group_symop_operation_xyz
x,y,z
-x,-y,-z
loop_
_atom_site_type_symbol
_atom_site_label
_atom_site_fract_x
_atom_site_fract_y
_atom_site_fract_z
Si Si1 0.683231 0.580759 0.813586
Si Si2 0.014928 0.318622 0.257341
Si Si3 0.029389 0.928647 0.831198
Si Si4 0.684989 0.040088 0.122841
Si Si5 0.353470 0.414991 0.543077
O O1 0.636090 0.579239 0.653025
O O2 0.775671 0.765750 0.694911
O O3 0.478524 0.688689 0.936186
O O4 0.850785 0.323047 0.961836
O O5 0.981686 0.103457 0.329782
O O6 0.860490 0.419664 0.401492
O O7 0.000000 0.500000 0.000000
O O8 0.155434 0.071260 0.729706
O O9 0.803750 0.062373 0.902200
O O10 0.589658 0.861162 0.248668
O O11 0.500000 0.500000 0.500000
#
# Coordination Sequence:
#
# PCOD8016362 Si02
#       5
#     2   2   2   2   2
#     4  11  23  43  71  98 134 176 219 276 339 384
#     4  10  21  44  68  94 138 171 217 276 324 394
#     4  10  23  46  69  98 137 171 226 276 324 400
#     4  11  23  43  70  98 133 179 224 268 332 401
#     4  12  25  45  67 100 140 173 221 280 330 392
#
# _framework density 27.866675000000001
#
# number of rings (size 3 to 8) (size 9 to 14) (size 15 to 20)
#    0.000    1.200    4.000    3.000    0.000    2.400 
#    7.200    2.000    0.000    0.000    0.000    0.000 
#    0.000    0.000    0.000    0.000    0.000    0.000 
#
# Total GULP energy -123889.506839 kJ/mol
# GULP energy per Si atom -12388.950684 kJ/mol
# Density = 2.780325 g / cm^3
# Si number density = 27.866675 Si / 1000 Ang^3
#
#
#
# Elastic Constant Matrix: (Units=GPa)
#
#
# Indices 1 2 3 4 5 6 
#
# 1 191.6795 41.5263 37.8083 22.1486 1.0152 33.8182
# 2 41.5263 151.6007 19.5647 46.4903 -5.7673 1.6406
# 3 37.8083 19.5647 87.8558 46.3673 9.7512 -1.9651
# 4 22.1486 46.4903 46.3673 49.3438 5.8087 -9.6947
# 5 1.0152 -5.7673 9.7512 5.8087 40.8894 12.5128
# 6 33.8182 1.6406 -1.9651 -9.6947 12.5128 60.7470
#
#
#
# Elastic Compliance Matrix: (Units=1/GPa)
#
#
# Indices 1 2 3 4 5 6 
#
# 1 0.006819 -0.001350 -0.002831 -0.000147 0.001624 -0.004209
# 2 -0.001350 0.011775 0.007069 -0.018120 0.003485 -0.002947
# 3 -0.002831 0.007069 0.027988 -0.032224 -0.000167 -0.002818
# 4 -0.000147 -0.018120 -0.032224 0.071230 -0.008881 0.012726
# 5 0.001624 0.003485 -0.000167 -0.008881 0.028763 -0.008346
# 6 -0.004209 -0.002947 -0.002818 0.012726 -0.008346 0.022543
#
#
# Mechanical properties :
#
#
# Convention : Reuss Voigt Hill
#
# Bulk Modulus (GPa) = 19.09864 69.88163 44.49013
# Shear Modulus (GPa) = 27.65567 52.34516 40.00041
#
# Velocity S-wave (km/s) = 3.15370 4.33877 3.79281
# Velocity P-wave (km/s) = 4.48660 7.08742 5.93132
#
# Compressibility (1/GPa) = 0.05235976
#
# Stress axis : x y z
#
# Youngs Moduli (GPa) = 146.65112 84.92551 35.72904
#
# Poissons Ratio (x) = 0.11466 0.10114
# Poissons Ratio (y) = 0.19799 -0.25258
# Poissons Ratio (z) = 0.41512 -0.60037
#
# Static dielectric constant tensor:
#      x y z
#    x 6.791360 1.093340 -0.367360 
#    y 1.093340 5.673110 0.104100 
#    z -0.367360 0.104100 4.828620 
# 
# 
# High freq. dielectric constant tensor:
#      x y z
#    x 2.154750 0.030590 -0.016710 
#    y 0.030590 2.139650 0.014880 
#    z -0.016710 0.014880 2.119690 
# 
# From -- ./inp_files/147122.got.cif
#   From: 2010.06.25/outbox.cif.g09.slc.cpg/sg2_74_cif.got.tgz:147122.got - 2010.06.27 13:26:56.
