data_PCOD8016389
_publ_section_title
;
Structure prediction by ZEFSAII (Michael W. Deem and Ramdas Pophale) SiO2 
 PCOD8016389
Probable space group: P -1
;
_chemical_formula_sum "Si O2"
_cell_formula_units_Z 14
_cell_length_a 7.697695
_cell_length_b 4.904287
_cell_length_c 20.877387
_cell_angle_alpha 124.315910
_cell_angle_beta 131.492341
_cell_angle_gamma 71.325910
_cell_volume 485.792732
_symmetry_space_group_name_H-M "P -1"
_symmetry_group_IT_number 2
_symmetry_cell_setting 'triclinic'
loop_
_space_group_symop_operation_xyz
x,y,z
-x,-y,-z
loop_
_atom_site_type_symbol
_atom_site_label
_atom_site_fract_x
_atom_site_fract_y
_atom_site_fract_z
Si Si1 0.898544 0.729191 0.556806
Si Si2 0.803806 0.899192 0.226270
Si Si3 0.646615 0.718525 0.969244
Si Si4 0.798843 0.635658 0.654679
Si Si5 0.510767 0.192226 0.619581
Si Si6 0.557151 0.626038 0.800310
Si Si7 0.904166 0.346723 0.088109
O O1 0.679627 0.889813 0.493106
O O2 0.000000 0.500000 0.500000
O O3 0.820608 0.496218 0.568407
O O4 0.076437 0.041993 0.665862
O O5 0.797284 0.520576 0.148858
O O6 0.960172 0.129921 0.242568
O O7 0.540782 0.011895 0.178463
O O8 0.748460 0.470915 0.009816
O O9 0.866224 0.947546 0.023682
O O10 0.522839 0.509330 0.851006
O O11 0.500000 0.000000 0.000000
O O12 0.582866 0.864984 0.628410
O O13 0.740895 0.376940 0.664111
O O14 0.410120 0.407421 0.681628
O O15 0.820753 0.578447 0.838148
#
# Coordination Sequence:
#
# PCOD8016389 Si02
#       7
#     2   2   2   2   2   2   2
#     4  10  21  44  69 108 144 187 242 288 356 423
#     4  10  24  46  74 108 145 194 234 301 352 430
#     4  12  28  50  78 104 147 185 240 300 363 423
#     4  10  25  43  71 102 145 189 238 292 352 415
#     4  12  23  46  71 103 144 190 239 295 352 424
#     4  12  25  46  78 106 144 193 239 294 362 429
#     4  12  27  51  72 109 144 188 237 302 356 429
#
# _framework density 28.818874999999998
#
# number of rings (size 3 to 8) (size 9 to 14) (size 15 to 20)
#    0.857    0.000    4.286    2.143    2.000    1.143 
#    0.000    5.714    0.000    0.000    0.000    0.000 
#    0.000    0.000    0.000    0.000    0.000    0.000 
#
# Total GULP energy -173440.965658 kJ/mol
# GULP energy per Si atom -12388.640404 kJ/mol
# Density = 2.875328 g / cm^3
# Si number density = 28.818875 Si / 1000 Ang^3
#
#
#
# Elastic Constant Matrix: (Units=GPa)
#
#
# Indices 1 2 3 4 5 6 
#
# 1 69.7498 30.9413 38.8507 -7.9923 -32.5187 -31.0217
# 2 30.9413 66.4232 43.2147 4.1218 -0.6098 -19.7852
# 3 38.8507 43.2147 189.8714 2.2564 -33.3839 -0.5688
# 4 -7.9923 4.1218 2.2564 34.8492 -10.3707 5.6299
# 5 -32.5187 -0.6098 -33.3839 -10.3707 44.4743 0.4769
# 6 -31.0217 -19.7852 -0.5688 5.6299 0.4769 51.9507
#
#
#
# Elastic Compliance Matrix: (Units=1/GPa)
#
#
# Indices 1 2 3 4 5 6 
#
# 1 0.065351 -0.025453 0.001927 0.030313 0.055675 0.025555
# 2 -0.025453 0.031648 -0.006553 -0.017025 -0.027054 -0.001124
# 3 0.001927 -0.006553 0.007709 0.003344 0.007903 -0.001696
# 4 0.030313 -0.017025 0.003344 0.046947 0.035321 0.006242
# 5 0.055675 -0.027054 0.007903 0.035321 0.076792 0.018496
# 6 0.025555 -0.001124 -0.001696 0.006242 0.018496 0.033216
#
#
# Mechanical properties :
#
#
# Convention : Reuss Voigt Hill
#
# Bulk Modulus (GPa) = 22.44735 61.33974 41.89354
# Shear Modulus (GPa) = 14.85133 40.45735 27.65434
#
# Velocity S-wave (km/s) = 2.27256 3.75086 3.10109
# Velocity P-wave (km/s) = 3.83302 6.33162 5.23362
#
# Compressibility (1/GPa) = 0.04454869
#
# Stress axis : x y z
#
# Youngs Moduli (GPa) = 15.30209 31.59765 129.72510
#
# Poissons Ratio (x) = 0.80426 -0.24993
# Poissons Ratio (y) = 0.38949 0.85004
# Poissons Ratio (z) = -0.02948 0.20705
#
# Static dielectric constant tensor:
#      x y z
#    x 5.532690 0.022030 0.078970 
#    y 0.022030 5.017180 0.094780 
#    z 0.078970 0.094780 5.782630 
# 
# 
# High freq. dielectric constant tensor:
#      x y z
#    x 2.168440 -0.020620 -0.003040 
#    y -0.020620 2.161840 -0.001530 
#    z -0.003040 -0.001530 2.191510 
# 
# From -- ./inp_files/585440.got.cif
#   From: 2010.06.25/outbox.cif.g09.slc.cpg/sg2_293_cif.got.tgz:585440.got - 2010.06.27 13:26:56.
