data_PCOD8016496
_publ_section_title
;
Structure prediction by ZEFSAII (Michael W. Deem and Ramdas Pophale) SiO2 
 PCOD8016496
Probable space group: P -1
;
_chemical_formula_sum "Si O2"
_cell_formula_units_Z 12
_cell_length_a 13.259107
_cell_length_b 11.184683
_cell_length_c 14.430639
_cell_angle_alpha 31.053796
_cell_angle_beta 151.290457
_cell_angle_gamma 147.131652
_cell_volume 495.276640
_symmetry_space_group_name_H-M "P -1"
_symmetry_group_IT_number 2
_symmetry_cell_setting 'triclinic'
loop_
_space_group_symop_operation_xyz
x,y,z
-x,-y,-z
loop_
_atom_site_type_symbol
_atom_site_label
_atom_site_fract_x
_atom_site_fract_y
_atom_site_fract_z
Si Si1 0.131232 0.457552 0.456538
Si Si2 0.141523 0.537779 0.204147
Si Si3 0.746422 0.646733 0.065247
Si Si4 0.653555 0.287326 0.925293
Si Si5 0.966823 0.967412 0.204068
Si Si6 0.407555 0.285276 0.295956
O O1 0.198827 0.448562 0.409272
O O2 0.134936 0.208664 0.674048
O O3 0.332447 0.696697 0.504945
O O4 0.888292 0.474650 0.265161
O O5 0.345185 0.593938 0.256135
O O6 0.915313 0.320128 0.131011
O O7 0.105612 0.797072 0.014138
O O8 0.886598 0.831832 0.132539
O O9 0.500000 0.500000 0.000000
O O10 0.708434 0.781706 0.853267
O O11 0.575835 0.441280 0.837022
O O12 0.500000 0.000000 0.000000
O O13 0.240277 0.064593 0.370386
#
# Coordination Sequence:
#
# PCOD8016496 Si02
#       6
#     2   2   2   2   2   2
#     4  12  25  45  70 105 138 182 232 279 347 411
#     4  10  24  44  70 102 139 177 231 282 339 408
#     4  12  25  46  71 100 145 181 227 290 340 406
#     4  10  21  44  72  98 139 181 222 290 341 396
#     4  11  24  45  69 103 141 182 229 282 340 410
#     4  11  25  45  69 105 137 181 236 276 349 412
#
# _framework density 24.228884000000001
#
# number of rings (size 3 to 8) (size 9 to 14) (size 15 to 20)
#    0.000    1.000    5.000    2.000    0.000    4.000 
#    0.000   11.667    0.000    0.000    0.000    0.000 
#    0.000    0.000    0.000    0.000    0.000    0.000 
#
# Total GULP energy -148704.726449 kJ/mol
# GULP energy per Si atom -12392.060537 kJ/mol
# Density = 2.417374 g / cm^3
# Si number density = 24.228884 Si / 1000 Ang^3
#
#
#
# Elastic Constant Matrix: (Units=GPa)
#
#
# Indices 1 2 3 4 5 6 
#
# 1 121.2649 42.2277 43.5531 -2.7270 -27.3335 15.8022
# 2 42.2277 139.5206 32.9732 5.3744 -18.9225 25.4110
# 3 43.5531 32.9732 64.0979 12.3829 -39.2597 6.2194
# 4 -2.7270 5.3744 12.3829 23.2739 4.3235 6.2914
# 5 -27.3335 -18.9225 -39.2597 4.3235 52.2048 7.1079
# 6 15.8022 25.4110 6.2194 6.2914 7.1079 47.8537
#
#
#
# Elastic Compliance Matrix: (Units=1/GPa)
#
#
# Indices 1 2 3 4 5 6 
#
# 1 0.012605 -0.001432 -0.010542 0.008587 -0.002172 -0.002838
# 2 -0.001432 0.009144 -0.002606 0.000030 0.001178 -0.004223
# 3 -0.010542 -0.002606 0.054652 -0.035922 0.038042 -0.003166
# 4 0.008587 0.000030 -0.035922 0.069091 -0.027803 -0.003137
# 5 -0.002172 0.001178 0.038042 -0.027803 0.050541 -0.008704
# 6 -0.002838 -0.004223 -0.003166 -0.003137 -0.008704 0.026193
#
#
# Mechanical properties :
#
#
# Convention : Reuss Voigt Hill
#
# Bulk Modulus (GPa) = 21.16755 62.48791 41.82773
# Shear Modulus (GPa) = 18.71734 38.40845 28.56290
#
# Velocity S-wave (km/s) = 2.78244 3.98582 3.43720
# Velocity P-wave (km/s) = 4.36785 6.85777 5.74922
#
# Compressibility (1/GPa) = 0.04724212
#
# Stress axis : x y z
#
# Youngs Moduli (GPa) = 79.33641 109.35714 18.29773
#
# Poissons Ratio (x) = 0.15660 0.19289
# Poissons Ratio (y) = 0.11361 0.04768
# Poissons Ratio (z) = 0.83633 0.28494
#
# Static dielectric constant tensor:
#      x y z
#    x 5.127190 0.178740 -0.239500 
#    y 0.178740 4.613770 0.348600 
#    z -0.239500 0.348600 4.114720 
# 
# 
# High freq. dielectric constant tensor:
#      x y z
#    x 1.983680 0.015170 -0.011140 
#    y 0.015170 1.975270 0.015910 
#    z -0.011140 0.015910 1.931560 
# 
# From -- ./inp_files/531561.got.cif
#   From: 2010.06.25/outbox.cif.g09.slc.cpg/sg2_266_cif.got.tgz:531561.got - 2010.06.27 13:26:56.
