data_PCOD8016793
_publ_section_title
;
Structure prediction by ZEFSAII (Michael W. Deem and Ramdas Pophale) SiO2 
 PCOD8016793
Probable space group: P -1
;
_chemical_formula_sum "Si O2"
_cell_formula_units_Z 14
_cell_length_a 10.709124
_cell_length_b 14.195668
_cell_length_c 17.395092
_cell_angle_alpha 21.845658
_cell_angle_beta 43.970285
_cell_angle_gamma 43.015832
_cell_volume 662.469678
_symmetry_space_group_name_H-M "P -1"
_symmetry_group_IT_number 2
_symmetry_cell_setting 'triclinic'
loop_
_space_group_symop_operation_xyz
x,y,z
-x,-y,-z
loop_
_atom_site_type_symbol
_atom_site_label
_atom_site_fract_x
_atom_site_fract_y
_atom_site_fract_z
Si Si1 0.753043 0.899829 0.896202
Si Si2 0.123863 0.317306 0.841915
Si Si3 0.861131 0.124359 0.326256
Si Si4 0.575135 0.578735 0.025778
Si Si5 0.734174 0.618512 0.761054
Si Si6 0.465935 0.125852 0.741296
Si Si7 0.723881 0.368741 0.351439
O O1 0.923217 0.894272 0.768237
O O2 0.580980 0.128975 0.768638
O O3 0.815505 0.920697 0.941922
O O4 0.679199 0.636394 0.119543
O O5 0.250025 0.246933 0.763303
O O6 0.147650 0.589864 0.664019
O O7 0.909726 0.365148 0.877463
O O8 0.747255 0.379389 0.139319
O O9 0.830819 0.142178 0.418402
O O10 0.800060 0.872306 0.512076
O O11 0.406980 0.438219 0.196971
O O12 0.636287 0.668883 0.848596
O O13 0.501851 0.833240 0.916761
O O14 0.533898 0.306341 0.512042
#
# Coordination Sequence:
#
# PCOD8016793 Si02
#       7
#     2   2   2   2   2   2   2
#     4  10  23  35  63  91 123 150 195 243 304 355
#     4  10  23  41  58  92 124 158 196 239 303 359
#     4  12  21  40  64  93 119 152 201 256 296 349
#     4  11  23  41  63  88 116 162 205 249 292 343
#     4  11  24  41  62  86 121 159 208 247 288 349
#     4  12  22  40  63  86 130 157 192 247 296 362
#     4  10  22  35  61  93 120 153 194 238 309 354
#
# _framework density 21.133043000000001
#
# number of rings (size 3 to 8) (size 9 to 14) (size 15 to 20)
#    0.857    0.286    4.286    2.571    2.000    1.714 
#    0.000    0.000    0.000    1.714    0.000    0.000 
#    0.000    0.000    0.000    0.000    0.000    0.000 
#
# Total GULP energy -173537.712619 kJ/mol
# GULP energy per Si atom -12395.550901 kJ/mol
# Density = 2.108494 g / cm^3
# Si number density = 21.133043 Si / 1000 Ang^3
#
#
#
# Elastic Constant Matrix: (Units=GPa)
#
#
# Indices 1 2 3 4 5 6 
#
# 1 45.1535 10.8600 2.5958 -4.2210 -3.6190 -7.0984
# 2 10.8600 84.3195 16.6570 22.5791 -7.5330 -9.7415
# 3 2.5958 16.6570 91.1028 10.9998 -10.8794 5.7792
# 4 -4.2210 22.5791 10.9998 28.1766 1.0338 1.2207
# 5 -3.6190 -7.5330 -10.8794 1.0338 16.4826 2.1160
# 6 -7.0984 -9.7415 5.7792 1.2207 2.1160 22.6947
#
#
#
# Elastic Compliance Matrix: (Units=1/GPa)
#
#
# Indices 1 2 3 4 5 6 
#
# 1 0.024889 -0.004086 -0.000966 0.007066 0.001781 0.005731
# 2 -0.004086 0.018070 -0.000973 -0.015261 0.006789 0.006914
# 3 -0.000966 -0.000973 0.013090 -0.004600 0.008867 -0.004632
# 4 0.007066 -0.015261 -0.004600 0.051191 -0.011042 -0.004893
# 5 0.001781 0.006789 0.008867 -0.011042 0.071330 -0.004844
# 6 0.005731 0.006914 -0.004632 -0.004893 -0.004844 0.050718
#
#
# Mechanical properties :
#
#
# Convention : Reuss Voigt Hill
#
# Bulk Modulus (GPa) = 22.72730 31.20017 26.96373
# Shear Modulus (GPa) = 19.53089 26.16832 22.84961
#
# Velocity S-wave (km/s) = 3.04334 3.52272 3.29177
# Velocity P-wave (km/s) = 4.80905 5.59837 5.21866
#
# Compressibility (1/GPa) = 0.04399996
#
# Stress axis : x y z
#
# Youngs Moduli (GPa) = 40.17826 55.34051 76.39352
#
# Poissons Ratio (x) = 0.22611 0.07381
# Poissons Ratio (y) = 0.16416 0.07431
# Poissons Ratio (z) = 0.03882 0.05383
#
# Static dielectric constant tensor:
#      x y z
#    x 3.646920 0.003280 -0.018680 
#    y 0.003280 3.626570 0.146630 
#    z -0.018680 0.146630 3.757640 
# 
# 
# High freq. dielectric constant tensor:
#      x y z
#    x 1.803470 -0.006510 0.005230 
#    y -0.006510 1.821940 0.013340 
#    z 0.005230 0.013340 1.830480 
# 
# From -- ./inp_files/255477.got.cif
#   From: 2010.06.25/outbox.cif.g09.slc.cpg/sg2_128_cif.got.tgz:255477.got - 2010.06.27 13:26:56.
