data_PCOD8016241
_publ_section_title
;
Structure prediction by ZEFSAII (Michael W. Deem and Ramdas Pophale) SiO2 
 PCOD8016241
Probable space group: P -1
;
_chemical_formula_sum "Si O2"
_cell_formula_units_Z 14
_cell_length_a 7.045684
_cell_length_b 14.260673
_cell_length_c 10.925398
_cell_angle_alpha 53.371791
_cell_angle_beta 44.230552
_cell_angle_gamma 66.610286
_cell_volume 613.600501
_symmetry_space_group_name_H-M "P -1"
_symmetry_group_IT_number 2
_symmetry_cell_setting 'triclinic'
loop_
_space_group_symop_operation_xyz
x,y,z
-x,-y,-z
loop_
_atom_site_type_symbol
_atom_site_label
_atom_site_fract_x
_atom_site_fract_y
_atom_site_fract_z
Si Si1 0.155938 0.285145 0.028973
Si Si2 0.842129 0.865481 0.306482
Si Si3 0.529361 0.696503 0.905503
Si Si4 0.631904 0.456312 0.692404
Si Si5 0.974970 0.326098 0.457881
Si Si6 0.373233 0.690286 0.608687
Si Si7 0.897740 0.130138 0.079483
O O1 0.282926 0.231977 0.135582
O O2 0.861441 0.332533 0.163168
O O3 0.138997 0.184806 0.011898
O O4 0.357118 0.393755 0.805535
O O5 0.536068 0.813574 0.462901
O O6 0.007468 0.797872 0.385278
O O7 0.819428 0.998193 0.259273
O O8 0.020416 0.861758 0.105076
O O9 0.357582 0.790136 0.841920
O O10 0.728194 0.636504 0.763785
O O11 0.344308 0.594771 0.139984
O O12 0.898098 0.426259 0.513255
O O13 0.598850 0.594415 0.597780
O O14 0.744021 0.312225 0.472055
#
# Coordination Sequence:
#
# PCOD8016241 Si02
#       7
#     2   2   2   2   2   2   2
#     4   9  21  39  65  91 124 165 204 254 313 362
#     4  11  25  40  65  94 123 170 212 256 317 368
#     4   9  22  40  65  97 123 164 209 254 315 369
#     4  10  21  44  63  94 134 159 207 255 312 376
#     4  11  22  41  64  95 127 165 210 252 314 372
#     4  11  23  41  63  97 127 165 207 256 312 377
#     4  11  22  45  64  88 131 163 212 267 306 368
#
# _framework density 22.816147000000001
#
# number of rings (size 3 to 8) (size 9 to 14) (size 15 to 20)
#    0.857    0.857    1.429    2.571    0.000    4.000 
#    2.571    7.857    0.000    0.000    0.000    0.000 
#    0.000    0.000    0.000    0.000    0.000    0.000 
#
# Total GULP energy -173584.242496 kJ/mol
# GULP energy per Si atom -12398.874464 kJ/mol
# Density = 2.276422 g / cm^3
# Si number density = 22.816147 Si / 1000 Ang^3
#
#
#
# Elastic Constant Matrix: (Units=GPa)
#
#
# Indices 1 2 3 4 5 6 
#
# 1 31.0829 21.0100 1.8163 1.0321 19.4513 -7.3757
# 2 21.0100 77.4572 38.3403 -0.8095 10.9519 -1.5613
# 3 1.8163 38.3403 92.0983 16.2520 6.7775 -6.5280
# 4 1.0321 -0.8095 16.2520 39.8254 -4.1182 -3.4972
# 5 19.4513 10.9519 6.7775 -4.1182 38.1097 0.8133
# 6 -7.3757 -1.5613 -6.5280 -3.4972 0.8133 35.2114
#
#
#
# Elastic Compliance Matrix: (Units=1/GPa)
#
#
# Indices 1 2 3 4 5 6 
#
# 1 0.070104 -0.020100 0.012217 -0.009280 -0.033520 0.015911
# 2 -0.020100 0.022830 -0.010918 0.005675 0.006355 -0.004805
# 3 0.012217 -0.010918 0.017429 -0.007980 -0.007160 0.004679
# 4 -0.009280 0.005675 -0.007980 0.029483 0.007720 -0.000422
# 5 -0.033520 0.006355 -0.007160 0.007720 0.043807 -0.008312
# 6 0.015911 -0.004805 0.004679 -0.000422 -0.008312 0.032537
#
#
# Mechanical properties :
#
#
# Convention : Reuss Voigt Hill
#
# Bulk Modulus (GPa) = 13.74323 35.88573 24.81448
# Shear Modulus (GPa) = 17.98262 31.92742 24.95502
#
# Velocity S-wave (km/s) = 2.81045 3.74483 3.31077
# Velocity P-wave (km/s) = 4.07039 5.87032 5.05117
#
# Compressibility (1/GPa) = 0.07276310
#
# Stress axis : x y z
#
# Youngs Moduli (GPa) = 14.26443 43.80157 57.37632
#
# Poissons Ratio (x) = 0.88039 -0.70097
# Poissons Ratio (y) = 0.28671 0.62641
# Poissons Ratio (z) = -0.17427 0.47821
#
# Static dielectric constant tensor:
#      x y z
#    x 4.064170 0.046540 0.043860 
#    y 0.046540 3.907780 0.151070 
#    z 0.043860 0.151070 4.063890 
# 
# 
# High freq. dielectric constant tensor:
#      x y z
#    x 1.908700 0.004830 0.001180 
#    y 0.004830 1.886050 0.019560 
#    z 0.001180 0.019560 1.900530 
# 
# From -- ./inp_files/395399.got.cif
#   From: 2010.06.25/outbox.cif.g09.slc.cpg/sg2_198_cif.got.tgz:395399.got - 2010.06.27 13:26:56.
