data_PCOD8016802
_publ_section_title
;
Structure prediction by ZEFSAII (Michael W. Deem and Ramdas Pophale) SiO2 
 PCOD8016802
Probable space group: P -1
;
_chemical_formula_sum "Si O2"
_cell_formula_units_Z 14
_cell_length_a 13.945970
_cell_length_b 8.583799
_cell_length_c 11.559075
_cell_angle_alpha 111.699655
_cell_angle_beta 57.823461
_cell_angle_gamma 63.907974
_cell_volume 638.722651
_symmetry_space_group_name_H-M "P -1"
_symmetry_group_IT_number 2
_symmetry_cell_setting 'triclinic'
loop_
_space_group_symop_operation_xyz
x,y,z
-x,-y,-z
loop_
_atom_site_type_symbol
_atom_site_label
_atom_site_fract_x
_atom_site_fract_y
_atom_site_fract_z
Si Si1 0.057875 0.898522 0.804757
Si Si2 0.295230 0.546462 0.955862
Si Si3 0.329505 0.454138 0.179542
Si Si4 0.711676 0.186011 0.530568
Si Si5 0.959970 0.439463 0.329383
Si Si6 0.949405 0.464765 0.906305
Si Si7 0.257308 0.173500 0.235942
O O1 0.237448 0.802444 0.627096
O O2 0.134910 0.618554 0.667367
O O3 0.000000 0.000000 0.000000
O O4 0.874622 0.137237 0.901912
O O5 0.499206 0.360127 0.720199
O O6 0.300098 0.547343 0.092035
O O7 0.240785 0.420568 0.918938
O O8 0.252908 0.702637 0.372269
O O9 0.237003 0.383516 0.247090
O O10 0.549893 0.162113 0.993962
O O11 0.871945 0.850827 0.352229
O O12 0.090843 0.352783 0.117462
O O13 0.099875 0.244795 0.295966
O O14 0.782553 0.763802 0.582796
O O15 0.000000 0.500000 0.000000
#
# Coordination Sequence:
#
# PCOD8016802 Si02
#       7
#     2   2   2   2   2   2   2
#     4  11  25  44  66  94 132 172 226 268 309 384
#     4  11  24  43  68  99 130 172 212 269 328 386
#     4  11  21  42  62 102 132 162 216 265 330 397
#     4  11  24  43  68  99 130 172 212 269 328 386
#     4  11  20  42  62  94 128 179 210 266 336 367
#     4  11  25  44  66  94 132 172 226 268 309 384
#     4  10  22  35  67  96 132 165 209 273 324 392
#
# _framework density 21.918745999999999
#
# number of rings (size 3 to 8) (size 9 to 14) (size 15 to 20)
#    0.000    1.143    2.857    3.857    0.000    5.714 
#    0.000    2.857    0.000    0.000    0.000    0.000 
#    0.000    0.000    0.000    0.000    0.000    0.000 
#
# Total GULP energy -173440.370294 kJ/mol
# GULP energy per Si atom -12388.597878 kJ/mol
# Density = 2.186886 g / cm^3
# Si number density = 21.918746 Si / 1000 Ang^3
#
#
#
# Elastic Constant Matrix: (Units=GPa)
#
#
# Indices 1 2 3 4 5 6 
#
# 1 86.5184 35.9266 50.2575 -20.1927 1.3681 3.3986
# 2 35.9266 89.1315 43.0407 -24.4184 11.3384 -3.4813
# 3 50.2575 43.0407 115.1241 -25.0239 -1.8855 -5.8660
# 4 -20.1927 -24.4184 -25.0239 44.2213 3.2262 0.4063
# 5 1.3681 11.3384 -1.8855 3.2262 44.7268 -9.3010
# 6 3.3986 -3.4813 -5.8660 0.4063 -9.3010 24.6084
#
#
#
# Elastic Compliance Matrix: (Units=1/GPa)
#
#
# Indices 1 2 3 4 5 6 
#
# 1 0.017255 -0.003375 -0.005925 0.002788 -0.001108 -0.004738
# 2 -0.003375 0.016469 -0.003465 0.005928 -0.004619 0.000126
# 3 -0.005925 -0.003465 0.013431 0.002771 0.002334 0.004366
# 4 0.002788 0.005928 0.002771 0.029007 -0.003724 -0.000772
# 5 -0.001108 -0.004619 0.002334 -0.003724 0.025998 0.009943
# 6 -0.004738 0.000126 0.004366 -0.000772 0.009943 0.046120
#
#
# Mechanical properties :
#
#
# Convention : Reuss Voigt Hill
#
# Bulk Modulus (GPa) = 46.23692 61.02485 53.63089
# Shear Modulus (GPa) = 27.62144 33.48124 30.55134
#
# Velocity S-wave (km/s) = 3.55374 3.91259 3.73747
# Velocity P-wave (km/s) = 6.16273 6.95075 6.56857
#
# Compressibility (1/GPa) = 0.02162774
#
# Stress axis : x y z
#
# Youngs Moduli (GPa) = 57.95268 60.71889 74.45333
#
# Poissons Ratio (x) = 0.20490 0.44113
# Poissons Ratio (y) = 0.19556 0.25796
# Poissons Ratio (z) = 0.34337 0.21037
#
# Static dielectric constant tensor:
#      x y z
#    x 3.960420 0.266880 -0.049060 
#    y 0.266880 4.038510 -0.202400 
#    z -0.049060 -0.202400 4.068460 
# 
# 
# High freq. dielectric constant tensor:
#      x y z
#    x 1.862720 0.017250 0.003240 
#    y 0.017250 1.863870 -0.018250 
#    z 0.003240 -0.018250 1.861340 
# 
# From -- ./inp_files/447805.got.cif
#   From: 2010.06.25/outbox.cif.g09.slc.cpg/sg2_224_cif.got.tgz:447805.got - 2010.06.27 13:26:56.
