data_PCOD8016979
_publ_section_title
;
Structure prediction by ZEFSAII (Michael W. Deem and Ramdas Pophale) SiO2 
 PCOD8016979
Probable space group: P -1
;
_chemical_formula_sum "Si O2"
_cell_formula_units_Z 10
_cell_length_a 9.039157
_cell_length_b 11.693805
_cell_length_c 9.223107
_cell_angle_alpha 35.630745
_cell_angle_beta 101.121286
_cell_angle_gamma 124.503940
_cell_volume 388.624470
_symmetry_space_group_name_H-M "P -1"
_symmetry_group_IT_number 2
_symmetry_cell_setting 'triclinic'
loop_
_space_group_symop_operation_xyz
x,y,z
-x,-y,-z
loop_
_atom_site_type_symbol
_atom_site_label
_atom_site_fract_x
_atom_site_fract_y
_atom_site_fract_z
Si Si1 0.386027 0.259915 0.074515
Si Si2 0.050421 0.830284 0.228558
Si Si3 0.272738 0.775008 0.108853
Si Si4 0.759834 0.137943 0.312931
Si Si5 0.189759 0.382280 0.104595
O O1 0.257505 0.338113 0.012097
O O2 0.423959 0.141967 0.339411
O O3 0.645648 0.535005 0.817859
O O4 0.269527 0.037343 0.152900
O O5 0.843725 0.546696 0.567038
O O6 0.100867 0.762209 0.161060
O O7 0.000000 0.000000 0.000000
O O8 0.316078 0.874405 0.848966
O O9 0.500000 0.000000 0.000000
O O10 0.936845 0.118819 0.370757
O O11 0.830337 0.397486 0.148553
#
# Coordination Sequence:
#
# PCOD8016979 Si02
#       5
#     2   2   2   2   2
#     4  11  23  40  65  94 124 163 211 260 314 373
#     4  11  25  44  65  94 132 169 211 263 317 379
#     4  11  26  44  65  94 130 172 213 259 320 380
#     4  11  22  40  65  92 124 163 211 261 309 373
#     4  10  22  37  62  95 125 159 205 260 317 370
#
# _framework density 25.731779
#
# number of rings (size 3 to 8) (size 9 to 14) (size 15 to 20)
#    0.000    1.200    0.000    6.000    0.000   10.400 
#    0.000    0.000    0.000    0.000    0.000    0.000 
#    0.000    0.000    0.000    0.000    0.000    0.000 
#
# Total GULP energy -123903.942142 kJ/mol
# GULP energy per Si atom -12390.394214 kJ/mol
# Density = 2.567321 g / cm^3
# Si number density = 25.731779 Si / 1000 Ang^3
#
#
#
# Elastic Constant Matrix: (Units=GPa)
#
#
# Indices 1 2 3 4 5 6 
#
# 1 78.8444 -8.9999 6.1297 8.0612 11.5370 -3.7682
# 2 -8.9999 125.2946 45.8774 -2.6943 -4.1012 12.7358
# 3 6.1297 45.8774 91.8712 24.8195 6.2716 3.2718
# 4 8.0612 -2.6943 24.8195 37.6721 5.5613 -6.7842
# 5 11.5370 -4.1012 6.2716 5.5613 30.1088 -6.6993
# 6 -3.7682 12.7358 3.2718 -6.7842 -6.6993 53.2286
#
#
#
# Elastic Compliance Matrix: (Units=1/GPa)
#
#
# Indices 1 2 3 4 5 6 
#
# 1 0.013711 0.001031 -0.000633 -0.001763 -0.004667 -0.000049
# 2 0.001031 0.010799 -0.006734 0.004548 0.001338 -0.001349
# 3 -0.000633 -0.006734 0.017721 -0.011900 -0.002468 -0.001350
# 4 -0.001763 0.004548 -0.011900 0.036083 -0.002032 0.003862
# 5 -0.004667 0.001338 -0.002468 -0.002032 0.036939 0.003891
# 6 -0.000049 -0.001349 -0.001350 0.003862 0.003891 0.020171
#
#
# Mechanical properties :
#
#
# Convention : Reuss Voigt Hill
#
# Bulk Modulus (GPa) = 33.82929 42.44719 38.13824
# Shear Modulus (GPa) = 31.65588 41.06876 36.36232
#
# Velocity S-wave (km/s) = 3.51126 3.99937 3.76324
# Velocity P-wave (km/s) = 5.44188 6.15292 5.80829
#
# Compressibility (1/GPa) = 0.02956018
#
# Stress axis : x y z
#
# Youngs Moduli (GPa) = 72.93481 92.59692 56.43023
#
# Poissons Ratio (x) = -0.09546 0.03572
# Poissons Ratio (y) = -0.07519 0.37998
# Poissons Ratio (z) = 0.04617 0.62351
#
# Static dielectric constant tensor:
#      x y z
#    x 5.009580 0.064210 -0.207020 
#    y 0.064210 5.293780 -0.651570 
#    z -0.207020 -0.651570 4.690310 
# 
# 
# High freq. dielectric constant tensor:
#      x y z
#    x 2.060860 0.000460 0.001330 
#    y 0.000460 2.024740 -0.036170 
#    z 0.001330 -0.036170 2.017170 
# 
# From -- ./inp_files/173896.got.cif
#   From: 2010.06.25/outbox.cif.g09.slc.cpg/sg2_87_cif.got.tgz:173896.got - 2010.06.27 13:26:56.
