data_PCOD8016672
_publ_section_title
;
Structure prediction by ZEFSAII (Michael W. Deem and Ramdas Pophale) SiO2 
 PCOD8016672
Probable space group: P -1
;
_chemical_formula_sum "Si O2"
_cell_formula_units_Z 14
_cell_length_a 6.413055
_cell_length_b 11.856975
_cell_length_c 12.264624
_cell_angle_alpha 39.802183
_cell_angle_beta 77.315022
_cell_angle_gamma 93.703297
_cell_volume 540.256132
_symmetry_space_group_name_H-M "P -1"
_symmetry_group_IT_number 2
_symmetry_cell_setting 'triclinic'
loop_
_space_group_symop_operation_xyz
x,y,z
-x,-y,-z
loop_
_atom_site_type_symbol
_atom_site_label
_atom_site_fract_x
_atom_site_fract_y
_atom_site_fract_z
Si Si1 0.723218 0.454364 0.991253
Si Si2 0.391810 0.778582 0.020891
Si Si3 0.592678 0.040060 0.332192
Si Si4 0.993858 0.682482 0.303116
Si Si5 0.145000 0.711496 0.667010
Si Si6 0.369860 0.446758 0.743924
Si Si7 0.853139 0.778058 0.456939
O O1 0.746582 0.411225 0.892535
O O2 0.958911 0.638720 0.843780
O O3 0.500000 0.500000 0.000000
O O4 0.689237 0.258576 0.207672
O O5 0.224268 0.795241 0.123162
O O6 0.618883 0.748274 0.062864
O O7 0.465452 0.954167 0.795601
O O8 0.352003 0.918238 0.512664
O O9 0.783500 0.946563 0.388195
O O10 0.000000 0.500000 0.500000
O O11 0.765069 0.610355 0.310409
O O12 0.983482 0.833016 0.284324
O O13 0.246680 0.544560 0.768218
O O14 0.022799 0.737047 0.552233
O O15 0.630315 0.592467 0.589154
#
# Coordination Sequence:
#
# PCOD8016672 Si02
#       7
#     2   2   2   2   2   2   2
#     4  10  21  46  67  89 123 159 208 259 312 375
#     4  10  22  40  57  94 125 157 212 254 296 367
#     4   9  24  40  61  95 125 160 205 256 309 367
#     4  12  20  34  62  95 123 174 209 242 307 363
#     4  11  21  40  67  88 130 163 200 257 314 358
#     4  11  18  36  64  87 128 164 213 245 304 364
#     4  11  21  36  61  92 129 166 205 251 304 366
#
# _framework density 25.913636
#
# number of rings (size 3 to 8) (size 9 to 14) (size 15 to 20)
#    0.857    0.571    5.714    0.429    0.000    3.429 
#    0.000    2.857    0.000    0.000    0.000    0.000 
#    0.000    0.000    0.000    0.000    0.000    0.000 
#
# Total GULP energy -173500.577549 kJ/mol
# GULP energy per Si atom -12392.898396 kJ/mol
# Density = 2.585465 g / cm^3
# Si number density = 25.913636 Si / 1000 Ang^3
#
#
#
# Elastic Constant Matrix: (Units=GPa)
#
#
# Indices 1 2 3 4 5 6 
#
# 1 175.8889 48.2255 75.2179 -1.4874 -3.7861 2.3460
# 2 48.2255 95.3730 51.3752 3.9343 -18.1732 -13.1807
# 3 75.2179 51.3752 172.7209 20.1117 -17.7314 -4.2477
# 4 -1.4874 3.9343 20.1117 30.5715 -0.2190 -5.4758
# 5 -3.7861 -18.1732 -17.7314 -0.2190 46.3252 9.5757
# 6 2.3460 -13.1807 -4.2477 -5.4758 9.5757 50.4354
#
#
#
# Elastic Compliance Matrix: (Units=1/GPa)
#
#
# Indices 1 2 3 4 5 6 
#
# 1 0.007734 -0.002779 -0.003006 0.002560 -0.001434 -0.000789
# 2 -0.002779 0.014449 -0.002660 0.000319 0.003806 0.002993
# 3 -0.003006 -0.002660 0.008761 -0.005705 0.002214 -0.000857
# 4 0.002560 0.000319 -0.005705 0.037246 -0.002501 0.004002
# 5 -0.001434 0.003806 0.002214 -0.002501 0.024560 -0.003687
# 6 -0.000789 0.002993 -0.000857 0.004002 -0.003687 0.021709
#
#
# Mechanical properties :
#
#
# Convention : Reuss Voigt Hill
#
# Bulk Modulus (GPa) = 71.16139 88.18000 79.67069
# Shear Modulus (GPa) = 36.75534 43.41069 40.08301
#
# Velocity S-wave (km/s) = 3.77022 4.09737 3.93719
# Velocity P-wave (km/s) = 6.81714 7.51577 7.17496
#
# Compressibility (1/GPa) = 0.01405257
#
# Stress axis : x y z
#
# Youngs Moduli (GPa) = 129.29340 69.20739 114.14688
#
# Poissons Ratio (x) = 0.19235 0.34315
# Poissons Ratio (y) = 0.35935 0.30367
# Poissons Ratio (z) = 0.38868 0.18411
#
# Static dielectric constant tensor:
#      x y z
#    x 5.031260 0.068490 0.165270 
#    y 0.068490 4.668280 0.296240 
#    z 0.165270 0.296240 4.776180 
# 
# 
# High freq. dielectric constant tensor:
#      x y z
#    x 2.062700 0.013110 0.012640 
#    y 0.013110 2.027180 0.025880 
#    z 0.012640 0.025880 2.048300 
# 
# From -- ./inp_files/50519.got.cif
#   From: 2010.06.25/outbox.cif.g09.slc.cpg/sg2_26_cif.got.tgz:50519.got - 2010.06.27 13:26:56.
