data_PCOD8016118
_publ_section_title
;
Structure prediction by ZEFSAII (Michael W. Deem and Ramdas Pophale) SiO2 
 PCOD8016118
Probable space group: P -1
;
_chemical_formula_sum "Si O2"
_cell_formula_units_Z 16
_cell_length_a 18.195773
_cell_length_b 9.095580
_cell_length_c 14.705366
_cell_angle_alpha 40.322622
_cell_angle_beta 30.013169
_cell_angle_gamma 35.016650
_cell_volume 686.414881
_symmetry_space_group_name_H-M "P -1"
_symmetry_group_IT_number 2
_symmetry_cell_setting 'triclinic'
loop_
_space_group_symop_operation_xyz
x,y,z
-x,-y,-z
loop_
_atom_site_type_symbol
_atom_site_label
_atom_site_fract_x
_atom_site_fract_y
_atom_site_fract_z
Si Si1 0.586198 0.606901 0.552079
Si Si2 0.356845 0.267953 0.068578
Si Si3 0.018275 0.974491 0.886982
Si Si4 0.004290 0.495966 0.603261
Si Si5 0.400841 0.912854 0.956049
Si Si6 0.329511 0.983746 0.796420
Si Si7 0.171684 0.775961 0.382724
Si Si8 0.343970 0.475010 0.799892
O O1 0.436379 0.811945 0.679247
O O2 0.704392 0.353321 0.604221
O O3 0.505463 0.520399 0.596031
O O4 0.689921 0.730442 0.334245
O O5 0.178310 0.280561 0.269836
O O6 0.430129 0.303375 0.070113
O O7 0.318179 0.493779 0.929988
O O8 0.500000 0.000000 0.000000
O O9 0.181309 0.698405 0.817537
O O10 0.052023 0.203436 0.712333
O O11 0.000000 0.000000 0.000000
O O12 0.855260 0.984886 0.011294
O O13 0.000000 0.500000 0.500000
O O14 0.145340 0.554198 0.465841
O O15 0.421897 0.851887 0.854950
O O16 0.378554 0.199257 0.856066
O O17 0.242063 0.903123 0.174437
O O18 0.000000 0.000000 0.500000
#
# Coordination Sequence:
#
# PCOD8016118 Si02
#       8
#     2   2   2   2   2   2   2   2
#     4  11  25  44  69 100 140 181 234 280 351 419
#     4  10  21  43  70  98 135 189 229 276 353 424
#     4  12  23  45  74  95 137 188 231 274 347 427
#     4  12  27  44  69 107 141 178 234 299 350 407
#     4  11  26  45  73 102 141 180 236 291 346 417
#     4  11  26  45  69 106 136 181 233 292 343 408
#     4  12  27  45  69 103 139 185 231 291 349 420
#     4  11  23  45  73 101 133 190 231 278 353 422
#
# _framework density 23.309518000000001
#
# number of rings (size 3 to 8) (size 9 to 14) (size 15 to 20)
#    0.000    0.750    3.750    3.000    7.000    1.500 
#    2.250    0.000    0.000    0.000    0.000    0.000 
#    0.000    0.000    0.000    0.000    0.000    0.000 
#
# Total GULP energy -198370.988936 kJ/mol
# GULP energy per Si atom -12398.186808 kJ/mol
# Density = 2.325646 g / cm^3
# Si number density = 23.309518 Si / 1000 Ang^3
#
#
#
# Elastic Constant Matrix: (Units=GPa)
#
#
# Indices 1 2 3 4 5 6 
#
# 1 99.9910 11.0947 18.6476 -11.9628 -16.5735 -12.8947
# 2 11.0947 88.3069 31.4424 -12.0157 -15.0819 -17.7607
# 3 18.6476 31.4424 84.7482 -29.5937 -21.8170 11.3787
# 4 -11.9628 -12.0157 -29.5937 37.0747 -2.0214 -7.8360
# 5 -16.5735 -15.0819 -21.8170 -2.0214 49.3529 -4.6889
# 6 -12.8947 -17.7607 11.3787 -7.8360 -4.6889 31.0443
#
#
#
# Elastic Compliance Matrix: (Units=1/GPa)
#
#
# Indices 1 2 3 4 5 6 
#
# 1 0.012968 0.002761 -0.001565 0.006251 0.005711 0.009980
# 2 0.002761 0.018041 -0.006092 0.005541 0.005488 0.015929
# 3 -0.001565 -0.006092 0.022199 0.014024 0.007275 -0.007633
# 4 0.006251 0.005541 0.014024 0.045691 0.013208 0.014154
# 5 0.005711 0.005488 0.007275 0.013208 0.028612 0.010500
# 6 0.009980 0.015929 -0.007633 0.014154 0.010500 0.053427
#
#
# Mechanical properties :
#
#
# Convention : Reuss Voigt Hill
#
# Bulk Modulus (GPa) = 23.03272 43.93506 33.48389
# Shear Modulus (GPa) = 24.36630 37.61847 30.99238
#
# Velocity S-wave (km/s) = 3.23667 4.02165 3.65033
# Velocity P-wave (km/s) = 4.88577 6.36038 5.67121
#
# Compressibility (1/GPa) = 0.04341649
#
# Stress axis : x y z
#
# Youngs Moduli (GPa) = 77.11411 55.42845 45.04719
#
# Poissons Ratio (x) = -0.15304 0.07049
# Poissons Ratio (y) = -0.21291 0.27443
# Poissons Ratio (z) = 0.12066 0.33767
#
# Static dielectric constant tensor:
#      x y z
#    x 5.517340 -0.592870 -1.078280 
#    y -0.592870 4.270140 0.137450 
#    z -1.078280 0.137450 5.584730 
# 
# 
# High freq. dielectric constant tensor:
#      x y z
#    x 1.928960 -0.009560 -0.010730 
#    y -0.009560 1.915600 -0.016700 
#    z -0.010730 -0.016700 1.932130 
# 
# From -- ./inp_files/381488.got.cif
#   From: 2010.06.25/outbox.cif.g09.slc.cpg/sg2_191_cif.got.tgz:381488.got - 2010.06.27 13:26:56.
