data_PCOD8016733
_publ_section_title
;
Structure prediction by ZEFSAII (Michael W. Deem and Ramdas Pophale) SiO2 
 PCOD8016733
Probable space group: P -1
;
_chemical_formula_sum "Si O2"
_cell_formula_units_Z 16
_cell_length_a 6.945942
_cell_length_b 9.086291
_cell_length_c 19.964822
_cell_angle_alpha 135.634194
_cell_angle_beta 58.624779
_cell_angle_gamma 124.340490
_cell_volume 712.305358
_symmetry_space_group_name_H-M "P -1"
_symmetry_group_IT_number 2
_symmetry_cell_setting 'triclinic'
loop_
_space_group_symop_operation_xyz
x,y,z
-x,-y,-z
loop_
_atom_site_type_symbol
_atom_site_label
_atom_site_fract_x
_atom_site_fract_y
_atom_site_fract_z
Si Si1 0.192618 0.974033 0.614080
Si Si2 0.594074 0.354958 0.603266
Si Si3 0.368414 0.100736 0.770691
Si Si4 0.996528 0.287321 0.971509
Si Si5 0.403607 0.101530 0.129696
Si Si6 0.327593 0.167863 0.305725
Si Si7 0.718837 0.510721 0.773180
Si Si8 0.930871 0.212689 0.099509
O O1 0.279137 0.773142 0.508902
O O2 0.910004 0.910117 0.630611
O O3 0.328816 0.199641 0.622375
O O4 0.240700 0.000008 0.692644
O O5 0.568872 0.563423 0.633967
O O6 0.753883 0.419935 0.663569
O O7 0.184337 0.165884 0.874649
O O8 0.588426 0.321058 0.787396
O O9 0.470215 0.921104 0.728360
O O10 0.035671 0.373024 0.068918
O O11 0.724470 0.111360 0.962615
O O12 0.000000 0.500000 0.000000
O O13 0.238758 0.072538 0.216515
O O14 0.438484 0.326545 0.155096
O O15 0.649823 0.119597 0.125730
O O16 0.969964 0.659144 0.807905
O O17 0.000000 0.000000 0.000000
#
# Coordination Sequence:
#
# PCOD8016733 Si02
#       8
#     2   2   2   2   2   2   2   2
#     4  10  21  47  70 100 139 176 220 274 340 402
#     4   9  22  44  74  98 138 180 218 275 338 404
#     4  11  25  43  66 102 132 173 226 279 333 401
#     4  12  26  43  67  94 133 178 222 281 334 396
#     4  11  24  45  63  93 130 177 220 273 339 395
#     4  11  23  40  69 101 137 175 219 278 337 395
#     4  10  24  44  65  94 132 174 221 274 330 401
#     4  12  25  41  66  92 125 175 225 277 328 399
#
# _framework density 22.462277
#
# number of rings (size 3 to 8) (size 9 to 14) (size 15 to 20)
#    0.000    1.250    2.500    2.250    3.500    4.000 
#    0.000    8.125    0.000    0.000    0.000    0.000 
#    0.000    0.000    0.000    0.000    0.000    0.000 
#
# Total GULP energy -198323.528899 kJ/mol
# GULP energy per Si atom -12395.220556 kJ/mol
# Density = 2.241115 g / cm^3
# Si number density = 22.462277 Si / 1000 Ang^3
#
#
#
# Elastic Constant Matrix: (Units=GPa)
#
#
# Indices 1 2 3 4 5 6 
#
# 1 110.1396 57.5669 36.8653 7.5694 -21.9157 8.4848
# 2 57.5669 125.1252 33.5001 13.2873 -15.6851 -5.6902
# 3 36.8653 33.5001 90.2155 4.3618 -4.4015 8.0912
# 4 7.5694 13.2873 4.3618 35.3622 -0.1314 -3.2513
# 5 -21.9157 -15.6851 -4.4015 -0.1314 30.6483 5.7105
# 6 8.4848 -5.6902 8.0912 -3.2513 5.7105 32.5745
#
#
#
# Elastic Compliance Matrix: (Units=1/GPa)
#
#
# Indices 1 2 3 4 5 6 
#
# 1 0.015121 -0.005085 -0.003283 -0.001412 0.008794 -0.005694
# 2 -0.005085 0.011554 -0.002329 -0.002645 0.001292 0.003431
# 3 -0.003283 -0.002329 0.013501 -0.000344 -0.001090 -0.002749
# 4 -0.001412 -0.002645 -0.000344 0.029928 -0.002936 0.003493
# 5 0.008794 0.001292 -0.001090 -0.002936 0.041141 -0.009299
# 6 -0.005694 0.003431 -0.002749 0.003493 -0.009299 0.035443
#
#
# Mechanical properties :
#
#
# Convention : Reuss Voigt Hill
#
# Bulk Modulus (GPa) = 53.24150 64.59387 58.91768
# Shear Modulus (GPa) = 28.67910 32.88689 30.78299
#
# Velocity S-wave (km/s) = 3.57706 3.83050 3.70595
# Velocity P-wave (km/s) = 6.38863 6.95576 6.67822
#
# Compressibility (1/GPa) = 0.01878234
#
# Stress axis : x y z
#
# Youngs Moduli (GPa) = 66.13147 86.55146 74.06829
#
# Poissons Ratio (x) = 0.44008 0.24317
# Poissons Ratio (y) = 0.33625 0.17253
# Poissons Ratio (z) = 0.21711 0.20161
#
# Static dielectric constant tensor:
#      x y z
#    x 3.820730 0.156590 -0.173330 
#    y 0.156590 4.036840 0.215530 
#    z -0.173330 0.215530 3.740190 
# 
# 
# High freq. dielectric constant tensor:
#      x y z
#    x 1.875610 -0.004800 0.001600 
#    y -0.004800 1.899890 -0.006450 
#    z 0.001600 -0.006450 1.890490 
# 
# From -- ./inp_files/116703.got.cif
#   From: 2010.06.25/outbox.cif.g09.slc.cpg/sg2_59_cif.got.tgz:116703.got - 2010.06.27 13:26:56.
