data_PCOD8016611
_publ_section_title
;
Structure prediction by ZEFSAII (Michael W. Deem and Ramdas Pophale) SiO2 
 PCOD8016611
Probable space group: P -1
;
_chemical_formula_sum "Si O2"
_cell_formula_units_Z 14
_cell_length_a 8.357776
_cell_length_b 12.659157
_cell_length_c 7.749794
_cell_angle_alpha 105.171561
_cell_angle_beta 129.865689
_cell_angle_gamma 83.573980
_cell_volume 605.686757
_symmetry_space_group_name_H-M "P -1"
_symmetry_group_IT_number 2
_symmetry_cell_setting 'triclinic'
loop_
_space_group_symop_operation_xyz
x,y,z
-x,-y,-z
loop_
_atom_site_type_symbol
_atom_site_label
_atom_site_fract_x
_atom_site_fract_y
_atom_site_fract_z
Si Si1 0.571345 0.728158 0.158325
Si Si2 0.353966 0.893043 0.890888
Si Si3 0.986660 0.612872 0.336516
Si Si4 0.128507 0.628059 0.825849
Si Si5 0.954634 0.142998 0.030901
Si Si6 0.781584 0.191866 0.579492
Si Si7 0.611904 0.889737 0.561973
O O1 0.755410 0.652398 0.213188
O O2 0.649890 0.823905 0.386127
O O3 0.499948 0.790656 0.963553
O O4 0.371157 0.652951 0.060157
O O5 0.189738 0.869832 0.610025
O O6 0.232082 0.903069 0.991495
O O7 0.500000 0.000000 0.000000
O O8 0.963854 0.486478 0.204659
O O9 0.114110 0.622923 0.606724
O O10 0.115932 0.683650 0.310378
O O11 0.996340 0.726393 0.845507
O O12 0.162399 0.079574 0.179963
O O13 0.110923 0.874056 0.221526
O O14 0.533673 0.189206 0.446280
O O15 0.500000 0.000000 0.500000
#
# Coordination Sequence:
#
# PCOD8016611 Si02
#       7
#     2   2   2   2   2   2   2
#     4  11  21  46  68 100 140 176 226 287 336 404
#     4  11  24  46  71 100 138 182 231 280 339 406
#     4  11  23  41  75  97 135 184 224 282 349 402
#     4  10  21  45  69  99 135 181 227 278 348 406
#     4  11  25  48  70  98 143 180 225 287 337 406
#     4  12  25  44  70 104 136 177 236 277 339 413
#     4  12  26  45  69 100 142 184 224 283 342 401
#
# _framework density 23.114256999999998
#
# number of rings (size 3 to 8) (size 9 to 14) (size 15 to 20)
#    0.000    0.857    7.143    1.286    2.000    2.286 
#    0.000    3.571    0.000    0.000    0.000    0.000 
#    0.000    0.000    0.000    0.000    0.000    0.000 
#
# Total GULP energy -173603.834919 kJ/mol
# GULP energy per Si atom -12400.273923 kJ/mol
# Density = 2.306165 g / cm^3
# Si number density = 23.114257 Si / 1000 Ang^3
#
#
#
# Elastic Constant Matrix: (Units=GPa)
#
#
# Indices 1 2 3 4 5 6 
#
# 1 81.1943 48.2763 32.8370 -16.8906 8.9037 23.6657
# 2 48.2763 127.7357 32.8960 -4.0085 2.5229 17.0308
# 3 32.8370 32.8960 132.7523 -9.5732 -2.2035 14.3644
# 4 -16.8906 -4.0085 -9.5732 30.5866 -3.7675 2.8878
# 5 8.9037 2.5229 -2.2035 -3.7675 46.3887 0.5497
# 6 23.6657 17.0308 14.3644 2.8878 0.5497 45.9713
#
#
#
# Elastic Compliance Matrix: (Units=1/GPa)
#
#
# Indices 1 2 3 4 5 6 
#
# 1 0.022233 -0.006203 -0.002212 0.011263 -0.003012 -0.009127
# 2 -0.006203 0.010419 -0.001196 -0.002374 0.000376 -0.000148
# 3 -0.002212 -0.001196 0.008640 0.001570 0.001042 -0.001229
# 4 0.011263 -0.002374 0.001570 0.040014 0.001386 -0.007939
# 5 -0.003012 0.000376 0.001042 0.001386 0.022268 0.000732
# 6 -0.009127 -0.000148 -0.001229 -0.007939 0.000732 0.027380
#
#
# Mechanical properties :
#
#
# Convention : Reuss Voigt Hill
#
# Bulk Modulus (GPa) = 45.31454 63.30010 54.30732
# Shear Modulus (GPa) = 31.73928 39.76751 35.75339
#
# Velocity S-wave (km/s) = 3.70962 4.15236 3.93722
# Velocity P-wave (km/s) = 6.16405 7.10174 6.64944
#
# Compressibility (1/GPa) = 0.02206797
#
# Stress axis : x y z
#
# Youngs Moduli (GPa) = 44.97890 95.97911 115.74046
#
# Poissons Ratio (x) = 0.59535 0.25607
# Poissons Ratio (y) = 0.27900 0.13847
# Poissons Ratio (z) = 0.09951 0.11483
#
# Static dielectric constant tensor:
#      x y z
#    x 4.018050 0.211020 0.118260 
#    y 0.211020 4.348880 0.103350 
#    z 0.118260 0.103350 4.574050 
# 
# 
# High freq. dielectric constant tensor:
#      x y z
#    x 1.891120 0.016930 0.004890 
#    y 0.016930 1.916330 0.011500 
#    z 0.004890 0.011500 1.930890 
# 
# From -- ./inp_files/188847.got.cif
#   From: 2010.06.25/outbox.cif.g09.slc.cpg/sg2_95_cif.got.tgz:188847.got - 2010.06.27 13:26:56.
