data_PCOD8016436
_publ_section_title
;
Structure prediction by ZEFSAII (Michael W. Deem and Ramdas Pophale) SiO2 
 PCOD8016436
Probable space group: P -1
;
_chemical_formula_sum "Si O2"
_cell_formula_units_Z 14
_cell_length_a 11.585978
_cell_length_b 9.513019
_cell_length_c 8.504429
_cell_angle_alpha 82.867747
_cell_angle_beta 139.783015
_cell_angle_gamma 100.283635
_cell_volume 595.392863
_symmetry_space_group_name_H-M "P -1"
_symmetry_group_IT_number 2
_symmetry_cell_setting 'triclinic'
loop_
_space_group_symop_operation_xyz
x,y,z
-x,-y,-z
loop_
_atom_site_type_symbol
_atom_site_label
_atom_site_fract_x
_atom_site_fract_y
_atom_site_fract_z
Si Si1 0.877367 0.448015 0.525746
Si Si2 0.370789 0.750579 0.234782
Si Si3 0.852633 0.543958 0.953527
Si Si4 0.251697 0.024036 0.919666
Si Si5 0.609016 0.198377 0.383050
Si Si6 0.743993 0.701837 0.543658
Si Si7 0.146198 0.996509 0.463425
O O1 0.709939 0.321392 0.353944
O O2 0.789022 0.579603 0.489635
O O3 0.000000 0.500000 0.500000
O O4 0.028790 0.380232 0.793623
O O5 0.264847 0.600158 0.090586
O O6 0.402005 0.748779 0.456321
O O7 0.549950 0.754937 0.315106
O O8 0.272140 0.884195 0.063995
O O9 0.742457 0.652737 0.731933
O O10 0.000000 0.500000 0.000000
O O11 0.059314 0.082343 0.742021
O O12 0.250656 0.985409 0.739190
O O13 0.409490 0.151028 0.112366
O O14 0.728527 0.067520 0.526232
O O15 0.883407 0.841597 0.633922
#
# Coordination Sequence:
#
# PCOD8016436 Si02
#       7
#     2   2   2   2   2   2   2
#     4  11  27  47  73 107 146 189 249 299 361 433
#     4  12  24  46  74 107 148 192 244 299 357 438
#     4  10  21  44  70  98 146 192 235 293 360 429
#     4  11  26  47  73 106 152 193 239 301 363 429
#     4  12  26  47  71 114 142 186 252 300 349 438
#     4  11  24  47  72 104 143 200 239 292 373 425
#     4  11  27  47  75 102 150 200 238 293 376 420
#
# _framework density 23.513884000000001
#
# number of rings (size 3 to 8) (size 9 to 14) (size 15 to 20)
#    0.000    0.857    4.286    3.000    6.000    1.714 
#    0.000    1.429    0.000    0.000    0.000    0.000 
#    0.000    0.000    0.000    0.000    0.000    0.000 
#
# Total GULP energy -173462.042292 kJ/mol
# GULP energy per Si atom -12390.145878 kJ/mol
# Density = 2.346037 g / cm^3
# Si number density = 23.513884 Si / 1000 Ang^3
#
#
#
# Elastic Constant Matrix: (Units=GPa)
#
#
# Indices 1 2 3 4 5 6 
#
# 1 102.8033 30.2328 42.6151 5.4918 8.1523 8.1220
# 2 30.2328 113.2047 38.9395 7.4125 9.3110 22.4784
# 3 42.6151 38.9395 120.5415 15.6991 14.1349 11.4868
# 4 5.4918 7.4125 15.6991 32.0631 14.6072 6.1495
# 5 8.1523 9.3110 14.1349 14.6072 33.8645 -5.7954
# 6 8.1220 22.4784 11.4868 6.1495 -5.7954 45.3284
#
#
#
# Elastic Compliance Matrix: (Units=1/GPa)
#
#
# Indices 1 2 3 4 5 6 
#
# 1 0.011809 -0.001767 -0.003491 0.000846 -0.001375 -0.000645
# 2 -0.001767 0.011335 -0.002327 0.001286 -0.003181 -0.005296
# 3 -0.003491 -0.002327 0.010998 -0.003256 -0.001843 -0.000802
# 4 0.000846 0.001286 -0.003256 0.042534 -0.018941 -0.008156
# 5 -0.001375 -0.003181 -0.001843 -0.018941 0.041413 0.010155
# 6 -0.000645 -0.005296 -0.000802 -0.008156 0.010155 0.027411
#
#
# Mechanical properties :
#
#
# Convention : Reuss Voigt Hill
#
# Bulk Modulus (GPa) = 52.70922 62.23603 57.47263
# Shear Modulus (GPa) = 29.94114 37.23533 33.58824
#
# Velocity S-wave (km/s) = 3.57226 3.98370 3.78357
# Velocity P-wave (km/s) = 6.28328 6.90543 6.60169
#
# Compressibility (1/GPa) = 0.01897201
#
# Stress axis : x y z
#
# Youngs Moduli (GPa) = 84.68029 88.22408 90.92197
#
# Poissons Ratio (x) = 0.15588 0.31745
# Poissons Ratio (y) = 0.14962 0.21155
# Poissons Ratio (z) = 0.29566 0.20528
#
# Static dielectric constant tensor:
#      x y z
#    x 4.087060 0.052090 0.346130 
#    y 0.052090 3.939960 0.337870 
#    z 0.346130 0.337870 3.786470 
# 
# 
# High freq. dielectric constant tensor:
#      x y z
#    x 1.938550 0.012710 0.016270 
#    y 0.012710 1.931720 0.000520 
#    z 0.016270 0.000520 1.929370 
# 
# From -- ./inp_files/243769.got.cif
#   From: 2010.06.25/outbox.cif.g09.slc.cpg/sg2_122_cif.got.tgz:243769.got - 2010.06.27 13:26:56.
