data_PCOD8016055
_publ_section_title
;
Structure prediction by ZEFSAII (Michael W. Deem and Ramdas Pophale) SiO2 
 PCOD8016055
Probable space group: P -1
;
_chemical_formula_sum "Si O2"
_cell_formula_units_Z 14
_cell_length_a 8.073930
_cell_length_b 18.422795
_cell_length_c 9.223947
_cell_angle_alpha 64.681350
_cell_angle_beta 115.881514
_cell_angle_gamma 150.112762
_cell_volume 611.378493
_symmetry_space_group_name_H-M "P -1"
_symmetry_group_IT_number 2
_symmetry_cell_setting 'triclinic'
loop_
_space_group_symop_operation_xyz
x,y,z
-x,-y,-z
loop_
_atom_site_type_symbol
_atom_site_label
_atom_site_fract_x
_atom_site_fract_y
_atom_site_fract_z
Si Si1 0.295460 0.380068 0.899424
Si Si2 0.796866 0.900844 0.276006
Si Si3 0.667649 0.007314 0.441656
Si Si4 0.050169 0.168855 0.180908
Si Si5 0.802286 0.285553 0.601617
Si Si6 0.419174 0.672510 0.095402
Si Si7 0.223130 0.618999 0.763348
O O1 0.504140 0.391475 0.872196
O O2 0.144679 0.394834 0.727090
O O3 0.500000 0.500000 0.000000
O O4 0.992773 0.219426 0.999827
O O5 0.471430 0.764347 0.368298
O O6 0.731021 0.829917 0.160351
O O7 0.125103 0.988161 0.407642
O O8 0.875051 0.023603 0.177973
O O9 0.902823 0.141022 0.304421
O O10 0.500000 0.000000 0.500000
O O11 0.355980 0.858800 0.361944
O O12 0.454504 0.310869 0.234401
O O13 0.890271 0.357903 0.419236
O O14 0.098022 0.555430 0.180416
O O15 0.333651 0.694463 0.899910
#
# Coordination Sequence:
#
# PCOD8016055 Si02
#       7
#     2   2   2   2   2   2   2
#     4  11  27  45  65 102 145 182 229 286 347 405
#     4  11  22  43  74 103 133 182 234 282 341 417
#     4  11  22  41  69 108 140 173 231 287 346 414
#     4  10  22  46  69  97 142 181 230 282 347 406
#     4  11  23  43  69  97 139 184 229 283 343 404
#     4  10  25  42  68 105 135 177 237 280 343 412
#     4  10  21  43  69  95 136 180 231 278 335 409
#
# _framework density 22.899069999999998
#
# number of rings (size 3 to 8) (size 9 to 14) (size 15 to 20)
#    0.000    1.429    2.857    1.714    6.000    8.000 
#    2.571    0.000    0.000    0.000    0.000    0.000 
#    0.000    0.000    0.000    0.000    0.000    0.000 
#
# Total GULP energy -173462.366612 kJ/mol
# GULP energy per Si atom -12390.169044 kJ/mol
# Density = 2.284695 g / cm^3
# Si number density = 22.899070 Si / 1000 Ang^3
#
#
#
# Elastic Constant Matrix: (Units=GPa)
#
#
# Indices 1 2 3 4 5 6 
#
# 1 106.9167 37.1013 41.6551 3.5865 -23.4488 3.6193
# 2 37.1013 86.4893 50.5980 6.3614 -15.6452 4.3559
# 3 41.6551 50.5980 166.7356 -8.3200 4.7720 9.9431
# 4 3.5865 6.3614 -8.3200 49.0412 5.1386 -7.2225
# 5 -23.4488 -15.6452 4.7720 5.1386 38.3592 0.8114
# 6 3.6193 4.3559 9.9431 -7.2225 0.8114 30.0924
#
#
#
# Elastic Compliance Matrix: (Units=1/GPa)
#
#
# Indices 1 2 3 4 5 6 
#
# 1 0.013051 -0.002369 -0.002804 -0.002073 0.007660 -0.001004
# 2 -0.002369 0.016966 -0.004836 -0.003786 0.006615 -0.001660
# 3 -0.002804 -0.004836 0.008503 0.002660 -0.005080 -0.000997
# 4 -0.002073 -0.003786 0.002660 0.022974 -0.006339 0.005603
# 5 0.007660 0.006615 -0.005080 -0.006339 0.034987 -0.002665
# 6 -0.001004 -0.001660 -0.000997 0.005603 -0.002665 0.035338
#
#
# Mechanical properties :
#
#
# Convention : Reuss Voigt Hill
#
# Bulk Modulus (GPa) = 54.04955 68.76117 61.40536
# Shear Modulus (GPa) = 31.64412 38.88438 35.26425
#
# Velocity S-wave (km/s) = 3.72142 4.12524 3.92852
# Velocity P-wave (km/s) = 6.48998 7.26521 6.88851
#
# Compressibility (1/GPa) = 0.01850154
#
# Stress axis : x y z
#
# Youngs Moduli (GPa) = 76.62062 58.94029 117.60230
#
# Poissons Ratio (x) = 0.13965 0.32980
# Poissons Ratio (y) = 0.18154 0.56872
# Poissons Ratio (z) = 0.21487 0.28503
#
# Static dielectric constant tensor:
#      x y z
#    x 4.092890 0.102370 -0.164790 
#    y 0.102370 4.115010 -0.205080 
#    z -0.164790 -0.205080 4.105380 
# 
# 
# High freq. dielectric constant tensor:
#      x y z
#    x 1.883390 0.009410 -0.013730 
#    y 0.009410 1.902780 0.003730 
#    z -0.013730 0.003730 1.915550 
# 
# From -- ./inp_files/220732.got.cif
#   From: 2010.06.25/outbox.cif.g09.slc.cpg/sg2_111_cif.got.tgz:220732.got - 2010.06.27 13:26:56.
