data_PCOD8016007
_publ_section_title
;
Structure prediction by ZEFSAII (Michael W. Deem and Ramdas Pophale) SiO2 
 PCOD8016007
Probable space group: P -1
;
_chemical_formula_sum "Si O2"
_cell_formula_units_Z 16
_cell_length_a 6.576743
_cell_length_b 14.353179
_cell_length_c 22.976040
_cell_angle_alpha 18.875314
_cell_angle_beta 92.956033
_cell_angle_gamma 91.823707
_cell_volume 699.750487
_symmetry_space_group_name_H-M "P -1"
_symmetry_group_IT_number 2
_symmetry_cell_setting 'triclinic'
loop_
_space_group_symop_operation_xyz
x,y,z
-x,-y,-z
loop_
_atom_site_type_symbol
_atom_site_label
_atom_site_fract_x
_atom_site_fract_y
_atom_site_fract_z
Si Si1 0.478097 0.432628 0.472045
Si Si2 0.715070 0.632922 0.191204
Si Si3 0.627251 0.973314 0.095574
Si Si4 0.791245 0.292541 0.008530
Si Si5 0.932075 0.311278 0.289622
Si Si6 0.568712 0.347046 0.178214
Si Si7 0.835480 0.034472 0.278519
Si Si8 0.260586 0.890218 0.418281
O O1 0.500000 0.500000 0.500000
O O2 0.274328 0.265309 0.554415
O O3 0.668912 0.224677 0.576585
O O4 0.477866 0.728491 0.260249
O O5 0.901008 0.556728 0.194459
O O6 0.673662 0.338475 0.396669
O O7 0.758742 0.870341 0.101303
O O8 0.511496 0.740035 0.090368
O O9 0.789552 0.049120 0.102430
O O10 0.552164 0.343909 0.995516
O O11 0.902223 0.572476 0.821428
O O12 0.914357 0.155769 0.146455
O O13 0.715662 0.271946 0.278811
O O14 0.000000 0.000000 0.500000
O O15 0.693247 0.295858 0.150302
O O16 0.372706 0.160281 0.282894
O O17 0.019932 0.966715 0.365780
#
# Coordination Sequence:
#
# PCOD8016007 Si02
#       8
#     2   2   2   2   2   2   2   2
#     4  10  21  43  68  97 134 174 221 277 343 395
#     4  10  22  46  66  97 136 176 226 276 334 396
#     4  10  22  44  70  99 133 183 220 274 340 401
#     4  12  25  42  69 101 135 179 226 273 339 405
#     4  12  27  43  70 103 134 179 230 279 336 400
#     4  11  24  44  67  97 136 178 222 282 341 394
#     4  11  24  44  69 100 136 174 226 279 337 409
#     4  10  24  43  68  99 134 181 223 278 340 396
#
# _framework density 22.865292
#
# number of rings (size 3 to 8) (size 9 to 14) (size 15 to 20)
#    0.000    1.250    2.500    2.625    1.750    7.000 
#    9.000    0.000    0.000    0.000    0.000    0.000 
#    0.000    0.000    0.000    0.000    0.000    0.000 
#
# Total GULP energy -198300.564091 kJ/mol
# GULP energy per Si atom -12393.785256 kJ/mol
# Density = 2.281325 g / cm^3
# Si number density = 22.865292 Si / 1000 Ang^3
#
#
#
# Elastic Constant Matrix: (Units=GPa)
#
#
# Indices 1 2 3 4 5 6 
#
# 1 103.6880 46.0973 38.2244 -2.4760 -2.4713 -0.1748
# 2 46.0973 139.1277 33.1881 -3.2526 1.5422 -6.9744
# 3 38.2244 33.1881 95.9235 14.8477 -4.5434 0.4574
# 4 -2.4760 -3.2526 14.8477 35.6157 -2.3932 3.3284
# 5 -2.4713 1.5422 -4.5434 -2.3932 32.6357 -4.5752
# 6 -0.1748 -6.9744 0.4574 3.3284 -4.5752 39.2759
#
#
#
# Elastic Compliance Matrix: (Units=1/GPa)
#
#
# Indices 1 2 3 4 5 6 
#
# 1 0.012718 -0.003159 -0.004330 0.002497 0.000609 -0.000595
# 2 -0.003159 0.008824 -0.002026 0.001257 -0.000651 0.001394
# 3 -0.004330 -0.002026 0.013870 -0.006196 0.001263 0.000132
# 4 0.002497 0.001257 -0.006196 0.031238 0.001250 -0.002195
# 5 0.000609 -0.000651 0.001263 0.001250 0.031467 0.003432
# 6 -0.000595 0.001394 0.000132 -0.002195 0.003432 0.026290
#
#
# Mechanical properties :
#
#
# Convention : Reuss Voigt Hill
#
# Bulk Modulus (GPa) = 61.04449 63.75098 62.39773
# Shear Modulus (GPa) = 33.58009 36.25407 34.91708
#
# Velocity S-wave (km/s) = 3.83640 3.98622 3.91202
# Velocity P-wave (km/s) = 6.81024 7.00915 6.91041
#
# Compressibility (1/GPa) = 0.01638150
#
# Stress axis : x y z
#
# Youngs Moduli (GPa) = 78.62756 113.32469 72.10037
#
# Poissons Ratio (x) = 0.35802 0.31218
# Poissons Ratio (y) = 0.24840 0.14608
# Poissons Ratio (z) = 0.34045 0.22961
#
# Static dielectric constant tensor:
#      x y z
#    x 3.913550 -0.258350 0.091040 
#    y -0.258350 4.548880 -0.106430 
#    z 0.091040 -0.106430 3.992930 
# 
# 
# High freq. dielectric constant tensor:
#      x y z
#    x 1.878760 -0.010430 0.007180 
#    y -0.010430 1.934950 -0.005280 
#    z 0.007180 -0.005280 1.896230 
# 
# From -- ./inp_files/124310.got.cif
#   From: 2010.06.25/outbox.cif.g09.slc.cpg/sg2_63_cif.got.tgz:124310.got - 2010.06.27 13:26:56.
