data_PCOD8016760
_publ_section_title
;
Structure prediction by ZEFSAII (Michael W. Deem and Ramdas Pophale) SiO2 
 PCOD8016760
Probable space group: P -1
;
_chemical_formula_sum "Si O2"
_cell_formula_units_Z 16
_cell_length_a 21.882738
_cell_length_b 11.657872
_cell_length_c 5.067629
_cell_angle_alpha 101.958977
_cell_angle_beta 76.354543
_cell_angle_gamma 141.820808
_cell_volume 776.033913
_symmetry_space_group_name_H-M "P -1"
_symmetry_group_IT_number 2
_symmetry_cell_setting 'triclinic'
loop_
_space_group_symop_operation_xyz
x,y,z
-x,-y,-z
loop_
_atom_site_type_symbol
_atom_site_label
_atom_site_fract_x
_atom_site_fract_y
_atom_site_fract_z
Si Si1 0.906626 0.261748 0.742384
Si Si2 0.786766 0.017470 0.238942
Si Si3 0.785402 0.525455 0.941515
Si Si4 0.804463 0.794207 0.248614
Si Si5 0.882319 0.468082 0.137277
Si Si6 0.677558 0.081942 0.310977
Si Si7 0.102206 0.139421 0.311400
Si Si8 0.395165 0.905383 0.120504
O O1 0.866506 0.175878 0.451410
O O2 0.021319 0.384976 0.702617
O O3 0.842836 0.097976 0.941894
O O4 0.897509 0.387909 0.864606
O O5 0.690230 0.961626 0.292670
O O6 0.744895 0.826638 0.253118
O O7 0.746188 0.587306 0.162143
O O8 0.862484 0.562474 0.057205
O O9 0.846679 0.657204 0.681052
O O10 0.686961 0.313619 0.867825
O O11 0.832112 0.844833 0.550505
O O12 0.900532 0.926783 0.007636
O O13 0.786605 0.299021 0.335876
O O14 0.599804 0.019726 0.572141
O O15 0.634356 0.043533 0.047354
O O16 0.000000 0.000000 0.500000
O O17 0.500000 0.000000 0.000000
#
# Coordination Sequence:
#
# PCOD8016760 Si02
#       8
#     2   2   2   2   2   2   2   2
#     4  10  22  34  56  82 117 165 203 238 279 341
#     4  11  21  38  55  82 120 159 201 232 279 354
#     4   9  23  37  60  83 119 154 193 251 295 340
#     4  10  23  36  54  82 115 160 196 235 282 334
#     4   9  20  38  54  85 118 157 200 247 291 342
#     4  10  22  39  61  87 115 152 188 240 308 352
#     4  10  22  37  52  82 117 161 205 233 280 334
#     4  11  23  42  67  93 113 142 193 252 313 359
#
# _framework density 20.617656
#
# number of rings (size 3 to 8) (size 9 to 14) (size 15 to 20)
#    0.750    1.250    0.000    3.750    5.250    7.500 
#    0.000    0.000    0.000    1.500    0.000    0.000 
#    0.000    0.000    0.000    0.000    0.000    0.000 
#
# Total GULP energy -198258.108474 kJ/mol
# GULP energy per Si atom -12391.131780 kJ/mol
# Density = 2.057073 g / cm^3
# Si number density = 20.617656 Si / 1000 Ang^3
#
#
#
# Elastic Constant Matrix: (Units=GPa)
#
#
# Indices 1 2 3 4 5 6 
#
# 1 139.9118 51.5348 19.1121 -14.8427 3.9783 -27.6520
# 2 51.5348 48.7991 14.3466 -8.5617 1.8496 -10.6670
# 3 19.1121 14.3466 85.7618 -14.8409 6.5192 -2.9408
# 4 -14.8427 -8.5617 -14.8409 24.9280 0.2082 -3.1070
# 5 3.9783 1.8496 6.5192 0.2082 30.1046 -6.2308
# 6 -27.6520 -10.6670 -2.9408 -3.1070 -6.2308 40.7810
#
#
#
# Elastic Compliance Matrix: (Units=1/GPa)
#
#
# Indices 1 2 3 4 5 6 
#
# 1 0.013203 -0.011783 0.000022 0.004606 0.000238 0.006260
# 2 -0.011783 0.034534 -0.002523 0.003486 0.000197 0.001157
# 3 0.000022 -0.002523 0.013566 0.007305 -0.002739 0.000471
# 4 0.004606 0.003486 0.007305 0.049431 -0.001056 0.008166
# 5 0.000238 0.000197 -0.002739 -0.001056 0.034863 0.005262
# 6 0.006260 0.001157 0.000471 0.008166 0.005262 0.030528
#
#
# Mechanical properties :
#
#
# Convention : Reuss Voigt Hill
#
# Bulk Modulus (GPa) = 30.54743 49.38444 39.96594
# Shear Modulus (GPa) = 23.19048 31.79465 27.49256
#
# Velocity S-wave (km/s) = 3.35742 3.93123 3.65560
# Velocity P-wave (km/s) = 5.46608 6.67911 6.10281
#
# Compressibility (1/GPa) = 0.03273598
#
# Stress axis : x y z
#
# Youngs Moduli (GPa) = 75.73837 28.95662 73.71522
#
# Poissons Ratio (x) = 0.34119 -0.00165
# Poissons Ratio (y) = 0.89240 0.18601
# Poissons Ratio (z) = -0.00169 0.07307
#
# Static dielectric constant tensor:
#      x y z
#    x 4.006760 -0.339190 0.201070 
#    y -0.339190 3.374390 -0.114220 
#    z 0.201070 -0.114220 3.881940 
# 
# 
# High freq. dielectric constant tensor:
#      x y z
#    x 1.812320 -0.033170 0.008940 
#    y -0.033170 1.752090 -0.008150 
#    z 0.008940 -0.008150 1.817280 
# 
# From -- ./inp_files/117890.got.cif
#   From: 2010.06.25/outbox.cif.g09.slc.cpg/sg2_59_cif.got.tgz:117890.got - 2010.06.27 13:26:56.
