data_PCOD8016385
_publ_section_title
;
Structure prediction by ZEFSAII (Michael W. Deem and Ramdas Pophale) SiO2 
 PCOD8016385
Probable space group: P -1
;
_chemical_formula_sum "Si O2"
_cell_formula_units_Z 16
_cell_length_a 29.263011
_cell_length_b 27.235431
_cell_length_c 17.576273
_cell_angle_alpha 19.531359
_cell_angle_beta 159.681800
_cell_angle_gamma 170.191612
_cell_volume 787.566057
_symmetry_space_group_name_H-M "P -1"
_symmetry_group_IT_number 2
_symmetry_cell_setting 'triclinic'
loop_
_space_group_symop_operation_xyz
x,y,z
-x,-y,-z
loop_
_atom_site_type_symbol
_atom_site_label
_atom_site_fract_x
_atom_site_fract_y
_atom_site_fract_z
Si Si1 0.662969 0.404460 0.274795
Si Si2 0.089957 0.260427 0.091797
Si Si3 0.682385 0.753907 0.748392
Si Si4 0.311288 0.440926 0.756094
Si Si5 0.678463 0.831549 0.194592
Si Si6 0.077034 0.726895 0.327155
Si Si7 0.448085 0.603707 0.441254
Si Si8 0.878121 0.041826 0.369269
O O1 0.719765 0.462767 0.369231
O O2 0.923165 0.589817 0.367784
O O3 0.400000 0.046417 0.375291
O O4 0.603423 0.507708 0.997476
O O5 0.382677 0.618345 0.046178
O O6 0.111600 0.106166 0.355971
O O7 0.870728 0.109103 0.030942
O O8 0.011796 0.225027 0.935656
O O9 0.483871 0.658034 0.633713
O O10 0.611711 0.731273 0.586328
O O11 0.005193 0.087968 0.776713
O O12 0.500000 0.500000 0.000000
O O13 0.655778 0.643525 0.403866
O O14 0.814231 0.962892 0.296729
O O15 0.000000 0.500000 0.500000
O O16 0.634122 0.883032 0.266598
O O17 0.159508 0.404668 0.294435
#
# Coordination Sequence:
#
# PCOD8016385 Si02
#       8
#     2   2   2   2   2   2   2   2
#     4  11  20  36  52  66  95 132 166 217 261 283
#     4  10  18  30  44  63  90 123 160 201 235 271
#     4  11  19  31  49  75  98 128 171 202 246 314
#     4  10  20  32  49  72  95 124 167 213 254 306
#     4  10  18  28  45  67  92 129 162 187 238 307
#     4  12  24  36  51  72  97 136 184 216 238 280
#     4  10  17  25  40  62  95 126 150 185 222 278
#     4  10  17  28  43  67  94 130 161 185 236 307
#
# _framework density 20.315757000000001
#
# number of rings (size 3 to 8) (size 9 to 14) (size 15 to 20)
#    0.000    1.500    0.000   12.375    0.000    0.000 
#    0.000    0.000    0.000    0.000    0.000    0.000 
#    0.000    0.000    0.000  130.500    0.000   22.500 
#
# Total GULP energy -198251.593753 kJ/mol
# GULP energy per Si atom -12390.724610 kJ/mol
# Density = 2.026952 g / cm^3
# Si number density = 20.315757 Si / 1000 Ang^3
#
#
#
# Elastic Constant Matrix: (Units=GPa)
#
#
# Indices 1 2 3 4 5 6 
#
# 1 135.0208 61.1060 7.0633 0.8257 -8.8621 22.5203
# 2 61.1060 185.3152 8.1597 10.3156 -6.2453 28.7154
# 3 7.0633 8.1597 5.8341 -1.7059 0.9549 0.0044
# 4 0.8257 10.3156 -1.7059 14.9492 -4.0116 -0.5425
# 5 -8.8621 -6.2453 0.9549 -4.0116 15.3927 2.1034
# 6 22.5203 28.7154 0.0044 -0.5425 2.1034 50.8363
#
#
#
# Elastic Compliance Matrix: (Units=1/GPa)
#
#
# Indices 1 2 3 4 5 6 
#
# 1 0.009849 -0.002177 -0.009477 0.001420 0.006206 -0.003374
# 2 -0.002177 0.007431 -0.009686 -0.005889 0.001285 -0.003348
# 3 -0.009477 -0.009686 0.206970 0.026726 -0.016713 0.010628
# 4 0.001420 -0.005889 0.026726 0.078555 0.016855 0.002836
# 5 0.006206 0.001285 -0.016713 0.016855 0.075366 -0.006412
# 6 -0.003374 -0.003348 0.010628 0.002836 -0.006412 0.023351
#
#
# Mechanical properties :
#
#
# Convention : Reuss Voigt Hill
#
# Bulk Modulus (GPa) = 5.50755 53.20311 29.35533
# Shear Modulus (GPa) = 9.90639 32.89172 21.39905
#
# Velocity S-wave (km/s) = 2.21061 4.02808 3.24901
# Velocity P-wave (km/s) = 3.03852 6.91945 5.34375
#
# Compressibility (1/GPa) = 0.18156896
#
# Stress axis : x y z
#
# Youngs Moduli (GPa) = 101.53526 134.57907 4.83162
#
# Poissons Ratio (x) = 0.29303 0.04579
# Poissons Ratio (y) = 0.22108 0.04680
# Poissons Ratio (z) = 0.96220 1.30357
#
# Static dielectric constant tensor:
#      x y z
#    x 4.670640 0.887370 -0.104140 
#    y 0.887370 4.843720 0.256460 
#    z -0.104140 0.256460 2.918410 
# 
# 
# High freq. dielectric constant tensor:
#      x y z
#    x 1.816980 0.025570 -0.026280 
#    y 0.025570 1.823320 0.024420 
#    z -0.026280 0.024420 1.696350 
# 
# From -- ./inp_files/468027.got.cif
#   From: 2010.06.25/outbox.cif.g09.slc.cpg/sg2_235_cif.got.tgz:468027.got - 2010.06.27 13:26:56.
