data_PCOD8016160
_publ_section_title
;
Structure prediction by ZEFSAII (Michael W. Deem and Ramdas Pophale) SiO2 
 PCOD8016160
Probable space group: P -1
;
_chemical_formula_sum "Si O2"
_cell_formula_units_Z 16
_cell_length_a 12.071276
_cell_length_b 9.275167
_cell_length_c 14.387738
_cell_angle_alpha 94.147005
_cell_angle_beta 27.817806
_cell_angle_gamma 85.966683
_cell_volume 717.886672
_symmetry_space_group_name_H-M "P -1"
_symmetry_group_IT_number 2
_symmetry_cell_setting 'triclinic'
loop_
_space_group_symop_operation_xyz
x,y,z
-x,-y,-z
loop_
_atom_site_type_symbol
_atom_site_label
_atom_site_fract_x
_atom_site_fract_y
_atom_site_fract_z
Si Si1 0.475230 0.321385 0.257716
Si Si2 0.796444 0.134152 0.610464
Si Si3 0.245814 0.531400 0.281763
Si Si4 0.651635 0.970848 0.109463
Si Si5 0.993861 0.488659 0.719331
Si Si6 0.942630 0.393588 0.959577
Si Si7 0.401199 0.130679 0.651303
Si Si8 0.128546 0.794205 0.644248
O O1 0.461268 0.416033 0.176120
O O2 0.567665 0.146512 0.154626
O O3 0.218561 0.350949 0.506466
O O4 0.677448 0.366378 0.174649
O O5 0.766821 0.295116 0.686530
O O6 0.892182 0.121672 0.433905
O O7 0.526426 0.108480 0.816595
O O8 0.000000 0.000000 0.500000
O O9 0.000000 0.500000 0.500000
O O10 0.251399 0.496064 0.163884
O O11 0.646951 0.944095 0.221015
O O12 0.930845 0.896898 0.865574
O O13 0.932193 0.468956 0.870164
O O14 0.089963 0.633675 0.646392
O O15 0.147859 0.234504 0.802160
O O16 0.000000 0.500000 0.000000
O O17 0.595492 0.228494 0.521564
O O18 0.500000 0.000000 0.500000
#
# Coordination Sequence:
#
# PCOD8016160 Si02
#       8
#     2   2   2   2   2   2   2   2
#     4  11  24  45  69 102 138 177 231 281 340 416
#     4  11  23  43  69 100 140 180 222 278 339 411
#     4  10  21  43  71  96 139 178 220 276 338 411
#     4  11  26  42  70 101 138 179 231 281 345 405
#     4  11  24  44  70  97 138 184 220 280 354 397
#     4  12  27  42  70 103 133 177 241 284 337 405
#     4  11  25  45  66  95 139 183 229 287 341 401
#     4  11  24  43  67  99 138 175 229 282 344 407
#
# _framework density 22.287641000000001
#
# number of rings (size 3 to 8) (size 9 to 14) (size 15 to 20)
#    0.000    1.000    2.500    4.500    3.500   10.000 
#    0.000    0.000    0.000    0.000    0.000    0.000 
#    0.000    0.000    0.000    0.000    0.000    0.000 
#
# Total GULP energy -198447.552616 kJ/mol
# GULP energy per Si atom -12402.972039 kJ/mol
# Density = 2.223691 g / cm^3
# Si number density = 22.287641 Si / 1000 Ang^3
#
#
#
# Elastic Constant Matrix: (Units=GPa)
#
#
# Indices 1 2 3 4 5 6 
#
# 1 145.9930 46.4787 32.5574 -8.2693 -2.1288 7.2847
# 2 46.4787 122.3948 16.7090 2.7122 -11.3177 10.1930
# 3 32.5574 16.7090 69.5076 4.9678 3.1812 -5.6382
# 4 -8.2693 2.7122 4.9678 29.9010 -0.2343 0.8054
# 5 -2.1288 -11.3177 3.1812 -0.2343 39.0111 1.7558
# 6 7.2847 10.1930 -5.6382 0.8054 1.7558 39.0696
#
#
#
# Elastic Compliance Matrix: (Units=1/GPa)
#
#
# Indices 1 2 3 4 5 6 
#
# 1 0.008865 -0.002777 -0.003857 0.003387 0.000083 -0.001558
# 2 -0.002777 0.009900 -0.001307 -0.001363 0.002925 -0.002357
# 3 -0.003857 -0.001307 0.017189 -0.003921 -0.002182 0.003720
# 4 0.003387 -0.001363 -0.003921 0.035201 0.000392 -0.001585
# 5 0.000083 0.002925 -0.002182 0.000392 0.026771 -0.002305
# 6 -0.001558 -0.002357 0.003720 -0.001585 -0.002305 0.027174
#
#
# Mechanical properties :
#
#
# Convention : Reuss Voigt Hill
#
# Bulk Modulus (GPa) = 49.81916 58.82063 54.31990
# Shear Modulus (GPa) = 33.85845 37.73967 35.79906
#
# Velocity S-wave (km/s) = 3.90187 4.11944 4.01213
# Velocity P-wave (km/s) = 6.53458 7.00537 6.77407
#
# Compressibility (1/GPa) = 0.02007260
#
# Stress axis : x y z
#
# Youngs Moduli (GPa) = 112.80570 101.00657 58.17516
#
# Poissons Ratio (x) = 0.28054 0.22438
# Poissons Ratio (y) = 0.31331 0.07602
# Poissons Ratio (z) = 0.43508 0.13198
#
# Static dielectric constant tensor:
#      x y z
#    x 3.779980 -0.856240 0.125270 
#    y -0.856240 2.798590 0.254380 
#    z 0.125270 0.254380 4.025440 
# 
# 
# High freq. dielectric constant tensor:
#      x y z
#    x 1.894010 0.003810 -0.009500 
#    y 0.003810 1.886430 -0.004560 
#    z -0.009500 -0.004560 1.884070 
# 
# From -- ./inp_files/381986.got.cif
#   From: 2010.06.25/outbox.cif.g09.slc.cpg/sg2_191_cif.got.tgz:381986.got - 2010.06.27 13:26:56.
