data_PCOD8016013
_publ_section_title
;
Structure prediction by ZEFSAII (Michael W. Deem and Ramdas Pophale) SiO2 
 PCOD8016013
Probable space group: P -1
;
_chemical_formula_sum "Si O2"
_cell_formula_units_Z 14
_cell_length_a 25.127669
_cell_length_b 8.797205
_cell_length_c 8.809827
_cell_angle_alpha 130.873595
_cell_angle_beta 140.596944
_cell_angle_gamma 27.394835
_cell_volume 565.440663
_symmetry_space_group_name_H-M "P -1"
_symmetry_group_IT_number 2
_symmetry_cell_setting 'triclinic'
loop_
_space_group_symop_operation_xyz
x,y,z
-x,-y,-z
loop_
_atom_site_type_symbol
_atom_site_label
_atom_site_fract_x
_atom_site_fract_y
_atom_site_fract_z
Si Si1 0.743132 0.852708 0.528737
Si Si2 0.450912 0.878635 0.255940
Si Si3 0.496275 0.358903 0.111704
Si Si4 0.951781 0.173054 0.688137
Si Si5 0.857931 0.550209 0.013479
Si Si6 0.806762 0.033147 0.054204
Si Si7 0.941819 0.439269 0.436608
O O1 0.811883 0.516327 0.522938
O O2 0.830380 0.749401 0.505301
O O3 0.584639 0.122292 0.300343
O O4 0.755840 0.997948 0.777360
O O5 0.531322 0.529126 0.270349
O O6 0.500000 0.000000 0.500000
O O7 0.302554 0.141944 0.180536
O O8 0.454844 0.862789 0.071448
O O9 0.333574 0.618149 0.948556
O O10 0.945744 0.236189 0.894290
O O11 0.952040 0.930877 0.501427
O O12 0.093374 0.986429 0.805318
O O13 0.899088 0.709763 0.162920
O O14 0.867158 0.456806 0.146076
O O15 0.000000 0.500000 0.500000
#
# Coordination Sequence:
#
# PCOD8016013 Si02
#       7
#     2   2   2   2   2   2   2
#     4  11  22  43  68 102 144 180 231 290 356 412
#     4  10  22  43  70 106 143 183 241 294 349 417
#     4  10  22  44  72 102 142 188 237 292 350 422
#     4  11  24  43  66 102 141 185 233 287 355 423
#     4  10  21  43  68  98 136 179 238 287 342 416
#     4  10  22  44  70  99 145 185 225 289 354 419
#     4  12  24  40  66 101 138 183 234 288 347 414
#
# _framework density 24.759447999999999
#
# number of rings (size 3 to 8) (size 9 to 14) (size 15 to 20)
#    0.000    1.429    1.429    4.714    0.000    2.286 
#   10.286    0.714    0.000    0.000    0.000    0.000 
#    0.000    0.000    0.000    0.000    0.000    0.000 
#
# Total GULP energy -173523.350610 kJ/mol
# GULP energy per Si atom -12394.525044 kJ/mol
# Density = 2.470309 g / cm^3
# Si number density = 24.759448 Si / 1000 Ang^3
#
#
#
# Elastic Constant Matrix: (Units=GPa)
#
#
# Indices 1 2 3 4 5 6 
#
# 1 103.5337 37.2072 36.8629 9.5120 -14.9448 -23.1120
# 2 37.2072 110.5316 45.0911 4.2826 10.3328 -10.4973
# 3 36.8629 45.0911 79.9170 17.5639 -10.1176 10.6151
# 4 9.5120 4.2826 17.5639 51.2104 7.0460 -8.2271
# 5 -14.9448 10.3328 -10.1176 7.0460 49.9367 6.8533
# 6 -23.1120 -10.4973 10.6151 -8.2271 6.8533 41.1284
#
#
#
# Elastic Compliance Matrix: (Units=1/GPa)
#
#
# Indices 1 2 3 4 5 6 
#
# 1 0.015292 -0.001153 -0.007883 0.001402 0.001600 0.010347
# 2 -0.001153 0.015475 -0.011509 0.005331 -0.007817 0.008641
# 3 -0.007883 -0.011509 0.029096 -0.012008 0.010217 -0.018981
# 4 0.001402 0.005331 -0.012008 0.026001 -0.008411 0.011850
# 5 0.001600 -0.007817 0.010217 -0.008411 0.026733 -0.009870
# 6 0.010347 0.008641 -0.018981 0.011850 -0.009870 0.041248
#
#
# Mechanical properties :
#
#
# Convention : Reuss Voigt Hill
#
# Bulk Modulus (GPa) = 53.26522 59.14499 56.20511
# Shear Modulus (GPa) = 24.85186 40.10982 32.48084
#
# Velocity S-wave (km/s) = 3.17161 4.02926 3.62589
# Velocity P-wave (km/s) = 5.91371 6.75177 6.34658
#
# Compressibility (1/GPa) = 0.01877398
#
# Stress axis : x y z
#
# Youngs Moduli (GPa) = 65.39489 64.62009 34.36860
#
# Poissons Ratio (x) = 0.07450 0.27093
# Poissons Ratio (y) = 0.07539 0.39554
# Poissons Ratio (z) = 0.51551 0.74369
#
# Static dielectric constant tensor:
#      x y z
#    x 2.024080 -1.045300 2.424320 
#    y -1.045300 4.109060 1.048270 
#    z 2.424320 1.048270 2.224110 
# 
# 
# High freq. dielectric constant tensor:
#      x y z
#    x 1.996930 -0.008490 -0.025920 
#    y -0.008490 1.983560 0.008890 
#    z -0.025920 0.008890 2.004840 
# 
# From -- ./inp_files/352451.got.cif
#   From: 2010.06.25/outbox.cif.g09.slc.cpg/sg2_177_cif.got.tgz:352451.got - 2010.06.27 13:26:56.
