data_PCOD8016519
_publ_section_title
;
Structure prediction by ZEFSAII (Michael W. Deem and Ramdas Pophale) SiO2 
 PCOD8016519
Probable space group: P -1
;
_chemical_formula_sum "Si O2"
_cell_formula_units_Z 16
_cell_length_a 10.207527
_cell_length_b 7.291460
_cell_length_c 13.560884
_cell_angle_alpha 129.729980
_cell_angle_beta 59.512905
_cell_angle_gamma 105.569131
_cell_volume 666.522764
_symmetry_space_group_name_H-M "P -1"
_symmetry_group_IT_number 2
_symmetry_cell_setting 'triclinic'
loop_
_space_group_symop_operation_xyz
x,y,z
-x,-y,-z
loop_
_atom_site_type_symbol
_atom_site_label
_atom_site_fract_x
_atom_site_fract_y
_atom_site_fract_z
Si Si1 0.542822 0.736732 0.859881
Si Si2 0.763705 0.449891 0.822257
Si Si3 0.457824 0.175747 0.489723
Si Si4 0.730964 0.413103 0.193338
Si Si5 0.230166 0.815265 0.708839
Si Si6 0.943810 0.776577 0.005900
Si Si7 0.693930 0.938216 0.687253
Si Si8 0.035030 0.419645 0.569093
O O1 0.626723 0.597797 0.869417
O O2 0.390653 0.601799 0.852257
O O3 0.639752 0.759173 0.730416
O O4 0.500000 0.000000 0.000000
O O5 0.832891 0.614778 0.934161
O O6 0.705334 0.211503 0.813708
O O7 0.882666 0.360140 0.661785
O O8 0.317038 0.356746 0.640430
O O9 0.622481 0.279566 0.444305
O O10 0.500000 0.000000 0.500000
O O11 0.415916 0.045957 0.360679
O O12 0.721495 0.192625 0.196853
O O13 0.905026 0.396099 0.077234
O O14 0.101235 0.636371 0.677513
O O15 0.154841 0.093314 0.819770
O O16 0.000000 0.000000 0.000000
O O17 0.858604 0.824672 0.552278
O O18 0.000000 0.500000 0.500000
#
# Coordination Sequence:
#
# PCOD8016519 Si02
#       8
#     2   2   2   2   2   2   2   2
#     4  12  26  44  71 102 143 190 238 289 356 427
#     4  12  25  45  71 104 143 184 235 293 360 424
#     4  12  25  43  67 102 139 183 239 297 351 421
#     4  11  21  43  72  95 131 182 236 284 349 412
#     4  11  22  43  74  94 132 187 237 283 354 417
#     4  10  21  44  75  95 131 185 234 285 349 418
#     4  12  26  45  70 106 145 182 230 304 358 420
#     4  12  24  42  74 102 139 188 237 289 363 428
#
# _framework density 24.005182000000001
#
# number of rings (size 3 to 8) (size 9 to 14) (size 15 to 20)
#    0.000    0.500    6.250    3.750    1.750    0.500 
#    2.250    0.625    0.000    0.000    0.000    0.000 
#    0.000    0.000    0.000    0.000    0.000    0.000 
#
# Total GULP energy -198304.427391 kJ/mol
# GULP energy per Si atom -12394.026712 kJ/mol
# Density = 2.395055 g / cm^3
# Si number density = 24.005182 Si / 1000 Ang^3
#
#
#
# Elastic Constant Matrix: (Units=GPa)
#
#
# Indices 1 2 3 4 5 6 
#
# 1 150.1671 26.8825 44.8040 18.4255 -6.9068 4.4535
# 2 26.8825 38.8255 6.3922 13.5703 -0.9779 -1.0150
# 3 44.8040 6.3922 136.4864 23.6064 -20.3448 5.6908
# 4 18.4255 13.5703 23.6064 36.3936 7.9795 -0.8313
# 5 -6.9068 -0.9779 -20.3448 7.9795 51.3487 6.8101
# 6 4.4535 -1.0150 5.6908 -0.8313 6.8101 24.3141
#
#
#
# Elastic Compliance Matrix: (Units=1/GPa)
#
#
# Indices 1 2 3 4 5 6 
#
# 1 0.008433 -0.005124 -0.002206 -0.001074 0.000519 -0.001424
# 2 -0.005124 0.033176 0.002608 -0.012066 0.002782 0.000521
# 3 -0.002206 0.002608 0.010255 -0.007802 0.005519 -0.003700
# 4 -0.001074 -0.012066 -0.007802 0.040006 -0.010454 0.005815
# 5 0.000519 0.002782 0.005519 -0.010454 0.024536 -0.008500
# 6 -0.001424 0.000521 -0.003700 0.005815 -0.008500 0.044857
#
#
# Mechanical properties :
#
#
# Convention : Reuss Voigt Hill
#
# Bulk Modulus (GPa) = 23.57383 53.51517 38.54450
# Shear Modulus (GPa) = 27.04958 38.90464 32.97711
#
# Velocity S-wave (km/s) = 3.36046 4.03013 3.71043
# Velocity P-wave (km/s) = 4.98984 6.63306 5.86924
#
# Compressibility (1/GPa) = 0.04241992
#
# Stress axis : x y z
#
# Youngs Moduli (GPa) = 118.58817 30.14245 97.51230
#
# Poissons Ratio (x) = 0.15446 0.21508
# Poissons Ratio (y) = 0.60768 -0.25433
# Poissons Ratio (z) = 0.26157 -0.07862
#
# Static dielectric constant tensor:
#      x y z
#    x 3.308250 -0.223050 0.911160 
#    y -0.223050 4.021000 0.300960 
#    z 0.911160 0.300960 3.418590 
# 
# 
# High freq. dielectric constant tensor:
#      x y z
#    x 1.962550 0.000340 -0.016790 
#    y 0.000340 1.930440 0.000610 
#    z -0.016790 0.000610 1.969810 
# 
# From -- ./inp_files/557645.got.cif
#   From: 2010.06.25/outbox.cif.g09.slc.cpg/sg2_279_cif.got.tgz:557645.got - 2010.06.27 13:26:56.
