data_PCOD8016229
_publ_section_title
;
Structure prediction by ZEFSAII (Michael W. Deem and Ramdas Pophale) SiO2 
 PCOD8016229
Probable space group: P -1
;
_chemical_formula_sum "Si O2"
_cell_formula_units_Z 16
_cell_length_a 6.481452
_cell_length_b 10.893503
_cell_length_c 12.463798
_cell_angle_alpha 91.056453
_cell_angle_beta 77.971630
_cell_angle_gamma 120.918403
_cell_volume 734.257715
_symmetry_space_group_name_H-M "P -1"
_symmetry_group_IT_number 2
_symmetry_cell_setting 'triclinic'
loop_
_space_group_symop_operation_xyz
x,y,z
-x,-y,-z
loop_
_atom_site_type_symbol
_atom_site_label
_atom_site_fract_x
_atom_site_fract_y
_atom_site_fract_z
Si Si1 0.160823 0.662315 0.368969
Si Si2 0.157797 0.163633 0.366998
Si Si3 0.295379 0.455155 0.433114
Si Si4 0.027683 0.613903 0.144757
Si Si5 0.204234 0.907271 0.027518
Si Si6 0.907958 0.871459 0.864195
Si Si7 0.401755 0.590327 0.959284
Si Si8 0.705103 0.044862 0.567565
O O1 0.339967 0.597483 0.366446
O O2 0.015788 0.595952 0.273310
O O3 0.309029 0.837716 0.352588
O O4 0.974551 0.616258 0.487224
O O5 0.310641 0.338878 0.353157
O O6 0.012574 0.110578 0.268600
O O7 0.971219 0.115187 0.485051
O O8 0.330621 0.093690 0.363432
O O9 0.500000 0.500000 0.500000
O O10 0.081020 0.769394 0.113145
O O11 0.766573 0.487089 0.126982
O O12 0.252410 0.606930 0.071213
O O13 0.079913 0.988107 0.092245
O O14 0.104784 0.854873 0.915047
O O15 0.500000 0.000000 0.000000
O O16 0.625803 0.742448 0.900210
O O17 0.500000 0.500000 0.000000
O O18 0.500000 0.000000 0.500000
#
# Coordination Sequence:
#
# PCOD8016229 Si02
#       8
#     2   2   2   2   2   2   2   2
#     4  10  23  39  62  92 123 159 208 252 312 369
#     4  10  23  38  65  92 121 161 210 249 312 372
#     4  10  22  41  60  93 123 155 203 259 305 372
#     4  11  24  41  65  91 129 170 210 258 316 373
#     4  11  23  44  62  92 130 163 212 261 308 374
#     4  11  24  41  65  94 128 167 209 261 315 373
#     4  11  24  42  60  94 131 165 211 260 307 380
#     4  10  21  44  61  92 125 161 208 259 304 378
#
# _framework density 21.790714000000001
#
# number of rings (size 3 to 8) (size 9 to 14) (size 15 to 20)
#    0.000    1.500    2.500    1.500    3.500    2.000 
#    0.000    0.000    0.000    0.000    0.000    0.000 
#    0.000    0.000    0.000    0.000    0.000    0.000 
#
# Total GULP energy -198346.884803 kJ/mol
# GULP energy per Si atom -12396.680300 kJ/mol
# Density = 2.174112 g / cm^3
# Si number density = 21.790714 Si / 1000 Ang^3
#
#
#
# Elastic Constant Matrix: (Units=GPa)
#
#
# Indices 1 2 3 4 5 6 
#
# 1 88.2133 52.5223 26.2028 0.6871 27.7255 -16.5945
# 2 52.5223 129.0190 31.9599 16.6125 10.8537 -30.9096
# 3 26.2028 31.9599 105.6642 23.3761 29.5611 -14.0690
# 4 0.6871 16.6125 23.3761 29.3660 1.9803 4.9928
# 5 27.7255 10.8537 29.5611 1.9803 32.1239 -4.9777
# 6 -16.5945 -30.9096 -14.0690 4.9928 -4.9777 46.2233
#
#
#
# Elastic Compliance Matrix: (Units=1/GPa)
#
#
# Indices 1 2 3 4 5 6 
#
# 1 0.020934 -0.007836 0.000862 0.004314 -0.016432 0.000302
# 2 -0.007836 0.013632 -0.000424 -0.008767 0.004262 0.007579
# 3 0.000862 -0.000424 0.017118 -0.013276 -0.014747 0.005082
# 4 0.004314 -0.008767 -0.013276 0.051307 0.006244 -0.013224
# 5 -0.016432 0.004262 -0.014747 0.006244 0.056732 -0.002103
# 6 0.000302 0.007579 0.005082 -0.013224 -0.002103 0.029560
#
#
# Mechanical properties :
#
#
# Convention : Reuss Voigt Hill
#
# Bulk Modulus (GPa) = 27.10894 60.47406 43.79150
# Shear Modulus (GPa) = 23.10817 35.69008 29.39912
#
# Velocity S-wave (km/s) = 3.26000 4.05144 3.67707
# Velocity P-wave (km/s) = 5.16118 7.04968 6.17801
#
# Compressibility (1/GPa) = 0.03688820
#
# Stress axis : x y z
#
# Youngs Moduli (GPa) = 47.77007 73.35753 58.41833
#
# Poissons Ratio (x) = 0.57483 -0.05036
# Poissons Ratio (y) = 0.37433 0.02475
# Poissons Ratio (z) = -0.04118 0.03108
#
# Static dielectric constant tensor:
#      x y z
#    x 3.893000 -0.513430 0.158190 
#    y -0.513430 4.215390 0.183090 
#    z 0.158190 0.183090 3.813700 
# 
# 
# High freq. dielectric constant tensor:
#      x y z
#    x 1.856410 -0.020170 0.016290 
#    y -0.020170 1.868900 0.013690 
#    z 0.016290 0.013690 1.847930 
# 
# From -- ./inp_files/313435.got.cif
#   From: 2010.06.25/outbox.cif.g09.slc.cpg/sg2_157_cif.got.tgz:313435.got - 2010.06.27 13:26:56.
