data_PCOD8016115
_publ_section_title
;
Structure prediction by ZEFSAII (Michael W. Deem and Ramdas Pophale) SiO2 
 PCOD8016115
Probable space group: P -1
;
_chemical_formula_sum "Si O2"
_cell_formula_units_Z 16
_cell_length_a 9.181649
_cell_length_b 18.499487
_cell_length_c 14.877996
_cell_angle_alpha 140.657180
_cell_angle_beta 28.265190
_cell_angle_gamma 140.413142
_cell_volume 724.170889
_symmetry_space_group_name_H-M "P -1"
_symmetry_group_IT_number 2
_symmetry_cell_setting 'triclinic'
loop_
_space_group_symop_operation_xyz
x,y,z
-x,-y,-z
loop_
_atom_site_type_symbol
_atom_site_label
_atom_site_fract_x
_atom_site_fract_y
_atom_site_fract_z
Si Si1 0.682633 0.319201 0.747475
Si Si2 0.877577 0.699701 0.092580
Si Si3 0.730286 0.039175 0.830152
Si Si4 0.629820 0.335921 0.992824
Si Si5 0.645047 0.582983 0.286830
Si Si6 0.358460 0.072961 0.899842
Si Si7 0.232067 0.546308 0.641158
Si Si8 0.267137 0.921387 0.476642
O O1 0.351924 0.268665 0.824821
O O2 0.558362 0.352298 0.943047
O O3 0.861217 0.215783 0.551521
O O4 0.918773 0.435510 0.684417
O O5 0.637787 0.624951 0.228252
O O6 0.098043 0.820401 0.132669
O O7 0.119552 0.635319 0.853774
O O8 0.515352 0.005386 0.823673
O O9 0.981215 0.966113 0.637586
O O10 0.500000 0.000000 0.000000
O O11 0.403456 0.210814 0.037169
O O12 0.006782 0.344051 0.794641
O O13 0.579471 0.439780 0.183430
O O14 0.377932 0.606443 0.523457
O O15 0.526434 0.082312 0.724137
O O16 0.000000 0.000000 0.000000
O O17 0.500000 0.500000 0.500000
O O18 0.500000 0.000000 0.500000
#
# Coordination Sequence:
#
# PCOD8016115 Si02
#       8
#     2   2   2   2   2   2   2   2
#     4  11  24  45  70  99 145 185 229 300 356 425
#     4  12  26  48  68 104 152 179 233 303 357 420
#     4  12  27  46  72 101 144 193 239 300 360 431
#     4  10  21  43  70  97 148 179 228 298 356 413
#     4  11  22  43  72 105 136 191 232 285 363 422
#     4  11  25  44  73 107 141 188 243 295 358 438
#     4  12  25  42  75 107 134 190 239 285 357 436
#     4  11  24  48  72 102 140 188 240 296 363 417
#
# _framework density 22.094232999999999
#
# number of rings (size 3 to 8) (size 9 to 14) (size 15 to 20)
#    0.000    0.750    5.000    2.250    3.500    1.500 
#    2.250    0.000    0.000    0.000    0.000    0.000 
#    0.000    0.000    0.000    0.000    0.000    0.000 
#
# Total GULP energy -198310.111683 kJ/mol
# GULP energy per Si atom -12394.381980 kJ/mol
# Density = 2.204395 g / cm^3
# Si number density = 22.094233 Si / 1000 Ang^3
#
#
#
# Elastic Constant Matrix: (Units=GPa)
#
#
# Indices 1 2 3 4 5 6 
#
# 1 129.9843 30.4982 16.8958 4.2277 -13.7606 5.9071
# 2 30.4982 99.6969 40.8040 2.3204 -12.3060 1.9572
# 3 16.8958 40.8040 84.0698 10.4962 -6.9759 -8.6176
# 4 4.2277 2.3204 10.4962 30.3313 -3.1854 2.3259
# 5 -13.7606 -12.3060 -6.9759 -3.1854 39.5445 -8.4977
# 6 5.9071 1.9572 -8.6176 2.3259 -8.4977 36.1882
#
#
#
# Elastic Compliance Matrix: (Units=1/GPa)
#
#
# Indices 1 2 3 4 5 6 
#
# 1 0.008528 -0.002109 -0.000550 -0.000560 0.001974 -0.000909
# 2 -0.002109 0.013527 -0.006339 0.001797 0.002180 -0.001500
# 3 -0.000550 -0.006339 0.016375 -0.005344 0.001368 0.004997
# 4 -0.000560 0.001797 -0.005344 0.035168 0.001573 -0.003169
# 5 0.001974 0.002180 0.001368 0.001573 0.028408 0.006455
# 6 -0.000909 -0.001500 0.004997 -0.003169 0.006455 0.030772
#
#
# Mechanical properties :
#
#
# Convention : Reuss Voigt Hill
#
# Bulk Modulus (GPa) = 48.93731 54.46078 51.69904
# Shear Modulus (GPa) = 31.72905 36.24967 33.98936
#
# Velocity S-wave (km/s) = 3.79367 4.05493 3.92648
# Velocity P-wave (km/s) = 6.43325 6.82833 6.63373
#
# Compressibility (1/GPa) = 0.02043431
#
# Stress axis : x y z
#
# Youngs Moduli (GPa) = 117.25965 73.92839 61.06948
#
# Poissons Ratio (x) = 0.15594 0.03357
# Poissons Ratio (y) = 0.24734 0.38709
# Poissons Ratio (z) = 0.06445 0.46860
#
# Static dielectric constant tensor:
#      x y z
#    x 4.153660 0.017120 0.191280 
#    y 0.017120 3.925440 -0.087920 
#    z 0.191280 -0.087920 3.790460 
# 
# 
# High freq. dielectric constant tensor:
#      x y z
#    x 1.886750 0.003120 0.009140 
#    y 0.003120 1.877740 0.000310 
#    z 0.009140 0.000310 1.853520 
# 
# From -- ./inp_files/507296.got.cif
#   From: 2010.06.25/outbox.cif.g09.slc.cpg/sg2_254_cif.got.tgz:507296.got - 2010.06.27 13:26:56.
