data_PCOD8016592
_publ_section_title
;
Structure prediction by ZEFSAII (Michael W. Deem and Ramdas Pophale) SiO2 
 PCOD8016592
Probable space group: P -1
;
_chemical_formula_sum "Si O2"
_cell_formula_units_Z 14
_cell_length_a 18.207233
_cell_length_b 5.402947
_cell_length_c 23.607175
_cell_angle_alpha 117.143201
_cell_angle_beta 163.167649
_cell_angle_gamma 68.643198
_cell_volume 574.243581
_symmetry_space_group_name_H-M "P -1"
_symmetry_group_IT_number 2
_symmetry_cell_setting 'triclinic'
loop_
_space_group_symop_operation_xyz
x,y,z
-x,-y,-z
loop_
_atom_site_type_symbol
_atom_site_label
_atom_site_fract_x
_atom_site_fract_y
_atom_site_fract_z
Si Si1 0.665740 0.414731 0.683118
Si Si2 0.889521 0.199085 0.611785
Si Si3 0.254883 0.220621 0.787068
Si Si4 0.885694 0.608442 0.747394
Si Si5 0.124292 0.200794 0.027462
Si Si6 0.403968 0.455583 0.651442
Si Si7 0.185495 0.698794 0.613031
O O1 0.743951 0.422938 0.676431
O O2 0.350339 0.283652 0.445651
O O3 0.750292 0.732121 0.809938
O O4 0.821029 0.214260 0.808452
O O5 0.997950 0.407378 0.767369
O O6 0.735738 0.368340 0.475751
O O7 0.142044 0.143202 0.759454
O O8 0.709917 0.892155 0.471057
O O9 0.003176 0.238560 0.567720
O O10 0.356382 0.973746 0.804430
O O11 0.500000 0.500000 0.000000
O O12 0.125421 0.882998 0.972766
O O13 0.288611 0.445411 0.129721
O O14 0.384033 0.551103 0.712234
O O15 0.000000 0.500000 0.500000
#
# Coordination Sequence:
#
# PCOD8016592 Si02
#       7
#     2   2   2   2   2   2   2
#     4  10  24  44  66  97 138 172 236 281 345 404
#     4  11  25  46  68 104 145 177 224 291 342 396
#     4  10  23  43  70 100 137 181 230 276 336 409
#     4  11  24  42  69  98 136 179 228 285 346 401
#     4  11  24  42  70  99 131 183 232 276 346 411
#     4  11  25  45  71 100 146 179 227 284 343 404
#     4  10  21  45  68  96 138 184 220 278 339 397
#
# _framework density 24.379898000000001
#
# number of rings (size 3 to 8) (size 9 to 14) (size 15 to 20)
#    0.000    1.429    2.857    0.857    6.000    5.143 
#    2.571    0.000    0.000    0.000    0.000    0.000 
#    0.000    0.000    0.000    0.000    0.000    0.000 
#
# Total GULP energy -173492.521161 kJ/mol
# GULP energy per Si atom -12392.322940 kJ/mol
# Density = 2.432441 g / cm^3
# Si number density = 24.379898 Si / 1000 Ang^3
#
#
#
# Elastic Constant Matrix: (Units=GPa)
#
#
# Indices 1 2 3 4 5 6 
#
# 1 148.2111 35.2085 19.9101 18.6713 -15.2230 -39.2527
# 2 35.2085 86.4866 23.3974 37.3793 -12.8805 -10.9254
# 3 19.9101 23.3974 83.9450 32.4643 -13.5096 -18.9424
# 4 18.6713 37.3793 32.4643 45.5070 -9.9264 -10.0738
# 5 -15.2230 -12.8805 -13.5096 -9.9264 33.9962 14.3403
# 6 -39.2527 -10.9254 -18.9424 -10.0738 14.3403 45.4340
#
#
#
# Elastic Compliance Matrix: (Units=1/GPa)
#
#
# Indices 1 2 3 4 5 6 
#
# 1 0.009407 -0.002974 0.000280 0.000058 0.000038 0.007530
# 2 -0.002974 0.019215 0.001325 -0.015281 0.002704 -0.001638
# 3 0.000280 0.001325 0.017587 -0.012290 0.002132 0.004496
# 4 0.000058 -0.015281 -0.012290 0.043778 0.001997 0.000328
# 5 0.000038 0.002704 0.002132 0.001997 0.035804 -0.009286
# 6 0.007530 -0.001638 0.004496 0.000328 -0.009286 0.033000
#
#
# Mechanical properties :
#
#
# Convention : Reuss Voigt Hill
#
# Bulk Modulus (GPa) = 23.00329 52.85274 37.92801
# Shear Modulus (GPa) = 28.40640 40.99588 34.70114
#
# Velocity S-wave (km/s) = 3.41714 4.10511 3.77682
# Velocity P-wave (km/s) = 5.00250 6.64794 5.88303
#
# Compressibility (1/GPa) = 0.04347204
#
# Stress axis : x y z
#
# Youngs Moduli (GPa) = 106.30835 52.04340 56.85995
#
# Poissons Ratio (x) = 0.15475 -0.01595
# Poissons Ratio (y) = 0.31611 -0.07533
# Poissons Ratio (z) = -0.02982 -0.06895
#
# Static dielectric constant tensor:
#      x y z
#    x 6.134440 -2.137190 -0.476510 
#    y -2.137190 6.612860 0.554230 
#    z -0.476510 0.554230 4.471530 
# 
# 
# High freq. dielectric constant tensor:
#      x y z
#    x 1.989450 -0.019900 -0.009650 
#    y -0.019900 1.952880 0.012300 
#    z -0.009650 0.012300 1.956200 
# 
# From -- ./inp_files/47236.got.cif
#   From: 2010.06.25/outbox.cif.g09.slc.cpg/sg2_24_cif.got.tgz:47236.got - 2010.06.27 13:26:56.
