data_PCOD8016473
_publ_section_title
;
Structure prediction by ZEFSAII (Michael W. Deem and Ramdas Pophale) SiO2 
 PCOD8016473
Probable space group: P -1
;
_chemical_formula_sum "Si O2"
_cell_formula_units_Z 14
_cell_length_a 16.564107
_cell_length_b 8.229977
_cell_length_c 6.668263
_cell_angle_alpha 118.565395
_cell_angle_beta 130.372982
_cell_angle_gamma 62.354858
_cell_volume 591.853977
_symmetry_space_group_name_H-M "P -1"
_symmetry_group_IT_number 2
_symmetry_cell_setting 'triclinic'
loop_
_space_group_symop_operation_xyz
x,y,z
-x,-y,-z
loop_
_atom_site_type_symbol
_atom_site_label
_atom_site_fract_x
_atom_site_fract_y
_atom_site_fract_z
Si Si1 0.864009 0.930985 0.342338
Si Si2 0.099785 0.363927 0.472300
Si Si3 0.331826 0.053357 0.203356
Si Si4 0.483495 0.808522 0.607858
Si Si5 0.776646 0.523484 0.586453
Si Si6 0.562044 0.432929 0.265824
Si Si7 0.023271 0.766313 0.154701
O O1 0.827859 0.778395 0.337751
O O2 0.958340 0.808222 0.282417
O O3 0.906793 0.073564 0.643689
O O4 0.757982 0.036944 0.106996
O O5 0.185206 0.477204 0.585099
O O6 0.000000 0.500000 0.500000
O O7 0.057031 0.234080 0.159672
O O8 0.429121 0.060834 0.206007
O O9 0.273653 0.263186 0.302153
O O10 0.373793 0.920272 0.384395
O O11 0.530453 0.606636 0.466536
O O12 0.461987 0.757916 0.777863
O O13 0.690913 0.392152 0.400756
O O14 0.890350 0.438583 0.834227
O O15 0.500000 0.500000 0.000000
#
# Coordination Sequence:
#
# PCOD8016473 Si02
#       7
#     2   2   2   2   2   2   2
#     4  11  24  41  68  97 136 178 220 287 341 404
#     4  12  23  42  68  96 135 182 226 279 332 401
#     4  10  21  44  71  98 135 177 223 282 342 404
#     4   9  22  45  67  98 136 170 222 285 339 405
#     4  11  23  42  66  97 131 177 225 273 338 405
#     4  10  23  43  67  99 132 173 222 281 342 409
#     4  11  24  45  61  99 138 171 232 278 336 412
#
# _framework density 23.654482000000002
#
# number of rings (size 3 to 8) (size 9 to 14) (size 15 to 20)
#    0.000    1.429    2.857    1.714    4.000    1.143 
#    7.714    2.143    0.000    0.000    0.000    0.000 
#    0.000    0.000    0.000    0.000    0.000    0.000 
#
# Total GULP energy -173465.170238 kJ/mol
# GULP energy per Si atom -12390.369303 kJ/mol
# Density = 2.360064 g / cm^3
# Si number density = 23.654482 Si / 1000 Ang^3
#
#
#
# Elastic Constant Matrix: (Units=GPa)
#
#
# Indices 1 2 3 4 5 6 
#
# 1 133.1283 46.2584 38.6066 -16.1426 3.0182 17.3511
# 2 46.2584 92.6564 24.0914 -29.5128 -8.5498 6.8187
# 3 38.6066 24.0914 76.0865 -20.2599 -1.9992 2.3437
# 4 -16.1426 -29.5128 -20.2599 47.5238 -6.5653 -10.1679
# 5 3.0182 -8.5498 -1.9992 -6.5653 32.0028 -9.2238
# 6 17.3511 6.8187 2.3437 -10.1679 -9.2238 42.2021
#
#
#
# Elastic Compliance Matrix: (Units=1/GPa)
#
#
# Indices 1 2 3 4 5 6 
#
# 1 0.011251 -0.005570 -0.004869 -0.003592 -0.005161 -0.005449
# 2 -0.005570 0.017566 0.000362 0.011239 0.008712 0.004044
# 3 -0.004869 0.000362 0.017463 0.007385 0.004221 0.003675
# 4 -0.003592 0.011239 0.007385 0.034103 0.013822 0.010488
# 5 -0.005161 0.008712 0.004221 0.013822 0.040831 0.012734
# 6 -0.005449 0.004044 0.003675 0.010488 0.012734 0.030388
#
#
# Mechanical properties :
#
#
# Convention : Reuss Voigt Hill
#
# Bulk Modulus (GPa) = 38.27901 57.75379 48.01640
# Shear Modulus (GPa) = 27.70613 37.20675 32.45644
#
# Velocity S-wave (km/s) = 3.42612 3.97032 3.70821
# Velocity P-wave (km/s) = 5.64524 6.74436 6.21913
#
# Compressibility (1/GPa) = 0.02612397
#
# Stress axis : x y z
#
# Youngs Moduli (GPa) = 88.88382 56.92921 57.26333
#
# Poissons Ratio (x) = 0.31711 0.27882
# Poissons Ratio (y) = 0.49510 -0.02071
# Poissons Ratio (z) = 0.43279 -0.02058
#
# Static dielectric constant tensor:
#      x y z
#    x 5.141580 0.292840 -0.037980 
#    y 0.292840 4.361450 -0.149800 
#    z -0.037980 -0.149800 4.173970 
# 
# 
# High freq. dielectric constant tensor:
#      x y z
#    x 1.945700 -0.002070 0.001210 
#    y -0.002070 1.943190 -0.006670 
#    z 0.001210 -0.006670 1.919630 
# 
# From -- ./inp_files/31618.got.cif
#   From: 2010.06.25/outbox.cif.g09.slc.cpg/sg2_16_cif.got.tgz:31618.got - 2010.06.27 13:26:56.
