data_PCOD8016364
_publ_section_title
;
Structure prediction by ZEFSAII (Michael W. Deem and Ramdas Pophale) SiO2 
 PCOD8016364
Probable space group: P -1
;
_chemical_formula_sum "Si O2"
_cell_formula_units_Z 16
_cell_length_a 7.729241
_cell_length_b 19.593014
_cell_length_c 8.373626
_cell_angle_alpha 40.990499
_cell_angle_beta 125.673562
_cell_angle_gamma 115.318030
_cell_volume 675.516562
_symmetry_space_group_name_H-M "P -1"
_symmetry_group_IT_number 2
_symmetry_cell_setting 'triclinic'
loop_
_space_group_symop_operation_xyz
x,y,z
-x,-y,-z
loop_
_atom_site_type_symbol
_atom_site_label
_atom_site_fract_x
_atom_site_fract_y
_atom_site_fract_z
Si Si1 0.083097 0.871903 0.632766
Si Si2 0.378610 0.586874 0.376017
Si Si3 0.427820 0.434382 0.930277
Si Si4 0.175846 0.680843 0.827213
Si Si5 0.780254 0.721528 0.333462
Si Si6 0.188031 0.054391 0.913059
Si Si7 0.421879 0.034372 0.569812
Si Si8 0.813125 0.753143 0.930221
O O1 0.197082 0.803981 0.669850
O O2 0.871478 0.924109 0.342634
O O3 0.023256 0.797114 0.881014
O O4 0.218766 0.963150 0.620371
O O5 0.500000 0.500000 0.500000
O O6 0.311009 0.528046 0.603043
O O7 0.548161 0.678852 0.326876
O O8 0.169718 0.624138 0.097896
O O9 0.500000 0.500000 0.000000
O O10 0.620777 0.368125 0.067788
O O11 0.261335 0.345333 0.041474
O O12 0.961357 0.663156 0.642292
O O13 0.760479 0.841902 0.147745
O O14 0.850626 0.710033 0.206328
O O15 0.400550 0.982468 0.167232
O O16 0.000000 0.000000 0.000000
O O17 0.365605 0.155991 0.325350
O O18 0.500000 0.000000 0.500000
#
# Coordination Sequence:
#
# PCOD8016364 Si02
#       8
#     2   2   2   2   2   2   2   2
#     4  11  25  44  67 108 142 173 227 281 340 416
#     4  10  21  44  68  96 133 176 232 280 335 402
#     4  11  26  46  69  99 137 181 234 290 340 399
#     4  10  23  44  74  95 134 183 224 275 350 400
#     4  11  22  41  71 102 135 177 228 276 337 415
#     4  11  23  40  71 104 132 181 229 268 337 423
#     4  12  22  43  75  95 139 185 219 273 351 400
#     4  12  25  45  65 106 144 174 232 291 334 408
#
# _framework density 23.685576000000001
#
# number of rings (size 3 to 8) (size 9 to 14) (size 15 to 20)
#    0.000    1.000    5.000    1.875    5.250    3.500 
#    2.250    1.250    0.000    0.000    0.000    0.000 
#    0.000    0.000    0.000    0.000    0.000    0.000 
#
# Total GULP energy -198256.512565 kJ/mol
# GULP energy per Si atom -12391.032035 kJ/mol
# Density = 2.363167 g / cm^3
# Si number density = 23.685576 Si / 1000 Ang^3
#
#
#
# Elastic Constant Matrix: (Units=GPa)
#
#
# Indices 1 2 3 4 5 6 
#
# 1 60.6109 24.5438 34.5350 -0.1376 -9.3214 19.8436
# 2 24.5438 152.5347 64.2565 -10.3754 -10.7561 21.5733
# 3 34.5350 64.2565 171.3014 18.0606 0.5177 11.9264
# 4 -0.1376 -10.3754 18.0606 40.8985 8.9997 -3.6209
# 5 -9.3214 -10.7561 0.5177 8.9997 38.7116 -5.8994
# 6 19.8436 21.5733 11.9264 -3.6209 -5.8994 34.7969
#
#
#
# Elastic Compliance Matrix: (Units=1/GPa)
#
#
# Indices 1 2 3 4 5 6 
#
# 1 0.022938 -0.000302 -0.003741 -0.000168 0.003856 -0.010975
# 2 -0.000302 0.008812 -0.003325 0.003131 0.001139 -0.003633
# 3 -0.003741 -0.003325 0.008234 -0.004240 -0.000829 0.000791
# 4 -0.000168 0.003131 -0.004240 0.028468 -0.005482 0.001641
# 5 0.003856 0.001139 -0.000829 -0.005482 0.028615 0.001660
# 6 -0.010975 -0.003633 0.000791 0.001641 0.001660 0.037430
#
#
# Mechanical properties :
#
#
# Convention : Reuss Voigt Hill
#
# Bulk Modulus (GPa) = 39.60812 70.12418 54.86615
# Shear Modulus (GPa) = 31.71568 40.28885 36.00226
#
# Velocity S-wave (km/s) = 3.66324 4.12878 3.90296
# Velocity P-wave (km/s) = 5.88653 7.23876 6.59738
#
# Compressibility (1/GPa) = 0.02524735
#
# Stress axis : x y z
#
# Youngs Moduli (GPa) = 43.59504 113.47745 121.45383
#
# Poissons Ratio (x) = 0.03431 0.45435
# Poissons Ratio (y) = 0.01318 0.40386
# Poissons Ratio (z) = 0.16309 0.37734
#
# Static dielectric constant tensor:
#      x y z
#    x 3.387310 1.031010 -0.148790 
#    y 1.031010 2.088510 0.798640 
#    z -0.148790 0.798640 3.880600 
# 
# 
# High freq. dielectric constant tensor:
#      x y z
#    x 1.913690 -0.000650 -0.000780 
#    y -0.000650 1.946420 -0.007420 
#    z -0.000780 -0.007420 1.957590 
# 
# From -- ./inp_files/221735.got.cif
#   From: 2010.06.25/outbox.cif.g09.slc.cpg/sg2_111_cif.got.tgz:221735.got - 2010.06.27 13:26:56.
