data_PCOD8016945
_publ_section_title
;
Structure prediction by ZEFSAII (Michael W. Deem and Ramdas Pophale) SiO2 
 PCOD8016945
Probable space group: P -1
;
_chemical_formula_sum "Si O2"
_cell_formula_units_Z 16
_cell_length_a 15.719899
_cell_length_b 8.934130
_cell_length_c 12.697024
_cell_angle_alpha 42.878361
_cell_angle_beta 43.499629
_cell_angle_gamma 39.833813
_cell_volume 721.096132
_symmetry_space_group_name_H-M "P -1"
_symmetry_group_IT_number 2
_symmetry_cell_setting 'triclinic'
loop_
_space_group_symop_operation_xyz
x,y,z
-x,-y,-z
loop_
_atom_site_type_symbol
_atom_site_label
_atom_site_fract_x
_atom_site_fract_y
_atom_site_fract_z
Si Si1 0.206490 0.284329 0.684425
Si Si2 0.955050 0.785852 0.738953
Si Si3 0.810898 0.066352 0.526732
Si Si4 0.358826 0.471968 0.138018
Si Si5 0.428451 0.450230 0.426620
Si Si6 0.699662 0.925066 0.507569
Si Si7 0.497625 0.788561 0.041150
Si Si8 0.759643 0.991431 0.990906
O O1 0.050864 0.518081 0.732812
O O2 0.324582 0.363148 0.513960
O O3 0.205132 0.146074 0.648375
O O4 0.253931 0.094893 0.836877
O O5 0.821345 0.950068 0.694810
O O6 0.890316 0.773315 0.916861
O O7 0.045356 0.920755 0.617717
O O8 0.803712 0.897861 0.525160
O O9 0.665992 0.342131 0.506149
O O10 0.358783 0.269999 0.323929
O O11 0.226896 0.754065 0.139083
O O12 0.500000 0.500000 0.000000
O O13 0.353064 0.377637 0.072369
O O14 0.470026 0.587813 0.229939
O O15 0.568101 0.212985 0.472215
O O16 0.383081 0.947601 0.972538
O O17 0.500000 0.000000 0.000000
#
# Coordination Sequence:
#
# PCOD8016945 Si02
#       8
#     2   2   2   2   2   2   2   2
#     4  11  24  41  67  95 126 171 214 263 317 387
#     4  10  23  44  67  89 127 172 218 258 325 377
#     4  10  23  41  67  95 124 169 215 268 315 381
#     4  10  22  37  60  93 130 168 203 258 323 379
#     4  11  21  41  66  95 132 166 208 263 327 381
#     4  12  24  40  66 101 128 165 216 269 320 375
#     4  11  22  38  64  96 130 167 211 263 318 385
#     4  11  22  44  63  89 129 172 213 257 327 378
#
# _framework density 22.188441999999998
#
# number of rings (size 3 to 8) (size 9 to 14) (size 15 to 20)
#    0.000    1.250    1.250    5.625    3.500    2.500 
#    0.000    0.625    0.000    0.000    0.000    0.000 
#    0.000    0.000    0.000    0.000    0.000    0.000 
#
# Total GULP energy -198266.395181 kJ/mol
# GULP energy per Si atom -12391.649699 kJ/mol
# Density = 2.213794 g / cm^3
# Si number density = 22.188442 Si / 1000 Ang^3
#
#
#
# Elastic Constant Matrix: (Units=GPa)
#
#
# Indices 1 2 3 4 5 6 
#
# 1 106.0819 64.7061 50.9514 6.1934 23.1288 21.4431
# 2 64.7061 140.6272 53.4195 3.3739 10.9892 15.5099
# 3 50.9514 53.4195 134.9100 -4.3595 25.2643 9.3094
# 4 6.1934 3.3739 -4.3595 42.2965 5.0725 10.9687
# 5 23.1288 10.9892 25.2643 5.0725 20.8103 10.1893
# 6 21.4431 15.5099 9.3094 10.9687 10.1893 29.9966
#
#
#
# Elastic Compliance Matrix: (Units=1/GPa)
#
#
# Indices 1 2 3 4 5 6 
#
# 1 0.017397 -0.005911 -0.001643 0.000479 -0.011883 -0.005008
# 2 -0.005911 0.010761 -0.002945 -0.000404 0.005634 -0.002190
# 3 -0.001643 -0.002945 0.011409 0.002497 -0.012256 0.002407
# 4 0.000479 -0.000404 0.002497 0.026818 -0.005567 -0.008824
# 5 -0.011883 0.005634 -0.012256 -0.005567 0.082681 -0.016664
# 6 -0.005008 -0.002190 0.002407 -0.008824 -0.016664 0.046190
#
#
# Mechanical properties :
#
#
# Convention : Reuss Voigt Hill
#
# Bulk Modulus (GPa) = 53.85887 79.97479 66.91683
# Shear Modulus (GPa) = 22.47763 32.79015 27.63389
#
# Velocity S-wave (km/s) = 3.18627 3.84839 3.53288
# Velocity P-wave (km/s) = 6.15325 7.47452 6.84584
#
# Compressibility (1/GPa) = 0.01856704
#
# Stress axis : x y z
#
# Youngs Moduli (GPa) = 57.48236 92.93126 87.64934
#
# Poissons Ratio (x) = 0.54931 0.14404
# Poissons Ratio (y) = 0.33977 0.25816
# Poissons Ratio (z) = 0.09446 0.27372
#
# Static dielectric constant tensor:
#      x y z
#    x 3.887250 0.454930 0.236020 
#    y 0.454930 4.570500 0.204150 
#    z 0.236020 0.204150 4.075310 
# 
# 
# High freq. dielectric constant tensor:
#      x y z
#    x 1.849940 0.021120 0.016680 
#    y 0.021120 1.886280 0.007560 
#    z 0.016680 0.007560 1.874510 
# 
# From -- ./inp_files/446772.got.cif
#   From: 2010.06.25/outbox.cif.g09.slc.cpg/sg2_224_cif.got.tgz:446772.got - 2010.06.27 13:26:56.
