data_PCOD8016366
_publ_section_title
;
Structure prediction by ZEFSAII (Michael W. Deem and Ramdas Pophale) SiO2 
 PCOD8016366
Probable space group: P -1
;
_chemical_formula_sum "Si O2"
_cell_formula_units_Z 16
_cell_length_a 13.517427
_cell_length_b 11.280018
_cell_length_c 13.979054
_cell_angle_alpha 149.345884
_cell_angle_beta 128.572050
_cell_angle_gamma 39.000109
_cell_volume 677.138077
_symmetry_space_group_name_H-M "P -1"
_symmetry_group_IT_number 2
_symmetry_cell_setting 'triclinic'
loop_
_space_group_symop_operation_xyz
x,y,z
-x,-y,-z
loop_
_atom_site_type_symbol
_atom_site_label
_atom_site_fract_x
_atom_site_fract_y
_atom_site_fract_z
Si Si1 0.047086 0.192360 0.842273
Si Si2 0.537380 0.679689 0.084215
Si Si3 0.079810 0.741472 0.793888
Si Si4 0.490911 0.272401 0.223611
Si Si5 0.310523 0.811022 0.880350
Si Si6 0.730143 0.844235 0.395095
Si Si7 0.813094 0.145119 0.775095
Si Si8 0.740406 0.130351 0.423623
O O1 0.896602 0.203379 0.783843
O O2 0.161528 0.099369 0.939001
O O3 0.124855 0.973252 0.646240
O O4 0.000000 0.500000 0.000000
O O5 0.567178 0.878594 0.303312
O O6 0.500000 0.500000 0.000000
O O7 0.396698 0.875842 0.058296
O O8 0.710935 0.440543 0.978616
O O9 0.242642 0.656201 0.783688
O O10 0.125091 0.461073 0.683832
O O11 0.944287 0.852057 0.709599
O O12 0.000000 0.000000 0.000000
O O13 0.559772 0.373854 0.254132
O O14 0.592993 0.167348 0.308496
O O15 0.315818 0.563170 0.347942
O O16 0.500000 0.000000 0.000000
O O17 0.691558 0.094408 0.620083
O O18 0.798322 0.881415 0.364687
#
# Coordination Sequence:
#
# PCOD8016366 Si02
#       8
#     2   2   2   2   2   2   2   2
#     4  10  23  45  74 105 145 188 235 299 351 428
#     4  12  23  44  67 100 141 186 236 288 351 423
#     4  11  22  46  68  96 140 192 234 289 352 423
#     4  10  21  44  68  96 141 179 225 290 348 419
#     4  10  22  41  71  99 134 188 238 281 361 417
#     4  12  24  41  71 102 140 176 237 297 340 426
#     4  11  25  44  69 100 140 185 240 286 361 411
#     4  10  23  41  67 104 132 179 233 280 355 417
#
# _framework density 23.62886
#
# number of rings (size 3 to 8) (size 9 to 14) (size 15 to 20)
#    0.000    1.250    2.500    2.625    1.750    4.000 
#    4.500    0.000    0.000    0.000    0.000    0.000 
#    0.000    0.000    0.000    0.000    0.000    0.000 
#
# Total GULP energy -198296.920049 kJ/mol
# GULP energy per Si atom -12393.557503 kJ/mol
# Density = 2.357508 g / cm^3
# Si number density = 23.628860 Si / 1000 Ang^3
#
#
#
# Elastic Constant Matrix: (Units=GPa)
#
#
# Indices 1 2 3 4 5 6 
#
# 1 144.6032 35.7768 51.5901 8.2993 -10.7570 7.7007
# 2 35.7768 119.2604 44.0066 -6.7329 16.8270 19.7590
# 3 51.5901 44.0066 132.4782 -5.5787 6.7168 -1.3394
# 4 8.2993 -6.7329 -5.5787 43.8730 -9.2648 5.1860
# 5 -10.7570 16.8270 6.7168 -9.2648 30.2619 1.0229
# 6 7.7007 19.7590 -1.3394 5.1860 1.0229 40.4290
#
#
#
# Elastic Compliance Matrix: (Units=1/GPa)
#
#
# Indices 1 2 3 4 5 6 
#
# 1 0.009027 -0.002196 -0.003090 -0.001358 0.004724 -0.000694
# 2 -0.002196 0.011938 -0.002798 0.001226 -0.006236 -0.005508
# 3 -0.003090 -0.002798 0.009816 0.000815 -0.001547 0.002216
# 4 -0.001358 0.001226 0.000815 0.025148 0.006479 -0.003703
# 5 0.004724 -0.006236 -0.001547 0.006479 0.040510 0.000241
# 6 -0.000694 -0.005508 0.002216 -0.003703 0.000241 0.028101
#
#
# Mechanical properties :
#
#
# Convention : Reuss Voigt Hill
#
# Bulk Modulus (GPa) = 68.42957 73.23207 70.83082
# Shear Modulus (GPa) = 34.34526 40.57732 37.46129
#
# Velocity S-wave (km/s) = 3.81666 4.14850 3.98603
# Velocity P-wave (km/s) = 6.96028 7.34892 7.15724
#
# Compressibility (1/GPa) = 0.01461357
#
# Stress axis : x y z
#
# Youngs Moduli (GPa) = 110.77354 83.76510 101.87225
#
# Poissons Ratio (x) = 0.18397 0.31475
# Poissons Ratio (y) = 0.24329 0.28506
# Poissons Ratio (z) = 0.34225 0.23439
#
# Static dielectric constant tensor:
#      x y z
#    x 4.453720 0.149000 -0.262960 
#    y 0.149000 4.854220 0.064220 
#    z -0.262960 0.064220 4.692310 
# 
# 
# High freq. dielectric constant tensor:
#      x y z
#    x 1.932810 0.017010 -0.003460 
#    y 0.017010 1.958310 -0.017180 
#    z -0.003460 -0.017180 1.915140 
# 
# From -- ./inp_files/532168.got.cif
#   From: 2010.06.25/outbox.cif.g09.slc.cpg/sg2_267_cif.got.tgz:532168.got - 2010.06.27 13:26:56.
