data_PCOD8016335
_publ_section_title
;
Structure prediction by ZEFSAII (Michael W. Deem and Ramdas Pophale) SiO2 
 PCOD8016335
Probable space group: P -1
;
_chemical_formula_sum "Si O2"
_cell_formula_units_Z 16
_cell_length_a 11.782866
_cell_length_b 16.028139
_cell_length_c 8.560384
_cell_angle_alpha 118.079615
_cell_angle_beta 148.812069
_cell_angle_gamma 52.808445
_cell_volume 662.692681
_symmetry_space_group_name_H-M "P -1"
_symmetry_group_IT_number 2
_symmetry_cell_setting 'triclinic'
loop_
_space_group_symop_operation_xyz
x,y,z
-x,-y,-z
loop_
_atom_site_type_symbol
_atom_site_label
_atom_site_fract_x
_atom_site_fract_y
_atom_site_fract_z
Si Si1 0.106891 0.732104 0.166684
Si Si2 0.666272 0.746740 0.453735
Si Si3 0.996046 0.917782 0.658468
Si Si4 0.554411 0.383029 0.791661
Si Si5 0.136333 0.564037 0.293146
Si Si6 0.393486 0.949880 0.456397
Si Si7 0.199918 0.055341 0.874467
Si Si8 0.015933 0.700440 0.557565
O O1 0.323659 0.707577 0.276481
O O2 0.192675 0.631558 0.290847
O O3 0.052389 0.840622 0.286732
O O4 0.863491 0.747188 0.806369
O O5 0.630003 0.642022 0.339807
O O6 0.409169 0.846044 0.291289
O O7 0.756627 0.752060 0.389130
O O8 0.796263 0.958697 0.319647
O O9 0.097692 0.791536 0.686605
O O10 0.877348 0.974611 0.733718
O O11 0.203686 0.954210 0.884203
O O12 0.398040 0.492319 0.616333
O O13 0.769297 0.385841 0.156345
O O14 0.970220 0.643451 0.302806
O O15 0.000000 0.500000 0.000000
O O16 0.500000 0.000000 0.500000
O O17 0.568059 0.925365 0.791701
#
# Coordination Sequence:
#
# PCOD8016335 Si02
#       8
#     2   2   2   2   2   2   2   2
#     4  10  21  44  67  94 132 169 219 271 320 385
#     4  10  22  43  63  99 132 174 212 264 324 390
#     4  11  22  41  63  96 133 174 210 260 323 383
#     4  11  24  43  68  95 130 169 223 270 328 384
#     4  12  24  47  70  95 127 174 221 275 333 380
#     4  11  22  37  64  95 132 170 211 256 314 390
#     4  10  23  40  64  94 134 170 213 261 318 387
#     4  11  25  43  67  95 138 168 216 275 321 388
#
# _framework density 24.143919
#
# number of rings (size 3 to 8) (size 9 to 14) (size 15 to 20)
#    0.000    1.250    3.750    1.875    1.750    1.000 
#    4.500    1.250    0.000    0.000    0.000    0.000 
#    0.000    0.000    0.000    0.000    0.000    0.000 
#
# Total GULP energy -198328.721589 kJ/mol
# GULP energy per Si atom -12395.545099 kJ/mol
# Density = 2.408897 g / cm^3
# Si number density = 24.143919 Si / 1000 Ang^3
#
#
#
# Elastic Constant Matrix: (Units=GPa)
#
#
# Indices 1 2 3 4 5 6 
#
# 1 108.7774 35.5054 12.7053 8.4704 -14.8342 -5.7939
# 2 35.5054 113.9145 25.0535 8.9220 -9.5001 -2.5213
# 3 12.7053 25.0535 39.9875 11.7906 -14.3323 -11.1542
# 4 8.4704 8.9220 11.7906 37.7034 -2.3620 -6.3083
# 5 -14.8342 -9.5001 -14.3323 -2.3620 23.3190 1.2662
# 6 -5.7939 -2.5213 -11.1542 -6.3083 1.2662 45.9202
#
#
#
# Elastic Compliance Matrix: (Units=1/GPa)
#
#
# Indices 1 2 3 4 5 6 
#
# 1 0.011107 -0.003110 0.001586 -0.001643 0.006541 0.001210
# 2 -0.003110 0.011112 -0.006933 -0.000106 -0.001645 -0.001435
# 3 0.001586 -0.006933 0.041863 -0.009035 0.022558 0.008125
# 4 -0.001643 -0.000106 -0.009035 0.029809 -0.003719 0.001790
# 5 0.006541 -0.001645 0.022558 -0.003719 0.059642 0.004059
# 6 0.001210 -0.001435 0.008125 0.001790 0.004059 0.023958
#
#
# Mechanical properties :
#
#
# Convention : Reuss Voigt Hill
#
# Bulk Modulus (GPa) = 21.20036 45.46754 33.33395
# Shear Modulus (GPa) = 23.79506 34.01620 28.90563
#
# Velocity S-wave (km/s) = 3.14275 3.75759 3.46384
# Velocity P-wave (km/s) = 4.68712 6.13993 5.46205
#
# Compressibility (1/GPa) = 0.04716901
#
# Stress axis : x y z
#
# Youngs Moduli (GPa) = 90.03037 89.99421 23.88743
#
# Poissons Ratio (x) = 0.27986 -0.03788
# Poissons Ratio (y) = 0.27997 0.16560
# Poissons Ratio (z) = -0.14276 0.62389
#
# Static dielectric constant tensor:
#      x y z
#    x 4.461470 -0.161760 -0.327600 
#    y -0.161760 4.485160 -0.086820 
#    z -0.327600 -0.086820 4.215440 
# 
# 
# High freq. dielectric constant tensor:
#      x y z
#    x 1.966940 -0.003160 -0.019180 
#    y -0.003160 1.956000 -0.001450 
#    z -0.019180 -0.001450 1.946650 
# 
# From -- ./inp_files/97720.got.cif
#   From: 2010.06.25/outbox.cif.g09.slc.cpg/sg2_49_cif.got.tgz:97720.got - 2010.06.27 13:26:56.
