data_PCOD8016506
_publ_section_title
;
Structure prediction by ZEFSAII (Michael W. Deem and Ramdas Pophale) SiO2 
 PCOD8016506
Probable space group: P -1
;
_chemical_formula_sum "Si O2"
_cell_formula_units_Z 16
_cell_length_a 20.382431
_cell_length_b 8.896273
_cell_length_c 14.750015
_cell_angle_alpha 49.591565
_cell_angle_beta 19.413226
_cell_angle_gamma 50.536378
_cell_volume 673.799937
_symmetry_space_group_name_H-M "P -1"
_symmetry_group_IT_number 2
_symmetry_cell_setting 'triclinic'
loop_
_space_group_symop_operation_xyz
x,y,z
-x,-y,-z
loop_
_atom_site_type_symbol
_atom_site_label
_atom_site_fract_x
_atom_site_fract_y
_atom_site_fract_z
Si Si1 0.422041 0.228293 0.019012
Si Si2 0.924468 0.641974 0.462624
Si Si3 0.696588 0.973543 0.418938
Si Si4 0.488581 0.339511 0.467022
Si Si5 0.824415 0.608180 0.892937
Si Si6 0.323855 0.419908 0.466436
Si Si7 0.923426 0.640593 0.938950
Si Si8 0.010289 0.033698 0.128692
O O1 0.601948 0.366348 0.735682
O O2 0.301235 0.276100 0.251219
O O3 0.284926 0.265480 0.093971
O O4 0.500000 0.000000 0.000000
O O5 0.000000 0.500000 0.500000
O O6 0.969191 0.513118 0.363014
O O7 0.051326 0.829806 0.211800
O O8 0.647307 0.744210 0.588171
O O9 0.512039 0.132425 0.573644
O O10 0.797422 0.041669 0.352670
O O11 0.827649 0.960413 0.162115
O O12 0.463170 0.308931 0.405115
O O13 0.279392 0.450499 0.730649
O O14 0.676162 0.462575 0.189243
O O15 0.892214 0.735484 0.840558
O O16 0.093412 0.455862 0.784319
O O17 0.990301 0.796771 0.862234
#
# Coordination Sequence:
#
# PCOD8016506 Si02
#       8
#     2   2   2   2   2   2   2   2
#     4  10  23  45  73 101 136 178 229 292 339 402
#     4  10  21  44  73  92 129 183 229 279 338 396
#     4  11  24  43  68  99 140 179 227 287 347 410
#     4  11  23  39  67  98 138 179 223 277 344 416
#     4  10  23  44  66  99 134 179 232 279 337 416
#     4  11  24  43  66 103 137 173 230 284 344 414
#     4  12  25  40  65  99 141 178 222 279 349 408
#     4  11  24  42  69  98 139 180 227 283 350 402
#
# _framework density 23.745920999999999
#
# number of rings (size 3 to 8) (size 9 to 14) (size 15 to 20)
#    0.000    1.250    2.500    2.625    1.750    3.000 
#    0.000    9.375    0.000    0.000    0.000    0.000 
#    0.000    0.000    0.000    0.000    0.000    0.000 
#
# Total GULP energy -198219.300716 kJ/mol
# GULP energy per Si atom -12388.706295 kJ/mol
# Density = 2.369187 g / cm^3
# Si number density = 23.745921 Si / 1000 Ang^3
#
#
#
# Elastic Constant Matrix: (Units=GPa)
#
#
# Indices 1 2 3 4 5 6 
#
# 1 134.8039 55.1475 45.8634 3.3643 2.3208 25.3322
# 2 55.1475 136.2864 57.2745 2.7634 -0.1347 -3.6429
# 3 45.8634 57.2745 96.9557 9.1983 -1.9946 11.8075
# 4 3.3643 2.7634 9.1983 28.8569 -7.7761 7.1987
# 5 2.3208 -0.1347 -1.9946 -7.7761 23.3441 4.8334
# 6 25.3322 -3.6429 11.8075 7.1987 4.8334 36.8581
#
#
#
# Elastic Compliance Matrix: (Units=1/GPa)
#
#
# Indices 1 2 3 4 5 6 
#
# 1 0.011148 -0.003823 -0.002229 0.001994 0.000967 -0.007842
# 2 -0.003823 0.011414 -0.005613 -0.000732 -0.001498 0.005893
# 3 -0.002229 -0.005613 0.015419 -0.002881 0.001286 -0.003568
# 4 0.001994 -0.000732 -0.002881 0.042423 0.015939 -0.010895
# 5 0.000967 -0.001498 0.001286 0.015939 0.050419 -0.010949
# 6 -0.007842 0.005893 -0.003568 -0.010895 -0.010949 0.037810
#
#
# Mechanical properties :
#
#
# Convention : Reuss Voigt Hill
#
# Bulk Modulus (GPa) = 68.26151 76.06854 72.16502
# Shear Modulus (GPa) = 25.40044 31.79585 28.59814
#
# Velocity S-wave (km/s) = 3.27414 3.66321 3.47412
# Velocity P-wave (km/s) = 6.56524 7.07079 6.82270
#
# Compressibility (1/GPa) = 0.01464954
#
# Stress axis : x y z
#
# Youngs Moduli (GPa) = 89.70351 87.60811 64.85615
#
# Poissons Ratio (x) = 0.33494 0.14457
# Poissons Ratio (y) = 0.34295 0.36407
# Poissons Ratio (z) = 0.19996 0.49178
#
# Static dielectric constant tensor:
#      x y z
#    x 4.572690 0.030660 0.066980 
#    y 0.030660 4.330200 0.180470 
#    z 0.066980 0.180470 4.635310 
# 
# 
# High freq. dielectric constant tensor:
#      x y z
#    x 1.951080 -0.001930 0.004610 
#    y -0.001930 1.937760 0.014050 
#    z 0.004610 0.014050 1.924440 
# 
# From -- ./inp_files/540405.got.cif
#   From: 2010.06.25/outbox.cif.g09.slc.cpg/sg2_271_cif.got.tgz:540405.got - 2010.06.27 13:26:56.
