data_PCOD8016302
_publ_section_title
;
Structure prediction by ZEFSAII (Michael W. Deem and Ramdas Pophale) SiO2 
 PCOD8016302
Probable space group: P -1
;
_chemical_formula_sum "Si O2"
_cell_formula_units_Z 16
_cell_length_a 13.289935
_cell_length_b 13.229622
_cell_length_c 9.725314
_cell_angle_alpha 69.163283
_cell_angle_beta 150.105600
_cell_angle_gamma 103.565940
_cell_volume 786.424501
_symmetry_space_group_name_H-M "P -1"
_symmetry_group_IT_number 2
_symmetry_cell_setting 'triclinic'
loop_
_space_group_symop_operation_xyz
x,y,z
-x,-y,-z
loop_
_atom_site_type_symbol
_atom_site_label
_atom_site_fract_x
_atom_site_fract_y
_atom_site_fract_z
Si Si1 0.320801 0.750117 0.723581
Si Si2 0.810884 0.794305 0.682900
Si Si3 0.093508 0.575720 0.682751
Si Si4 0.502633 0.471940 0.358089
Si Si5 0.254053 0.749934 0.320610
Si Si6 0.370104 0.986641 0.722169
Si Si7 0.717769 0.646828 0.394817
Si Si8 0.474688 0.920746 0.386458
O O1 0.165667 0.679055 0.643382
O O2 0.290877 0.751779 0.525103
O O3 0.274941 0.875086 0.661551
O O4 0.553074 0.702672 0.062081
O O5 0.720659 0.720202 0.498694
O O6 0.662269 0.820155 0.627566
O O7 0.820267 0.913069 0.565610
O O8 0.025575 0.731722 0.022598
O O9 0.000000 0.500000 0.500000
O O10 0.934264 0.624980 0.586572
O O11 0.277955 0.500564 0.014301
O O12 0.500000 0.500000 0.500000
O O13 0.580667 0.344003 0.501767
O O14 0.659805 0.531924 0.429715
O O15 0.279992 0.863755 0.221540
O O16 0.541734 0.997533 0.802746
O O17 0.500000 0.000000 0.000000
O O18 0.500000 0.000000 0.500000
#
# Coordination Sequence:
#
# PCOD8016302 Si02
#       8
#     2   2   2   2   2   2   2   2
#     4  11  23  42  67  92 131 172 216 272 331 388
#     4  10  24  39  65  96 131 166 223 264 321 401
#     4  11  25  44  64  99 128 171 228 270 323 401
#     4  11  25  41  67  93 132 172 217 271 334 385
#     4  12  23  41  64  99 128 171 218 276 326 384
#     4  10  21  44  66  92 133 171 213 271 326 389
#     4  11  23  44  64  94 132 174 221 270 323 401
#     4  10  22  41  65  91 135 168 211 269 329 388
#
# _framework density 20.345247000000001
#
# number of rings (size 3 to 8) (size 9 to 14) (size 15 to 20)
#    0.750    0.500    2.500    3.000    0.000   12.000 
#    2.250    1.250    0.000    0.000    0.000    0.000 
#    0.000    0.000    0.000    0.000    0.000    0.000 
#
# Total GULP energy -198280.027844 kJ/mol
# GULP energy per Si atom -12392.501740 kJ/mol
# Density = 2.029894 g / cm^3
# Si number density = 20.345247 Si / 1000 Ang^3
#
#
#
# Elastic Constant Matrix: (Units=GPa)
#
#
# Indices 1 2 3 4 5 6 
#
# 1 121.7614 34.6088 55.0839 10.6095 -8.0975 -9.2579
# 2 34.6088 107.2241 42.4851 10.6050 -6.1770 -4.0262
# 3 55.0839 42.4851 129.4817 6.5676 -14.5154 -0.8741
# 4 10.6095 10.6050 6.5676 29.4318 -3.5696 -2.0659
# 5 -8.0975 -6.1770 -14.5154 -3.5696 39.4519 3.3576
# 6 -9.2579 -4.0262 -0.8741 -2.0659 3.3576 39.4317
#
#
#
# Elastic Compliance Matrix: (Units=1/GPa)
#
#
# Indices 1 2 3 4 5 6 
#
# 1 0.010821 -0.001624 -0.003926 -0.002272 0.000133 0.002157
# 2 -0.001624 0.011284 -0.002857 -0.002794 0.000082 0.000554
# 3 -0.003926 -0.002857 0.010618 0.000329 0.002785 -0.001198
# 4 -0.002272 -0.002794 0.000329 0.036083 0.002408 0.000874
# 5 0.000133 0.000082 0.002785 0.002408 0.026805 -0.002055
# 6 0.002157 0.000554 -0.001198 0.000874 -0.002055 0.026118
#
#
# Mechanical properties :
#
#
# Convention : Reuss Voigt Hill
#
# Bulk Modulus (GPa) = 62.85344 69.20253 66.02798
# Shear Modulus (GPa) = 34.75931 36.74906 35.75418
#
# Velocity S-wave (km/s) = 4.13785 4.25464 4.19665
# Velocity P-wave (km/s) = 7.33414 7.63046 7.48376
#
# Compressibility (1/GPa) = 0.01591003
#
# Stress axis : x y z
#
# Youngs Moduli (GPa) = 92.41026 88.61833 94.17756
#
# Poissons Ratio (x) = 0.14390 0.36975
# Poissons Ratio (y) = 0.15005 0.26907
# Poissons Ratio (z) = 0.36281 0.25319
#
# Static dielectric constant tensor:
#      x y z
#    x 3.656850 0.167290 -0.069060 
#    y 0.167290 3.322840 -0.246930 
#    z -0.069060 -0.246930 3.544830 
# 
# 
# High freq. dielectric constant tensor:
#      x y z
#    x 1.801490 -0.001100 -0.014080 
#    y -0.001100 1.812200 0.003350 
#    z -0.014080 0.003350 1.788870 
# 
# From -- ./inp_files/272776.got.cif
#   From: 2010.06.25/outbox.cif.g09.slc.cpg/sg2_137_cif.got.tgz:272776.got - 2010.06.27 13:26:56.
