data_PCOD8016299
_publ_section_title
;
Structure prediction by ZEFSAII (Michael W. Deem and Ramdas Pophale) SiO2 
 PCOD8016299
Probable space group: P -1
;
_chemical_formula_sum "Si O2"
_cell_formula_units_Z 16
_cell_length_a 8.888281
_cell_length_b 15.952925
_cell_length_c 19.581222
_cell_angle_alpha 20.137538
_cell_angle_beta 129.200600
_cell_angle_gamma 120.955696
_cell_volume 707.505746
_symmetry_space_group_name_H-M "P -1"
_symmetry_group_IT_number 2
_symmetry_cell_setting 'triclinic'
loop_
_space_group_symop_operation_xyz
x,y,z
-x,-y,-z
loop_
_atom_site_type_symbol
_atom_site_label
_atom_site_fract_x
_atom_site_fract_y
_atom_site_fract_z
Si Si1 0.099921 0.300416 0.738819
Si Si2 0.023030 0.307034 0.215293
Si Si3 0.537299 0.100645 0.007375
Si Si4 0.610072 0.138990 0.373483
Si Si5 0.505417 0.898212 0.289840
Si Si6 0.037684 0.164471 0.966936
Si Si7 0.424760 0.701899 0.901335
Si Si8 0.798841 0.453957 0.792764
O O1 0.328001 0.315860 0.802870
O O2 0.000000 0.500000 0.500000
O O3 0.989752 0.345070 0.747228
O O4 0.110428 0.014473 0.936036
O O5 0.141064 0.392723 0.245650
O O6 0.801919 0.305574 0.176643
O O7 0.154682 0.027684 0.440075
O O8 0.000000 0.500000 0.000000
O O9 0.723941 0.218505 0.977216
O O10 0.567277 0.876463 0.244188
O O11 0.500000 0.000000 0.000000
O O12 0.501528 0.180015 0.235939
O O13 0.500000 0.000000 0.500000
O O14 0.581368 0.424062 0.176039
O O15 0.265130 0.973043 0.177248
O O16 0.587204 0.122602 0.171352
O O17 0.611696 0.632025 0.559899
O O18 0.994177 0.345205 0.882644
#
# Coordination Sequence:
#
# PCOD8016299 Si02
#       8
#     2   2   2   2   2   2   2   2
#     4  10  21  44  66  91 132 170 220 276 335 394
#     4  12  25  45  69 103 139 181 230 281 337 406
#     4  11  24  44  66 100 134 172 221 277 333 405
#     4  11  24  43  69  96 133 183 223 282 337 392
#     4  11  26  44  68 101 138 174 226 276 332 401
#     4  10  24  41  66  99 126 173 224 272 329 402
#     4  11  25  45  70  98 139 184 229 272 340 405
#     4  12  26  43  70  98 138 176 225 279 336 392
#
# _framework density 22.614657999999999
#
# number of rings (size 3 to 8) (size 9 to 14) (size 15 to 20)
#    0.000    1.000    3.750    1.875    5.250    0.500 
#    0.000    2.500    0.000    0.000    0.000    0.000 
#    0.000    0.000    0.000    0.000    0.000    0.000 
#
# Total GULP energy -198345.467664 kJ/mol
# GULP energy per Si atom -12396.591729 kJ/mol
# Density = 2.256319 g / cm^3
# Si number density = 22.614658 Si / 1000 Ang^3
#
#
#
# Elastic Constant Matrix: (Units=GPa)
#
#
# Indices 1 2 3 4 5 6 
#
# 1 117.5047 37.4884 48.8943 2.1134 -10.4371 -12.0180
# 2 37.4884 71.8000 2.0975 6.8060 -1.0909 0.3370
# 3 48.8943 2.0975 116.6959 9.2506 -8.8702 -11.6933
# 4 2.1134 6.8060 9.2506 33.1991 -9.5541 -0.0057
# 5 -10.4371 -1.0909 -8.8702 -9.5541 43.7127 4.1985
# 6 -12.0180 0.3370 -11.6933 -0.0057 4.1985 33.5158
#
#
#
# Elastic Compliance Matrix: (Units=1/GPa)
#
#
# Indices 1 2 3 4 5 6 
#
# 1 0.013385 -0.007071 -0.005247 0.002717 0.002284 0.002755
# 2 -0.007071 0.017944 0.002718 -0.004419 -0.001503 -0.001580
# 3 -0.005247 0.002718 0.011191 -0.003290 0.000177 0.001973
# 4 0.002717 -0.004419 -0.003290 0.033894 0.007380 -0.001048
# 5 0.002284 -0.001503 0.000177 0.007380 0.025251 -0.002266
# 6 0.002755 -0.001580 0.001973 -0.001048 -0.002266 0.031812
#
#
# Mechanical properties :
#
#
# Convention : Reuss Voigt Hill
#
# Bulk Modulus (GPa) = 42.88326 53.66234 48.27280
# Shear Modulus (GPa) = 31.16209 36.58689 33.87449
#
# Velocity S-wave (km/s) = 3.71612 4.02660 3.87447
# Velocity P-wave (km/s) = 6.11690 6.73784 6.43487
#
# Compressibility (1/GPa) = 0.02331912
#
# Stress axis : x y z
#
# Youngs Moduli (GPa) = 74.70855 55.72994 89.35892
#
# Poissons Ratio (x) = 0.39408 0.46887
# Poissons Ratio (y) = 0.52829 -0.24287
# Poissons Ratio (z) = 0.39200 -0.15147
#
# Static dielectric constant tensor:
#      x y z
#    x 4.351240 -0.183780 -0.010050 
#    y -0.183780 3.844130 0.130790 
#    z -0.010050 0.130790 4.111650 
# 
# 
# High freq. dielectric constant tensor:
#      x y z
#    x 1.910450 -0.010020 -0.007920 
#    y -0.010020 1.875420 0.008410 
#    z -0.007920 0.008410 1.893130 
# 
# From -- ./inp_files/590912.got.cif
#   From: 2010.06.25/outbox.cif.g09.slc.cpg/sg2_296_cif.got.tgz:590912.got - 2010.06.27 13:26:56.
