data_PCOD8016535
_publ_section_title
;
Structure prediction by ZEFSAII (Michael W. Deem and Ramdas Pophale) SiO2 
 PCOD8016535
Probable space group: P -1
;
_chemical_formula_sum "Si O2"
_cell_formula_units_Z 16
_cell_length_a 13.636940
_cell_length_b 25.037575
_cell_length_c 16.493133
_cell_angle_alpha 22.863620
_cell_angle_beta 146.867437
_cell_angle_gamma 160.346980
_cell_volume 715.755019
_symmetry_space_group_name_H-M "P -1"
_symmetry_group_IT_number 2
_symmetry_cell_setting 'triclinic'
loop_
_space_group_symop_operation_xyz
x,y,z
-x,-y,-z
loop_
_atom_site_type_symbol
_atom_site_label
_atom_site_fract_x
_atom_site_fract_y
_atom_site_fract_z
Si Si1 0.071630 0.388869 0.223112
Si Si2 0.147332 0.827913 0.450695
Si Si3 0.398965 0.541130 0.670952
Si Si4 0.976890 0.742867 0.795919
Si Si5 0.529341 0.237734 0.236637
Si Si6 0.228260 0.285643 0.057251
Si Si7 0.639672 0.963547 0.199948
Si Si8 0.742247 0.729335 0.197414
O O1 0.943797 0.215465 0.303180
O O2 0.426449 0.592973 0.198395
O O3 0.910817 0.243383 0.396255
O O4 0.000000 0.500000 0.000000
O O5 0.335290 0.819871 0.549606
O O6 0.846108 0.672086 0.410881
O O7 0.355577 0.093154 0.233895
O O8 0.747724 0.727789 0.674914
O O9 0.286841 0.356621 0.789935
O O10 0.388136 0.689375 0.420805
O O11 0.192852 0.384764 0.825875
O O12 0.266152 0.932857 0.788741
O O13 0.816975 0.502475 0.042880
O O14 0.306639 0.184173 0.216600
O O15 0.925462 0.082460 0.182404
O O16 0.500000 0.500000 0.000000
O O17 0.500000 0.000000 0.000000
O O18 0.000000 0.000000 0.000000
#
# Coordination Sequence:
#
# PCOD8016535 Si02
#       8
#     2   2   2   2   2   2   2   2
#     4  11  23  40  67 101 133 180 228 274 345 418
#     4  11  23  41  69 100 137 179 226 283 349 407
#     4  10  24  44  71  98 137 182 230 281 343 414
#     4  10  21  45  64  96 134 175 229 279 334 418
#     4  10  22  40  68  99 133 176 232 273 342 417
#     4  11  23  44  75  97 133 187 233 280 350 416
#     4  12  27  45  69 104 143 178 232 297 346 405
#     4  11  25  45  66  99 143 172 225 292 342 406
#
# _framework density 22.354018
#
# number of rings (size 3 to 8) (size 9 to 14) (size 15 to 20)
#    0.000    1.250    3.750    3.000    7.000    0.500 
#    6.750    0.000    0.000    0.000    0.000    0.000 
#    0.000    0.000    0.000    0.000    0.000    0.000 
#
# Total GULP energy -198319.776413 kJ/mol
# GULP energy per Si atom -12394.986026 kJ/mol
# Density = 2.230314 g / cm^3
# Si number density = 22.354018 Si / 1000 Ang^3
#
#
#
# Elastic Constant Matrix: (Units=GPa)
#
#
# Indices 1 2 3 4 5 6 
#
# 1 91.7576 25.0789 30.2422 5.8096 -1.4585 3.9539
# 2 25.0789 109.0818 28.3992 16.0079 6.7720 -3.4734
# 3 30.2422 28.3992 109.5540 -2.8359 7.1277 -1.0138
# 4 5.8096 16.0079 -2.8359 42.4483 0.4611 1.7068
# 5 -1.4585 6.7720 7.1277 0.4611 35.8650 3.9346
# 6 3.9539 -3.4734 -1.0138 1.7068 3.9346 27.2754
#
#
#
# Elastic Compliance Matrix: (Units=1/GPa)
#
#
# Indices 1 2 3 4 5 6 
#
# 1 0.012714 -0.002145 -0.003122 -0.001062 0.001823 -0.002429
# 2 -0.002145 0.011027 -0.002228 -0.004080 -0.001911 0.002163
# 3 -0.003122 -0.002228 0.010752 0.001978 -0.001948 0.000726
# 4 -0.001062 -0.004080 0.001978 0.025449 0.000217 -0.001916
# 5 0.001823 -0.001911 -0.001948 0.000217 0.029229 -0.004810
# 6 -0.002429 0.002163 0.000726 -0.001916 -0.004810 0.038131
#
#
# Mechanical properties :
#
#
# Convention : Reuss Voigt Hill
#
# Bulk Modulus (GPa) = 51.27265 53.09265 52.18265
# Shear Modulus (GPa) = 33.60357 36.22928 34.91643
#
# Velocity S-wave (km/s) = 3.88138 4.03017 3.95647
# Velocity P-wave (km/s) = 6.56302 6.74231 6.65327
#
# Compressibility (1/GPa) = 0.01950358
#
# Stress axis : x y z
#
# Youngs Moduli (GPa) = 78.65047 90.68824 93.00647
#
# Poissons Ratio (x) = 0.19452 0.29040
# Poissons Ratio (y) = 0.16870 0.20718
# Poissons Ratio (z) = 0.24557 0.20201
#
# Static dielectric constant tensor:
#      x y z
#    x 4.395370 -0.056840 -0.095430 
#    y -0.056840 4.210490 0.072110 
#    z -0.095430 0.072110 4.349170 
# 
# 
# High freq. dielectric constant tensor:
#      x y z
#    x 1.875660 -0.010090 0.000360 
#    y -0.010090 1.871410 0.001580 
#    z 0.000360 0.001580 1.893780 
# 
# From -- ./inp_files/574514.got.cif
#   From: 2010.06.25/outbox.cif.g09.slc.cpg/sg2_288_cif.got.tgz:574514.got - 2010.06.27 13:26:56.
