data_PCOD8016552
_publ_section_title
;
Structure prediction by ZEFSAII (Michael W. Deem and Ramdas Pophale) SiO2 
 PCOD8016552
Probable space group: P -1
;
_chemical_formula_sum "Si O2"
_cell_formula_units_Z 16
_cell_length_a 8.355006
_cell_length_b 15.619582
_cell_length_c 11.696691
_cell_angle_alpha 119.612268
_cell_angle_beta 66.447810
_cell_angle_gamma 63.703086
_cell_volume 723.980150
_symmetry_space_group_name_H-M "P -1"
_symmetry_group_IT_number 2
_symmetry_cell_setting 'triclinic'
loop_
_space_group_symop_operation_xyz
x,y,z
-x,-y,-z
loop_
_atom_site_type_symbol
_atom_site_label
_atom_site_fract_x
_atom_site_fract_y
_atom_site_fract_z
Si Si1 0.810835 0.739407 0.050091
Si Si2 0.212257 0.180369 0.654979
Si Si3 0.004393 0.839611 0.932338
Si Si4 0.659249 0.528522 0.633423
Si Si5 0.163015 0.771088 0.586596
Si Si6 0.877275 0.953577 0.551521
Si Si7 0.513221 0.193346 0.411183
Si Si8 0.000961 0.514879 0.667164
O O1 0.864131 0.802212 0.987576
O O2 0.946426 0.578619 0.853013
O O3 0.954809 0.697329 0.106124
O O4 0.467382 0.879861 0.251689
O O5 0.013693 0.187141 0.653118
O O6 0.316945 0.214601 0.560691
O O7 0.500000 0.000000 0.500000
O O8 0.343051 0.692639 0.776810
O O9 0.979359 0.858547 0.814959
O O10 0.817189 0.011558 0.157426
O O11 0.682185 0.405521 0.588084
O O12 0.924735 0.428031 0.401386
O O13 0.717508 0.579090 0.753429
O O14 0.417153 0.737847 0.495337
O O15 0.957434 0.891201 0.617721
O O16 0.000000 0.000000 0.500000
O O17 0.295120 0.314746 0.448320
#
# Coordination Sequence:
#
# PCOD8016552 Si02
#       8
#     2   2   2   2   2   2   2   2
#     4  11  24  44  73  97 141 188 232 287 358 415
#     4  10  21  45  66  96 134 187 226 293 338 414
#     4  12  24  43  71 108 140 188 231 288 353 420
#     4  11  25  44  66 103 155 180 229 289 355 422
#     4  12  24  41  71 104 141 186 232 286 351 419
#     4  11  25  44  72 104 143 181 239 293 349 414
#     4  12  24  43  70 103 141 185 243 282 352 412
#     4  11  25  44  66 102 145 189 228 294 348 416
#
# _framework density 22.100052999999999
#
# number of rings (size 3 to 8) (size 9 to 14) (size 15 to 20)
#    0.000    0.750    5.000    3.750    1.750    2.000 
#    0.000    1.250    0.000    4.500    0.000    0.000 
#    0.000    0.000    0.000    0.000    0.000    0.000 
#
# Total GULP energy -198319.954992 kJ/mol
# GULP energy per Si atom -12394.997187 kJ/mol
# Density = 2.204975 g / cm^3
# Si number density = 22.100053 Si / 1000 Ang^3
#
#
#
# Elastic Constant Matrix: (Units=GPa)
#
#
# Indices 1 2 3 4 5 6 
#
# 1 159.5507 63.4062 66.0449 -16.2253 15.2009 15.5800
# 2 63.4062 118.2810 41.0653 -13.0753 11.4840 9.8911
# 3 66.0449 41.0653 95.4797 -5.0033 27.3355 1.5044
# 4 -16.2253 -13.0753 -5.0033 32.8108 -6.2679 -4.2203
# 5 15.2009 11.4840 27.3355 -6.2679 36.9321 -3.7246
# 6 15.5800 9.8911 1.5044 -4.2203 -3.7246 40.2387
#
#
#
# Elastic Compliance Matrix: (Units=1/GPa)
#
#
# Indices 1 2 3 4 5 6 
#
# 1 0.010435 -0.003066 -0.006109 0.002940 0.001415 -0.002619
# 2 -0.003066 0.011387 -0.002612 0.002450 -0.000057 -0.001263
# 3 -0.006109 -0.002612 0.018799 -0.003180 -0.011032 0.000950
# 4 0.002940 0.002450 -0.003180 0.033972 0.006403 0.002534
# 5 0.001415 -0.000057 -0.011032 0.006403 0.036157 0.003897
# 6 -0.002619 -0.001263 0.000950 0.002534 0.003897 0.026767
#
#
# Mechanical properties :
#
#
# Convention : Reuss Voigt Hill
#
# Bulk Modulus (GPa) = 58.66211 79.37158 69.01684
# Shear Modulus (GPa) = 29.98083 35.51599 32.74841
#
# Velocity S-wave (km/s) = 3.68719 4.01316 3.85362
# Velocity P-wave (km/s) = 6.68795 7.58067 7.14826
#
# Compressibility (1/GPa) = 0.01704678
#
# Stress axis : x y z
#
# Youngs Moduli (GPa) = 95.83352 87.82066 53.19374
#
# Poissons Ratio (x) = 0.26927 0.32496
# Poissons Ratio (y) = 0.29384 0.13894
# Poissons Ratio (z) = 0.58544 0.22938
#
# Static dielectric constant tensor:
#      x y z
#    x 4.665210 0.036850 0.470410 
#    y 0.036850 3.983480 -0.108430 
#    z 0.470410 -0.108430 4.107570 
# 
# 
# High freq. dielectric constant tensor:
#      x y z
#    x 1.885840 0.010740 0.011490 
#    y 0.010740 1.877030 -0.007320 
#    z 0.011490 -0.007320 1.851590 
# 
# From -- ./inp_files/399401.got.cif
#   From: 2010.06.25/outbox.cif.g09.slc.cpg/sg2_200_cif.got.tgz:399401.got - 2010.06.27 13:26:56.
