data_PCOD8016424
_publ_section_title
;
Structure prediction by ZEFSAII (Michael W. Deem and Ramdas Pophale) SiO2 
 PCOD8016424
Probable space group: P -1
;
_chemical_formula_sum "Si O2"
_cell_formula_units_Z 14
_cell_length_a 8.837492
_cell_length_b 16.681827
_cell_length_c 8.511215
_cell_angle_alpha 149.095371
_cell_angle_beta 70.303573
_cell_angle_gamma 118.589931
_cell_volume 558.303667
_symmetry_space_group_name_H-M "P -1"
_symmetry_group_IT_number 2
_symmetry_cell_setting 'triclinic'
loop_
_space_group_symop_operation_xyz
x,y,z
-x,-y,-z
loop_
_atom_site_type_symbol
_atom_site_label
_atom_site_fract_x
_atom_site_fract_y
_atom_site_fract_z
Si Si1 0.285621 0.658484 0.449571
Si Si2 0.338427 0.534238 0.542963
Si Si3 0.930886 0.689597 0.142211
Si Si4 0.986256 0.248690 0.130258
Si Si5 0.906524 0.009697 0.209645
Si Si6 0.421469 0.311423 0.785539
Si Si7 0.468532 0.161852 0.839639
O O1 0.343961 0.551253 0.380273
O O2 0.459918 0.777522 0.493736
O O3 0.189844 0.769722 0.746547
O O4 0.155217 0.512520 0.131527
O O5 0.500000 0.500000 0.500000
O O6 0.149052 0.390141 0.405911
O O7 0.362100 0.716351 0.916588
O O8 0.782699 0.769374 0.318458
O O9 0.058005 0.798429 0.420466
O O10 0.030585 0.705217 0.966820
O O11 0.009688 0.072545 0.827889
O O12 0.699036 0.903583 0.095393
O O13 0.000000 0.000000 0.000000
O O14 0.436814 0.279271 0.911496
O O15 0.500000 0.500000 0.000000
O O16 0.500000 0.000000 0.500000
#
# Coordination Sequence:
#
# PCOD8016424 Si02
#       7
#     2   2   2   2   2   2   2
#     4  10  24  40  74 103 130 180 249 286 334 418
#     4  11  21  44  70  99 142 182 234 287 352 417
#     4  10  21  44  70  93 138 178 235 284 352 411
#     4  11  23  44  70 100 133 188 238 284 343 418
#     4  12  28  44  65 100 145 186 226 291 365 415
#     4  10  22  45  71 101 132 189 237 279 345 424
#     4  12  28  44  69 105 145 184 230 295 362 408
#
# _framework density 25.075956999999999
#
# number of rings (size 3 to 8) (size 9 to 14) (size 15 to 20)
#    0.000    1.143    2.857    3.857    8.000    2.286 
#    0.000    2.857    0.000    0.000    0.000    0.000 
#    0.000    0.000    0.000    0.000    0.000    0.000 
#
# Total GULP energy -173445.694216 kJ/mol
# GULP energy per Si atom -12388.978158 kJ/mol
# Density = 2.501888 g / cm^3
# Si number density = 25.075957 Si / 1000 Ang^3
#
#
#
# Elastic Constant Matrix: (Units=GPa)
#
#
# Indices 1 2 3 4 5 6 
#
# 1 58.4929 17.9247 8.2049 -3.8983 -3.7657 17.3013
# 2 17.9247 94.7979 16.3785 -16.7843 1.0422 28.2973
# 3 8.2049 16.3785 122.4401 -2.2308 13.0567 7.4135
# 4 -3.8983 -16.7843 -2.2308 32.9167 2.3158 -20.9651
# 5 -3.7657 1.0422 13.0567 2.3158 36.4622 -7.9690
# 6 17.3013 28.2973 7.4135 -20.9651 -7.9690 41.6061
#
#
#
# Elastic Compliance Matrix: (Units=1/GPa)
#
#
# Indices 1 2 3 4 5 6 
#
# 1 0.020199 -0.001745 -0.000715 -0.004454 0.000664 -0.009203
# 2 -0.001745 0.013765 -0.000990 0.001841 -0.002069 -0.007929
# 3 -0.000715 -0.000990 0.008810 -0.000818 -0.003516 -0.001685
# 4 -0.004454 0.001841 -0.000818 0.046127 0.002185 0.024408
# 5 0.000664 -0.002069 -0.003516 0.002185 0.030579 0.008716
# 6 -0.009203 -0.007929 -0.001685 0.024408 0.008716 0.047523
#
#
# Mechanical properties :
#
#
# Convention : Reuss Voigt Hill
#
# Bulk Modulus (GPa) = 27.87508 40.08300 33.97904
# Shear Modulus (GPa) = 26.90198 37.74519 32.32359
#
# Velocity S-wave (km/s) = 3.27895 3.88394 3.59420
# Velocity P-wave (km/s) = 5.04735 6.01105 5.55015
#
# Compressibility (1/GPa) = 0.03587433
#
# Stress axis : x y z
#
# Youngs Moduli (GPa) = 49.50767 72.64742 113.51118
#
# Poissons Ratio (x) = 0.12674 0.08115
# Poissons Ratio (y) = 0.08637 0.11240
# Poissons Ratio (z) = 0.03539 0.07193
#
# Static dielectric constant tensor:
#      x y z
#    x 4.636260 0.362700 -0.083830 
#    y 0.362700 4.641480 -0.052740 
#    z -0.083830 -0.052740 4.689730 
# 
# 
# High freq. dielectric constant tensor:
#      x y z
#    x 1.994500 0.022200 -0.013230 
#    y 0.022200 1.988430 -0.009160 
#    z -0.013230 -0.009160 1.997070 
# 
# From -- ./inp_files/219023.got.cif
#   From: 2010.06.25/outbox.cif.g09.slc.cpg/sg2_110_cif.got.tgz:219023.got - 2010.06.27 13:26:56.
