data_PCOD8016915
_publ_section_title
;
Structure prediction by ZEFSAII (Michael W. Deem and Ramdas Pophale) SiO2 
 PCOD8016915
Probable space group: P -1
;
_chemical_formula_sum "Si O2"
_cell_formula_units_Z 16
_cell_length_a 9.207729
_cell_length_b 17.966072
_cell_length_c 8.597400
_cell_angle_alpha 129.377736
_cell_angle_beta 133.235163
_cell_angle_gamma 55.663006
_cell_volume 779.482325
_symmetry_space_group_name_H-M "P -1"
_symmetry_group_IT_number 2
_symmetry_cell_setting 'triclinic'
loop_
_space_group_symop_operation_xyz
x,y,z
-x,-y,-z
loop_
_atom_site_type_symbol
_atom_site_label
_atom_site_fract_x
_atom_site_fract_y
_atom_site_fract_z
Si Si1 0.030227 0.844829 0.375697
Si Si2 0.997964 0.033331 0.784440
Si Si3 0.615439 0.500338 0.427270
Si Si4 0.370170 0.155031 0.733176
Si Si5 0.282713 0.019048 0.252083
Si Si6 0.687512 0.343552 0.779573
Si Si7 0.462194 0.342791 0.913953
Si Si8 0.936458 0.500997 0.274473
O O1 0.008455 0.879265 0.225928
O O2 0.821133 0.824775 0.263615
O O3 0.201753 0.743493 0.370217
O O4 0.102148 0.928174 0.641233
O O5 0.116543 0.057504 0.052768
O O6 0.781419 0.027683 0.694354
O O7 0.500000 0.500000 0.500000
O O8 0.509780 0.595788 0.376254
O O9 0.847567 0.499369 0.650153
O O10 0.597771 0.407046 0.186781
O O11 0.336070 0.119969 0.485250
O O12 0.443411 0.256269 0.904034
O O13 0.541759 0.064584 0.811218
O O14 0.596598 0.299643 0.805215
O O15 0.850995 0.406481 0.035753
O O16 0.236299 0.402925 0.774760
O O17 0.000000 0.500000 0.500000
#
# Coordination Sequence:
#
# PCOD8016915 Si02
#       8
#     2   2   2   2   2   2   2   2
#     4  10  22  37  58  90 123 152 194 255 298 345
#     4   9  19  40  62  83 117 159 197 240 300 358
#     4  11  25  41  63  92 121 160 201 255 305 348
#     4  10  22  37  58  90 121 152 198 249 298 353
#     4   9  19  40  62  83 117 159 198 239 296 364
#     4  11  23  41  63  88 124 162 203 248 299 359
#     4  11  23  41  63  89 123 163 202 248 298 362
#     4  11  21  43  65  86 120 163 209 243 295 367
#
# _framework density 20.526444000000001
#
# number of rings (size 3 to 8) (size 9 to 14) (size 15 to 20)
#    0.000    1.750    2.500    1.500    3.500    4.500 
#    4.500    0.000    0.000    0.000    0.000    0.000 
#    0.000    0.000    0.000    0.000    0.000    0.000 
#
# Total GULP energy -198277.605025 kJ/mol
# GULP energy per Si atom -12392.350314 kJ/mol
# Density = 2.047972 g / cm^3
# Si number density = 20.526444 Si / 1000 Ang^3
#
#
#
# Elastic Constant Matrix: (Units=GPa)
#
#
# Indices 1 2 3 4 5 6 
#
# 1 108.3169 18.3491 12.3204 2.9195 4.7464 -8.9322
# 2 18.3491 55.4494 26.6958 17.3605 4.4206 -8.4196
# 3 12.3204 26.6958 56.5467 -8.4823 11.7455 -7.2389
# 4 2.9195 17.3605 -8.4823 27.2450 -1.2736 -3.6380
# 5 4.7464 4.4206 11.7455 -1.2736 33.8433 -3.2137
# 6 -8.9322 -8.4196 -7.2389 -3.6380 -3.2137 39.1611
#
#
#
# Elastic Compliance Matrix: (Units=1/GPa)
#
#
# Indices 1 2 3 4 5 6 
#
# 1 0.009936 -0.003360 -0.000033 0.001244 -0.000745 0.001592
# 2 -0.003360 0.040884 -0.023881 -0.032923 0.002250 0.000735
# 3 -0.000033 -0.023881 0.034884 0.026135 -0.007705 0.003102
# 4 0.001244 -0.032923 0.026135 0.066124 -0.002075 0.004009
# 5 -0.000745 0.002250 -0.007705 -0.002075 0.032081 0.001329
# 6 0.001592 0.000735 0.003102 0.004009 0.001329 0.027112
#
#
# Mechanical properties :
#
#
# Convention : Reuss Voigt Hill
#
# Bulk Modulus (GPa) = 32.09821 37.22707 34.66264
# Shear Modulus (GPa) = 18.11906 30.91306 24.51606
#
# Velocity S-wave (km/s) = 2.97428 3.88495 3.45971
# Velocity P-wave (km/s) = 5.24086 6.18864 5.73436
#
# Compressibility (1/GPa) = 0.03115438
#
# Stress axis : x y z
#
# Youngs Moduli (GPa) = 100.64848 24.45969 28.66667
#
# Poissons Ratio (x) = 0.08219 0.00096
# Poissons Ratio (y) = 0.33818 0.68458
# Poissons Ratio (z) = 0.00336 0.58412
#
# Static dielectric constant tensor:
#      x y z
#    x 4.025430 -0.123800 0.209290 
#    y -0.123800 3.715880 -0.304580 
#    z 0.209290 -0.304580 4.317870 
# 
# 
# High freq. dielectric constant tensor:
#      x y z
#    x 1.817960 -0.004510 -0.000180 
#    y -0.004510 1.790350 0.003120 
#    z -0.000180 0.003120 1.799390 
# 
# From -- ./inp_files/218755.got.cif
#   From: 2010.06.25/outbox.cif.g09.slc.cpg/sg2_110_cif.got.tgz:218755.got - 2010.06.27 13:26:56.
