data_PCOD8016914
_publ_section_title
;
Structure prediction by ZEFSAII (Michael W. Deem and Ramdas Pophale) SiO2 
 PCOD8016914
Probable space group: P -1
;
_chemical_formula_sum "Si O2"
_cell_formula_units_Z 16
_cell_length_a 12.480449
_cell_length_b 13.113664
_cell_length_c 12.170980
_cell_angle_alpha 80.857387
_cell_angle_beta 35.615909
_cell_angle_gamma 58.611315
_cell_volume 838.426082
_symmetry_space_group_name_H-M "P -1"
_symmetry_group_IT_number 2
_symmetry_cell_setting 'triclinic'
loop_
_space_group_symop_operation_xyz
x,y,z
-x,-y,-z
loop_
_atom_site_type_symbol
_atom_site_label
_atom_site_fract_x
_atom_site_fract_y
_atom_site_fract_z
Si Si1 0.419335 0.136169 0.095304
Si Si2 0.961491 0.761294 0.290201
Si Si3 0.535200 0.779164 0.566023
Si Si4 0.269820 0.849201 0.324752
Si Si5 0.727039 0.081069 0.037695
Si Si6 0.263786 0.928449 0.554839
Si Si7 0.136097 0.672576 0.406351
Si Si8 0.443579 0.642811 0.817438
O O1 0.545367 0.077007 0.120552
O O2 0.120664 0.259645 0.330222
O O3 0.527991 0.190297 0.926049
O O4 0.500000 0.000000 0.000000
O O5 0.094675 0.693521 0.307539
O O6 0.799142 0.725440 0.394150
O O7 0.790368 0.929319 0.413294
O O8 0.179540 0.681562 0.028361
O O9 0.314956 0.922351 0.795998
O O10 0.523891 0.660995 0.628481
O O11 0.487510 0.813375 0.471505
O O12 0.249305 0.733826 0.353418
O O13 0.357788 0.856354 0.369492
O O14 0.000000 0.000000 0.500000
O O15 0.624806 0.235259 0.065124
O O16 0.016990 0.955825 0.785982
O O17 0.331111 0.507627 0.294589
#
# Coordination Sequence:
#
# PCOD8016914 Si02
#       8
#     2   2   2   2   2   2   2   2
#     4  12  21  36  59  87 118 150 191 236 292 340
#     4  11  20  35  61  89 116 146 191 241 293 341
#     4  10  22  37  58  88 119 151 191 232 288 348
#     4  12  22  37  59  84 116 153 189 238 286 336
#     4   9  19  36  58  84 115 149 186 236 286 336
#     4  11  20  39  58  86 122 151 188 241 286 335
#     4  12  22  39  59  86 120 147 195 241 289 343
#     4   9  23  37  57  86 116 155 188 237 292 343
#
# _framework density 19.083376000000001
#
# number of rings (size 3 to 8) (size 9 to 14) (size 15 to 20)
#    0.750    0.500    5.000    1.875    0.000    3.000 
#    0.000    0.625    0.000    1.500    0.000    0.000 
#    0.000    0.000    0.000    0.000    0.000    0.000 
#
# Total GULP energy -198280.025729 kJ/mol
# GULP energy per Si atom -12392.501608 kJ/mol
# Density = 1.903994 g / cm^3
# Si number density = 19.083376 Si / 1000 Ang^3
#
#
#
# Elastic Constant Matrix: (Units=GPa)
#
#
# Indices 1 2 3 4 5 6 
#
# 1 95.3705 38.9832 25.5163 -5.6743 5.2919 -14.2868
# 2 38.9832 88.0347 26.8878 -3.7567 -8.7249 -16.6637
# 3 25.5163 26.8878 83.6517 -17.7852 -16.0891 5.4523
# 4 -5.6743 -3.7567 -17.7852 31.7872 0.8937 -1.0503
# 5 5.2919 -8.7249 -16.0891 0.8937 21.6736 -8.0931
# 6 -14.2868 -16.6637 5.4523 -1.0503 -8.0931 26.4354
#
#
#
# Elastic Compliance Matrix: (Units=1/GPa)
#
#
# Indices 1 2 3 4 5 6 
#
# 1 0.014802 -0.005374 -0.004578 -0.000227 -0.008011 0.003095
# 2 -0.005374 0.018079 -0.002929 -0.000361 0.011089 0.012476
# 3 -0.004578 -0.002929 0.018739 0.008848 0.011923 -0.004184
# 4 -0.000227 -0.000361 0.008848 0.036206 0.005318 0.000892
# 5 -0.008011 0.011089 0.011923 0.005318 0.069262 0.021617
# 6 0.003095 0.012476 -0.004184 0.000892 0.021617 0.054881
#
#
# Mechanical properties :
#
#
# Convention : Reuss Voigt Hill
#
# Bulk Modulus (GPa) = 38.67398 49.98128 44.32763
# Shear Modulus (GPa) = 20.29625 27.69055 23.99340
#
# Velocity S-wave (km/s) = 3.26476 3.81337 3.54968
# Velocity P-wave (km/s) = 5.87549 6.75551 6.33081
#
# Compressibility (1/GPa) = 0.02585718
#
# Stress axis : x y z
#
# Youngs Moduli (GPa) = 67.56031 55.31416 53.36407
#
# Poissons Ratio (x) = 0.29725 0.24432
# Poissons Ratio (y) = 0.36306 0.15629
# Poissons Ratio (z) = 0.30932 0.16200
#
# Static dielectric constant tensor:
#      x y z
#    x 3.354500 0.047220 0.015200 
#    y 0.047220 3.336830 -0.334860 
#    z 0.015200 -0.334860 3.701770 
# 
# 
# High freq. dielectric constant tensor:
#      x y z
#    x 1.731690 0.003220 -0.010050 
#    y 0.003220 1.722700 -0.024970 
#    z -0.010050 -0.024970 1.742050 
# 
# From -- ./inp_files/434018.got.cif
#   From: 2010.06.25/outbox.cif.g09.slc.cpg/sg2_218_cif.got.tgz:434018.got - 2010.06.27 13:26:56.
