data_PCOD8016277
_publ_section_title
;
Structure prediction by ZEFSAII (Michael W. Deem and Ramdas Pophale) SiO2 
 PCOD8016277
Probable space group: P -1
;
_chemical_formula_sum "Si O2"
_cell_formula_units_Z 14
_cell_length_a 14.297282
_cell_length_b 8.727016
_cell_length_c 8.120040
_cell_angle_alpha 50.806171
_cell_angle_beta 82.625733
_cell_angle_gamma 56.694275
_cell_volume 617.718859
_symmetry_space_group_name_H-M "P -1"
_symmetry_group_IT_number 2
_symmetry_cell_setting 'triclinic'
loop_
_space_group_symop_operation_xyz
x,y,z
-x,-y,-z
loop_
_atom_site_type_symbol
_atom_site_label
_atom_site_fract_x
_atom_site_fract_y
_atom_site_fract_z
Si Si1 0.743216 0.026323 0.379269
Si Si2 0.404016 0.165001 0.069302
Si Si3 0.048291 0.934157 0.715490
Si Si4 0.387253 0.586119 0.578080
Si Si5 0.338638 0.101994 0.808687
Si Si6 0.201492 0.452280 0.171795
Si Si7 0.805816 0.357052 0.622994
O O1 0.680890 0.064800 0.188962
O O2 0.818319 0.738921 0.616971
O O3 0.833661 0.086603 0.286508
O O4 0.644804 0.205713 0.419040
O O5 0.410010 0.354723 0.827556
O O6 0.354439 0.049060 0.040068
O O7 0.325099 0.295462 0.155921
O O8 0.538392 0.948615 0.246235
O O9 0.090033 0.658013 0.942382
O O10 0.000000 0.000000 0.500000
O O11 0.945836 0.139562 0.719498
O O12 0.500000 0.500000 0.500000
O O13 0.272968 0.712507 0.397075
O O14 0.226689 0.389755 0.619691
O O15 0.216691 0.602302 0.204771
#
# Coordination Sequence:
#
# PCOD8016277 Si02
#       7
#     2   2   2   2   2   2   2
#     4  11  25  43  68 101 129 179 224 272 326 400
#     4  10  21  44  65  96 143 174 213 279 337 388
#     4  12  23  49  67  93 142 172 225 274 332 389
#     4  11  24  42  64 101 137 174 221 273 333 397
#     4   9  22  39  65  98 126 179 219 263 334 389
#     4  11  25  42  69 100 128 177 225 269 339 387
#     4  10  23  44  66  95 138 178 214 282 329 389
#
# _framework density 22.664031999999999
#
# number of rings (size 3 to 8) (size 9 to 14) (size 15 to 20)
#    0.000    1.429    2.857    1.286    8.000    5.714 
#    0.000    0.000    0.000    0.000    0.000    0.000 
#    0.000    0.000    0.000    0.000    0.000    0.000 
#
# Total GULP energy -173496.688124 kJ/mol
# GULP energy per Si atom -12392.620580 kJ/mol
# Density = 2.261245 g / cm^3
# Si number density = 22.664032 Si / 1000 Ang^3
#
#
#
# Elastic Constant Matrix: (Units=GPa)
#
#
# Indices 1 2 3 4 5 6 
#
# 1 86.0703 44.1220 9.8642 13.2623 9.2280 6.9267
# 2 44.1220 161.4078 8.7032 15.5050 4.8250 -4.8882
# 3 9.8642 8.7032 61.8368 -4.8929 3.3081 5.9778
# 4 13.2623 15.5050 -4.8929 42.3015 0.1627 8.7275
# 5 9.2280 4.8250 3.3081 0.1627 26.6227 4.4463
# 6 6.9267 -4.8882 5.9778 8.7275 4.4463 50.9766
#
#
#
# Elastic Compliance Matrix: (Units=1/GPa)
#
#
# Indices 1 2 3 4 5 6 
#
# 1 0.014649 -0.003515 -0.001767 -0.003242 -0.003998 -0.001216
# 2 -0.003515 0.007457 -0.000797 -0.002066 -0.000300 0.001666
# 3 -0.001767 -0.000797 0.017105 0.003308 -0.001001 -0.002321
# 4 -0.003242 -0.002066 0.003308 0.026797 0.001739 -0.004885
# 5 -0.003998 -0.000300 -0.001001 0.001739 0.039637 -0.003123
# 6 -0.001216 0.001666 -0.002321 -0.004885 -0.003123 0.021323
#
#
# Mechanical properties :
#
#
# Convention : Reuss Voigt Hill
#
# Bulk Modulus (GPa) = 36.96507 48.29931 42.63219
# Shear Modulus (GPa) = 33.75053 40.42185 37.08619
#
# Velocity S-wave (km/s) = 3.86316 4.22776 4.04957
# Velocity P-wave (km/s) = 6.02031 6.72229 6.38096
#
# Compressibility (1/GPa) = 0.02705256
#
# Stress axis : x y z
#
# Youngs Moduli (GPa) = 68.26417 134.09829 58.46108
#
# Poissons Ratio (x) = 0.47135 0.10331
# Poissons Ratio (y) = 0.23995 0.04662
# Poissons Ratio (z) = 0.12063 0.10693
#
# Static dielectric constant tensor:
#      x y z
#    x 4.227610 0.059440 0.464920 
#    y 0.059440 4.583730 -0.104490 
#    z 0.464920 -0.104490 4.376720 
# 
# 
# High freq. dielectric constant tensor:
#      x y z
#    x 1.867130 0.004740 0.019560 
#    y 0.004740 1.920890 -0.000080 
#    z 0.019560 -0.000080 1.892330 
# 
# From -- ./inp_files/241970.got.cif
#   From: 2010.06.25/outbox.cif.g09.slc.cpg/sg2_121_cif.got.tgz:241970.got - 2010.06.27 13:26:56.
