data_PCOD8016184
_publ_section_title
;
Structure prediction by ZEFSAII (Michael W. Deem and Ramdas Pophale) SiO2 
 PCOD8016184
Probable space group: P -1
;
_chemical_formula_sum "Si O2"
_cell_formula_units_Z 12
_cell_length_a 9.721870
_cell_length_b 12.353723
_cell_length_c 8.967324
_cell_angle_alpha 80.841206
_cell_angle_beta 66.460850
_cell_angle_gamma 36.138313
_cell_volume 555.070748
_symmetry_space_group_name_H-M "P -1"
_symmetry_group_IT_number 2
_symmetry_cell_setting 'triclinic'
loop_
_space_group_symop_operation_xyz
x,y,z
-x,-y,-z
loop_
_atom_site_type_symbol
_atom_site_label
_atom_site_fract_x
_atom_site_fract_y
_atom_site_fract_z
Si Si1 0.517837 0.094674 0.573316
Si Si2 0.042702 0.078009 0.759047
Si Si3 0.049959 0.492171 0.308156
Si Si4 0.746399 0.858842 0.818387
Si Si5 0.060075 0.830343 0.879531
Si Si6 0.378733 0.509434 0.188118
O O1 0.227541 0.312284 0.692760
O O2 0.500000 0.000000 0.500000
O O3 0.673965 0.090536 0.407266
O O4 0.676363 0.972714 0.680376
O O5 0.850947 0.271535 0.699511
O O6 0.935842 0.017869 0.827314
O O7 0.052676 0.120496 0.914768
O O8 0.166678 0.315401 0.219770
O O9 0.258491 0.464832 0.203058
O O10 0.000000 0.500000 0.500000
O O11 0.983017 0.775318 0.821929
O O12 0.500000 0.000000 0.000000
O O13 0.377969 0.653075 0.769043
O O14 0.500000 0.500000 0.000000
#
# Coordination Sequence:
#
# PCOD8016184 Si02
#       6
#     2   2   2   2   2   2
#     4  12  23  44  72  99 139 185 235 277 348 422
#     4  10  21  43  72  97 135 190 226 276 354 418
#     4  12  25  45  75 102 136 187 233 285 347 420
#     4  12  29  44  68 107 142 177 237 293 344 403
#     4  10  24  42  69 101 139 179 229 292 342 409
#     4  10  22  39  69  99 132 181 232 271 344 416
#
# _framework density 21.618865
#
# number of rings (size 3 to 8) (size 9 to 14) (size 15 to 20)
#    0.000    1.000    3.333    2.000    9.333    2.667 
#    0.000    5.833    0.000    0.000    0.000    0.000 
#    0.000    0.000    0.000    0.000    0.000    0.000 
#
# Total GULP energy -148790.093642 kJ/mol
# GULP energy per Si atom -12399.174470 kJ/mol
# Density = 2.156966 g / cm^3
# Si number density = 21.618865 Si / 1000 Ang^3
#
#
#
# Elastic Constant Matrix: (Units=GPa)
#
#
# Indices 1 2 3 4 5 6 
#
# 1 163.6819 78.9906 62.4133 11.6605 -10.6627 5.6586
# 2 78.9906 145.6309 41.9601 16.2170 2.0369 6.8462
# 3 62.4133 41.9601 111.1343 6.1862 -12.3788 3.6460
# 4 11.6605 16.2170 6.1862 35.2148 4.4787 -2.4894
# 5 -10.6627 2.0369 -12.3788 4.4787 33.1205 4.4361
# 6 5.6586 6.8462 3.6460 -2.4894 4.4361 39.3948
#
#
#
# Elastic Compliance Matrix: (Units=1/GPa)
#
#
# Indices 1 2 3 4 5 6 
#
# 1 0.009700 -0.004122 -0.003559 -0.001025 0.002274 -0.000668
# 2 -0.004122 0.009902 -0.001460 -0.002753 -0.001983 -0.000944
# 3 -0.003559 -0.001460 0.012025 -0.000783 0.003653 -0.000809
# 4 -0.001025 -0.002753 -0.000783 0.031016 -0.005080 0.003230
# 5 0.002274 -0.001983 0.003653 -0.005080 0.033693 -0.004435
# 6 -0.000668 -0.000944 -0.000809 0.003230 -0.004435 0.026423
#
#
# Mechanical properties :
#
#
# Convention : Reuss Voigt Hill
#
# Bulk Modulus (GPa) = 74.93709 87.46393 81.20051
# Shear Modulus (GPa) = 34.36664 37.35157 35.85910
#
# Velocity S-wave (km/s) = 3.99138 4.16111 4.07713
# Velocity P-wave (km/s) = 7.48195 7.97693 7.73340
#
# Compressibility (1/GPa) = 0.01334453
#
# Stress axis : x y z
#
# Youngs Moduli (GPa) = 103.09265 100.98989 83.15918
#
# Poissons Ratio (x) = 0.41630 0.29595
# Poissons Ratio (y) = 0.42496 0.12143
# Poissons Ratio (z) = 0.36689 0.14747
#
# Static dielectric constant tensor:
#      x y z
#    x 3.682670 0.245030 0.276720 
#    y 0.245030 3.037540 -1.458080 
#    z 0.276720 -1.458080 2.230730 
# 
# 
# High freq. dielectric constant tensor:
#      x y z
#    x 1.840170 0.004530 -0.025480 
#    y 0.004530 1.869050 0.002160 
#    z -0.025480 0.002160 1.842260 
# 
# From -- ./inp_files/156531.got.cif
#   From: 2010.06.25/outbox.cif.g09.slc.cpg/sg2_79_cif.got.tgz:156531.got - 2010.06.27 13:26:56.
