data_PCOD8016380
_publ_section_title
;
Structure prediction by ZEFSAII (Michael W. Deem and Ramdas Pophale) SiO2 
 PCOD8016380
Probable space group: P -1
;
_chemical_formula_sum "Si O2"
_cell_formula_units_Z 12
_cell_length_a 12.082436
_cell_length_b 7.379797
_cell_length_c 9.313431
_cell_angle_alpha 51.006703
_cell_angle_beta 131.748189
_cell_angle_gamma 106.509782
_cell_volume 468.352958
_symmetry_space_group_name_H-M "P -1"
_symmetry_group_IT_number 2
_symmetry_cell_setting 'triclinic'
loop_
_space_group_symop_operation_xyz
x,y,z
-x,-y,-z
loop_
_atom_site_type_symbol
_atom_site_label
_atom_site_fract_x
_atom_site_fract_y
_atom_site_fract_z
Si Si1 0.883929 0.748035 0.300938
Si Si2 0.664200 0.949056 0.494503
Si Si3 0.849367 0.249639 0.928184
Si Si4 0.947233 0.682590 0.702226
Si Si5 0.431478 0.674911 0.531627
Si Si6 0.453304 0.307893 0.954161
O O1 0.913392 0.820129 0.454400
O O2 0.715124 0.718328 0.141719
O O3 0.000000 0.500000 0.500000
O O4 0.912614 0.960255 0.116304
O O5 0.665036 0.149908 0.516852
O O6 0.834435 0.825740 0.656133
O O7 0.588814 0.745699 0.598474
O O8 0.570846 0.056999 0.215802
O O9 0.883902 0.325454 0.084171
O O10 0.927185 0.407646 0.806864
O O11 0.668671 0.313662 0.705494
O O12 0.464517 0.399901 0.754913
O O13 0.500000 0.500000 0.000000
#
# Coordination Sequence:
#
# PCOD8016380 Si02
#       6
#     2   2   2   2   2   2
#     4  12  27  47  70  98 134 184 229 275 339 400
#     4  10  23  43  71 100 136 174 223 278 336 398
#     4  11  25  47  66 102 138 178 228 275 335 399
#     4  11  27  46  66 103 138 179 222 283 336 394
#     4  10  21  44  69 100 133 179 222 270 336 401
#     4  10  22  44  67 104 132 174 227 277 330 399
#
# _framework density 25.621704999999999
#
# number of rings (size 3 to 8) (size 9 to 14) (size 15 to 20)
#    0.000    1.333    3.333    0.500    4.667    6.667 
#    0.000    0.000    0.000    0.000    0.000    0.000 
#    0.000    0.000    0.000    0.000    0.000    0.000 
#
# Total GULP energy -148726.098026 kJ/mol
# GULP energy per Si atom -12393.841502 kJ/mol
# Density = 2.556339 g / cm^3
# Si number density = 25.621705 Si / 1000 Ang^3
#
#
#
# Elastic Constant Matrix: (Units=GPa)
#
#
# Indices 1 2 3 4 5 6 
#
# 1 53.9237 18.9824 27.4169 5.4098 -6.7525 -2.2980
# 2 18.9824 75.8411 32.3212 10.1694 -2.5114 17.6763
# 3 27.4169 32.3212 145.9494 -0.4596 -9.0328 18.8474
# 4 5.4098 10.1694 -0.4596 56.5240 22.7275 -2.2018
# 5 -6.7525 -2.5114 -9.0328 22.7275 26.8998 3.0199
# 6 -2.2980 17.6763 18.8474 -2.2018 3.0199 36.7137
#
#
#
# Elastic Compliance Matrix: (Units=1/GPa)
#
#
# Indices 1 2 3 4 5 6 
#
# 1 0.023527 -0.004664 -0.003555 -0.004190 0.007290 0.004692
# 2 -0.004664 0.018030 -0.001644 -0.005367 0.005494 -0.008903
# 3 -0.003555 -0.001644 0.008583 -0.000572 0.002780 -0.004100
# 4 -0.004190 -0.005367 -0.000572 0.030786 -0.028520 0.006807
# 5 0.007290 0.005494 0.002780 -0.028520 0.065753 -0.010735
# 6 0.004692 -0.008903 -0.004100 0.006807 -0.010735 0.035214
#
#
# Mechanical properties :
#
#
# Convention : Reuss Voigt Hill
#
# Bulk Modulus (GPa) = 32.87857 48.12836 40.50346
# Shear Modulus (GPa) = 23.61202 37.16041 30.38622
#
# Velocity S-wave (km/s) = 3.03902 3.81248 3.44751
# Velocity P-wave (km/s) = 5.01741 6.18102 5.62936
#
# Compressibility (1/GPa) = 0.03041495
#
# Stress axis : x y z
#
# Youngs Moduli (GPa) = 42.50413 55.46349 116.50657
#
# Poissons Ratio (x) = 0.25869 0.41414
# Poissons Ratio (y) = 0.19824 0.19152
# Poissons Ratio (z) = 0.15109 0.09117
#
# Static dielectric constant tensor:
#      x y z
#    x 4.101810 0.343750 -0.125080 
#    y 0.343750 4.699930 -0.327720 
#    z -0.125080 -0.327720 3.992440 
# 
# 
# High freq. dielectric constant tensor:
#      x y z
#    x 1.979700 0.030400 -0.004120 
#    y 0.030400 2.030850 -0.002750 
#    z -0.004120 -0.002750 2.055970 
# 
# From -- ./inp_files/230294.got.cif
#   From: 2010.06.25/outbox.cif.g09.slc.cpg/sg2_116_cif.got.tgz:230294.got - 2010.06.27 13:26:56.
