data_PCOD8016321
_publ_section_title
;
Structure prediction by ZEFSAII (Michael W. Deem and Ramdas Pophale) SiO2 
 PCOD8016321
Probable space group: P -1
;
_chemical_formula_sum "Si O2"
_cell_formula_units_Z 12
_cell_length_a 24.956225
_cell_length_b 5.347266
_cell_length_c 22.806389
_cell_angle_alpha 123.240101
_cell_angle_beta 169.069852
_cell_angle_gamma 58.334407
_cell_volume 480.969540
_symmetry_space_group_name_H-M "P -1"
_symmetry_group_IT_number 2
_symmetry_cell_setting 'triclinic'
loop_
_space_group_symop_operation_xyz
x,y,z
-x,-y,-z
loop_
_atom_site_type_symbol
_atom_site_label
_atom_site_fract_x
_atom_site_fract_y
_atom_site_fract_z
Si Si1 0.354233 0.295991 0.368113
Si Si2 0.086969 0.427535 0.823352
Si Si3 0.559562 0.668240 0.913916
Si Si4 0.583517 0.783101 0.753801
Si Si5 0.686465 0.370819 0.134255
Si Si6 0.025211 0.990581 0.163751
O O1 0.500000 0.500000 0.500000
O O2 0.363013 0.489431 0.462607
O O3 0.500000 0.000000 0.500000
O O4 0.039820 0.166896 0.990085
O O5 0.765694 0.308715 0.451012
O O6 0.097351 0.688504 0.917160
O O7 0.249378 0.517024 0.948880
O O8 0.286017 0.193939 0.037729
O O9 0.573714 0.492264 0.967333
O O10 0.688900 0.012314 0.096611
O O11 0.364122 0.041861 0.546176
O O12 0.853108 0.789174 0.001788
O O13 0.000000 0.500000 0.500000
O O14 0.500000 0.500000 0.000000
#
# Coordination Sequence:
#
# PCOD8016321 Si02
#       6
#     2   2   2   2   2   2
#     4  10  21  44  66  99 133 191 254 314 352 415
#     4  12  26  44  68 108 150 193 234 295 360 436
#     4  12  28  45  78 111 150 185 234 287 354 427
#     4  11  24  43  68  97 143 193 250 303 362 418
#     4  12  26  52  80 110 144 185 234 285 344 422
#     4  11  24  43  68  97 143 193 250 303 362 418
#
# _framework density 24.949604000000001
#
# number of rings (size 3 to 8) (size 9 to 14) (size 15 to 20)
#    0.000    0.667    1.667    5.500    7.000    0.000 
#    0.000    3.333    0.000    0.000    0.000    0.000 
#    0.000    0.000    0.000    0.000    0.000    0.000 
#
# Total GULP energy -148677.626652 kJ/mol
# GULP energy per Si atom -12389.802221 kJ/mol
# Density = 2.489282 g / cm^3
# Si number density = 24.949604 Si / 1000 Ang^3
#
#
#
# Elastic Constant Matrix: (Units=GPa)
#
#
# Indices 1 2 3 4 5 6 
#
# 1 101.1737 11.5099 42.0342 -7.0233 4.7898 -3.3337
# 2 11.5099 79.3008 9.8232 -0.8269 -0.8744 19.4131
# 3 42.0342 9.8232 173.6963 -5.7671 -1.9613 -1.5695
# 4 -7.0233 -0.8269 -5.7671 38.0705 -0.9546 -0.0485
# 5 4.7898 -0.8744 -1.9613 -0.9546 40.7022 -11.1152
# 6 -3.3337 19.4131 -1.5695 -0.0485 -11.1152 31.7547
#
#
#
# Elastic Compliance Matrix: (Units=1/GPa)
#
#
# Indices 1 2 3 4 5 6 
#
# 1 0.011383 -0.001767 -0.002595 0.001646 -0.000969 0.001810
# 2 -0.001767 0.015482 -0.000574 -0.000149 -0.002359 -0.010505
# 3 -0.002595 -0.000574 0.006450 0.000507 0.000801 0.000679
# 4 0.001646 -0.000149 0.000507 0.026660 0.000600 0.000540
# 5 -0.000969 -0.002359 0.000801 0.000600 0.027711 0.011081
# 6 0.001810 -0.010505 0.000679 0.000540 0.011081 0.042017
#
#
# Mechanical properties :
#
#
# Convention : Reuss Voigt Hill
#
# Bulk Modulus (GPa) = 42.65936 53.43393 48.04664
# Shear Modulus (GPa) = 33.92396 41.49238 37.70817
#
# Velocity S-wave (km/s) = 3.69141 4.08247 3.89186
# Velocity P-wave (km/s) = 5.94172 6.60949 6.28448
#
# Compressibility (1/GPa) = 0.02344152
#
# Stress axis : x y z
#
# Youngs Moduli (GPa) = 87.85118 64.59138 155.04960
#
# Poissons Ratio (x) = 0.11416 0.40229
# Poissons Ratio (y) = 0.15527 0.08905
# Poissons Ratio (z) = 0.22794 0.03710
#
# Static dielectric constant tensor:
#      x y z
#    x 4.687080 -0.213580 -0.238300 
#    y -0.213580 4.640910 0.143960 
#    z -0.238300 0.143960 4.712180 
# 
# 
# High freq. dielectric constant tensor:
#      x y z
#    x 1.988030 -0.007090 -0.007470 
#    y -0.007090 2.001070 -0.001990 
#    z -0.007470 -0.001990 2.014750 
# 
# From -- ./inp_files/6795.got.cif
#   From: 2010.06.25/outbox.cif.g09.slc.cpg/sg2_4_cif.got.tgz:6795.got - 2010.06.27 13:26:56.
