data_PCOD8016720
_publ_section_title
;
Structure prediction by ZEFSAII (Michael W. Deem and Ramdas Pophale) SiO2 
 PCOD8016720
Probable space group: P -1
;
_chemical_formula_sum "Si O2"
_cell_formula_units_Z 16
_cell_length_a 7.050299
_cell_length_b 19.139623
_cell_length_c 8.510720
_cell_angle_alpha 48.415682
_cell_angle_beta 81.943416
_cell_angle_gamma 61.168725
_cell_volume 723.605998
_symmetry_space_group_name_H-M "P -1"
_symmetry_group_IT_number 2
_symmetry_cell_setting 'triclinic'
loop_
_space_group_symop_operation_xyz
x,y,z
-x,-y,-z
loop_
_atom_site_type_symbol
_atom_site_label
_atom_site_fract_x
_atom_site_fract_y
_atom_site_fract_z
Si Si1 0.103694 0.227684 0.757246
Si Si2 0.542471 0.966084 0.792278
Si Si3 0.390233 0.218369 0.162110
Si Si4 0.159578 0.332184 0.308646
Si Si5 0.208563 0.910840 0.510699
Si Si6 0.986359 0.598714 0.254236
Si Si7 0.270583 0.506060 0.047296
Si Si8 0.027247 0.086986 0.769677
O O1 0.206089 0.277212 0.553792
O O2 0.964315 0.321309 0.765265
O O3 0.946715 0.194272 0.729597
O O4 0.315226 0.115935 0.962190
O O5 0.575252 0.893454 0.744128
O O6 0.636449 0.044325 0.632844
O O7 0.284191 0.036164 0.766780
O O8 0.230274 0.243949 0.293433
O O9 0.635183 0.191915 0.236367
O O10 0.269900 0.322799 0.901509
O O11 0.314094 0.384884 0.204518
O O12 0.896618 0.422893 0.180769
O O13 0.128628 0.872067 0.427947
O O14 0.000000 0.000000 0.500000
O O15 0.000000 0.500000 0.500000
O O16 0.166876 0.552912 0.161778
O O17 0.500000 0.500000 0.000000
O O18 0.000000 0.000000 0.000000
#
# Coordination Sequence:
#
# PCOD8016720 Si02
#       8
#     2   2   2   2   2   2   2   2
#     4  11  23  42  73  99 140 194 231 286 364 426
#     4  11  24  46  65  98 148 183 236 299 351 416
#     4  10  23  41  70 103 136 191 231 286 362 420
#     4  10  22  41  68  98 141 177 232 286 359 418
#     4  12  25  44  69  99 143 188 240 296 347 425
#     4  10  21  46  77 100 143 189 234 296 364 430
#     4  10  22  45  69 100 135 180 232 301 349 417
#     4  12  26  44  67 101 143 186 240 293 350 423
#
# _framework density 22.111481999999999
#
# number of rings (size 3 to 8) (size 9 to 14) (size 15 to 20)
#    0.000    1.250    3.750    1.500    3.500    1.000 
#    6.750    1.875    0.000    0.000    0.000    0.000 
#    0.000    0.000    0.000    0.000    0.000    0.000 
#
# Total GULP energy -198332.006188 kJ/mol
# GULP energy per Si atom -12395.750387 kJ/mol
# Density = 2.206116 g / cm^3
# Si number density = 22.111482 Si / 1000 Ang^3
#
#
#
# Elastic Constant Matrix: (Units=GPa)
#
#
# Indices 1 2 3 4 5 6 
#
# 1 149.7556 55.6363 59.1237 1.9247 3.2917 6.6569
# 2 55.6363 123.7165 42.5896 9.7367 5.1046 19.9758
# 3 59.1237 42.5896 124.4964 1.5075 11.4070 3.3177
# 4 1.9247 9.7367 1.5075 32.0174 3.3732 3.4272
# 5 3.2917 5.1046 11.4070 3.3732 39.0299 10.9725
# 6 6.6569 19.9758 3.3177 3.4272 10.9725 41.8082
#
#
#
# Elastic Compliance Matrix: (Units=1/GPa)
#
#
# Indices 1 2 3 4 5 6 
#
# 1 0.009096 -0.003009 -0.003348 0.000461 0.000544 0.000074
# 2 -0.003009 0.011171 -0.002329 -0.002710 0.001035 -0.004723
# 3 -0.003348 -0.002329 0.010647 0.000560 -0.003007 0.001544
# 4 0.000461 -0.002710 0.000560 0.032347 -0.002407 -0.000843
# 5 0.000544 0.001035 -0.003007 -0.002407 0.028684 -0.007674
# 6 0.000074 -0.004723 0.001544 -0.000843 -0.007674 0.028124
#
#
# Mechanical properties :
#
#
# Convention : Reuss Voigt Hill
#
# Bulk Modulus (GPa) = 73.84106 79.18529 76.51317
# Shear Modulus (GPa) = 35.22281 38.61236 36.91758
#
# Velocity S-wave (km/s) = 3.99553 4.18336 4.09052
# Velocity P-wave (km/s) = 7.39953 7.69569 7.54906
#
# Compressibility (1/GPa) = 0.01354260
#
# Stress axis : x y z
#
# Youngs Moduli (GPa) = 109.94031 89.51802 93.92730
#
# Poissons Ratio (x) = 0.26933 0.31445
# Poissons Ratio (y) = 0.33078 0.21874
# Poissons Ratio (z) = 0.36806 0.20848
#
# Static dielectric constant tensor:
#      x y z
#    x 4.254580 0.252770 0.284100 
#    y 0.252770 4.378690 0.043920 
#    z 0.284100 0.043920 4.386410 
# 
# 
# High freq. dielectric constant tensor:
#      x y z
#    x 1.847690 0.018860 0.016430 
#    y 0.018860 1.885510 0.004140 
#    z 0.016430 0.004140 1.885120 
# 
# From -- ./inp_files/141127.got.cif
#   From: 2010.06.25/outbox.cif.g09.slc.cpg/sg2_71_cif.got.tgz:141127.got - 2010.06.27 13:26:56.
