data_PCOD8016031
_publ_section_title
;
Structure prediction by ZEFSAII (Michael W. Deem and Ramdas Pophale) SiO2 
 PCOD8016031
Probable space group: P -1
;
_chemical_formula_sum "Si O2"
_cell_formula_units_Z 12
_cell_length_a 15.079357
_cell_length_b 14.397465
_cell_length_c 9.002136
_cell_angle_alpha 131.638429
_cell_angle_beta 134.191019
_cell_angle_gamma 20.924080
_cell_volume 499.783990
_symmetry_space_group_name_H-M "P -1"
_symmetry_group_IT_number 2
_symmetry_cell_setting 'triclinic'
loop_
_space_group_symop_operation_xyz
x,y,z
-x,-y,-z
loop_
_atom_site_type_symbol
_atom_site_label
_atom_site_fract_x
_atom_site_fract_y
_atom_site_fract_z
Si Si1 0.776957 0.465374 0.379782
Si Si2 0.282588 0.868934 0.636008
Si Si3 0.802887 0.189859 0.249424
Si Si4 0.164407 0.212479 0.040311
Si Si5 0.717377 0.651725 0.791863
Si Si6 0.234071 0.018133 0.206611
O O1 0.673871 0.420233 0.260876
O O2 0.876051 0.457386 0.628297
O O3 0.531816 0.752160 0.325372
O O4 0.026403 0.231218 0.317343
O O5 0.370972 0.693367 0.683177
O O6 0.503415 0.735502 0.654047
O O7 0.151166 0.094005 0.815471
O O8 0.089688 0.973156 0.408635
O O9 0.836847 0.049349 0.023281
O O10 0.884317 0.519188 0.997279
O O11 0.375177 0.126300 0.129113
O O12 0.208771 0.153734 0.203791
#
# Coordination Sequence:
#
# PCOD8016031 Si02
#       6
#     2   2   2   2   2   2
#     4  12  25  46  67 106 140 183 224 281 347 411
#     4  10  21  43  69 104 132 174 233 288 338 399
#     4  10  22  43  70 102 138 177 227 281 342 411
#     4  10  24  46  67 103 128 184 231 287 334 406
#     4  11  24  43  75  93 138 177 236 282 340 403
#     4  11  27  45  70 102 143 180 228 279 349 409
#
# _framework density 24.010373999999999
#
# number of rings (size 3 to 8) (size 9 to 14) (size 15 to 20)
#    0.000    1.333    1.667    2.500    4.667    3.333 
#    3.000    0.000    0.000    0.000    0.000    0.000 
#    0.000    0.000    0.000    0.000    0.000    0.000 
#
# Total GULP energy -148689.361806 kJ/mol
# GULP energy per Si atom -12390.780150 kJ/mol
# Density = 2.395573 g / cm^3
# Si number density = 24.010374 Si / 1000 Ang^3
#
#
#
# Elastic Constant Matrix: (Units=GPa)
#
#
# Indices 1 2 3 4 5 6 
#
# 1 170.6948 57.1195 46.6602 12.7691 -26.7034 20.9722
# 2 57.1195 107.4584 45.6634 17.7938 -41.5672 3.3158
# 3 46.6602 45.6634 105.5157 29.6767 -43.8889 -10.1855
# 4 12.7691 17.7938 29.6767 71.0919 -36.0266 -6.6629
# 5 -26.7034 -41.5672 -43.8889 -36.0266 58.6854 -2.4728
# 6 20.9722 3.3158 -10.1855 -6.6629 -2.4728 42.0796
#
#
#
# Elastic Compliance Matrix: (Units=1/GPa)
#
#
# Indices 1 2 3 4 5 6 
#
# 1 0.008237 -0.003412 -0.003108 -0.000551 -0.001533 -0.004766
# 2 -0.003412 0.015017 -0.001676 0.002383 0.009337 0.001037
# 3 -0.003108 -0.001676 0.016262 -0.000380 0.009585 0.006121
# 4 -0.000551 0.002383 -0.000380 0.021485 0.014521 0.004250
# 5 -0.001533 0.009337 0.009585 0.014521 0.039332 0.006959
# 6 -0.004766 0.001037 0.006121 0.004250 0.006959 0.028622
#
#
# Mechanical properties :
#
#
# Convention : Reuss Voigt Hill
#
# Bulk Modulus (GPa) = 43.24880 75.83946 59.54413
# Shear Modulus (GPa) = 32.66813 49.98642 41.32728
#
# Velocity S-wave (km/s) = 3.69261 4.56770 4.15327
# Velocity P-wave (km/s) = 6.01931 7.71189 6.91756
#
# Compressibility (1/GPa) = 0.02312203
#
# Stress axis : x y z
#
# Youngs Moduli (GPa) = 121.40507 66.59091 61.49467
#
# Poissons Ratio (x) = 0.22720 0.19115
# Poissons Ratio (y) = 0.41423 0.10309
# Poissons Ratio (z) = 0.37737 0.11164
#
# Static dielectric constant tensor:
#      x y z
#    x 5.017760 0.420790 0.011830 
#    y 0.420790 3.906840 0.035950 
#    z 0.011830 0.035950 4.354840 
# 
# 
# High freq. dielectric constant tensor:
#      x y z
#    x 1.978130 0.019080 0.002140 
#    y 0.019080 1.919200 0.001570 
#    z 0.002140 0.001570 1.964250 
# 
# From -- ./inp_files/18925.got.cif
#   From: 2010.06.25/outbox.cif.g09.slc.cpg/sg2_10_cif.got.tgz:18925.got - 2010.06.27 13:26:56.
