data_PCOD8016148
_publ_section_title
;
Structure prediction by ZEFSAII (Michael W. Deem and Ramdas Pophale) SiO2 
 PCOD8016148
Probable space group: P -1
;
_chemical_formula_sum "Si O2"
_cell_formula_units_Z 12
_cell_length_a 15.278692
_cell_length_b 10.447744
_cell_length_c 7.537821
_cell_angle_alpha 38.379343
_cell_angle_beta 59.038957
_cell_angle_gamma 38.962551
_cell_volume 455.610944
_symmetry_space_group_name_H-M "P -1"
_symmetry_group_IT_number 2
_symmetry_cell_setting 'triclinic'
loop_
_space_group_symop_operation_xyz
x,y,z
-x,-y,-z
loop_
_atom_site_type_symbol
_atom_site_label
_atom_site_fract_x
_atom_site_fract_y
_atom_site_fract_z
Si Si1 0.544597 0.131717 0.467190
Si Si2 0.101392 0.003614 0.104817
Si Si3 0.403758 0.472032 0.904828
Si Si4 0.833493 0.612768 0.881375
Si Si5 0.333125 0.433453 0.656763
Si Si6 0.888553 0.968188 0.325419
O O1 0.559309 0.347156 0.281396
O O2 0.429630 0.202448 0.649557
O O3 0.696464 0.795396 0.689343
O O4 0.487485 0.199337 0.249633
O O5 0.245939 0.763263 0.327896
O O6 0.142035 0.059147 0.817197
O O7 0.043895 0.852493 0.293407
O O8 0.980712 0.299934 0.009701
O O9 0.437388 0.359270 0.790129
O O10 0.230257 0.691629 0.865136
O O11 0.876848 0.791663 0.663269
O O12 0.778229 0.590030 0.146121
#
# Coordination Sequence:
#
# PCOD8016148 Si02
#       6
#     2   2   2   2   2   2
#     4  10  23  44  66  98 134 174 223 273 329 399
#     4  11  23  44  69  97 136 175 223 272 333 397
#     4  10  21  43  71  92 132 179 219 272 333 389
#     4  11  24  41  69 100 133 173 226 272 329 400
#     4  12  23  42  70 100 133 174 222 275 336 391
#     4  10  22  44  68  96 134 181 216 272 336 389
#
# _framework density 26.338259999999998
#
# number of rings (size 3 to 8) (size 9 to 14) (size 15 to 20)
#    0.000    1.333    3.333    2.000    0.000    1.333 
#    3.000    1.667    0.000    0.000    0.000    0.000 
#    0.000    0.000    0.000    0.000    0.000    0.000 
#
# Total GULP energy -148788.614664 kJ/mol
# GULP energy per Si atom -12399.051222 kJ/mol
# Density = 2.627831 g / cm^3
# Si number density = 26.338260 Si / 1000 Ang^3
#
#
#
# Elastic Constant Matrix: (Units=GPa)
#
#
# Indices 1 2 3 4 5 6 
#
# 1 43.9312 11.6442 29.2696 -0.6030 22.2167 10.8689
# 2 11.6442 106.5332 44.5315 -3.1970 7.0929 8.4731
# 3 29.2696 44.5315 139.2586 -6.3969 4.9511 16.8416
# 4 -0.6030 -3.1970 -6.3969 50.3445 -0.5443 7.4578
# 5 22.2167 7.0929 4.9511 -0.5443 37.2771 9.3171
# 6 10.8689 8.4731 16.8416 7.4578 9.3171 22.6967
#
#
#
# Elastic Compliance Matrix: (Units=1/GPa)
#
#
# Indices 1 2 3 4 5 6 
#
# 1 0.039398 0.000472 -0.007052 0.000128 -0.021362 -0.005084
# 2 0.000472 0.010968 -0.003370 0.000452 -0.001584 -0.001318
# 3 -0.007052 -0.003370 0.010341 0.001911 0.004919 -0.005686
# 4 0.000128 0.000452 0.001911 0.021598 0.002323 -0.009699
# 5 -0.021362 -0.001584 0.004919 0.002323 0.041941 -0.010810
# 6 -0.005084 -0.001318 -0.005686 -0.009699 -0.010810 0.058829
#
#
# Mechanical properties :
#
#
# Convention : Reuss Voigt Hill
#
# Bulk Modulus (GPa) = 24.50508 51.17929 37.84218
# Shear Modulus (GPa) = 23.08639 35.68216 29.38427
#
# Velocity S-wave (km/s) = 2.96384 3.68471 3.34376
# Velocity P-wave (km/s) = 4.58658 6.12996 5.41355
#
# Compressibility (1/GPa) = 0.04080787
#
# Stress axis : x y z
#
# Youngs Moduli (GPa) = 25.38173 91.17697 96.70140
#
# Poissons Ratio (x) = -0.04301 0.68189
# Poissons Ratio (y) = -0.01197 0.32587
# Poissons Ratio (z) = 0.17898 0.30725
#
# Static dielectric constant tensor:
#      x y z
#    x 4.645760 -0.288750 -0.037170 
#    y -0.288750 4.659220 0.056700 
#    z -0.037170 0.056700 5.092890 
# 
# 
# High freq. dielectric constant tensor:
#      x y z
#    x 2.043920 -0.010880 -0.006330 
#    y -0.010880 2.051040 -0.003880 
#    z -0.006330 -0.003880 2.078860 
# 
# From -- ./inp_files/242266.got.cif
#   From: 2010.06.25/outbox.cif.g09.slc.cpg/sg2_122_cif.got.tgz:242266.got - 2010.06.27 13:26:56.
