data_PCOD8016091
_publ_section_title
;
Structure prediction by ZEFSAII (Michael W. Deem and Ramdas Pophale) SiO2 
 PCOD8016091
Probable space group: P -1
;
_chemical_formula_sum "Si O2"
_cell_formula_units_Z 16
_cell_length_a 7.326529
_cell_length_b 17.007469
_cell_length_c 12.919893
_cell_angle_alpha 29.118673
_cell_angle_beta 65.570555
_cell_angle_gamma 63.579165
_cell_volume 700.437925
_symmetry_space_group_name_H-M "P -1"
_symmetry_group_IT_number 2
_symmetry_cell_setting 'triclinic'
loop_
_space_group_symop_operation_xyz
x,y,z
-x,-y,-z
loop_
_atom_site_type_symbol
_atom_site_label
_atom_site_fract_x
_atom_site_fract_y
_atom_site_fract_z
Si Si1 0.672477 0.840252 0.862002
Si Si2 0.226626 0.948647 0.762036
Si Si3 0.127281 0.738513 0.195234
Si Si4 0.302025 0.288685 0.388027
Si Si5 0.514063 0.159317 0.879906
Si Si6 0.281917 0.371690 0.524141
Si Si7 0.271430 0.861415 0.618472
Si Si8 0.969810 0.413917 0.001946
O O1 0.456448 0.855481 0.838956
O O2 0.812830 0.663350 0.010281
O O3 0.776260 0.989609 0.624148
O O4 0.643586 0.849565 0.980500
O O5 0.195541 0.930250 0.669222
O O6 0.176702 0.140268 0.585683
O O7 0.076518 0.859854 0.968401
O O8 0.263743 0.821001 0.150573
O O9 0.243096 0.567008 0.318291
O O10 0.919481 0.710521 0.328652
O O11 0.382254 0.314764 0.455050
O O12 0.491411 0.229426 0.334368
O O13 0.161633 0.459974 0.191733
O O14 0.438369 0.314050 0.646112
O O15 0.500000 0.000000 0.000000
O O16 0.143128 0.727830 0.770566
O O17 0.000000 0.500000 0.000000
#
# Coordination Sequence:
#
# PCOD8016091 Si02
#       8
#     2   2   2   2   2   2   2   2
#     4  10  23  41  66  97 129 172 218 271 337 390
#     4  10  21  43  70  90 130 171 220 268 333 402
#     4  10  24  43  69  99 129 182 216 282 335 398
#     4  11  24  42  68  98 125 176 220 269 333 396
#     4  11  24  44  69  98 138 176 229 278 333 401
#     4  11  24  44  68  97 138 170 232 270 337 398
#     4  11  22  42  67  91 132 176 214 268 333 398
#     4  12  25  41  61 100 136 165 219 273 330 396
#
# _framework density 22.842852000000001
#
# number of rings (size 3 to 8) (size 9 to 14) (size 15 to 20)
#    0.000    1.250    0.000    7.125    5.250    4.000 
#    4.500    0.000    0.000    0.000    0.000    0.000 
#    0.000    0.000    0.000    0.000    0.000    0.000 
#
# Total GULP energy -198397.625567 kJ/mol
# GULP energy per Si atom -12399.851598 kJ/mol
# Density = 2.279086 g / cm^3
# Si number density = 22.842852 Si / 1000 Ang^3
#
#
#
# Elastic Constant Matrix: (Units=GPa)
#
#
# Indices 1 2 3 4 5 6 
#
# 1 59.1940 23.8567 20.0675 -1.6741 3.4998 6.7864
# 2 23.8567 129.1091 29.7314 3.6001 3.6812 15.7979
# 3 20.0675 29.7314 78.7870 11.0502 0.3348 1.7454
# 4 -1.6741 3.6001 11.0502 39.2027 8.3818 11.2822
# 5 3.4998 3.6812 0.3348 8.3818 40.0403 -11.4538
# 6 6.7864 15.7979 1.7454 11.2822 -11.4538 32.2327
#
#
#
# Elastic Compliance Matrix: (Units=1/GPa)
#
#
# Indices 1 2 3 4 5 6 
#
# 1 0.020565 -0.001813 -0.005145 0.005418 -0.004641 -0.006708
# 2 -0.001813 0.009600 -0.003342 0.002324 -0.002895 -0.005985
# 3 -0.005145 -0.003342 0.016082 -0.006811 0.003629 0.005524
# 4 0.005418 0.002324 -0.006811 0.035945 -0.013692 -0.019358
# 5 -0.004641 -0.002895 0.003629 -0.013692 0.033932 0.019050
# 6 -0.006708 -0.005985 0.005524 -0.019358 0.019050 0.048616
#
#
# Mechanical properties :
#
#
# Convention : Reuss Voigt Hill
#
# Bulk Modulus (GPa) = 38.99244 46.04459 42.51851
# Shear Modulus (GPa) = 25.78788 35.19078 30.48933
#
# Velocity S-wave (km/s) = 3.36359 3.92925 3.65738
# Velocity P-wave (km/s) = 5.67379 6.38641 6.04062
#
# Compressibility (1/GPa) = 0.02564600
#
# Stress axis : x y z
#
# Youngs Moduli (GPa) = 48.62544 104.16657 62.18247
#
# Poissons Ratio (x) = 0.18886 0.31996
# Poissons Ratio (y) = 0.08816 0.20781
# Poissons Ratio (z) = 0.25020 0.34812
#
# Static dielectric constant tensor:
#      x y z
#    x 4.046120 -0.046710 0.086190 
#    y -0.046710 4.160850 0.025140 
#    z 0.086190 0.025140 4.823620 
# 
# 
# High freq. dielectric constant tensor:
#      x y z
#    x 1.889800 0.004590 0.001270 
#    y 0.004590 1.912330 -0.001740 
#    z 0.001270 -0.001740 1.918680 
# 
# From -- ./inp_files/398076.got.cif
#   From: 2010.06.25/outbox.cif.g09.slc.cpg/sg2_200_cif.got.tgz:398076.got - 2010.06.27 13:26:56.
