data_PCOD8016388
_publ_section_title
;
Structure prediction by ZEFSAII (Michael W. Deem and Ramdas Pophale) SiO2 
 PCOD8016388
Probable space group: P -1
;
_chemical_formula_sum "Si O2"
_cell_formula_units_Z 14
_cell_length_a 22.695689
_cell_length_b 6.254128
_cell_length_c 5.365975
_cell_angle_alpha 101.430979
_cell_angle_beta 126.775577
_cell_angle_gamma 106.462620
_cell_volume 513.619586
_symmetry_space_group_name_H-M "P -1"
_symmetry_group_IT_number 2
_symmetry_cell_setting 'triclinic'
loop_
_space_group_symop_operation_xyz
x,y,z
-x,-y,-z
loop_
_atom_site_type_symbol
_atom_site_label
_atom_site_fract_x
_atom_site_fract_y
_atom_site_fract_z
Si Si1 0.024783 0.703612 0.398140
Si Si2 0.872662 0.498758 0.655742
Si Si3 0.317019 0.152489 0.238195
Si Si4 0.566025 0.286967 0.142714
Si Si5 0.831470 0.763310 0.180348
Si Si6 0.529502 0.787248 0.622241
Si Si7 0.726523 0.241101 0.542017
O O1 0.077823 0.645431 0.321079
O O2 0.000000 0.500000 0.500000
O O3 0.090575 0.996215 0.705533
O O4 0.935897 0.680796 0.077655
O O5 0.865966 0.685247 0.487727
O O6 0.777113 0.253001 0.419595
O O7 0.388068 0.410538 0.626301
O O8 0.367600 0.074884 0.145157
O O9 0.269334 0.937133 0.277107
O O10 0.247618 0.195789 0.931722
O O11 0.631351 0.184424 0.263627
O O12 0.497602 0.143095 0.162699
O O13 0.522619 0.190640 0.736759
O O14 0.790691 0.537489 0.829764
O O15 0.500000 0.500000 0.500000
#
# Coordination Sequence:
#
# PCOD8016388 Si02
#       7
#     2   2   2   2   2   2   2
#     4  11  25  47  72  99 134 178 226 286 350 432
#     4  11  25  43  70 102 134 177 231 278 360 424
#     4  10  22  43  68  97 141 185 232 291 352 422
#     4  10  24  44  71 101 147 189 247 299 362 414
#     4  11  24  45  67 101 140 177 225 291 348 425
#     4  10  21  44  69 104 139 197 242 300 357 421
#     4  11  26  44  66 105 137 185 231 293 351 428
#
# _framework density 27.257531
#
# number of rings (size 3 to 8) (size 9 to 14) (size 15 to 20)
#    0.000    1.429    0.000    4.714    6.000    8.000 
#   10.286    0.000    0.000    0.000    0.000    0.000 
#    0.000    0.000    0.000    0.000    0.000    0.000 
#
# Total GULP energy -173525.780023 kJ/mol
# GULP energy per Si atom -12394.698573 kJ/mol
# Density = 2.719549 g / cm^3
# Si number density = 27.257531 Si / 1000 Ang^3
#
#
#
# Elastic Constant Matrix: (Units=GPa)
#
#
# Indices 1 2 3 4 5 6 
#
# 1 156.7343 33.5663 29.4946 2.5693 17.3641 11.9112
# 2 33.5663 156.5550 22.7127 0.2746 10.8295 28.9116
# 3 29.4946 22.7127 89.1903 -11.9738 34.1235 2.9687
# 4 2.5693 0.2746 -11.9738 58.0932 1.3897 9.4892
# 5 17.3641 10.8295 34.1235 1.3897 60.1922 2.8169
# 6 11.9112 28.9116 2.9687 9.4892 2.8169 52.2191
#
#
#
# Elastic Compliance Matrix: (Units=1/GPa)
#
#
# Indices 1 2 3 4 5 6 
#
# 1 0.007106 -0.001057 -0.001831 -0.000539 -0.000772 -0.000792
# 2 -0.001057 0.007541 -0.001346 0.000377 -0.000114 -0.003920
# 3 -0.001831 -0.001346 0.015795 0.003529 -0.008269 0.000070
# 4 -0.000539 0.000377 0.003529 0.018595 -0.002176 -0.003548
# 5 -0.000772 -0.000114 -0.008269 -0.002176 0.021597 -0.000060
# 6 -0.000792 -0.003920 0.000070 -0.003548 -0.000060 0.022145
#
#
# Mechanical properties :
#
#
# Convention : Reuss Voigt Hill
#
# Bulk Modulus (GPa) = 45.51095 63.78077 54.64586
# Shear Modulus (GPa) = 46.05237 55.21464 50.63350
#
# Velocity S-wave (km/s) = 4.11485 4.50562 4.31466
# Velocity P-wave (km/s) = 6.26968 7.10758 6.70173
#
# Compressibility (1/GPa) = 0.02197273
#
# Stress axis : x y z
#
# Youngs Moduli (GPa) = 140.73031 132.61644 63.30941
#
# Poissons Ratio (x) = 0.14021 0.11593
# Poissons Ratio (y) = 0.14879 0.08522
# Poissons Ratio (z) = 0.25771 0.17850
#
# Static dielectric constant tensor:
#      x y z
#    x 4.884370 0.658660 -0.228290 
#    y 0.658660 5.105440 0.656050 
#    z -0.228290 0.656050 5.248790 
# 
# 
# High freq. dielectric constant tensor:
#      x y z
#    x 2.128470 -0.010580 0.014210 
#    y -0.010580 2.129450 0.029540 
#    z 0.014210 0.029540 2.109800 
# 
# From -- ./inp_files/7508.got.cif
#   From: 2010.06.25/outbox.cif.g09.slc.cpg/sg2_4_cif.got.tgz:7508.got - 2010.06.27 13:26:56.
