data_PCOD8016518
_publ_section_title
;
Structure prediction by ZEFSAII (Michael W. Deem and Ramdas Pophale) SiO2 
 PCOD8016518
Probable space group: P -1
;
_chemical_formula_sum "Si O2"
_cell_formula_units_Z 16
_cell_length_a 15.027033
_cell_length_b 19.091821
_cell_length_c 12.695425
_cell_angle_alpha 27.288521
_cell_angle_beta 134.536358
_cell_angle_gamma 152.948203
_cell_volume 684.850447
_symmetry_space_group_name_H-M "P -1"
_symmetry_group_IT_number 2
_symmetry_cell_setting 'triclinic'
loop_
_space_group_symop_operation_xyz
x,y,z
-x,-y,-z
loop_
_atom_site_type_symbol
_atom_site_label
_atom_site_fract_x
_atom_site_fract_y
_atom_site_fract_z
Si Si1 0.134347 0.751822 0.845344
Si Si2 0.609294 0.224805 0.667414
Si Si3 0.981557 0.401047 0.810440
Si Si4 0.616372 0.775140 0.112601
Si Si5 0.347256 0.987708 0.363483
Si Si6 0.104737 0.288510 0.895873
Si Si7 0.121301 0.959029 0.380394
Si Si8 0.631661 0.445878 0.590095
O O1 0.122257 0.905017 0.574710
O O2 0.382993 0.943966 0.804165
O O3 0.031275 0.661647 0.995289
O O4 0.000000 0.500000 0.000000
O O5 0.754095 0.218009 0.811436
O O6 0.720884 0.462135 0.369358
O O7 0.561791 0.251274 0.706551
O O8 0.089253 0.367255 0.885547
O O9 0.125333 0.696838 0.521457
O O10 0.555504 0.536387 0.366060
O O11 0.494020 0.720398 0.185059
O O12 0.538761 0.791610 0.924243
O O13 0.874348 0.048877 0.968160
O O14 0.500000 0.000000 0.500000
O O15 0.301540 0.042408 0.355909
O O16 0.186371 0.200976 0.109089
O O17 0.888705 0.695278 0.487015
#
# Coordination Sequence:
#
# PCOD8016518 Si02
#       8
#     2   2   2   2   2   2   2   2
#     4  12  27  46  71 103 143 186 237 296 359 421
#     4  12  24  45  75 101 142 187 244 292 349 418
#     4  12  26  46  68 106 140 184 245 285 353 419
#     4  10  22  42  72 106 146 180 241 283 358 415
#     4  12  26  42  70 105 143 190 232 297 350 417
#     4  11  25  45  73 105 143 185 237 296 346 424
#     4  11  25  49  71 103 147 189 234 286 362 420
#     4  10  21  44  75 106 136 193 233 293 342 430
#
# _framework density 23.362766000000001
#
# number of rings (size 3 to 8) (size 9 to 14) (size 15 to 20)
#    0.000    0.750    3.750    2.250    3.500    5.000 
#    2.250    0.000    0.000    0.000    0.000    0.000 
#    0.000    0.000    0.000    0.000    0.000    0.000 
#
# Total GULP energy -198497.819203 kJ/mol
# GULP energy per Si atom -12406.113700 kJ/mol
# Density = 2.330959 g / cm^3
# Si number density = 23.362766 Si / 1000 Ang^3
#
#
#
# Elastic Constant Matrix: (Units=GPa)
#
#
# Indices 1 2 3 4 5 6 
#
# 1 135.2388 35.3691 52.4334 13.5949 9.8255 12.0735
# 2 35.3691 77.5950 36.7450 17.0861 -6.8913 -0.6225
# 3 52.4334 36.7450 117.7333 32.3663 -13.7225 2.7658
# 4 13.5949 17.0861 32.3663 48.9258 3.8465 2.7901
# 5 9.8255 -6.8913 -13.7225 3.8465 36.0620 -1.0361
# 6 12.0735 -0.6225 2.7658 2.7901 -1.0361 24.6771
#
#
#
# Elastic Compliance Matrix: (Units=1/GPa)
#
#
# Indices 1 2 3 4 5 6 
#
# 1 0.010968 -0.003752 -0.004913 0.002291 -0.005975 -0.005420
# 2 -0.003752 0.016840 -0.002120 -0.003923 0.003941 0.003107
# 3 -0.004913 -0.002120 0.014375 -0.008092 0.007323 0.001961
# 4 0.002291 -0.003923 -0.008092 0.027325 -0.007475 -0.003716
# 5 -0.005975 0.003941 0.007323 -0.007475 0.033823 0.004467
# 6 -0.005420 0.003107 0.001961 -0.003716 0.004467 0.043642
#
#
# Mechanical properties :
#
#
# Convention : Reuss Voigt Hill
#
# Bulk Modulus (GPa) = 48.50952 64.40691 56.45822
# Shear Modulus (GPa) = 28.50399 35.66761 32.08580
#
# Velocity S-wave (km/s) = 3.49673 3.91152 3.70993
# Velocity P-wave (km/s) = 6.09192 6.93023 6.52455
#
# Compressibility (1/GPa) = 0.02061451
#
# Stress axis : x y z
#
# Youngs Moduli (GPa) = 91.17616 59.38151 69.56295
#
# Poissons Ratio (x) = 0.22277 0.34174
# Poissons Ratio (y) = 0.34205 0.14749
# Poissons Ratio (z) = 0.44792 0.12591
#
# Static dielectric constant tensor:
#      x y z
#    x 4.199710 0.057830 -0.100850 
#    y 0.057830 4.204890 0.027840 
#    z -0.100850 0.027840 4.562280 
# 
# 
# High freq. dielectric constant tensor:
#      x y z
#    x 1.927530 0.003830 -0.005870 
#    y 0.003830 1.913560 0.004700 
#    z -0.005870 0.004700 1.946700 
# 
# From -- ./inp_files/456911.got.cif
#   From: 2010.06.25/outbox.cif.g09.slc.cpg/sg2_229_cif.got.tgz:456911.got - 2010.06.27 13:26:56.
