data_PCOD8016644
_publ_section_title
;
Structure prediction by ZEFSAII (Michael W. Deem and Ramdas Pophale) SiO2 
 PCOD8016644
Probable space group: P -1
;
_chemical_formula_sum "Si O2"
_cell_formula_units_Z 16
_cell_length_a 9.059826
_cell_length_b 17.607397
_cell_length_c 10.885646
_cell_angle_alpha 55.710745
_cell_angle_beta 102.114740
_cell_angle_gamma 144.334689
_cell_volume 717.294951
_symmetry_space_group_name_H-M "P -1"
_symmetry_group_IT_number 2
_symmetry_cell_setting 'triclinic'
loop_
_space_group_symop_operation_xyz
x,y,z
-x,-y,-z
loop_
_atom_site_type_symbol
_atom_site_label
_atom_site_fract_x
_atom_site_fract_y
_atom_site_fract_z
Si Si1 0.327294 0.480763 0.903224
Si Si2 0.094702 0.817834 0.076765
Si Si3 0.749550 0.258409 0.978378
Si Si4 0.220180 0.011652 0.291780
Si Si5 0.819829 0.446260 0.630934
Si Si6 0.846692 0.668465 0.430078
Si Si7 0.660907 0.842021 0.581964
Si Si8 0.261312 0.093672 0.731878
O O1 0.517570 0.668609 0.735683
O O2 0.233631 0.378671 0.855235
O O3 0.014965 0.354936 0.021539
O O4 0.500000 0.500000 0.000000
O O5 0.319477 0.852103 0.043316
O O6 0.047091 0.801583 0.227530
O O7 0.212756 0.972421 0.898858
O O8 0.872328 0.415140 0.792105
O O9 0.461331 0.125970 0.125220
O O10 0.978807 0.802449 0.439750
O O11 0.050661 0.018218 0.231010
O O12 0.395194 0.112368 0.360962
O O13 0.915783 0.599703 0.539416
O O14 0.474623 0.265507 0.698726
O O15 0.000000 0.500000 0.500000
O O16 0.500000 0.500000 0.500000
O O17 0.581175 0.839776 0.434938
O O18 0.000000 0.000000 0.500000
#
# Coordination Sequence:
#
# PCOD8016644 Si02
#       8
#     2   2   2   2   2   2   2   2
#     4  10  21  45  72  97 130 179 233 276 344 411
#     4  10  24  43  69 100 129 184 225 275 349 410
#     4  10  25  43  67 104 135 176 231 283 348 407
#     4  11  25  43  66 102 140 179 230 285 339 407
#     4  12  23  42  70 100 138 182 227 287 346 406
#     4  12  25  43  67 106 139 177 233 284 344 408
#     4  10  22  42  69  97 133 182 229 277 338 410
#     4  11  23  43  71  95 142 185 227 279 344 412
#
# _framework density 22.306027
#
# number of rings (size 3 to 8) (size 9 to 14) (size 15 to 20)
#    0.750    0.500    2.500    3.750    5.250    2.500 
#    0.000    0.625    0.000    0.000    0.000    0.000 
#    0.000    0.000    0.000    0.000    0.000    0.000 
#
# Total GULP energy -198292.822261 kJ/mol
# GULP energy per Si atom -12393.301391 kJ/mol
# Density = 2.225526 g / cm^3
# Si number density = 22.306027 Si / 1000 Ang^3
#
#
#
# Elastic Constant Matrix: (Units=GPa)
#
#
# Indices 1 2 3 4 5 6 
#
# 1 109.7556 25.1401 63.3325 10.3907 10.6109 2.6519
# 2 25.1401 84.1368 41.6441 5.5014 16.6980 -11.5046
# 3 63.3325 41.6441 134.3645 -7.4154 18.3893 -15.9989
# 4 10.3907 5.5014 -7.4154 28.7299 -4.2534 4.3461
# 5 10.6109 16.6980 18.3893 -4.2534 47.1236 -8.9611
# 6 2.6519 -11.5046 -15.9989 4.3461 -8.9611 34.6693
#
#
#
# Elastic Compliance Matrix: (Units=1/GPa)
#
#
# Indices 1 2 3 4 5 6 
#
# 1 0.014256 -0.000527 -0.007195 -0.006516 -0.001599 -0.004182
# 2 -0.000527 0.015447 -0.003943 -0.004783 -0.003678 0.002995
# 3 -0.007195 -0.003943 0.012993 0.005956 -0.000696 0.004311
# 4 -0.006516 -0.004783 0.005956 0.040576 0.004048 -0.002381
# 5 -0.001599 -0.003678 -0.000696 0.004048 0.024352 0.004368
# 6 -0.004182 0.002995 0.004311 -0.002381 0.004368 0.033575
#
#
# Mechanical properties :
#
#
# Convention : Reuss Voigt Hill
#
# Bulk Modulus (GPa) = 51.63650 65.38781 58.51215
# Shear Modulus (GPa) = 29.24253 35.31390 32.27822
#
# Velocity S-wave (km/s) = 3.62466 3.98320 3.80815
# Velocity P-wave (km/s) = 6.38098 7.10860 6.75459
#
# Compressibility (1/GPa) = 0.01936615
#
# Stress axis : x y z
#
# Youngs Moduli (GPa) = 70.14508 64.73860 76.96361
#
# Poissons Ratio (x) = 0.03411 0.55376
# Poissons Ratio (y) = 0.03696 0.30347
# Poissons Ratio (z) = 0.50470 0.25526
#
# Static dielectric constant tensor:
#      x y z
#    x 4.321270 -1.477280 -0.949660 
#    y -1.477280 10.887820 5.087010 
#    z -0.949660 5.087010 7.729740 
# 
# 
# High freq. dielectric constant tensor:
#      x y z
#    x 1.873620 0.000090 0.003220 
#    y 0.000090 1.884650 -0.021890 
#    z 0.003220 -0.021890 1.877780 
# 
# From -- ./inp_files/403014.got.cif
#   From: 2010.06.25/outbox.cif.g09.slc.cpg/sg2_202_cif.got.tgz:403014.got - 2010.06.27 13:26:56.
