data_PCOD8016997
_publ_section_title
;
Structure prediction by ZEFSAII (Michael W. Deem and Ramdas Pophale) SiO2 
 PCOD8016997
Probable space group: P -1
;
_chemical_formula_sum "Si O2"
_cell_formula_units_Z 16
_cell_length_a 12.565470
_cell_length_b 9.659422
_cell_length_c 10.266008
_cell_angle_alpha 41.065368
_cell_angle_beta 105.545111
_cell_angle_gamma 92.998622
_cell_volume 766.212089
_symmetry_space_group_name_H-M "P -1"
_symmetry_group_IT_number 2
_symmetry_cell_setting 'triclinic'
loop_
_space_group_symop_operation_xyz
x,y,z
-x,-y,-z
loop_
_atom_site_type_symbol
_atom_site_label
_atom_site_fract_x
_atom_site_fract_y
_atom_site_fract_z
Si Si1 0.609355 0.729470 0.926816
Si Si2 0.617569 0.821922 0.154450
Si Si3 0.360468 0.752391 0.799687
Si Si4 0.054663 0.647564 0.324273
Si Si5 0.248700 0.999932 0.351834
Si Si6 0.994836 0.888755 0.894341
Si Si7 0.299329 0.632580 0.408489
Si Si8 0.252470 0.852972 0.960897
O O1 0.475789 0.838260 0.785326
O O2 0.685851 0.811340 0.786546
O O3 0.652295 0.784758 0.042036
O O4 0.622235 0.474527 0.105658
O O5 0.604352 0.591690 0.376788
O O6 0.718089 0.911191 0.193200
O O7 0.500000 0.000000 0.000000
O O8 0.273309 0.921753 0.562713
O O9 0.313160 0.724675 0.947304
O O10 0.187273 0.538856 0.443842
O O11 0.000000 0.500000 0.500000
O O12 0.038334 0.889052 0.197412
O O13 0.002482 0.678483 0.139502
O O14 0.295631 0.812463 0.392175
O O15 0.112528 0.103358 0.240086
O O16 0.117914 0.873725 0.880749
O O17 0.306230 0.731379 0.197167
#
# Coordination Sequence:
#
# PCOD8016997 Si02
#       8
#     2   2   2   2   2   2   2   2
#     4  11  24  44  64  92 125 169 219 257 311 384
#     4  12  23  41  66  97 125 166 214 263 315 370
#     4  11  25  44  64  89 130 172 209 260 321 371
#     4   9  17  32  57  88 126 163 198 253 309 363
#     4  11  22  41  68  92 127 171 210 258 315 379
#     4   9  21  35  59  97 125 159 208 258 309 371
#     4  10  22  37  63  94 126 162 209 256 313 372
#     4  11  23  43  63  97 134 160 209 268 310 372
#
# _framework density 20.881947
#
# number of rings (size 3 to 8) (size 9 to 14) (size 15 to 20)
#    0.000    1.500    3.750    1.875    1.750    2.000 
#    4.500    0.625    0.000    0.000    0.000    0.000 
#    0.000    0.000    0.000    0.000    0.000    0.000 
#
# Total GULP energy -198286.714224 kJ/mol
# GULP energy per Si atom -12392.919639 kJ/mol
# Density = 2.083442 g / cm^3
# Si number density = 20.881947 Si / 1000 Ang^3
#
#
#
# Elastic Constant Matrix: (Units=GPa)
#
#
# Indices 1 2 3 4 5 6 
#
# 1 121.1352 20.3067 33.0670 2.6353 3.6530 15.7121
# 2 20.3067 51.5553 13.7991 8.7801 -1.8076 0.0446
# 3 33.0670 13.7991 85.9863 2.0573 -5.4532 14.3845
# 4 2.6353 8.7801 2.0573 32.8795 -2.1773 -2.0314
# 5 3.6530 -1.8076 -5.4532 -2.1773 33.1887 1.7391
# 6 15.7121 0.0446 14.3845 -2.0314 1.7391 24.7627
#
#
#
# Elastic Compliance Matrix: (Units=1/GPa)
#
#
# Indices 1 2 3 4 5 6 
#
# 1 0.010220 -0.003330 -0.002680 -0.000160 -0.001504 -0.004830
# 2 -0.003330 0.022343 -0.002664 -0.005297 0.000634 0.003141
# 3 -0.002680 -0.002664 0.014428 -0.000213 0.002868 -0.006895
# 4 -0.000160 -0.005297 -0.000213 0.032135 0.001658 0.002755
# 5 -0.001504 0.000634 0.002868 0.001658 0.031055 -0.002758
# 6 -0.004830 0.003141 -0.006895 0.002755 -0.002758 0.047867
#
#
# Mechanical properties :
#
#
# Convention : Reuss Voigt Hill
#
# Bulk Modulus (GPa) = 33.73197 43.66915 38.70056
# Shear Modulus (GPa) = 26.98687 30.93310 28.95999
#
# Velocity S-wave (km/s) = 3.59883 3.85298 3.72807
# Velocity P-wave (km/s) = 5.78425 6.38371 6.09136
#
# Compressibility (1/GPa) = 0.02964547
#
# Stress axis : x y z
#
# Youngs Moduli (GPa) = 97.84598 44.75759 69.30914
#
# Poissons Ratio (x) = 0.14902 0.18572
# Poissons Ratio (y) = 0.32578 0.18461
# Poissons Ratio (z) = 0.26218 0.11922
#
# Static dielectric constant tensor:
#      x y z
#    x 3.924160 0.136210 0.342420 
#    y 0.136210 3.534120 0.023890 
#    z 0.342420 0.023890 3.955120 
# 
# 
# High freq. dielectric constant tensor:
#      x y z
#    x 1.821610 0.009530 0.003110 
#    y 0.009530 1.792880 -0.002680 
#    z 0.003110 -0.002680 1.825880 
# 
# From -- ./inp_files/242144.got.cif
#   From: 2010.06.25/outbox.cif.g09.slc.cpg/sg2_122_cif.got.tgz:242144.got - 2010.06.27 13:26:56.
