data_PCOD8016217
_publ_section_title
;
Structure prediction by ZEFSAII (Michael W. Deem and Ramdas Pophale) SiO2 
 PCOD8016217
Probable space group: P -1
;
_chemical_formula_sum "Si O2"
_cell_formula_units_Z 14
_cell_length_a 9.332703
_cell_length_b 9.368280
_cell_length_c 8.504476
_cell_angle_alpha 73.733690
_cell_angle_beta 56.083375
_cell_angle_gamma 85.552316
_cell_volume 589.440960
_symmetry_space_group_name_H-M "P -1"
_symmetry_group_IT_number 2
_symmetry_cell_setting 'triclinic'
loop_
_space_group_symop_operation_xyz
x,y,z
-x,-y,-z
loop_
_atom_site_type_symbol
_atom_site_label
_atom_site_fract_x
_atom_site_fract_y
_atom_site_fract_z
Si Si1 0.365241 0.590238 0.854617
Si Si2 0.725344 0.377890 0.452291
Si Si3 0.047058 0.839815 0.461363
Si Si4 0.317903 0.832709 0.029908
Si Si5 0.808245 0.918448 0.134287
Si Si6 0.408215 0.273363 0.889154
Si Si7 0.251706 0.314246 0.486907
O O1 0.269968 0.594644 0.744515
O O2 0.366080 0.419926 0.964641
O O3 0.556919 0.673297 0.703128
O O4 0.267597 0.673004 0.025457
O O5 0.844700 0.244772 0.451325
O O6 0.529939 0.328523 0.648054
O O7 0.794312 0.532688 0.448985
O O8 0.157128 0.864153 0.227185
O O9 0.875902 0.728097 0.567163
O O10 0.000000 0.000000 0.500000
O O11 0.495111 0.834454 0.021497
O O12 0.331171 0.959157 0.846412
O O13 0.772837 0.808393 0.038847
O O14 0.765636 0.828903 0.345239
O O15 0.000000 0.000000 0.000000
#
# Coordination Sequence:
#
# PCOD8016217 Si02
#       7
#     2   2   2   2   2   2   2
#     4  11  22  43  74 102 125 177 229 279 325 396
#     4  10  21  43  75  98 128 180 227 272 332 397
#     4  11  26  46  67  98 141 178 219 275 342 399
#     4  11  26  41  68 102 137 174 222 275 338 394
#     4  12  23  41  66  97 142 174 222 274 333 393
#     4  10  21  45  67  98 136 176 223 274 333 402
#     4  11  22  45  70 100 136 175 223 278 331 399
#
# _framework density 23.751318000000001
#
# number of rings (size 3 to 8) (size 9 to 14) (size 15 to 20)
#    0.000    1.143    4.286    2.143    2.000    4.000 
#    0.000    4.286    0.000    0.000    0.000    0.000 
#    0.000    0.000    0.000    0.000    0.000    0.000 
#
# Total GULP energy -173595.349773 kJ/mol
# GULP energy per Si atom -12399.667841 kJ/mol
# Density = 2.369726 g / cm^3
# Si number density = 23.751318 Si / 1000 Ang^3
#
#
#
# Elastic Constant Matrix: (Units=GPa)
#
#
# Indices 1 2 3 4 5 6 
#
# 1 120.4032 57.6485 30.4032 -7.6488 -4.3091 12.6538
# 2 57.6485 159.6767 53.3440 7.0261 -18.4389 -0.4979
# 3 30.4032 53.3440 51.7833 3.5073 -0.0895 -4.4110
# 4 -7.6488 7.0261 3.5073 46.9362 0.8666 4.6743
# 5 -4.3091 -18.4389 -0.0895 0.8666 21.7074 -11.1928
# 6 12.6538 -0.4979 -4.4110 4.6743 -11.1928 54.3402
#
#
#
# Elastic Compliance Matrix: (Units=1/GPa)
#
#
# Indices 1 2 3 4 5 6 
#
# 1 0.011329 -0.003257 -0.003828 0.003044 -0.002603 -0.003777
# 2 -0.003257 0.012285 -0.010373 -0.002048 0.011114 0.002495
# 3 -0.003828 -0.010373 0.032488 -0.001525 -0.008433 0.001828
# 4 0.003044 -0.002048 -0.001525 0.022653 -0.003905 -0.003604
# 5 -0.002603 0.011114 -0.008433 -0.003905 0.061868 0.013103
# 6 -0.003777 0.002495 0.001828 -0.003604 0.013103 0.022462
#
#
# Mechanical properties :
#
#
# Convention : Reuss Voigt Hill
#
# Bulk Modulus (GPa) = 47.20056 68.29496 57.74776
# Shear Modulus (GPa) = 24.38257 37.29459 30.83858
#
# Velocity S-wave (km/s) = 3.20750 3.96689 3.60723
# Velocity P-wave (km/s) = 5.79943 7.05678 6.45878
#
# Compressibility (1/GPa) = 0.02118619
#
# Stress axis : x y z
#
# Youngs Moduli (GPa) = 88.26993 81.39851 30.78022
#
# Poissons Ratio (x) = 0.26515 0.11783
# Poissons Ratio (y) = 0.28754 0.31927
# Poissons Ratio (z) = 0.33791 0.84431
#
# Static dielectric constant tensor:
#      x y z
#    x 4.442540 -0.043380 0.147820 
#    y -0.043380 4.517970 -0.163540 
#    z 0.147820 -0.163540 4.038500 
# 
# 
# High freq. dielectric constant tensor:
#      x y z
#    x 1.954160 -0.001050 0.020080 
#    y -0.001050 1.957200 -0.013010 
#    z 0.020080 -0.013010 1.912950 
# 
# From -- ./inp_files/157899.got.cif
#   From: 2010.06.25/outbox.cif.g09.slc.cpg/sg2_79_cif.got.tgz:157899.got - 2010.06.27 13:26:56.
