data_PCOD8016154
_publ_section_title
;
Structure prediction by ZEFSAII (Michael W. Deem and Ramdas Pophale) SiO2 
 PCOD8016154
Probable space group: P -1
;
_chemical_formula_sum "Si O2"
_cell_formula_units_Z 16
_cell_length_a 11.896057
_cell_length_b 11.281977
_cell_length_c 11.840084
_cell_angle_alpha 126.712701
_cell_angle_beta 47.785323
_cell_angle_gamma 142.101683
_cell_volume 714.910658
_symmetry_space_group_name_H-M "P -1"
_symmetry_group_IT_number 2
_symmetry_cell_setting 'triclinic'
loop_
_space_group_symop_operation_xyz
x,y,z
-x,-y,-z
loop_
_atom_site_type_symbol
_atom_site_label
_atom_site_fract_x
_atom_site_fract_y
_atom_site_fract_z
Si Si1 0.346180 0.570820 0.302882
Si Si2 0.614415 0.956169 0.610911
Si Si3 0.799362 0.842513 0.842337
Si Si4 0.936443 0.415727 0.868258
Si Si5 0.591984 0.268711 0.871481
Si Si6 0.794442 0.309420 0.355385
Si Si7 0.875615 0.042206 0.674009
Si Si8 0.221057 0.018097 0.712334
O O1 0.292818 0.370522 0.260276
O O2 0.295461 0.551323 0.191658
O O3 0.190141 0.577772 0.479306
O O4 0.584233 0.756983 0.264803
O O5 0.586101 0.112664 0.719636
O O6 0.668777 0.927016 0.679963
O O7 0.781722 0.023670 0.442926
O O8 0.405826 0.751965 0.600875
O O9 0.005934 0.961882 0.843108
O O10 0.834157 0.970697 0.787171
O O11 0.635278 0.820886 0.015718
O O12 0.705009 0.318309 0.944509
O O13 0.980248 0.270112 0.737119
O O14 0.041029 0.569717 0.783435
O O15 0.000000 0.500000 0.000000
O O16 0.773092 0.125621 0.299218
O O17 0.000000 0.000000 0.500000
#
# Coordination Sequence:
#
# PCOD8016154 Si02
#       8
#     2   2   2   2   2   2   2   2
#     4  11  23  44  70 107 136 177 241 289 350 421
#     4  10  21  43  71  95 134 178 234 286 344 412
#     4  12  27  40  68 103 144 190 218 291 366 404
#     4  11  28  44  69 104 142 187 240 289 352 431
#     4  11  24  45  67  99 142 177 233 289 349 425
#     4  11  22  43  75 101 129 184 236 295 348 408
#     4  11  24  46  68  98 141 190 242 285 343 430
#     4  11  22  44  73 103 136 174 237 299 342 415
#
# _framework density 22.380420000000001
#
# number of rings (size 3 to 8) (size 9 to 14) (size 15 to 20)
#    0.000    1.000    3.750    2.625    5.250    3.500 
#    0.000    1.875    0.000    0.000    0.000    0.000 
#    0.000    0.000    0.000    0.000    0.000    0.000 
#
# Total GULP energy -198286.186310 kJ/mol
# GULP energy per Si atom -12392.886644 kJ/mol
# Density = 2.232948 g / cm^3
# Si number density = 22.380420 Si / 1000 Ang^3
#
#
#
# Elastic Constant Matrix: (Units=GPa)
#
#
# Indices 1 2 3 4 5 6 
#
# 1 123.1958 33.2878 32.5805 -1.2696 3.9457 8.5760
# 2 33.2878 85.8887 6.2179 -0.6136 0.0233 -2.0553
# 3 32.5805 6.2179 79.6670 -7.7026 4.1497 16.0865
# 4 -1.2696 -0.6136 -7.7026 29.2570 -1.4433 2.5838
# 5 3.9457 0.0233 4.1497 -1.4433 39.3965 -4.0845
# 6 8.5760 -2.0553 16.0865 2.5838 -4.0845 28.3623
#
#
#
# Elastic Compliance Matrix: (Units=1/GPa)
#
#
# Indices 1 2 3 4 5 6 
#
# 1 0.010194 -0.003726 -0.003607 -0.000503 -0.000800 -0.001376
# 2 -0.003726 0.013136 0.000031 -0.000039 0.000584 0.002149
# 3 -0.003607 0.000031 0.016415 0.004853 -0.002119 -0.008964
# 4 -0.000503 -0.000039 0.004853 0.035963 0.000251 -0.005843
# 5 -0.000800 0.000584 -0.002119 0.000251 0.026239 0.005242
# 6 -0.001376 0.002149 -0.008964 -0.005843 0.005242 0.042201
#
#
# Mechanical properties :
#
#
# Convention : Reuss Voigt Hill
#
# Bulk Modulus (GPa) = 39.77896 48.10266 43.94081
# Shear Modulus (GPa) = 29.91613 33.84752 31.88182
#
# Velocity S-wave (km/s) = 3.66007 3.89314 3.77840
# Velocity P-wave (km/s) = 5.97278 6.46131 6.22184
#
# Compressibility (1/GPa) = 0.02513892
#
# Stress axis : x y z
#
# Youngs Moduli (GPa) = 98.09521 76.12742 60.92034
#
# Poissons Ratio (x) = 0.28366 0.21976
# Poissons Ratio (y) = 0.36551 -0.00186
# Poissons Ratio (z) = 0.35387 -0.00232
#
# Static dielectric constant tensor:
#      x y z
#    x 4.702080 -0.090400 0.170110 
#    y -0.090400 4.089460 -0.212500 
#    z 0.170110 -0.212500 4.245250 
# 
# 
# High freq. dielectric constant tensor:
#      x y z
#    x 1.898760 0.001440 0.002360 
#    y 0.001440 1.870980 -0.002730 
#    z 0.002360 -0.002730 1.881230 
# 
# From -- ./inp_files/428684.got.cif
#   From: 2010.06.25/outbox.cif.g09.slc.cpg/sg2_215_cif.got.tgz:428684.got - 2010.06.27 13:26:56.
