data_PCOD8016105
_publ_section_title
;
Structure prediction by ZEFSAII (Michael W. Deem and Ramdas Pophale) SiO2 
 PCOD8016105
Probable space group: P -1
;
_chemical_formula_sum "Si O2"
_cell_formula_units_Z 16
_cell_length_a 12.443391
_cell_length_b 12.239651
_cell_length_c 12.114819
_cell_angle_alpha 130.589189
_cell_angle_beta 145.704445
_cell_angle_gamma 42.999296
_cell_volume 703.841068
_symmetry_space_group_name_H-M "P -1"
_symmetry_group_IT_number 2
_symmetry_cell_setting 'triclinic'
loop_
_space_group_symop_operation_xyz
x,y,z
-x,-y,-z
loop_
_atom_site_type_symbol
_atom_site_label
_atom_site_fract_x
_atom_site_fract_y
_atom_site_fract_z
Si Si1 0.961555 0.240005 0.118800
Si Si2 0.400825 0.140963 0.329334
Si Si3 0.076594 0.982214 0.676636
Si Si4 0.340259 0.152307 0.035248
Si Si5 0.251613 0.399550 0.747899
Si Si6 0.517061 0.676622 0.888355
Si Si7 0.517926 0.354232 0.726367
Si Si8 0.164530 0.123745 0.435626
O O1 0.160552 0.164817 0.154642
O O2 0.037239 0.130569 0.220713
O O3 0.901990 0.425240 0.218881
O O4 0.758933 0.228029 0.885073
O O5 0.437320 0.154111 0.238823
O O6 0.421981 0.279536 0.507266
O O7 0.575881 0.969848 0.416079
O O8 0.280128 0.811326 0.752730
O O9 0.889805 0.981606 0.592837
O O10 0.000000 0.000000 0.500000
O O11 0.121526 0.134121 0.846574
O O12 0.316044 0.309280 0.049086
O O13 0.500000 0.000000 0.000000
O O14 0.370450 0.415079 0.749618
O O15 0.106909 0.307900 0.541328
O O16 0.424830 0.297333 0.920503
O O17 0.526667 0.502851 0.768812
#
# Coordination Sequence:
#
# PCOD8016105 Si02
#       8
#     2   2   2   2   2   2   2   2
#     4  11  25  43  68 104 141 181 225 280 341 406
#     4  12  27  44  67 104 143 174 228 290 333 406
#     4  11  22  39  71 103 127 176 238 279 330 407
#     4  10  23  47  66  93 134 177 229 282 330 407
#     4  11  22  44  71 101 138 181 230 272 335 417
#     4  10  21  43  70  95 131 183 228 278 337 400
#     4  11  25  44  70 102 141 177 226 279 341 409
#     4  12  23  40  68  99 141 184 222 276 347 396
#
# _framework density 22.732403999999999
#
# number of rings (size 3 to 8) (size 9 to 14) (size 15 to 20)
#    0.000    1.000    1.250    7.500    3.500    1.000 
#    0.000    2.500    0.000    0.000    0.000    0.000 
#    0.000    0.000    0.000    0.000    0.000    0.000 
#
# Total GULP energy -198403.624350 kJ/mol
# GULP energy per Si atom -12400.226522 kJ/mol
# Density = 2.268066 g / cm^3
# Si number density = 22.732404 Si / 1000 Ang^3
#
#
#
# Elastic Constant Matrix: (Units=GPa)
#
#
# Indices 1 2 3 4 5 6 
#
# 1 118.5216 28.3939 32.9710 -9.8701 -7.9472 13.7475
# 2 28.3939 53.0188 6.5429 -19.7339 -2.0539 13.4242
# 3 32.9710 6.5429 102.3689 -21.1576 -14.9177 6.3075
# 4 -9.8701 -19.7339 -21.1576 36.9515 6.3975 3.8083
# 5 -7.9472 -2.0539 -14.9177 6.3975 49.1804 -3.0751
# 6 13.7475 13.4242 6.3075 3.8083 -3.0751 38.7913
#
#
#
# Elastic Compliance Matrix: (Units=1/GPa)
#
#
# Indices 1 2 3 4 5 6 
#
# 1 0.010769 -0.005923 -0.003397 -0.002256 0.000697 -0.000938
# 2 -0.005923 0.031488 0.004343 0.019173 -0.001538 -0.011508
# 3 -0.003397 0.004343 0.012903 0.008733 0.002218 -0.003079
# 4 -0.002256 0.019173 0.008733 0.043487 -0.003309 -0.011787
# 5 0.000697 -0.001538 0.002218 -0.003309 0.021608 0.001962
# 6 -0.000938 -0.011508 -0.003079 -0.011787 0.001962 0.031907
#
#
# Mechanical properties :
#
#
# Convention : Reuss Voigt Hill
#
# Bulk Modulus (GPa) = 22.12138 45.52499 33.82318
# Shear Modulus (GPa) = 28.21926 38.71809 33.46867
#
# Velocity S-wave (km/s) = 3.52713 4.13148 3.84120
# Velocity P-wave (km/s) = 5.13223 6.54437 5.88084
#
# Compressibility (1/GPa) = 0.04520514
#
# Stress axis : x y z
#
# Youngs Moduli (GPa) = 92.86041 31.75834 77.50210
#
# Poissons Ratio (x) = 0.18811 0.26325
# Poissons Ratio (y) = 0.55003 -0.33657
# Poissons Ratio (z) = 0.31542 -0.13792
#
# Static dielectric constant tensor:
#      x y z
#    x 4.421110 0.342850 0.151910 
#    y 0.342850 4.109880 0.008250 
#    z 0.151910 0.008250 4.356740 
# 
# 
# High freq. dielectric constant tensor:
#      x y z
#    x 1.895630 0.014050 -0.000220 
#    y 0.014050 1.887500 -0.002220 
#    z -0.000220 -0.002220 1.913820 
# 
# From -- ./inp_files/428811.got.cif
#   From: 2010.06.25/outbox.cif.g09.slc.cpg/sg2_215_cif.got.tgz:428811.got - 2010.06.27 13:26:56.
