data_PCOD8016098
_publ_section_title
;
Structure prediction by ZEFSAII (Michael W. Deem and Ramdas Pophale) SiO2 
 PCOD8016098
Probable space group: P -1
;
_chemical_formula_sum "Si O2"
_cell_formula_units_Z 16
_cell_length_a 19.548636
_cell_length_b 8.846664
_cell_length_c 22.741368
_cell_angle_alpha 34.448760
_cell_angle_beta 157.588913
_cell_angle_gamma 149.885415
_cell_volume 745.879733
_symmetry_space_group_name_H-M "P -1"
_symmetry_group_IT_number 2
_symmetry_cell_setting 'triclinic'
loop_
_space_group_symop_operation_xyz
x,y,z
-x,-y,-z
loop_
_atom_site_type_symbol
_atom_site_label
_atom_site_fract_x
_atom_site_fract_y
_atom_site_fract_z
Si Si1 0.525089 0.487145 0.332935
Si Si2 0.779285 0.189600 0.313588
Si Si3 0.221321 0.810006 0.127160
Si Si4 0.178968 0.226374 0.234156
Si Si5 0.587729 0.298639 0.012498
Si Si6 0.620204 0.315105 0.259483
Si Si7 0.783293 0.777049 0.924275
Si Si8 0.792218 0.322429 0.519727
O O1 0.389800 0.327462 0.333897
O O2 0.365707 0.465842 0.163011
O O3 0.642067 0.311869 0.456218
O O4 0.688361 0.831517 0.366630
O O5 0.654972 0.249074 0.145143
O O6 0.774833 0.360439 0.315198
O O7 0.016592 0.337730 0.437466
O O8 0.205945 0.479436 0.223209
O O9 0.404371 0.026339 0.159219
O O10 0.295427 0.985801 0.192350
O O11 0.006299 0.802995 0.944384
O O12 0.125546 0.916239 0.324209
O O13 0.406813 0.386339 0.849171
O O14 0.780501 0.573007 0.043532
O O15 0.500000 0.000000 0.000000
O O16 0.694195 0.243490 0.402738
O O17 0.000000 0.000000 0.000000
#
# Coordination Sequence:
#
# PCOD8016098 Si02
#       8
#     2   2   2   2   2   2   2   2
#     4  12  23  43  68  94 137 174 215 273 336 388
#     4  12  25  44  66  96 134 179 227 266 327 395
#     4  10  21  43  70  93 136 166 218 280 326 384
#     4  11  24  42  70 102 126 175 221 271 339 392
#     4  11  22  42  68  99 129 172 224 274 326 389
#     4  11  23  44  67  94 137 179 216 281 326 388
#     4  11  21  40  67  96 133 165 211 275 331 384
#     4  12  25  44  66  96 137 177 223 269 330 395
#
# _framework density 21.451180000000001
#
# number of rings (size 3 to 8) (size 9 to 14) (size 15 to 20)
#    0.000    0.750    6.250    3.000    0.000    0.500 
#    2.250    0.000    0.000    0.000    0.000    0.000 
#    0.000    0.000    0.000    0.000    0.000    0.000 
#
# Total GULP energy -198289.432198 kJ/mol
# GULP energy per Si atom -12393.089512 kJ/mol
# Density = 2.140236 g / cm^3
# Si number density = 21.451180 Si / 1000 Ang^3
#
#
#
# Elastic Constant Matrix: (Units=GPa)
#
#
# Indices 1 2 3 4 5 6 
#
# 1 106.4359 36.9975 30.5336 -2.0494 6.2997 -5.4896
# 2 36.9975 122.7212 28.9874 -0.6945 8.2429 -6.3577
# 3 30.5336 28.9874 81.1539 -4.9735 7.0399 -2.0820
# 4 -2.0494 -0.6945 -4.9735 31.0190 3.2759 8.0906
# 5 6.2997 8.2429 7.0399 3.2759 25.7286 4.4328
# 6 -5.4896 -6.3577 -2.0820 8.0906 4.4328 36.6996
#
#
#
# Elastic Compliance Matrix: (Units=1/GPa)
#
#
# Indices 1 2 3 4 5 6 
#
# 1 0.011331 -0.002503 -0.003225 -0.000010 -0.001302 0.001238
# 2 -0.002503 0.009666 -0.002325 -0.000504 -0.002047 0.001526
# 3 -0.003225 -0.002325 0.014751 0.002459 -0.002771 -0.000256
# 4 -0.000010 -0.000504 0.002459 0.034889 -0.003712 -0.007192
# 5 -0.001302 -0.002047 -0.002771 -0.003712 0.041926 -0.004952
# 6 0.001238 0.001526 -0.000256 -0.007192 -0.004952 0.029867
#
#
# Mechanical properties :
#
#
# Convention : Reuss Voigt Hill
#
# Bulk Modulus (GPa) = 50.91197 55.92758 53.41977
# Shear Modulus (GPa) = 30.28780 32.94226 31.61503
#
# Velocity S-wave (km/s) = 3.76166 3.92303 3.84319
# Velocity P-wave (km/s) = 6.53086 6.83000 6.68210
#
# Compressibility (1/GPa) = 0.01964175
#
# Stress axis : x y z
#
# Youngs Moduli (GPa) = 88.25151 103.45563 67.79318
#
# Poissons Ratio (x) = 0.25892 0.21865
# Poissons Ratio (y) = 0.22087 0.15763
# Poissons Ratio (z) = 0.28463 0.24055
#
# Static dielectric constant tensor:
#      x y z
#    x 4.297200 0.002170 0.399500 
#    y 0.002170 4.180420 0.195820 
#    z 0.399500 0.195820 3.790290 
# 
# 
# High freq. dielectric constant tensor:
#      x y z
#    x 1.848380 -0.005530 0.015440 
#    y -0.005530 1.858210 0.008160 
#    z 0.015440 0.008160 1.817770 
# 
# From -- ./inp_files/337873.got.cif
#   From: 2010.06.25/outbox.cif.g09.slc.cpg/sg2_169_cif.got.tgz:337873.got - 2010.06.27 13:26:56.
