data_PCOD8016495
_publ_section_title
;
Structure prediction by ZEFSAII (Michael W. Deem and Ramdas Pophale) SiO2 
 PCOD8016495
Probable space group: P -1
;
_chemical_formula_sum "Si O2"
_cell_formula_units_Z 14
_cell_length_a 10.649979
_cell_length_b 9.398613
_cell_length_c 9.318420
_cell_angle_alpha 92.232958
_cell_angle_beta 64.770259
_cell_angle_gamma 56.447937
_cell_volume 654.881380
_symmetry_space_group_name_H-M "P -1"
_symmetry_group_IT_number 2
_symmetry_cell_setting 'triclinic'
loop_
_space_group_symop_operation_xyz
x,y,z
-x,-y,-z
loop_
_atom_site_type_symbol
_atom_site_label
_atom_site_fract_x
_atom_site_fract_y
_atom_site_fract_z
Si Si1 0.291219 0.000498 0.063931
Si Si2 0.820867 0.569643 0.176977
Si Si3 0.996918 0.155976 0.441640
Si Si4 0.709782 0.359796 0.377108
Si Si5 0.140730 0.002491 0.851319
Si Si6 0.660305 0.709290 0.975056
Si Si7 0.983845 0.680470 0.287091
O O1 0.120732 0.060565 0.238288
O O2 0.309691 0.154041 0.098337
O O3 0.263844 0.003164 0.907211
O O4 0.461574 0.795059 0.022832
O O5 0.797610 0.419492 0.227291
O O6 0.834351 0.656108 0.319211
O O7 0.660680 0.708542 0.150046
O O8 0.000000 0.500000 0.000000
O O9 0.057164 0.237432 0.529467
O O10 0.799566 0.323993 0.487775
O O11 0.000000 0.000000 0.500000
O O12 0.500000 0.500000 0.500000
O O13 0.738256 0.179527 0.308094
O O14 0.035056 0.181036 0.811531
O O15 0.000000 0.000000 0.000000
O O16 0.812038 0.507123 0.829722
#
# Coordination Sequence:
#
# PCOD8016495 Si02
#       7
#     2   2   2   2   2   2   2
#     4  11  24  43  68  99 136 171 230 280 335 401
#     4  10  21  44  72  98 131 181 234 275 334 410
#     4  12  25  45  63 100 143 177 215 284 353 401
#     4  12  28  44  69 102 147 178 225 287 350 406
#     4  12  22  45  68  97 132 190 224 272 343 417
#     4  10  23  41  71 101 126 169 235 289 316 397
#     4  11  23  42  73  97 130 181 231 276 344 401
#
# _framework density 21.377915000000002
#
# number of rings (size 3 to 8) (size 9 to 14) (size 15 to 20)
#    0.000    0.857    4.286    3.429    4.000    2.286 
#    2.571    3.571    0.000    0.000    0.000    0.000 
#    0.000    0.000    0.000    0.000    0.000    0.000 
#
# Total GULP energy -173526.468457 kJ/mol
# GULP energy per Si atom -12394.747747 kJ/mol
# Density = 2.132926 g / cm^3
# Si number density = 21.377915 Si / 1000 Ang^3
#
#
#
# Elastic Constant Matrix: (Units=GPa)
#
#
# Indices 1 2 3 4 5 6 
#
# 1 87.5301 38.1506 34.9496 2.2879 13.9934 -15.4884
# 2 38.1506 144.6647 37.4807 -1.5018 -5.6813 -14.7702
# 3 34.9496 37.4807 67.3324 -2.2926 14.0763 -6.0918
# 4 2.2879 -1.5018 -2.2926 35.9296 3.5418 3.4661
# 5 13.9934 -5.6813 14.0763 3.5418 42.8612 -2.1274
# 6 -15.4884 -14.7702 -6.0918 3.4661 -2.1274 46.9954
#
#
#
# Elastic Compliance Matrix: (Units=1/GPa)
#
#
# Indices 1 2 3 4 5 6 
#
# 1 0.016131 -0.002456 -0.006032 -0.001549 -0.003298 0.003727
# 2 -0.002456 0.008981 -0.004320 -0.000247 0.003512 0.001631
# 3 -0.006032 -0.004320 0.021617 0.002263 -0.005938 -0.000979
# 4 -0.001549 -0.000247 0.002263 0.028581 -0.002757 -0.002528
# 5 -0.003298 0.003512 -0.005938 -0.002757 0.027085 0.000677
# 6 0.003727 0.001631 -0.000979 -0.002528 0.000677 0.023110
#
#
# Mechanical properties :
#
#
# Convention : Reuss Voigt Hill
#
# Bulk Modulus (GPa) = 47.36222 57.85435 52.60828
# Shear Modulus (GPa) = 31.61398 37.75366 34.68382
#
# Velocity S-wave (km/s) = 3.84971 4.20695 4.03229
# Velocity P-wave (km/s) = 6.47790 7.12175 6.80744
#
# Compressibility (1/GPa) = 0.02111388
#
# Stress axis : x y z
#
# Youngs Moduli (GPa) = 61.99276 111.34201 46.26000
#
# Poissons Ratio (x) = 0.27349 0.27902
# Poissons Ratio (y) = 0.15227 0.19983
# Poissons Ratio (z) = 0.37392 0.48096
#
# Static dielectric constant tensor:
#      x y z
#    x 3.721960 -0.270900 0.034490 
#    y -0.270900 4.310040 -0.063000 
#    z 0.034490 -0.063000 3.605070 
# 
# 
# High freq. dielectric constant tensor:
#      x y z
#    x 1.846450 -0.004230 0.018210 
#    y -0.004230 1.855580 -0.012750 
#    z 0.018210 -0.012750 1.816380 
# 
# From -- ./inp_files/157954.got.cif
#   From: 2010.06.25/outbox.cif.g09.slc.cpg/sg2_79_cif.got.tgz:157954.got - 2010.06.27 13:26:56.
