data_PCOD8016150
_publ_section_title
;
Structure prediction by ZEFSAII (Michael W. Deem and Ramdas Pophale) SiO2 
 PCOD8016150
Probable space group: P -1
;
_chemical_formula_sum "Si O2"
_cell_formula_units_Z 14
_cell_length_a 9.076520
_cell_length_b 17.142402
_cell_length_c 5.153194
_cell_angle_alpha 72.120869
_cell_angle_beta 74.665497
_cell_angle_gamma 116.131600
_cell_volume 605.511780
_symmetry_space_group_name_H-M "P -1"
_symmetry_group_IT_number 2
_symmetry_cell_setting 'triclinic'
loop_
_space_group_symop_operation_xyz
x,y,z
-x,-y,-z
loop_
_atom_site_type_symbol
_atom_site_label
_atom_site_fract_x
_atom_site_fract_y
_atom_site_fract_z
Si Si1 0.083940 0.813768 0.724313
Si Si2 0.078529 0.104336 0.986664
Si Si3 0.385754 0.544181 0.590516
Si Si4 0.540977 0.750619 0.115790
Si Si5 0.255548 0.280508 0.338426
Si Si6 0.798331 0.561951 0.697863
Si Si7 0.810955 0.242642 0.746404
O O1 0.206994 0.834621 0.386634
O O2 0.867290 0.726652 0.848558
O O3 0.162050 0.782439 0.951918
O O4 0.075555 0.907085 0.726149
O O5 0.274154 0.143790 0.993675
O O6 0.111420 0.185894 0.677240
O O7 0.000000 0.000000 0.000000
O O8 0.500000 0.500000 0.500000
O O9 0.506639 0.665629 0.423948
O O10 0.239890 0.509148 0.454732
O O11 0.268577 0.503654 0.947164
O O12 0.375960 0.763361 0.164757
O O13 0.572115 0.720066 0.846545
O O14 0.318747 0.386127 0.332071
O O15 0.017141 0.647285 0.526317
#
# Coordination Sequence:
#
# PCOD8016150 Si02
#       7
#     2   2   2   2   2   2   2
#     4  10  21  43  71  94 134 183 220 271 339 406
#     4  11  24  47  77 104 129 175 235 287 344 406
#     4  12  24  38  66 102 133 179 235 276 323 392
#     4  11  27  40  68 105 141 175 230 291 329 403
#     4  10  21  43  72  97 134 178 232 277 338 397
#     4  11  22  40  67  93 137 187 220 265 336 403
#     4  11  24  43  67 100 144 187 218 271 346 405
#
# _framework density 23.120934999999999
#
# number of rings (size 3 to 8) (size 9 to 14) (size 15 to 20)
#    0.000    1.143    4.286    3.000    4.000    3.429 
#    0.000    1.429    0.000    0.000    0.000    0.000 
#    0.000    0.000    0.000    0.000    0.000    0.000 
#
# Total GULP energy -173540.953623 kJ/mol
# GULP energy per Si atom -12395.782402 kJ/mol
# Density = 2.306831 g / cm^3
# Si number density = 23.120935 Si / 1000 Ang^3
#
#
#
# Elastic Constant Matrix: (Units=GPa)
#
#
# Indices 1 2 3 4 5 6 
#
# 1 120.9474 26.9315 16.1853 17.0376 -26.4706 -9.3368
# 2 26.9315 139.4684 35.5773 7.4032 -6.0137 -6.4464
# 3 16.1853 35.5773 83.5075 27.9463 4.0292 4.3774
# 4 17.0376 7.4032 27.9463 35.6666 -1.4253 -3.4191
# 5 -26.4706 -6.0137 4.0292 -1.4253 33.1488 7.8275
# 6 -9.3368 -6.4464 4.3774 -3.4191 7.8275 24.1346
#
#
#
# Elastic Compliance Matrix: (Units=1/GPa)
#
#
# Indices 1 2 3 4 5 6 
#
# 1 0.011128 -0.001373 -0.000634 -0.004128 0.008357 0.000758
# 2 -0.001373 0.008576 -0.004439 0.002640 0.000454 0.002792
# 3 -0.000634 -0.004439 0.019341 -0.014628 -0.002854 -0.006085
# 4 -0.004128 0.002640 -0.014628 0.041647 -0.001145 0.008033
# 5 0.008357 0.000454 -0.002854 -0.001145 0.039359 -0.009055
# 6 0.000758 0.002792 -0.006085 0.008033 -0.009055 0.047652
#
#
# Mechanical properties :
#
#
# Convention : Reuss Voigt Hill
#
# Bulk Modulus (GPa) = 38.23553 55.70128 46.96840
# Shear Modulus (GPa) = 26.41149 36.27195 31.34172
#
# Velocity S-wave (km/s) = 3.38349 3.96510 3.68578
# Velocity P-wave (km/s) = 5.64244 6.71612 6.20255
#
# Compressibility (1/GPa) = 0.02615368
#
# Stress axis : x y z
#
# Youngs Moduli (GPa) = 89.86728 116.60388 51.70324
#
# Poissons Ratio (x) = 0.16005 0.03276
# Poissons Ratio (y) = 0.12335 0.22953
# Poissons Ratio (z) = 0.05694 0.51764
#
# Static dielectric constant tensor:
#      x y z
#    x 3.983680 0.083380 0.025950 
#    y 0.083380 4.511890 0.590540 
#    z 0.025950 0.590540 4.203730 
# 
# 
# High freq. dielectric constant tensor:
#      x y z
#    x 1.902570 0.009120 0.005040 
#    y 0.009120 1.916910 0.038590 
#    z 0.005040 0.038590 1.904300 
# 
# From -- ./inp_files/43694.got.cif
#   From: 2010.06.25/outbox.cif.g09.slc.cpg/sg2_22_cif.got.tgz:43694.got - 2010.06.27 13:26:56.
