data_PCOD8016851
_publ_section_title
;
Structure prediction by ZEFSAII (Michael W. Deem and Ramdas Pophale) SiO2 
 PCOD8016851
Probable space group: P -1
;
_chemical_formula_sum "Si O2"
_cell_formula_units_Z 16
_cell_length_a 9.312849
_cell_length_b 11.453844
_cell_length_c 14.272267
_cell_angle_alpha 149.186896
_cell_angle_beta 78.215384
_cell_angle_gamma 94.097304
_cell_volume 746.808132
_symmetry_space_group_name_H-M "P -1"
_symmetry_group_IT_number 2
_symmetry_cell_setting 'triclinic'
loop_
_space_group_symop_operation_xyz
x,y,z
-x,-y,-z
loop_
_atom_site_type_symbol
_atom_site_label
_atom_site_fract_x
_atom_site_fract_y
_atom_site_fract_z
Si Si1 0.345142 0.928882 0.999626
Si Si2 0.207674 0.639693 0.950168
Si Si3 0.029275 0.955829 0.683897
Si Si4 0.372029 0.853755 0.519357
Si Si5 0.430780 0.456368 0.574833
Si Si6 0.537402 0.678024 0.194970
Si Si7 0.031638 0.183746 0.196939
Si Si8 0.132221 0.400238 0.608600
O O1 0.332339 0.710736 0.786644
O O2 0.316376 0.820868 0.031565
O O3 0.500000 0.000000 0.000000
O O4 0.212954 0.152579 0.154028
O O5 0.304107 0.433372 0.855484
O O6 0.135863 0.525538 0.793903
O O7 0.065255 0.778460 0.122897
O O8 0.196020 0.940624 0.615105
O O9 0.033224 0.860698 0.723854
O O10 0.948361 0.816620 0.523694
O O11 0.439748 0.650433 0.443344
O O12 0.407104 0.740020 0.333427
O O13 0.446976 0.075856 0.682221
O O14 0.500000 0.500000 0.500000
O O15 0.303054 0.302407 0.480597
O O16 0.500000 0.500000 0.000000
O O17 0.961568 0.440739 0.349814
O O18 0.000000 0.000000 0.000000
#
# Coordination Sequence:
#
# PCOD8016851 Si02
#       8
#     2   2   2   2   2   2   2   2
#     4  10  22  36  61  94 133 181 225 268 328 411
#     4  10  23  46  64  97 135 175 230 285 338 402
#     4  11  25  39  70  99 137 181 227 276 348 405
#     4  11  26  47  68 108 133 172 239 286 332 421
#     4  11  23  38  64  99 140 173 220 281 337 405
#     4  11  26  49  77  94 137 182 229 291 350 403
#     4  11  20  41  58  94 143 184 217 272 336 405
#     4  11  22  40  64  93 140 182 219 278 337 407
#
# _framework density 21.424513000000001
#
# number of rings (size 3 to 8) (size 9 to 14) (size 15 to 20)
#    0.000    1.250    6.250    1.125    7.000    1.500 
#    0.000    1.250    0.000    0.000    0.000    0.000 
#    0.000    0.000    0.000    0.000    0.000    0.000 
#
# Total GULP energy -198254.496680 kJ/mol
# GULP energy per Si atom -12390.906043 kJ/mol
# Density = 2.137575 g / cm^3
# Si number density = 21.424513 Si / 1000 Ang^3
#
#
#
# Elastic Constant Matrix: (Units=GPa)
#
#
# Indices 1 2 3 4 5 6 
#
# 1 110.3276 40.2457 50.8194 -17.2805 -16.4825 18.0750
# 2 40.2457 72.7217 42.5645 -10.6630 -6.4170 3.3745
# 3 50.8194 42.5645 125.9278 -15.6265 -8.5645 9.0694
# 4 -17.2805 -10.6630 -15.6265 23.9674 3.7568 -11.1057
# 5 -16.4825 -6.4170 -8.5645 3.7568 50.0204 -0.3361
# 6 18.0750 3.3745 9.0694 -11.1057 -0.3361 32.4702
#
#
#
# Elastic Compliance Matrix: (Units=1/GPa)
#
#
# Indices 1 2 3 4 5 6 
#
# 1 0.014149 -0.005101 -0.003008 0.002928 0.003236 -0.005471
# 2 -0.005101 0.019475 -0.004311 0.003730 -0.000178 0.003293
# 3 -0.003008 -0.004311 0.010998 0.003123 0.000105 0.000120
# 4 0.002928 0.003730 0.003123 0.055263 -0.002065 0.015990
# 5 0.003236 -0.000178 0.000105 -0.002065 0.021193 -0.002299
# 6 -0.005471 0.003293 0.000120 0.015990 -0.002299 0.038912
#
#
# Mechanical properties :
#
#
# Convention : Reuss Voigt Hill
#
# Bulk Modulus (GPa) = 50.54900 64.02625 57.28763
# Shear Modulus (GPa) = 26.11996 32.98144 29.55070
#
# Velocity S-wave (km/s) = 3.49544 3.92781 3.71791
# Velocity P-wave (km/s) = 6.31949 7.10772 6.72517
#
# Compressibility (1/GPa) = 0.01978278
#
# Stress axis : x y z
#
# Youngs Moduli (GPa) = 70.67853 51.34685 90.92372
#
# Poissons Ratio (x) = 0.26190 0.27353
# Poissons Ratio (y) = 0.36050 0.39196
# Poissons Ratio (z) = 0.21262 0.22135
#
# Static dielectric constant tensor:
#      x y z
#    x 3.709620 -0.050440 -0.189300 
#    y -0.050440 3.752160 0.131010 
#    z -0.189300 0.131010 4.180000 
# 
# 
# High freq. dielectric constant tensor:
#      x y z
#    x 1.838270 -0.001710 -0.014170 
#    y -0.001710 1.822080 0.000980 
#    z -0.014170 0.000980 1.857820 
# 
# From -- ./inp_files/501109.got.cif
#   From: 2010.06.25/outbox.cif.g09.slc.cpg/sg2_251_cif.got.tgz:501109.got - 2010.06.27 13:26:56.
