data_PCOD8016554
_publ_section_title
;
Structure prediction by ZEFSAII (Michael W. Deem and Ramdas Pophale) SiO2 
 PCOD8016554
Probable space group: P -1
;
_chemical_formula_sum "Si O2"
_cell_formula_units_Z 16
_cell_length_a 5.171662
_cell_length_b 24.420673
_cell_length_c 9.689741
_cell_angle_alpha 44.332774
_cell_angle_beta 42.614964
_cell_angle_gamma 49.928731
_cell_volume 560.940517
_symmetry_space_group_name_H-M "P -1"
_symmetry_group_IT_number 2
_symmetry_cell_setting 'triclinic'
loop_
_space_group_symop_operation_xyz
x,y,z
-x,-y,-z
loop_
_atom_site_type_symbol
_atom_site_label
_atom_site_fract_x
_atom_site_fract_y
_atom_site_fract_z
Si Si1 0.070777 0.173718 0.700362
Si Si2 0.553218 0.064446 0.232604
Si Si3 0.283038 0.972039 0.260823
Si Si4 0.780256 0.677605 0.535022
Si Si5 0.425040 0.426671 0.990385
Si Si6 0.969265 0.791122 0.670236
Si Si7 0.713685 0.643182 0.110710
Si Si8 0.388482 0.428559 0.445856
O O1 0.951362 0.256583 0.690638
O O2 0.008038 0.195935 0.525289
O O3 0.534368 0.125612 0.628198
O O4 0.802725 0.114204 0.956740
O O5 0.366223 0.011737 0.298293
O O6 0.177750 0.124008 0.345643
O O7 0.817426 0.003933 0.351344
O O8 0.500000 0.000000 0.000000
O O9 0.899785 0.604784 0.733519
O O10 0.709764 0.643229 0.475847
O O11 0.388149 0.735653 0.653487
O O12 0.478037 0.389477 0.885297
O O13 0.316985 0.525586 0.835769
O O14 0.834735 0.403194 0.956358
O O15 0.660844 0.738171 0.931711
O O16 0.453065 0.617678 0.386936
O O17 0.000000 0.500000 0.500000
#
# Coordination Sequence:
#
# PCOD8016554 Si02
#       8
#     2   2   2   2   2   2   2   2
#     4  11  25  46  75 102 151 193 243 305 373 433
#     4  11  27  46  77 104 149 195 247 299 367 435
#     4  10  24  47  75 108 144 196 247 300 357 444
#     4  11  25  46  71 107 151 192 249 309 377 439
#     4  10  21  45  66  97 139 184 234 301 355 429
#     4  11  27  44  69 111 148 192 245 309 365 443
#     4  10  22  42  66 101 140 181 241 291 359 432
#     4  10  23  44  73 104 141 198 246 304 370 443
#
# _framework density 28.523523000000001
#
# number of rings (size 3 to 8) (size 9 to 14) (size 15 to 20)
#    0.000    1.500    1.250    2.250    8.750    3.000 
#    4.500    3.750    0.000    0.000    0.000    0.000 
#    0.000    0.000    0.000    0.000    0.000    0.000 
#
# Total GULP energy -198372.172890 kJ/mol
# GULP energy per Si atom -12398.260806 kJ/mol
# Density = 2.845860 g / cm^3
# Si number density = 28.523523 Si / 1000 Ang^3
#
#
#
# Elastic Constant Matrix: (Units=GPa)
#
#
# Indices 1 2 3 4 5 6 
#
# 1 108.8435 32.4573 34.3285 -4.0642 19.3850 3.6501
# 2 32.4573 138.4097 24.9244 -15.4067 3.1202 12.4667
# 3 34.3285 24.9244 183.3707 -11.4364 0.8172 1.2219
# 4 -4.0642 -15.4067 -11.4364 42.2555 5.3370 7.0052
# 5 19.3850 3.1202 0.8172 5.3370 45.7323 7.8381
# 6 3.6501 12.4667 1.2219 7.0052 7.8381 65.8136
#
#
#
# Elastic Compliance Matrix: (Units=1/GPa)
#
#
# Indices 1 2 3 4 5 6 
#
# 1 0.011236 -0.002206 -0.001764 0.000332 -0.004679 0.000349
# 2 -0.002206 0.008317 -0.000524 0.002933 0.000343 -0.001796
# 3 -0.001764 -0.000524 0.005927 0.001191 0.000557 -0.000106
# 4 0.000332 0.002933 0.001191 0.025952 -0.002874 -0.003016
# 5 -0.004679 0.000343 0.000557 -0.002874 0.024569 -0.002436
# 6 0.000349 -0.001796 -0.000106 -0.003016 -0.002436 0.016128
#
#
# Mechanical properties :
#
#
# Convention : Reuss Voigt Hill
#
# Bulk Modulus (GPa) = 60.63817 68.22716 64.43266
# Shear Modulus (GPa) = 46.89687 53.35450 50.12569
#
# Velocity S-wave (km/s) = 4.05921 4.32967 4.19662
# Velocity P-wave (km/s) = 6.57835 6.99759 6.79121
#
# Compressibility (1/GPa) = 0.01649126
#
# Stress axis : x y z
#
# Youngs Moduli (GPa) = 89.00051 120.23259 168.70625
#
# Poissons Ratio (x) = 0.26525 0.29766
# Poissons Ratio (y) = 0.19635 0.08842
# Poissons Ratio (z) = 0.15703 0.06302
#
# Static dielectric constant tensor:
#      x y z
#    x 5.656270 -0.367920 -0.252640 
#    y -0.367920 5.375290 -0.475850 
#    z -0.252640 -0.475850 6.522590 
# 
# 
# High freq. dielectric constant tensor:
#      x y z
#    x 2.176650 -0.026180 -0.018070 
#    y -0.026180 2.175020 -0.016420 
#    z -0.018070 -0.016420 2.210080 
# 
# From -- ./inp_files/142219.got.cif
#   From: 2010.06.25/outbox.cif.g09.slc.cpg/sg2_72_cif.got.tgz:142219.got - 2010.06.27 13:26:56.
