data_PCOD8016698
_publ_section_title
;
Structure prediction by ZEFSAII (Michael W. Deem and Ramdas Pophale) SiO2 
 PCOD8016698
Probable space group: P -1
;
_chemical_formula_sum "Si O2"
_cell_formula_units_Z 16
_cell_length_a 7.766682
_cell_length_b 6.685908
_cell_length_c 18.663127
_cell_angle_alpha 130.418178
_cell_angle_beta 81.134854
_cell_angle_gamma 104.033130
_cell_volume 715.801113
_symmetry_space_group_name_H-M "P -1"
_symmetry_group_IT_number 2
_symmetry_cell_setting 'triclinic'
loop_
_space_group_symop_operation_xyz
x,y,z
-x,-y,-z
loop_
_atom_site_type_symbol
_atom_site_label
_atom_site_fract_x
_atom_site_fract_y
_atom_site_fract_z
Si Si1 0.685373 0.409082 0.164765
Si Si2 0.196855 0.023872 0.656203
Si Si3 0.167902 0.298590 0.331471
Si Si4 0.293197 0.920726 0.476997
Si Si5 0.322896 0.575299 0.999424
Si Si6 0.190078 0.112453 0.989107
Si Si7 0.442548 0.203985 0.402953
Si Si8 0.310975 0.173429 0.152433
O O1 0.686689 0.443447 0.088279
O O2 0.492821 0.378397 0.206815
O O3 0.808893 0.673878 0.248895
O O4 0.741404 0.125360 0.112482
O O5 0.186753 0.042235 0.574672
O O6 0.379856 0.926519 0.646609
O O7 0.024233 0.829074 0.653715
O O8 0.204715 0.612436 0.414064
O O9 0.336347 0.194292 0.332368
O O10 0.164063 0.243280 0.232919
O O11 0.500000 0.000000 0.500000
O O12 0.285545 0.043749 0.427187
O O13 0.169658 0.352176 0.992214
O O14 0.500000 0.500000 0.000000
O O15 0.314372 0.866060 0.096005
O O16 0.294886 0.221742 0.079698
O O17 0.000000 0.000000 0.000000
O O18 0.500000 0.500000 0.500000
#
# Coordination Sequence:
#
# PCOD8016698 Si02
#       8
#     2   2   2   2   2   2   2   2
#     4  11  24  44  65  99 133 175 224 276 333 399
#     4  11  26  45  68 103 140 171 228 283 330 404
#     4  12  26  45  68 103 139 175 224 283 333 401
#     4  10  21  46  70  97 137 173 219 281 328 399
#     4  11  21  42  69  92 125 179 222 270 332 393
#     4  11  25  43  68  97 136 173 224 279 339 396
#     4  11  24  45  74  95 130 186 221 267 350 394
#     4  11  24  42  68  97 133 175 226 277 333 400
#
# _framework density 22.352577
#
# number of rings (size 3 to 8) (size 9 to 14) (size 15 to 20)
#    0.000    1.000    5.000    2.625    5.250    2.500 
#    0.000    0.000    0.000    0.000    0.000    0.000 
#    0.000    0.000    0.000    0.000    0.000    0.000 
#
# Total GULP energy -198238.093484 kJ/mol
# GULP energy per Si atom -12389.880843 kJ/mol
# Density = 2.230170 g / cm^3
# Si number density = 22.352577 Si / 1000 Ang^3
#
#
#
# Elastic Constant Matrix: (Units=GPa)
#
#
# Indices 1 2 3 4 5 6 
#
# 1 75.5635 28.8644 21.4634 4.7237 -0.6375 31.5840
# 2 28.8644 129.3593 36.3766 18.4984 6.6225 33.9808
# 3 21.4634 36.3766 129.7535 8.0246 2.4574 19.0166
# 4 4.7237 18.4984 8.0246 24.8084 17.4032 4.1480
# 5 -0.6375 6.6225 2.4574 17.4032 20.9431 -0.1133
# 6 31.5840 33.9808 19.0166 4.1480 -0.1133 50.9777
#
#
#
# Elastic Compliance Matrix: (Units=1/GPa)
#
#
# Indices 1 2 3 4 5 6 
#
# 1 0.018348 -0.000804 -0.001186 -0.003480 0.003789 -0.010098
# 2 -0.000804 0.010975 -0.001622 -0.010237 0.005173 -0.005368
# 3 -0.001186 -0.001622 0.008637 -0.001840 0.000986 -0.001254
# 4 -0.003480 -0.010237 -0.001840 0.112199 -0.089885 0.000337
# 5 0.003789 0.005173 0.000986 -0.089885 0.120812 0.001418
# 6 -0.010098 -0.005368 -0.001254 0.000337 0.001418 0.029894
#
#
# Mechanical properties :
#
#
# Convention : Reuss Voigt Hill
#
# Bulk Modulus (GPa) = 32.53617 56.45389 44.49503
# Shear Modulus (GPa) = 15.70671 35.87731 25.79201
#
# Velocity S-wave (km/s) = 2.65369 4.01067 3.40055
# Velocity P-wave (km/s) = 4.89662 6.83800 5.94706
#
# Compressibility (1/GPa) = 0.03073502
#
# Stress axis : x y z
#
# Youngs Moduli (GPa) = 54.50108 91.11464 115.78413
#
# Poissons Ratio (x) = 0.07329 0.13735
# Poissons Ratio (y) = 0.04384 0.18780
# Poissons Ratio (z) = 0.06465 0.14779
#
# Static dielectric constant tensor:
#      x y z
#    x 4.029560 0.960830 0.153970 
#    y 0.960830 6.289190 0.554670 
#    z 0.153970 0.554670 4.231180 
# 
# 
# High freq. dielectric constant tensor:
#      x y z
#    x 1.867590 0.023180 0.002220 
#    y 0.023180 1.900730 0.002900 
#    z 0.002220 0.002900 1.883780 
# 
# From -- ./inp_files/585938.got.cif
#   From: 2010.06.25/outbox.cif.g09.slc.cpg/sg2_293_cif.got.tgz:585938.got - 2010.06.27 13:26:56.
