data_PCOD8016690
_publ_section_title
;
Structure prediction by ZEFSAII (Michael W. Deem and Ramdas Pophale) SiO2 
 PCOD8016690
Probable space group: P -1
;
_chemical_formula_sum "Si O2"
_cell_formula_units_Z 14
_cell_length_a 11.949841
_cell_length_b 17.703359
_cell_length_c 9.401857
_cell_angle_alpha 112.914347
_cell_angle_beta 49.058469
_cell_angle_gamma 151.109679
_cell_volume 626.425582
_symmetry_space_group_name_H-M "P -1"
_symmetry_group_IT_number 2
_symmetry_cell_setting 'triclinic'
loop_
_space_group_symop_operation_xyz
x,y,z
-x,-y,-z
loop_
_atom_site_type_symbol
_atom_site_label
_atom_site_fract_x
_atom_site_fract_y
_atom_site_fract_z
Si Si1 0.312166 0.977673 0.222136
Si Si2 0.693388 0.470523 0.024417
Si Si3 0.417508 0.338906 0.473863
Si Si4 0.810486 0.825738 0.982723
Si Si5 0.729327 0.329136 0.202378
Si Si6 0.798392 0.122189 0.437389
Si Si7 0.447499 0.522132 0.252289
O O1 0.307759 0.947994 0.366108
O O2 0.962091 0.825555 0.335488
O O3 0.511114 0.159503 0.169551
O O4 0.500000 0.000000 0.000000
O O5 0.579377 0.424571 0.248008
O O6 0.462164 0.292957 0.000037
O O7 0.653594 0.542819 0.046163
O O8 0.065425 0.620596 0.811697
O O9 0.494078 0.284184 0.428606
O O10 0.577685 0.481820 0.557448
O O11 0.084232 0.904550 0.744848
O O12 0.629959 0.692772 0.168066
O O13 0.000000 0.000000 0.000000
O O14 0.000000 0.500000 0.000000
O O15 0.080278 0.331369 0.357361
O O16 0.500000 0.000000 0.500000
#
# Coordination Sequence:
#
# PCOD8016690 Si02
#       7
#     2   2   2   2   2   2   2
#     4  12  26  43  72 102 140 184 234 284 341 417
#     4  10  21  46  69  98 140 178 235 283 347 417
#     4  11  23  43  72 103 138 173 235 290 354 396
#     4  11  26  46  70 102 140 186 228 285 349 414
#     4  10  25  40  68  99 142 175 224 289 352 400
#     4  11  27  47  68 104 139 181 237 283 341 417
#     4  11  24  43  76  97 140 182 228 285 349 415
#
# _framework density 22.349024
#
# number of rings (size 3 to 8) (size 9 to 14) (size 15 to 20)
#    0.000    1.143    2.857    3.429   12.000    3.429 
#    0.000    1.429    0.000    0.000    0.000    0.000 
#    0.000    0.000    0.000    0.000    0.000    0.000 
#
# Total GULP energy -173541.065916 kJ/mol
# GULP energy per Si atom -12395.790423 kJ/mol
# Density = 2.229816 g / cm^3
# Si number density = 22.349024 Si / 1000 Ang^3
#
#
#
# Elastic Constant Matrix: (Units=GPa)
#
#
# Indices 1 2 3 4 5 6 
#
# 1 121.6370 69.0514 52.5687 -10.6239 -31.1229 24.3102
# 2 69.0514 189.1957 52.6831 5.5304 -11.2292 6.9905
# 3 52.5687 52.6831 113.0702 5.9529 -15.3900 8.4629
# 4 -10.6239 5.5304 5.9529 34.2106 3.0542 1.8586
# 5 -31.1229 -11.2292 -15.3900 3.0542 57.5841 -8.7384
# 6 24.3102 6.9905 8.4629 1.8586 -8.7384 47.6212
#
#
#
# Elastic Compliance Matrix: (Units=1/GPa)
#
#
# Indices 1 2 3 4 5 6 
#
# 1 0.015479 -0.004056 -0.004490 0.006097 0.005172 -0.005797
# 2 -0.004056 0.007162 -0.001554 -0.002131 -0.000914 0.001211
# 3 -0.004490 -0.001554 0.011878 -0.003311 0.000722 0.000671
# 4 0.006097 -0.002131 -0.003311 0.032258 -0.000250 -0.003516
# 5 0.005172 -0.000914 0.000722 -0.000250 0.020358 0.001111
# 6 -0.005797 0.001211 0.000671 -0.003516 0.001111 0.024003
#
#
# Mechanical properties :
#
#
# Convention : Reuss Voigt Hill
#
# Bulk Modulus (GPa) = 69.83817 85.83437 77.83627
# Shear Modulus (GPa) = 36.73520 44.52316 40.62918
#
# Velocity S-wave (km/s) = 4.05866 4.46822 4.26836
# Velocity P-wave (km/s) = 7.29934 8.06906 7.69383
#
# Compressibility (1/GPa) = 0.01431882
#
# Stress axis : x y z
#
# Youngs Moduli (GPa) = 64.60554 139.62648 84.19043
#
# Poissons Ratio (x) = 0.56635 0.37798
# Poissons Ratio (y) = 0.26205 0.13084
# Poissons Ratio (z) = 0.29005 0.21699
#
# Static dielectric constant tensor:
#      x y z
#    x 4.977350 0.116590 -0.469930 
#    y 0.116590 4.172960 0.034950 
#    z -0.469930 0.034950 4.128990 
# 
# 
# High freq. dielectric constant tensor:
#      x y z
#    x 1.888050 0.009140 -0.006650 
#    y 0.009140 1.890420 0.002290 
#    z -0.006650 0.002290 1.876970 
# 
# From -- ./inp_files/158439.got.cif
#   From: 2010.06.25/outbox.cif.g09.slc.cpg/sg2_80_cif.got.tgz:158439.got - 2010.06.27 13:26:56.
