data_PCOD8016765
_publ_section_title
;
Structure prediction by ZEFSAII (Michael W. Deem and Ramdas Pophale) SiO2 
 PCOD8016765
Probable space group: P -1
;
_chemical_formula_sum "Si O2"
_cell_formula_units_Z 16
_cell_length_a 28.129131
_cell_length_b 17.383641
_cell_length_c 5.283652
_cell_angle_alpha 125.346347
_cell_angle_beta 59.078236
_cell_angle_gamma 159.556067
_cell_volume 732.475122
_symmetry_space_group_name_H-M "P -1"
_symmetry_group_IT_number 2
_symmetry_cell_setting 'triclinic'
loop_
_space_group_symop_operation_xyz
x,y,z
-x,-y,-z
loop_
_atom_site_type_symbol
_atom_site_label
_atom_site_fract_x
_atom_site_fract_y
_atom_site_fract_z
Si Si1 0.259685 0.973451 0.377518
Si Si2 0.603962 0.877271 0.188601
Si Si3 0.229474 0.682904 0.417665
Si Si4 0.041796 0.973834 0.986818
Si Si5 0.945356 0.208524 0.553774
Si Si6 0.938547 0.479830 0.821370
Si Si7 0.250552 0.505802 0.992834
Si Si8 0.691328 0.515860 0.690427
O O1 0.179258 0.948456 0.579619
O O2 0.145361 0.716054 0.122377
O O3 0.329802 0.061139 0.620661
O O4 0.366494 0.143086 0.174800
O O5 0.441648 0.626753 0.192443
O O6 0.655883 0.063336 0.330683
O O7 0.174955 0.626676 0.185051
O O8 0.097882 0.476311 0.565247
O O9 0.301474 0.692560 0.231653
O O10 0.066381 0.922422 0.634679
O O11 0.182367 0.216641 0.208578
O O12 0.000000 0.000000 0.000000
O O13 0.915030 0.751541 0.096364
O O14 0.936993 0.258556 0.928206
O O15 0.000000 0.500000 0.500000
O O16 0.326255 0.579467 0.684517
O O17 0.284874 0.504909 0.156056
#
# Coordination Sequence:
#
# PCOD8016765 Si02
#       8
#     2   2   2   2   2   2   2   2
#     4  11  22  38  60  93 124 164 202 252 309 372
#     4  11  24  39  61  86 130 165 204 245 313 374
#     4  10  22  34  58  96 121 164 198 259 310 378
#     4   9  22  42  66  93 118 163 209 263 307 358
#     4  11  20  38  62  92 128 159 208 260 309 359
#     4  11  20  34  59  93 135 156 197 251 321 365
#     4  10  23  39  67  88 122 155 215 259 314 357
#     4  11  23  45  60  87 123 169 206 260 302 363
#
# _framework density 21.843747
#
# number of rings (size 3 to 8) (size 9 to 14) (size 15 to 20)
#    0.000    1.500    2.500    3.000    5.250    1.000 
#    2.250    1.250    0.000    0.000    0.000    0.000 
#    0.000    0.000    0.000    0.000    0.000    0.000 
#
# Total GULP energy -198264.911975 kJ/mol
# GULP energy per Si atom -12391.556998 kJ/mol
# Density = 2.179403 g / cm^3
# Si number density = 21.843747 Si / 1000 Ang^3
#
#
#
# Elastic Constant Matrix: (Units=GPa)
#
#
# Indices 1 2 3 4 5 6 
#
# 1 99.6350 21.8618 50.0250 0.6725 -14.5624 7.4519
# 2 21.8618 66.8244 12.8998 -6.4959 -2.2060 12.1393
# 3 50.0250 12.8998 107.3104 -14.5815 -1.6900 -0.1234
# 4 0.6725 -6.4959 -14.5815 27.3251 -7.0790 -1.0812
# 5 -14.5624 -2.2060 -1.6900 -7.0790 35.3969 -2.0787
# 6 7.4519 12.1393 -0.1234 -1.0812 -2.0787 21.6586
#
#
#
# Elastic Compliance Matrix: (Units=1/GPa)
#
#
# Indices 1 2 3 4 5 6 
#
# 1 0.015345 -0.003260 -0.007218 -0.003889 0.004798 -0.003227
# 2 -0.003260 0.018038 -0.000118 0.003972 0.000056 -0.008785
# 3 -0.007218 -0.000118 0.013696 0.007401 -0.000671 0.002933
# 4 -0.003889 0.003972 0.007401 0.043706 0.007864 0.002090
# 5 0.004798 0.000056 -0.000671 0.007864 0.031873 0.001766
# 6 -0.003227 -0.008785 0.002933 0.002090 0.001766 0.052496
#
#
# Mechanical properties :
#
#
# Convention : Reuss Voigt Hill
#
# Bulk Modulus (GPa) = 38.63023 49.26033 43.94528
# Shear Modulus (GPa) = 24.39323 29.47499 26.93411
#
# Velocity S-wave (km/s) = 3.34535 3.67734 3.51527
# Velocity P-wave (km/s) = 5.71358 6.37422 6.05292
#
# Compressibility (1/GPa) = 0.02588646
#
# Stress axis : x y z
#
# Youngs Moduli (GPa) = 65.16822 55.43897 73.01281
#
# Poissons Ratio (x) = 0.18074 0.52701
# Poissons Ratio (y) = 0.21246 0.00862
# Poissons Ratio (z) = 0.47039 0.00654
#
# Static dielectric constant tensor:
#      x y z
#    x 3.916000 0.011950 -0.154210 
#    y 0.011950 4.202580 0.013820 
#    z -0.154210 0.013820 3.855460 
# 
# 
# High freq. dielectric constant tensor:
#      x y z
#    x 1.853780 0.009100 -0.007790 
#    y 0.009100 1.838940 -0.011280 
#    z -0.007790 -0.011280 1.854930 
# 
# From -- ./inp_files/75493.got.cif
#   From: 2010.06.25/outbox.cif.g09.slc.cpg/sg2_38_cif.got.tgz:75493.got - 2010.06.27 13:26:56.
