data_PCOD8016066
_publ_section_title
;
Structure prediction by ZEFSAII (Michael W. Deem and Ramdas Pophale) SiO2 
 PCOD8016066
Probable space group: P -1
;
_chemical_formula_sum "Si O2"
_cell_formula_units_Z 14
_cell_length_a 11.987530
_cell_length_b 13.797558
_cell_length_c 11.334990
_cell_angle_alpha 147.412248
_cell_angle_beta 130.401018
_cell_angle_gamma 32.584671
_cell_volume 531.302936
_symmetry_space_group_name_H-M "P -1"
_symmetry_group_IT_number 2
_symmetry_cell_setting 'triclinic'
loop_
_space_group_symop_operation_xyz
x,y,z
-x,-y,-z
loop_
_atom_site_type_symbol
_atom_site_label
_atom_site_fract_x
_atom_site_fract_y
_atom_site_fract_z
Si Si1 0.050277 0.279537 0.954808
Si Si2 0.228330 0.749091 0.958522
Si Si3 0.538931 0.334101 0.185121
Si Si4 0.768518 0.960327 0.551250
Si Si5 0.895365 0.519931 0.332201
Si Si6 0.151512 0.803589 0.545076
Si Si7 0.657339 0.842666 0.155862
O O1 0.271339 0.147339 0.912400
O O2 0.020201 0.095074 0.709956
O O3 0.067588 0.296683 0.125236
O O4 0.847986 0.564261 0.061947
O O5 0.417673 0.620148 0.865810
O O6 0.249563 0.522144 0.776637
O O7 0.278337 0.815560 0.180592
O O8 0.000000 0.000000 0.000000
O O9 0.304867 0.595939 0.335749
O O10 0.717514 0.242439 0.300780
O O11 0.542670 0.112191 0.950276
O O12 0.760388 0.803841 0.478084
O O13 0.605094 0.054072 0.428317
O O14 0.998811 0.777606 0.456556
O O15 0.000000 0.500000 0.500000
#
# Coordination Sequence:
#
# PCOD8016066 Si02
#       7
#     2   2   2   2   2   2   2
#     4  10  21  43  69  98 131 187 219 271 343 411
#     4  12  22  43  67  95 136 184 223 275 344 404
#     4  11  24  41  64 105 140 168 228 295 323 396
#     4  11  23  43  70  96 131 187 222 268 342 416
#     4  11  20  36  68  98 124 170 233 270 314 408
#     4  11  22  42  72  98 133 182 230 277 336 396
#     4  10  24  42  66 103 139 169 231 286 331 404
#
# _framework density 26.350314000000001
#
# number of rings (size 3 to 8) (size 9 to 14) (size 15 to 20)
#    0.000    1.143    4.286    2.571    0.000    4.571 
#    2.571    4.286    0.000    0.000    0.000    0.000 
#    0.000    0.000    0.000    0.000    0.000    0.000 
#
# Total GULP energy -173576.218052 kJ/mol
# GULP energy per Si atom -12398.301289 kJ/mol
# Density = 2.629034 g / cm^3
# Si number density = 26.350314 Si / 1000 Ang^3
#
#
#
# Elastic Constant Matrix: (Units=GPa)
#
#
# Indices 1 2 3 4 5 6 
#
# 1 186.7741 3.8608 60.7258 -12.1130 0.8975 11.4302
# 2 3.8608 14.2950 2.4759 -3.4174 0.0066 -2.5567
# 3 60.7258 2.4759 165.0226 -29.9233 4.8385 -11.5209
# 4 -12.1130 -3.4174 -29.9233 39.9424 5.7039 5.2550
# 5 0.8975 0.0066 4.8385 5.7039 56.1290 0.5578
# 6 11.4302 -2.5567 -11.5209 5.2550 0.5578 12.5976
#
#
#
# Elastic Compliance Matrix: (Units=1/GPa)
#
#
# Indices 1 2 3 4 5 6 
#
# 1 0.007127 -0.003017 -0.003143 0.000883 0.000170 -0.010330
# 2 -0.003017 0.074756 0.002140 0.004848 -0.000815 0.017880
# 3 -0.003143 0.002140 0.008731 0.004722 -0.001276 0.009358
# 4 0.000883 0.004848 0.004722 0.030832 -0.003473 -0.008206
# 5 0.000170 -0.000815 -0.001276 -0.003473 0.018285 -0.000847
# 6 -0.010330 0.017880 0.009358 -0.008206 -0.000847 0.104401
#
#
# Mechanical properties :
#
#
# Convention : Reuss Voigt Hill
#
# Bulk Modulus (GPa) = 12.11038 55.57963 33.84501
# Shear Modulus (GPa) = 17.87645 41.66907 29.77276
#
# Velocity S-wave (km/s) = 2.60747 3.98093 3.36502
# Velocity P-wave (km/s) = 3.69744 6.50145 5.28866
#
# Compressibility (1/GPa) = 0.08257376
#
# Stress axis : x y z
#
# Youngs Moduli (GPa) = 140.31074 13.37682 114.52975
#
# Poissons Ratio (x) = 0.04036 0.36001
# Poissons Ratio (y) = 0.42331 -0.24509
# Poissons Ratio (z) = 0.44105 -0.02863
#
# Static dielectric constant tensor:
#      x y z
#    x 5.225300 0.189130 0.029670 
#    y 0.189130 4.264180 -0.312560 
#    z 0.029670 -0.312560 5.492350 
# 
# 
# High freq. dielectric constant tensor:
#      x y z
#    x 2.070930 0.011590 0.000430 
#    y 0.011590 2.020500 -0.019760 
#    z 0.000430 -0.019760 2.086020 
# 
# From -- ./inp_files/433549.got.cif
#   From: 2010.06.25/outbox.cif.g09.slc.cpg/sg2_217_cif.got.tgz:433549.got - 2010.06.27 13:26:56.
