data_PCOD8016482
_publ_section_title
;
Structure prediction by ZEFSAII (Michael W. Deem and Ramdas Pophale) SiO2 
 PCOD8016482
Probable space group: P -1
;
_chemical_formula_sum "Si O2"
_cell_formula_units_Z 16
_cell_length_a 11.925185
_cell_length_b 12.431179
_cell_length_c 11.963912
_cell_angle_alpha 79.755246
_cell_angle_beta 137.383575
_cell_angle_gamma 65.894480
_cell_volume 693.964619
_symmetry_space_group_name_H-M "P -1"
_symmetry_group_IT_number 2
_symmetry_cell_setting 'triclinic'
loop_
_space_group_symop_operation_xyz
x,y,z
-x,-y,-z
loop_
_atom_site_type_symbol
_atom_site_label
_atom_site_fract_x
_atom_site_fract_y
_atom_site_fract_z
Si Si1 0.763758 0.053051 0.259214
Si Si2 0.056796 0.803465 0.908733
Si Si3 0.296972 0.067337 0.178544
Si Si4 0.983763 0.933516 0.201098
Si Si5 0.037321 0.430634 0.882490
Si Si6 0.860447 0.537819 0.276738
Si Si7 0.641323 0.568598 0.744613
Si Si8 0.855250 0.818685 0.535089
O O1 0.712710 0.971632 0.309263
O O2 0.475524 0.274243 0.000513
O O3 0.000000 0.000000 0.500000
O O4 0.852439 0.968694 0.216133
O O5 0.766182 0.938670 0.740289
O O6 0.011968 0.808494 0.743492
O O7 0.147793 0.881222 0.972588
O O8 0.299070 0.593795 0.173832
O O9 0.616999 0.871203 0.412083
O O10 0.257342 0.218643 0.115418
O O11 0.077993 0.125507 0.924220
O O12 0.318108 0.767578 0.491502
O O13 0.002715 0.458264 0.719119
O O14 0.735809 0.564964 0.693552
O O15 0.166745 0.476464 0.011557
O O16 0.000000 0.500000 0.500000
O O17 0.925318 0.376567 0.330340
#
# Coordination Sequence:
#
# PCOD8016482 Si02
#       8
#     2   2   2   2   2   2   2   2
#     4  12  27  49  71 102 145 190 237 292 348 426
#     4  11  24  44  70 106 134 184 240 283 349 429
#     4  11  25  44  70 106 145 181 228 301 357 420
#     4  12  26  45  69 100 150 185 226 295 363 412
#     4  10  21  44  72 102 139 179 241 292 353 418
#     4  12  27  45  72 107 140 186 239 294 352 420
#     4  10  23  45  72 102 135 185 234 297 349 421
#     4  12  25  46  76  98 139 189 245 285 349 423
#
# _framework density 23.055931000000001
#
# number of rings (size 3 to 8) (size 9 to 14) (size 15 to 20)
#    0.000    0.750    3.750    3.000    3.500    4.500 
#    4.500    0.000    0.000    0.000    0.000    0.000 
#    0.000    0.000    0.000    0.000    0.000    0.000 
#
# Total GULP energy -198502.011662 kJ/mol
# GULP energy per Si atom -12406.375729 kJ/mol
# Density = 2.300345 g / cm^3
# Si number density = 23.055931 Si / 1000 Ang^3
#
#
#
# Elastic Constant Matrix: (Units=GPa)
#
#
# Indices 1 2 3 4 5 6 
#
# 1 115.1575 34.1960 30.6730 -3.3848 -8.0685 -22.2285
# 2 34.1960 103.1157 41.1582 -12.5874 5.1049 -15.1513
# 3 30.6730 41.1582 85.7009 -11.3739 1.7048 -12.9933
# 4 -3.3848 -12.5874 -11.3739 27.7238 -7.7921 0.4671
# 5 -8.0685 5.1049 1.7048 -7.7921 29.2363 -1.3034
# 6 -22.2285 -15.1513 -12.9933 0.4671 -1.3034 41.4769
#
#
#
# Elastic Compliance Matrix: (Units=1/GPa)
#
#
# Indices 1 2 3 4 5 6 
#
# 1 0.011114 -0.002273 -0.002216 0.000439 0.003913 0.004550
# 2 -0.002273 0.013106 -0.004715 0.003230 -0.001691 0.002003
# 3 -0.002216 -0.004715 0.015549 0.004069 0.000476 0.001930
# 4 0.000439 0.003230 0.004069 0.042220 0.010686 0.002550
# 5 0.003913 -0.001691 0.000476 0.010686 0.038521 0.002719
# 6 0.004550 0.002003 0.001930 0.002550 0.002719 0.027941
#
#
# Mechanical properties :
#
#
# Convention : Reuss Voigt Hill
#
# Bulk Modulus (GPa) = 46.81237 57.33651 52.07444
# Shear Modulus (GPa) = 28.73911 32.88386 30.81149
#
# Velocity S-wave (km/s) = 3.53440 3.78069 3.65962
# Velocity P-wave (km/s) = 6.08309 6.63179 6.36335
#
# Compressibility (1/GPa) = 0.02136188
#
# Stress axis : x y z
#
# Youngs Moduli (GPa) = 89.97407 76.30289 64.31246
#
# Poissons Ratio (x) = 0.17343 0.14252
# Poissons Ratio (y) = 0.20450 0.30321
# Poissons Ratio (z) = 0.19939 0.35974
#
# Static dielectric constant tensor:
#      x y z
#    x 4.378670 -0.146760 -0.120730 
#    y -0.146760 4.299770 -0.172820 
#    z -0.120730 -0.172820 3.790570 
# 
# 
# High freq. dielectric constant tensor:
#      x y z
#    x 1.923360 -0.009860 -0.009950 
#    y -0.009860 1.924040 -0.010100 
#    z -0.009950 -0.010100 1.890900 
# 
# From -- ./inp_files/307718.got.cif
#   From: 2010.06.25/outbox.cif.g09.slc.cpg/sg2_154_cif.got.tgz:307718.got - 2010.06.27 13:26:56.
