data_PCOD8016206
_publ_section_title
;
Structure prediction by ZEFSAII (Michael W. Deem and Ramdas Pophale) SiO2 
 PCOD8016206
Probable space group: P -1
;
_chemical_formula_sum "Si O2"
_cell_formula_units_Z 16
_cell_length_a 13.261564
_cell_length_b 7.044943
_cell_length_c 11.282655
_cell_angle_alpha 105.351953
_cell_angle_beta 54.744082
_cell_angle_gamma 130.008618
_cell_volume 649.697446
_symmetry_space_group_name_H-M "P -1"
_symmetry_group_IT_number 2
_symmetry_cell_setting 'triclinic'
loop_
_space_group_symop_operation_xyz
x,y,z
-x,-y,-z
loop_
_atom_site_type_symbol
_atom_site_label
_atom_site_fract_x
_atom_site_fract_y
_atom_site_fract_z
Si Si1 0.033633 0.323408 0.093095
Si Si2 0.638072 0.670651 0.641001
Si Si3 0.599893 0.208389 0.565754
Si Si4 0.096622 0.842716 0.095143
Si Si5 0.148229 0.846587 0.590026
Si Si6 0.377546 0.616629 0.957468
Si Si7 0.559086 0.898085 0.096128
Si Si8 0.093519 0.148580 0.346854
O O1 0.114604 0.876081 0.754113
O O2 0.193139 0.371593 0.038979
O O3 0.999226 0.204933 0.966970
O O4 0.057755 0.582880 0.119968
O O5 0.607177 0.439056 0.552574
O O6 0.726864 0.897607 0.525290
O O7 0.475914 0.603509 0.786324
O O8 0.725576 0.690444 0.708021
O O9 0.516849 0.111541 0.731991
O O10 0.500000 0.000000 0.500000
O O11 0.777100 0.297320 0.478521
O O12 0.041835 0.940150 0.248318
O O13 0.282003 0.066782 0.980600
O O14 0.973770 0.700043 0.621994
O O15 0.385883 0.856517 0.970708
O O16 0.443088 0.649790 0.052023
O O17 0.000000 0.000000 0.500000
#
# Coordination Sequence:
#
# PCOD8016206 Si02
#       8
#     2   2   2   2   2   2   2   2
#     4  10  24  40  75 110 144 195 235 309 365 426
#     4  11  25  49  73 104 145 193 247 303 360 446
#     4  12  28  46  73 107 143 193 244 304 372 434
#     4  10  21  45  71 104 152 187 247 296 366 438
#     4  11  26  47  69 108 146 191 241 296 371 432
#     4  10  21  43  74 107 137 191 246 300 362 429
#     4  10  21  43  74 102 144 189 246 299 355 440
#     4  10  24  43  69 105 142 190 241 301 355 437
#
# _framework density 24.626846
#
# number of rings (size 3 to 8) (size 9 to 14) (size 15 to 20)
#    0.000    1.500    2.500    0.750    5.250    4.000 
#    0.000    0.000    0.000    0.000    0.000    0.000 
#    0.000    0.000    0.000    0.000    0.000    0.000 
#
# Total GULP energy -198261.530002 kJ/mol
# GULP energy per Si atom -12391.345625 kJ/mol
# Density = 2.457079 g / cm^3
# Si number density = 24.626846 Si / 1000 Ang^3
#
#
#
# Elastic Constant Matrix: (Units=GPa)
#
#
# Indices 1 2 3 4 5 6 
#
# 1 121.4892 30.6480 59.2413 8.7031 -13.5154 21.8382
# 2 30.6480 53.7394 48.6413 6.8276 5.2626 22.8821
# 3 59.2413 48.6413 188.6686 -8.8476 4.5683 18.0812
# 4 8.7031 6.8276 -8.8476 40.8860 1.9383 5.3323
# 5 -13.5154 5.2626 4.5683 1.9383 42.9533 -0.0469
# 6 21.8382 22.8821 18.0812 5.3323 -0.0469 32.0305
#
#
#
# Elastic Compliance Matrix: (Units=1/GPa)
#
#
# Indices 1 2 3 4 5 6 
#
# 1 0.011635 -0.002388 -0.002849 -0.002350 0.004358 -0.004221
# 2 -0.002388 0.034839 -0.006509 -0.004053 -0.004165 -0.018918
# 3 -0.002849 -0.006509 0.007899 0.003246 -0.001084 0.001591
# 4 -0.002350 -0.004053 0.003246 0.026654 -0.001793 -0.001774
# 5 0.004358 -0.004165 -0.001084 -0.001793 0.025360 0.000952
# 6 -0.004221 -0.018918 0.001591 -0.001774 0.000952 0.047011
#
#
# Mechanical properties :
#
#
# Convention : Reuss Voigt Hill
#
# Bulk Modulus (GPa) = 32.38072 71.21761 51.79916
# Shear Modulus (GPa) = 26.71194 38.19840 32.45517
#
# Velocity S-wave (km/s) = 3.29700 3.94266 3.63420
# Velocity P-wave (km/s) = 5.26030 7.05036 6.22006
#
# Compressibility (1/GPa) = 0.03088258
#
# Stress axis : x y z
#
# Youngs Moduli (GPa) = 85.95049 28.70343 126.60086
#
# Poissons Ratio (x) = 0.06853 0.36068
# Poissons Ratio (y) = 0.20521 0.82398
# Poissons Ratio (z) = 0.24487 0.18682
#
# Static dielectric constant tensor:
#      x y z
#    x 5.798100 0.295590 0.009020 
#    y 0.295590 4.372810 0.008450 
#    z 0.009020 0.008450 4.432130 
# 
# 
# High freq. dielectric constant tensor:
#      x y z
#    x 1.998670 -0.007760 -0.005780 
#    y -0.007760 1.958760 -0.008290 
#    z -0.005780 -0.008290 1.993980 
# 
# From -- ./inp_files/445006.got.cif
#   From: 2010.06.25/outbox.cif.g09.slc.cpg/sg2_223_cif.got.tgz:445006.got - 2010.06.27 13:26:56.
