data_PCOD8016227
_publ_section_title
;
Structure prediction by ZEFSAII (Michael W. Deem and Ramdas Pophale) SiO2 
 PCOD8016227
Probable space group: P -1
;
_chemical_formula_sum "Si O2"
_cell_formula_units_Z 16
_cell_length_a 11.170746
_cell_length_b 27.457088
_cell_length_c 8.713368
_cell_angle_alpha 33.312332
_cell_angle_beta 137.380782
_cell_angle_gamma 148.872927
_cell_volume 756.760514
_symmetry_space_group_name_H-M "P -1"
_symmetry_group_IT_number 2
_symmetry_cell_setting 'triclinic'
loop_
_space_group_symop_operation_xyz
x,y,z
-x,-y,-z
loop_
_atom_site_type_symbol
_atom_site_label
_atom_site_fract_x
_atom_site_fract_y
_atom_site_fract_z
Si Si1 0.663011 0.084646 0.565890
Si Si2 0.524936 0.129803 0.884789
Si Si3 0.509828 0.635903 0.046619
Si Si4 0.389265 0.786386 0.591870
Si Si5 0.141268 0.402224 0.487995
Si Si6 0.983610 0.240493 0.205250
Si Si7 0.434188 0.296405 0.419618
Si Si8 0.830694 0.519771 0.349825
O O1 0.549122 0.130926 0.424744
O O2 0.904920 0.192585 0.431647
O O3 0.500000 0.000000 0.500000
O O4 0.679367 0.006469 0.904286
O O5 0.516462 0.137536 0.674150
O O6 0.483547 0.209004 0.723908
O O7 0.774426 0.174537 0.058726
O O8 0.293759 0.509038 0.234961
O O9 0.750908 0.661632 0.229114
O O10 0.515374 0.733111 0.881141
O O11 0.463792 0.639589 0.815359
O O12 0.112820 0.686120 0.588650
O O13 0.125907 0.444966 0.524777
O O14 0.158768 0.220497 0.370178
O O15 0.124394 0.378300 0.977502
O O16 0.567316 0.399109 0.401506
O O17 0.000000 0.500000 0.500000
#
# Coordination Sequence:
#
# PCOD8016227 Si02
#       8
#     2   2   2   2   2   2   2   2
#     4  10  25  41  66  90 117 157 206 259 302 358
#     4  10  21  44  61  89 119 159 209 250 300 350
#     4  10  23  38  58  91 124 161 200 241 294 362
#     4  11  21  41  65  83 118 161 201 249 305 353
#     4  11  23  38  57  91 128 158 201 242 293 365
#     4  11  22  40  59  90 126 157 202 245 302 355
#     4  11  22  38  64  89 125 164 199 242 302 361
#     4  12  22  37  62  93 129 165 192 246 302 362
#
# _framework density 21.142751000000001
#
# number of rings (size 3 to 8) (size 9 to 14) (size 15 to 20)
#    0.000    1.250    3.750    1.875    3.500    1.500 
#    0.000    2.500    0.000    9.000    0.000    0.000 
#    0.000    0.000    0.000    0.000    0.000    0.000 
#
# Total GULP energy -198410.188798 kJ/mol
# GULP energy per Si atom -12400.636800 kJ/mol
# Density = 2.109463 g / cm^3
# Si number density = 21.142751 Si / 1000 Ang^3
#
#
#
# Elastic Constant Matrix: (Units=GPa)
#
#
# Indices 1 2 3 4 5 6 
#
# 1 122.5372 40.2122 51.5039 -2.2461 18.7562 -7.0095
# 2 40.2122 54.7199 21.3892 0.2266 22.4369 -15.2298
# 3 51.5039 21.3892 91.7739 -4.8879 11.4059 -1.3039
# 4 -2.2461 0.2266 -4.8879 23.9090 5.3572 7.7876
# 5 18.7562 22.4369 11.4059 5.3572 31.8624 -2.7645
# 6 -7.0095 -15.2298 -1.3039 7.7876 -2.7645 33.9157
#
#
#
# Elastic Compliance Matrix: (Units=1/GPa)
#
#
# Indices 1 2 3 4 5 6 
#
# 1 0.012923 -0.007410 -0.005424 0.000671 -0.000654 -0.001073
# 2 -0.007410 0.035836 -0.001743 -0.001503 -0.018842 0.013303
# 3 -0.005424 -0.001743 0.014714 0.003639 -0.001659 -0.002309
# 4 0.000671 -0.001503 0.003639 0.048927 -0.009945 -0.012442
# 5 -0.000654 -0.018842 -0.001659 -0.009945 0.047084 -0.002539
# 6 -0.001073 0.013303 -0.002309 -0.012442 -0.002539 0.037798
#
#
# Mechanical properties :
#
#
# Convention : Reuss Voigt Hill
#
# Bulk Modulus (GPa) = 29.13781 55.02682 42.08232
# Shear Modulus (GPa) = 21.01940 28.33249 24.67594
#
# Velocity S-wave (km/s) = 3.15646 3.66465 3.42001
# Velocity P-wave (km/s) = 5.20535 6.63242 5.96174
#
# Compressibility (1/GPa) = 0.03431967
#
# Stress axis : x y z
#
# Youngs Moduli (GPa) = 77.38025 27.90464 67.96448
#
# Poissons Ratio (x) = 0.20678 0.36862
# Poissons Ratio (y) = 0.57340 0.11845
# Poissons Ratio (z) = 0.41969 0.04863
#
# Static dielectric constant tensor:
#      x y z
#    x 4.168520 0.124960 -0.122520 
#    y 0.124960 3.643660 -0.274660 
#    z -0.122520 -0.274660 4.362220 
# 
# 
# High freq. dielectric constant tensor:
#      x y z
#    x 1.841440 0.000000 -0.002190 
#    y 0.000000 1.800160 -0.011650 
#    z -0.002190 -0.011650 1.841830 
# 
# From -- ./inp_files/277732.got.cif
#   From: 2010.06.25/outbox.cif.g09.slc.cpg/sg2_139_cif.got.tgz:277732.got - 2010.06.27 13:26:56.
