data_PCOD8016568
_publ_section_title
;
Structure prediction by ZEFSAII (Michael W. Deem and Ramdas Pophale) SiO2 
 PCOD8016568
Probable space group: P -1
;
_chemical_formula_sum "Si O2"
_cell_formula_units_Z 16
_cell_length_a 24.283165
_cell_length_b 9.052589
_cell_length_c 11.163116
_cell_angle_alpha 43.306115
_cell_angle_beta 28.893010
_cell_angle_gamma 34.291834
_cell_volume 667.937794
_symmetry_space_group_name_H-M "P -1"
_symmetry_group_IT_number 2
_symmetry_cell_setting 'triclinic'
loop_
_space_group_symop_operation_xyz
x,y,z
-x,-y,-z
loop_
_atom_site_type_symbol
_atom_site_label
_atom_site_fract_x
_atom_site_fract_y
_atom_site_fract_z
Si Si1 0.787419 0.101272 0.892775
Si Si2 0.504064 0.216170 0.436215
Si Si3 0.004624 0.246479 0.106439
Si Si4 0.594876 0.837428 0.095368
Si Si5 0.769827 0.343062 0.361595
Si Si6 0.845987 0.664930 0.862869
Si Si7 0.870433 0.816226 0.348500
Si Si8 0.344775 0.323497 0.180788
O O1 0.749265 0.384488 0.758040
O O2 0.916105 0.974723 0.813631
O O3 0.828392 0.915172 0.811000
O O4 0.657604 0.142388 0.186030
O O5 0.460670 0.244118 0.641053
O O6 0.397576 0.492967 0.405825
O O7 0.500000 0.000000 0.500000
O O8 0.849325 0.312658 0.352714
O O9 0.076187 0.143301 0.902037
O O10 0.000000 0.500000 0.000000
O O11 0.483927 0.147234 0.098567
O O12 0.747348 0.777779 0.866601
O O13 0.611587 0.671567 0.042986
O O14 0.830243 0.059347 0.362748
O O15 0.791570 0.528845 0.127538
O O16 0.008974 0.448300 0.655170
O O17 0.739102 0.808940 0.576699
#
# Coordination Sequence:
#
# PCOD8016568 Si02
#       8
#     2   2   2   2   2   2   2   2
#     4  12  24  41  69 102 135 169 221 278 332 391
#     4  11  21  44  73  98 125 171 229 276 329 383
#     4  11  20  42  69 102 131 165 226 283 319 381
#     4  10  24  47  64  93 139 172 227 269 327 403
#     4  10  22  38  69 101 126 170 222 276 329 383
#     4  10  21  45  67  96 127 172 225 276 321 390
#     4  11  24  44  66  96 140 176 217 266 340 398
#     4  11  28  43  61 101 140 181 213 266 340 400
#
# _framework density 23.954325999999998
#
# number of rings (size 3 to 8) (size 9 to 14) (size 15 to 20)
#    0.000    1.250    5.000    2.250    8.750    2.000 
#    0.000    0.000    0.000    0.000    0.000    0.000 
#    0.000    0.000    0.000    0.000    0.000    0.000 
#
# Total GULP energy -198384.044643 kJ/mol
# GULP energy per Si atom -12399.002790 kJ/mol
# Density = 2.389980 g / cm^3
# Si number density = 23.954326 Si / 1000 Ang^3
#
#
#
# Elastic Constant Matrix: (Units=GPa)
#
#
# Indices 1 2 3 4 5 6 
#
# 1 118.4968 60.5845 8.8630 11.5655 -33.0203 -21.2919
# 2 60.5845 186.1746 0.7220 16.3373 -26.0584 4.1494
# 3 8.8630 0.7220 23.6252 6.6348 -9.1879 -4.0858
# 4 11.5655 16.3373 6.6348 36.5313 -1.7744 -13.4961
# 5 -33.0203 -26.0584 -9.1879 -1.7744 22.9744 9.9893
# 6 -21.2919 4.1494 -4.0858 -13.4961 9.9893 43.6189
#
#
#
# Elastic Compliance Matrix: (Units=1/GPa)
#
#
# Indices 1 2 3 4 5 6 
#
# 1 0.015560 -0.002147 0.003112 -0.002545 0.019770 0.002776
# 2 -0.002147 0.008006 0.004962 -0.005254 0.009846 -0.005225
# 3 0.003112 0.004962 0.057376 -0.014108 0.034497 -0.005844
# 4 -0.002545 -0.005254 -0.014108 0.037247 -0.018321 0.013656
# 5 0.019770 0.009846 0.034497 -0.018321 0.103018 -0.017316
# 6 0.002776 -0.005225 -0.005844 0.013656 -0.017316 0.032422
#
#
# Mechanical properties :
#
#
# Convention : Reuss Voigt Hill
#
# Bulk Modulus (GPa) = 10.77644 52.07061 31.42353
# Shear Modulus (GPa) = 18.33456 37.83339 28.08397
#
# Velocity S-wave (km/s) = 2.76958 3.97847 3.42774
# Velocity P-wave (km/s) = 3.83874 6.54897 5.36772
#
# Compressibility (1/GPa) = 0.09279504
#
# Stress axis : x y z
#
# Youngs Moduli (GPa) = 64.26573 124.90070 17.42890
#
# Poissons Ratio (x) = 0.26817 -0.05423
# Poissons Ratio (y) = 0.13798 -0.08648
# Poissons Ratio (z) = -0.19997 -0.61971
#
# Static dielectric constant tensor:
#      x y z
#    x 4.764950 -0.363350 -0.423060 
#    y -0.363350 4.605150 0.392430 
#    z -0.423060 0.392430 4.333990 
# 
# 
# High freq. dielectric constant tensor:
#      x y z
#    x 1.957070 -0.007510 -0.021940 
#    y -0.007510 1.958440 0.019840 
#    z -0.021940 0.019840 1.933990 
# 
# From -- ./inp_files/474115.got.cif
#   From: 2010.06.25/outbox.cif.g09.slc.cpg/sg2_238_cif.got.tgz:474115.got - 2010.06.27 13:26:56.
