data_PCOD8016301
_publ_section_title
;
Structure prediction by ZEFSAII (Michael W. Deem and Ramdas Pophale) SiO2 
 PCOD8016301
Probable space group: P -1
;
_chemical_formula_sum "Si O2"
_cell_formula_units_Z 16
_cell_length_a 9.748373
_cell_length_b 23.414281
_cell_length_c 22.016182
_cell_angle_alpha 19.494056
_cell_angle_beta 152.830764
_cell_angle_gamma 144.879644
_cell_volume 758.624053
_symmetry_space_group_name_H-M "P -1"
_symmetry_group_IT_number 2
_symmetry_cell_setting 'triclinic'
loop_
_space_group_symop_operation_xyz
x,y,z
-x,-y,-z
loop_
_atom_site_type_symbol
_atom_site_label
_atom_site_fract_x
_atom_site_fract_y
_atom_site_fract_z
Si Si1 0.521381 0.999906 0.936750
Si Si2 0.863226 0.076221 0.807385
Si Si3 0.750181 0.640132 0.584977
Si Si4 0.591853 0.193463 0.117794
Si Si5 0.683945 0.460656 0.390875
Si Si6 0.759021 0.600347 0.025393
Si Si7 0.037007 0.873422 0.791122
Si Si8 0.745744 0.216904 0.286893
O O1 0.448681 0.191414 0.688573
O O2 0.286479 0.883680 0.931896
O O3 0.500000 0.000000 0.000000
O O4 0.864662 0.920882 0.135814
O O5 0.696842 0.271858 0.554306
O O6 0.631164 0.951205 0.817854
O O7 0.000000 0.000000 0.000000
O O8 0.532411 0.525091 0.649442
O O9 0.001237 0.669529 0.704928
O O10 0.930183 0.532444 0.707874
O O11 0.803873 0.152698 0.184712
O O12 0.795242 0.183156 0.268809
O O13 0.423846 0.389443 0.850235
O O14 0.000000 0.500000 0.500000
O O15 0.609610 0.700860 0.924960
O O16 0.838992 0.725224 0.877895
O O17 0.500000 0.500000 0.000000
O O18 0.797579 0.045297 0.520066
#
# Coordination Sequence:
#
# PCOD8016301 Si02
#       8
#     2   2   2   2   2   2   2   2
#     4  11  24  41  67  93 125 172 217 266 326 388
#     4  12  22  43  65  97 133 168 222 268 321 390
#     4  10  21  44  66  91 135 166 214 277 322 384
#     4  12  24  42  68 100 132 172 220 270 323 393
#     4  12  22  40  70  94 128 178 213 267 335 376
#     4  10  22  42  63  92 129 172 213 262 323 390
#     4  11  21  43  67  88 130 174 209 265 334 378
#     4  10  24  41  66  97 129 171 218 267 325 386
#
# _framework density 21.090814999999999
#
# number of rings (size 3 to 8) (size 9 to 14) (size 15 to 20)
#    0.000    1.000    5.000    1.500    1.750    1.500 
#    4.500    0.625    0.000    0.000    0.000    0.000 
#    0.000    0.000    0.000    0.000    0.000    0.000 
#
# Total GULP energy -198353.044689 kJ/mol
# GULP energy per Si atom -12397.065293 kJ/mol
# Density = 2.104281 g / cm^3
# Si number density = 21.090815 Si / 1000 Ang^3
#
#
#
# Elastic Constant Matrix: (Units=GPa)
#
#
# Indices 1 2 3 4 5 6 
#
# 1 130.6726 55.5189 20.8506 12.9736 10.1610 -1.1969
# 2 55.5189 104.1220 43.3910 -9.7637 -8.5306 14.5508
# 3 20.8506 43.3910 66.4767 -13.4723 14.4515 5.0496
# 4 12.9736 -9.7637 -13.4723 33.3385 -2.0194 -3.6745
# 5 10.1610 -8.5306 14.4515 -2.0194 39.1723 1.3362
# 6 -1.1969 14.5508 5.0496 -3.6745 1.3362 37.3581
#
#
#
# Elastic Compliance Matrix: (Units=1/GPa)
#
#
# Indices 1 2 3 4 5 6 
#
# 1 0.012326 -0.008837 0.001638 -0.006748 -0.006182 0.003173
# 2 -0.008837 0.022124 -0.012860 0.004682 0.012340 -0.007143
# 3 0.001638 -0.012860 0.026725 0.005891 -0.012866 0.002489
# 4 -0.006748 0.004682 0.005891 0.036597 0.002460 0.000676
# 5 -0.006182 0.012340 -0.012866 0.002460 0.034838 -0.004269
# 6 0.003173 -0.007143 0.002489 0.000676 -0.004269 0.029535
#
#
# Mechanical properties :
#
#
# Convention : Reuss Voigt Hill
#
# Bulk Modulus (GPa) = 47.49386 60.08803 53.79095
# Shear Modulus (GPa) = 23.89129 34.07448 28.98288
#
# Velocity S-wave (km/s) = 3.36933 4.02382 3.71103
# Velocity P-wave (km/s) = 6.14037 7.08097 6.62738
#
# Compressibility (1/GPa) = 0.02105535
#
# Stress axis : x y z
#
# Youngs Moduli (GPa) = 81.13007 45.20042 37.41818
#
# Poissons Ratio (x) = 0.39946 -0.06128
# Poissons Ratio (y) = 0.71699 0.48119
# Poissons Ratio (z) = -0.13287 0.58127
#
# Static dielectric constant tensor:
#      x y z
#    x 3.875980 -0.116680 0.444680 
#    y -0.116680 3.519800 -0.286800 
#    z 0.444680 -0.286800 4.301610 
# 
# 
# High freq. dielectric constant tensor:
#      x y z
#    x 1.826440 0.016340 0.022240 
#    y 0.016340 1.824050 -0.014990 
#    z 0.022240 -0.014990 1.834830 
# 
# From -- ./inp_files/495648.got.cif
#   From: 2010.06.25/outbox.cif.g09.slc.cpg/sg2_248_cif.got.tgz:495648.got - 2010.06.27 13:26:56.
