data_PCOD8016990
_publ_section_title
;
Structure prediction by ZEFSAII (Michael W. Deem and Ramdas Pophale) SiO2 
 PCOD8016990
Probable space group: P -1
;
_chemical_formula_sum "Si O2"
_cell_formula_units_Z 14
_cell_length_a 9.190757
_cell_length_b 12.117366
_cell_length_c 9.640829
_cell_angle_alpha 68.200747
_cell_angle_beta 135.355567
_cell_angle_gamma 110.800787
_cell_volume 693.693353
_symmetry_space_group_name_H-M "P -1"
_symmetry_group_IT_number 2
_symmetry_cell_setting 'triclinic'
loop_
_space_group_symop_operation_xyz
x,y,z
-x,-y,-z
loop_
_atom_site_type_symbol
_atom_site_label
_atom_site_fract_x
_atom_site_fract_y
_atom_site_fract_z
Si Si1 0.223957 0.276479 0.568397
Si Si2 0.096831 0.109029 0.792669
Si Si3 0.972805 0.152738 0.213758
Si Si4 0.962927 0.730411 0.085138
Si Si5 0.838200 0.463321 0.529031
Si Si6 0.456197 0.801264 0.990367
Si Si7 0.492904 0.625381 0.864507
O O1 0.065196 0.210100 0.608175
O O2 0.208233 0.416952 0.480638
O O3 0.460282 0.260560 0.784705
O O4 0.162609 0.213493 0.409574
O O5 0.991243 0.151738 0.840759
O O6 0.348846 0.103196 0.979695
O O7 0.977222 0.979444 0.729993
O O8 0.747818 0.137807 0.143821
O O9 0.961740 0.234587 0.033733
O O10 0.080872 0.621133 0.262083
O O11 0.718289 0.688661 0.945684
O O12 0.632969 0.389993 0.356506
O O13 0.000000 0.500000 0.500000
O O14 0.387957 0.703676 0.869936
O O15 0.500000 0.500000 0.000000
#
# Coordination Sequence:
#
# PCOD8016990 Si02
#       7
#     2   2   2   2   2   2   2
#     4  10  22  37  63  90 114 156 204 235 290 356
#     4   9  20  44  62  83 119 160 204 237 279 365
#     4  12  23  39  61  90 127 151 191 253 304 333
#     4  11  25  38  61  95 117 155 195 250 302 339
#     4  12  19  38  65  87 116 154 208 237 283 370
#     4   9  21  37  62  91 111 158 204 232 294 351
#     4  11  19  39  64  83 118 160 200 242 282 358
#
# _framework density 20.181827999999999
#
# number of rings (size 3 to 8) (size 9 to 14) (size 15 to 20)
#    0.857    0.571    4.286    2.143    0.000    1.714 
#    0.000    1.429    0.000    4.286    0.000    0.000 
#    0.000    0.000    0.000    0.000    0.000    0.000 
#
# Total GULP energy -173543.764072 kJ/mol
# GULP energy per Si atom -12395.983148 kJ/mol
# Density = 2.013589 g / cm^3
# Si number density = 20.181828 Si / 1000 Ang^3
#
#
#
# Elastic Constant Matrix: (Units=GPa)
#
#
# Indices 1 2 3 4 5 6 
#
# 1 26.2036 3.0409 8.0369 5.6540 -4.6719 1.2031
# 2 3.0409 124.7370 46.5307 25.1701 0.7561 -8.9311
# 3 8.0369 46.5307 102.4812 13.4935 -8.5464 -1.6440
# 4 5.6540 25.1701 13.4935 33.5667 -4.0062 -7.7001
# 5 -4.6719 0.7561 -8.5464 -4.0062 26.9654 -5.8403
# 6 1.2031 -8.9311 -1.6440 -7.7001 -5.8403 16.0677
#
#
#
# Elastic Compliance Matrix: (Units=1/GPa)
#
#
# Indices 1 2 3 4 5 6 
#
# 1 0.041355 0.001024 -0.002466 -0.007327 0.004237 -0.004751
# 2 0.001024 0.011099 -0.004403 -0.006589 -0.002138 0.001707
# 3 -0.002466 -0.004403 0.012350 -0.000875 0.003445 -0.000166
# 4 -0.007327 -0.006589 -0.000875 0.042096 0.009300 0.020351
# 5 0.004237 -0.002138 0.003445 0.009300 0.044577 0.019506
# 6 -0.004751 0.001707 -0.000166 0.020351 0.019506 0.080367
#
#
# Mechanical properties :
#
#
# Convention : Reuss Voigt Hill
#
# Bulk Modulus (GPa) = 18.82754 40.95985 29.89370
# Shear Modulus (GPa) = 19.13957 28.37419 23.75688
#
# Velocity S-wave (km/s) = 3.08288 3.75364 3.43467
# Velocity P-wave (km/s) = 4.69270 6.25507 5.52934
#
# Compressibility (1/GPa) = 0.05311369
#
# Stress axis : x y z
#
# Youngs Moduli (GPa) = 24.18106 90.09690 80.96968
#
# Poissons Ratio (x) = -0.09230 0.19971
# Poissons Ratio (y) = -0.02477 0.35653
# Poissons Ratio (z) = 0.05964 0.39672
#
# Static dielectric constant tensor:
#      x y z
#    x 3.391430 -0.007100 0.051460 
#    y -0.007100 3.772010 0.337870 
#    z 0.051460 0.337870 3.888860 
# 
# 
# High freq. dielectric constant tensor:
#      x y z
#    x 1.754770 -0.009990 -0.000940 
#    y -0.009990 1.797270 0.012750 
#    z -0.000940 0.012750 1.786280 
# 
# From -- ./inp_files/187065.got.cif
#   From: 2010.06.25/outbox.cif.g09.slc.cpg/sg2_94_cif.got.tgz:187065.got - 2010.06.27 13:26:56.
