data_PCOD8016953
_publ_section_title
;
Structure prediction by ZEFSAII (Michael W. Deem and Ramdas Pophale) SiO2 
 PCOD8016953
Probable space group: P -1
;
_chemical_formula_sum "Si O2"
_cell_formula_units_Z 16
_cell_length_a 24.476752
_cell_length_b 4.940546
_cell_length_c 5.329219
_cell_angle_alpha 91.152830
_cell_angle_beta 97.375112
_cell_angle_gamma 112.185552
_cell_volume 590.152903
_symmetry_space_group_name_H-M "P -1"
_symmetry_group_IT_number 2
_symmetry_cell_setting 'triclinic'
loop_
_space_group_symop_operation_xyz
x,y,z
-x,-y,-z
loop_
_atom_site_type_symbol
_atom_site_label
_atom_site_fract_x
_atom_site_fract_y
_atom_site_fract_z
Si Si1 0.646511 0.649266 0.549957
Si Si2 0.560793 0.178876 0.189392
Si Si3 0.328061 0.716822 0.049860
Si Si4 0.932564 0.868733 0.556804
Si Si5 0.867940 0.270504 0.336263
Si Si6 0.453811 0.208477 0.346157
Si Si7 0.958080 0.658236 0.065447
Si Si8 0.730362 0.905967 0.213094
O O1 0.601609 0.517401 0.285386
O O2 0.610307 0.761793 0.740628
O O3 0.701196 0.926676 0.467326
O O4 0.670876 0.413207 0.675789
O O5 0.600558 0.115455 0.986007
O O6 0.490294 0.156791 0.110869
O O7 0.559293 0.038222 0.457065
O O8 0.289929 0.442232 0.848511
O O9 0.293916 0.941287 0.018942
O O10 0.909488 0.120164 0.481163
O O11 0.977724 0.825260 0.357646
O O12 0.875961 0.554087 0.517236
O O13 0.954846 0.894456 0.862177
O O14 0.800937 0.046747 0.270139
O O15 0.893399 0.398198 0.076462
O O16 0.500000 0.500000 0.500000
O O17 0.000000 0.500000 0.000000
#
# Coordination Sequence:
#
# PCOD8016953 Si02
#       8
#     2   2   2   2   2   2   2   2
#     4  10  22  37  61  85 119 161 204 257 329 383
#     4   9  19  37  56  83 122 149 206 256 318 385
#     4  11  24  38  67  89 121 164 208 263 324 392
#     4  10  24  42  71 101 142 185 232 280 347 400
#     4  10  25  42  68  96 137 182 232 285 337 407
#     4   9  17  35  58  81 118 158 193 264 312 386
#     4  10  24  44  71 107 145 186 232 285 343 407
#     4  11  24  44  61  93 125 161 216 268 319 384
#
# _framework density 27.111616999999999
#
# number of rings (size 3 to 8) (size 9 to 14) (size 15 to 20)
#    0.750    1.250    1.250    1.125    3.500    3.500 
#    0.000    5.625    0.000    0.000    0.000    0.000 
#    0.000    0.000    0.000    0.000    0.000    0.000 
#
# Total GULP energy -198278.368965 kJ/mol
# GULP energy per Si atom -12392.398060 kJ/mol
# Density = 2.704991 g / cm^3
# Si number density = 27.111617 Si / 1000 Ang^3
#
#
#
# Elastic Constant Matrix: (Units=GPa)
#
#
# Indices 1 2 3 4 5 6 
#
# 1 173.4010 53.7711 60.6479 -11.2514 -3.3399 29.7356
# 2 53.7711 104.9172 34.1671 -14.0250 -6.3866 10.8273
# 3 60.6479 34.1671 105.0035 -25.7643 -0.5344 13.0999
# 4 -11.2514 -14.0250 -25.7643 52.0937 -5.2460 6.2423
# 5 -3.3399 -6.3866 -0.5344 -5.2460 41.6320 -5.3078
# 6 29.7356 10.8273 13.0999 6.2423 -5.3078 55.1377
#
#
#
# Elastic Compliance Matrix: (Units=1/GPa)
#
#
# Indices 1 2 3 4 5 6 
#
# 1 0.008438 -0.002888 -0.003652 -0.000416 -0.000260 -0.003094
# 2 -0.002888 0.011979 -0.001672 0.002008 0.001780 -0.000454
# 3 -0.003652 -0.001672 0.013802 0.005797 0.000151 -0.001623
# 4 -0.000416 0.002008 0.005797 0.023263 0.002782 -0.003913
# 5 -0.000260 0.001780 0.000151 0.002782 0.024858 0.001833
# 6 -0.003094 -0.000454 -0.001623 -0.003913 0.001833 0.020899
#
#
# Mechanical properties :
#
#
# Convention : Reuss Voigt Hill
#
# Bulk Modulus (GPa) = 56.18607 75.61043 65.89825
# Shear Modulus (GPa) = 39.81056 45.42170 42.61613
#
# Velocity S-wave (km/s) = 3.83612 4.09756 3.96899
# Velocity P-wave (km/s) = 6.35532 7.09477 6.73520
#
# Compressibility (1/GPa) = 0.01779801
#
# Stress axis : x y z
#
# Youngs Moduli (GPa) = 118.50965 83.47735 72.45186
#
# Poissons Ratio (x) = 0.24105 0.26456
# Poissons Ratio (y) = 0.34221 0.12111
# Poissons Ratio (z) = 0.43275 0.13954
#
# Static dielectric constant tensor:
#      x y z
#    x 5.150450 0.469920 -0.463330 
#    y 0.469920 5.752850 0.030290 
#    z -0.463330 0.030290 5.252770 
# 
# 
# High freq. dielectric constant tensor:
#      x y z
#    x 2.083410 0.024970 -0.006770 
#    y 0.024970 2.138580 0.016370 
#    z -0.006770 0.016370 2.099150 
# 
# From -- ./inp_files/121559.got.cif
#   From: 2010.06.25/outbox.cif.g09.slc.cpg/sg2_61_cif.got.tgz:121559.got - 2010.06.27 13:26:56.
