data_PCOD8016369
_publ_section_title
;
Structure prediction by ZEFSAII (Michael W. Deem and Ramdas Pophale) SiO2 
 PCOD8016369
Probable space group: P -1
;
_chemical_formula_sum "Si O2"
_cell_formula_units_Z 16
_cell_length_a 14.562961
_cell_length_b 11.870470
_cell_length_c 9.034465
_cell_angle_alpha 80.965802
_cell_angle_beta 70.450846
_cell_angle_gamma 31.224123
_cell_volume 735.803310
_symmetry_space_group_name_H-M "P -1"
_symmetry_group_IT_number 2
_symmetry_cell_setting 'triclinic'
loop_
_space_group_symop_operation_xyz
x,y,z
-x,-y,-z
loop_
_atom_site_type_symbol
_atom_site_label
_atom_site_fract_x
_atom_site_fract_y
_atom_site_fract_z
Si Si1 0.482579 0.389476 0.468338
Si Si2 0.868586 0.213649 0.933133
Si Si3 0.868113 0.622623 0.189957
Si Si4 0.135037 0.132819 0.692709
Si Si5 0.082515 0.315428 0.403325
Si Si6 0.799061 0.206437 0.650131
Si Si7 0.476270 0.352785 0.791219
Si Si8 0.499797 0.080187 0.843992
O O1 0.500000 0.500000 0.500000
O O2 0.323420 0.560325 0.389995
O O3 0.407434 0.394648 0.650291
O O4 0.674688 0.138905 0.347955
O O5 0.833275 0.184649 0.807549
O O6 0.964755 0.239579 0.848297
O O7 0.669139 0.422424 0.085997
O O8 0.000000 0.000000 0.000000
O O9 0.837054 0.775437 0.256934
O O10 0.662167 0.785752 0.216105
O O11 0.965502 0.429355 0.287208
O O12 0.000000 0.500000 0.000000
O O13 0.074211 0.211632 0.535501
O O14 0.000000 0.500000 0.500000
O O15 0.301565 0.130254 0.303878
O O16 0.685030 0.201937 0.695833
O O17 0.000000 0.000000 0.500000
O O18 0.484656 0.222205 0.892320
O O19 0.500000 0.000000 0.000000
#
# Coordination Sequence:
#
# PCOD8016369 Si02
#       8
#     2   2   2   2   2   2   2   2
#     4  10  21  44  68  97 136 174 229 290 339 417
#     4  12  25  43  69  98 137 180 229 288 347 414
#     4  11  24  46  72 105 142 186 236 292 352 419
#     4  11  24  46  70 102 138 187 232 287 353 418
#     4  10  24  46  70 100 142 177 245 289 343 419
#     4  11  24  44  71  99 136 180 232 290 350 419
#     4  11  24  44  66 101 138 176 229 285 353 411
#     4  12  25  44  71 104 144 182 230 296 346 415
#
# _framework density 21.744942999999999
#
# number of rings (size 3 to 8) (size 9 to 14) (size 15 to 20)
#    0.000    1.000    2.500    4.875    1.750    5.000 
#    2.250    0.000    0.000    0.000    0.000    0.000 
#    0.000    0.000    0.000    0.000    0.000    0.000 
#
# Total GULP energy -198309.807727 kJ/mol
# GULP energy per Si atom -12394.362983 kJ/mol
# Density = 2.169545 g / cm^3
# Si number density = 21.744943 Si / 1000 Ang^3
#
#
#
# Elastic Constant Matrix: (Units=GPa)
#
#
# Indices 1 2 3 4 5 6 
#
# 1 108.9117 58.3219 44.0944 -9.0678 -7.0804 -7.5899
# 2 58.3219 158.4425 63.1122 -7.9073 0.8539 -11.7335
# 3 44.0944 63.1122 133.3292 -6.5008 -1.1942 -11.7541
# 4 -9.0678 -7.9073 -6.5008 53.4380 1.1799 4.7203
# 5 -7.0804 0.8539 -1.1942 1.1799 40.9661 -1.7935
# 6 -7.5899 -11.7335 -11.7541 4.7203 -1.7935 41.9634
#
#
#
# Elastic Compliance Matrix: (Units=1/GPa)
#
#
# Indices 1 2 3 4 5 6 
#
# 1 0.012259 -0.003523 -0.002261 0.001188 0.002116 0.000556
# 2 -0.003523 0.008870 -0.002943 0.000291 -0.000846 0.000950
# 3 -0.002261 -0.002943 0.009784 0.000240 0.000014 0.001482
# 4 0.001188 0.000291 0.000240 0.019156 -0.000425 -0.001809
# 5 0.002116 -0.000846 0.000014 -0.000425 0.024862 0.001260
# 6 0.000556 0.000950 0.001482 -0.001809 0.001260 0.024869
#
#
# Mechanical properties :
#
#
# Convention : Reuss Voigt Hill
#
# Bulk Modulus (GPa) = 74.30164 81.30448 77.80306
# Shear Modulus (GPa) = 41.07144 42.95050 42.01097
#
# Velocity S-wave (km/s) = 4.35073 4.44914 4.40021
# Velocity P-wave (km/s) = 7.71247 7.99152 7.85323
#
# Compressibility (1/GPa) = 0.01345865
#
# Stress axis : x y z
#
# Youngs Moduli (GPa) = 81.57452 112.73977 102.21193
#
# Poissons Ratio (x) = 0.39716 0.23108
# Poissons Ratio (y) = 0.28737 0.30084
# Poissons Ratio (z) = 0.18442 0.33182
#
# Static dielectric constant tensor:
#      x y z
#    x 3.571540 0.354490 0.015050 
#    y 0.354490 3.662910 -0.443490 
#    z 0.015050 -0.443490 3.737150 
# 
# 
# High freq. dielectric constant tensor:
#      x y z
#    x 1.836190 0.003010 -0.004410 
#    y 0.003010 1.874830 -0.004840 
#    z -0.004410 -0.004840 1.875960 
# 
# From -- ./inp_files/307313.got.cif
#   From: 2010.06.25/outbox.cif.g09.slc.cpg/sg2_154_cif.got.tgz:307313.got - 2010.06.27 13:26:56.
