data_PCOD8016685
_publ_section_title
;
Structure prediction by ZEFSAII (Michael W. Deem and Ramdas Pophale) SiO2 
 PCOD8016685
Probable space group: P -1
;
_chemical_formula_sum "Si O2"
_cell_formula_units_Z 16
_cell_length_a 8.540874
_cell_length_b 11.943220
_cell_length_c 14.513106
_cell_angle_alpha 38.483949
_cell_angle_beta 125.163512
_cell_angle_gamma 104.099603
_cell_volume 687.838243
_symmetry_space_group_name_H-M "P -1"
_symmetry_group_IT_number 2
_symmetry_cell_setting 'triclinic'
loop_
_space_group_symop_operation_xyz
x,y,z
-x,-y,-z
loop_
_atom_site_type_symbol
_atom_site_label
_atom_site_fract_x
_atom_site_fract_y
_atom_site_fract_z
Si Si1 0.679300 0.850653 0.946965
Si Si2 0.300921 0.899424 0.679268
Si Si3 0.446743 0.856746 0.140503
Si Si4 0.087426 0.745510 0.042219
Si Si5 0.562791 0.326256 0.313085
Si Si6 0.782650 0.557289 0.337784
Si Si7 0.135438 0.679267 0.892752
Si Si8 0.760982 0.686096 0.657272
O O1 0.771902 0.712505 0.155390
O O2 0.859999 0.847887 0.942895
O O3 0.524450 0.782612 0.880459
O O4 0.547752 0.074303 0.796515
O O5 0.317884 0.834972 0.619933
O O6 0.129114 0.846442 0.709097
O O7 0.238102 0.133221 0.518275
O O8 0.214915 0.867560 0.042044
O O9 0.612610 0.639581 0.309642
O O10 0.500000 0.000000 0.000000
O O11 0.203283 0.512373 0.260043
O O12 0.068988 0.778360 0.905337
O O13 0.738628 0.383471 0.385056
O O14 0.459091 0.234302 0.413032
O O15 0.371343 0.511561 0.083529
O O16 0.000000 0.500000 0.500000
O O17 0.960551 0.604482 0.847517
#
# Coordination Sequence:
#
# PCOD8016685 Si02
#       8
#     2   2   2   2   2   2   2   2
#     4  11  24  44  72 103 136 185 235 290 348 419
#     4  12  24  42  67 107 146 180 233 290 355 416
#     4  10  21  46  68  98 133 176 237 284 341 410
#     4  11  22  44  71  98 139 187 237 281 355 410
#     4  11  22  45  70 100 144 186 230 287 352 425
#     4  11  24  47  73 102 140 186 231 288 353 417
#     4  11  21  42  71  98 142 189 226 290 349 420
#     4  11  24  40  65 105 144 182 226 293 348 417
#
# _framework density 23.261282000000001
#
# number of rings (size 3 to 8) (size 9 to 14) (size 15 to 20)
#    0.000    1.000    3.750    5.250    1.750    1.000 
#   13.500    1.250    0.000    0.000    0.000    0.000 
#    0.000    0.000    0.000    0.000    0.000    0.000 
#
# Total GULP energy -198349.964320 kJ/mol
# GULP energy per Si atom -12396.872770 kJ/mol
# Density = 2.320834 g / cm^3
# Si number density = 23.261282 Si / 1000 Ang^3
#
#
#
# Elastic Constant Matrix: (Units=GPa)
#
#
# Indices 1 2 3 4 5 6 
#
# 1 113.5346 43.3253 -4.9796 -3.5055 10.7044 -7.9388
# 2 43.3253 136.1192 13.2819 8.0657 12.3374 4.5231
# 3 -4.9796 13.2819 51.6590 6.3304 -1.1300 4.1920
# 4 -3.5055 8.0657 6.3304 35.0311 13.9161 9.8316
# 5 10.7044 12.3374 -1.1300 13.9161 25.3379 3.8441
# 6 -7.9388 4.5231 4.1920 9.8316 3.8441 49.8075
#
#
#
# Elastic Compliance Matrix: (Units=1/GPa)
#
#
# Indices 1 2 3 4 5 6 
#
# 1 0.010817 -0.003371 0.001292 0.003061 -0.004808 0.001688
# 2 -0.003371 0.008966 -0.002534 -0.000708 -0.002544 -0.000802
# 3 0.001292 -0.002534 0.020840 -0.004515 0.004211 -0.000752
# 4 0.003061 -0.000708 -0.004515 0.040228 -0.022443 -0.005276
# 5 -0.004808 -0.002544 0.004211 -0.022443 0.055362 -0.000732
# 6 0.001688 -0.000802 -0.000752 -0.005276 -0.000732 0.021581
#
#
# Mechanical properties :
#
#
# Convention : Reuss Voigt Hill
#
# Bulk Modulus (GPa) = 31.84958 44.95202 38.40080
# Shear Modulus (GPa) = 28.17161 38.68097 33.42629
#
# Velocity S-wave (km/s) = 3.48385 4.08228 3.79488
# Velocity P-wave (km/s) = 5.46853 6.44878 5.97878
#
# Compressibility (1/GPa) = 0.03139759
#
# Stress axis : x y z
#
# Youngs Moduli (GPa) = 92.44969 111.53548 47.98428
#
# Poissons Ratio (x) = 0.37594 -0.06199
# Poissons Ratio (y) = 0.31161 0.12159
# Poissons Ratio (z) = -0.11944 0.28262
#
# Static dielectric constant tensor:
#      x y z
#    x 4.340140 -0.004040 0.048790 
#    y -0.004040 4.503590 -0.007810 
#    z 0.048790 -0.007810 3.830540 
# 
# 
# High freq. dielectric constant tensor:
#      x y z
#    x 1.934450 0.011610 0.000680 
#    y 0.011610 1.930820 0.002230 
#    z 0.000680 0.002230 1.892090 
# 
# From -- ./inp_files/399190.got.cif
#   From: 2010.06.25/outbox.cif.g09.slc.cpg/sg2_200_cif.got.tgz:399190.got - 2010.06.27 13:26:56.
