data_PCOD8016538
_publ_section_title
;
Structure prediction by ZEFSAII (Michael W. Deem and Ramdas Pophale) SiO2 
 PCOD8016538
Probable space group: P -1
;
_chemical_formula_sum "Si O2"
_cell_formula_units_Z 16
_cell_length_a 9.208814
_cell_length_b 14.893921
_cell_length_c 13.459543
_cell_angle_alpha 30.839422
_cell_angle_beta 90.767719
_cell_angle_gamma 112.221802
_cell_volume 661.198600
_symmetry_space_group_name_H-M "P -1"
_symmetry_group_IT_number 2
_symmetry_cell_setting 'triclinic'
loop_
_space_group_symop_operation_xyz
x,y,z
-x,-y,-z
loop_
_atom_site_type_symbol
_atom_site_label
_atom_site_fract_x
_atom_site_fract_y
_atom_site_fract_z
Si Si1 0.110408 0.893632 0.539038
Si Si2 0.723067 0.602618 0.925379
Si Si3 0.380571 0.988661 0.284658
Si Si4 0.786947 0.670854 0.409001
Si Si5 0.513398 0.550544 0.219841
Si Si6 0.910207 0.753393 0.113484
Si Si7 0.428798 0.159353 0.467260
Si Si8 0.043382 0.578497 0.539752
O O1 0.190143 0.837762 0.505012
O O2 0.864636 0.647035 0.794229
O O3 0.138016 0.121011 0.288838
O O4 0.245128 0.970524 0.566731
O O5 0.500000 0.500000 0.000000
O O6 0.657210 0.386430 0.202130
O O7 0.548994 0.991990 0.319338
O O8 0.280304 0.843203 0.316249
O O9 0.498198 0.275217 0.003590
O O10 0.560585 0.493608 0.624434
O O11 0.781201 0.614155 0.347605
O O12 0.897341 0.616580 0.529534
O O13 0.899420 0.953548 0.151010
O O14 0.750908 0.687821 0.092623
O O15 0.375006 0.287453 0.410055
O O16 0.999483 0.638394 0.193035
O O17 0.000000 0.500000 0.500000
#
# Coordination Sequence:
#
# PCOD8016538 Si02
#       8
#     2   2   2   2   2   2   2   2
#     4  10  22  42  68  96 136 181 219 277 340 395
#     4   9  20  42  70  98 130 173 225 277 333 395
#     4  12  24  43  67  98 138 180 229 279 338 409
#     4  10  23  41  70  96 128 179 222 279 341 406
#     4  12  24  41  67 101 132 174 229 278 334 401
#     4  10  21  45  65  93 135 173 225 279 340 400
#     4  11  24  43  64 100 141 176 225 281 330 405
#     4  10  22  43  66  96 136 172 220 285 340 400
#
# _framework density 24.198478999999999
#
# number of rings (size 3 to 8) (size 9 to 14) (size 15 to 20)
#    0.000    1.500    3.750    0.750    0.000    5.500 
#    2.250    1.250    0.000    0.000    0.000    0.000 
#    0.000    0.000    0.000    0.000    0.000    0.000 
#
# Total GULP energy -198231.793015 kJ/mol
# GULP energy per Si atom -12389.487063 kJ/mol
# Density = 2.414340 g / cm^3
# Si number density = 24.198479 Si / 1000 Ang^3
#
#
#
# Elastic Constant Matrix: (Units=GPa)
#
#
# Indices 1 2 3 4 5 6 
#
# 1 111.1167 18.4026 63.7260 -2.2763 29.4712 7.0488
# 2 18.4026 80.1251 18.5613 -1.7274 -1.2383 2.4226
# 3 63.7260 18.5613 86.8528 8.8090 15.5491 -7.8775
# 4 -2.2763 -1.7274 8.8090 31.2664 -9.7411 -3.3610
# 5 29.4712 -1.2383 15.5491 -9.7411 53.9435 0.6685
# 6 7.0488 2.4226 -7.8775 -3.3610 0.6685 38.3699
#
#
#
# Elastic Compliance Matrix: (Units=1/GPa)
#
#
# Indices 1 2 3 4 5 6 
#
# 1 0.018784 -0.001101 -0.013272 0.002579 -0.005925 -0.005777
# 2 -0.001101 0.013475 -0.002739 0.001965 0.002068 -0.001075
# 3 -0.013272 -0.002739 0.023357 -0.007262 -0.000940 0.006787
# 4 0.002579 0.001965 -0.007262 0.036722 0.007348 0.001000
# 5 -0.005925 0.002068 -0.000940 0.007348 0.023408 0.001001
# 6 -0.005777 -0.001075 0.006787 0.001000 0.001001 0.028655
#
#
# Mechanical properties :
#
#
# Convention : Reuss Voigt Hill
#
# Bulk Modulus (GPa) = 46.74545 53.27495 50.01020
# Shear Modulus (GPa) = 26.91717 36.54295 31.73006
#
# Velocity S-wave (km/s) = 3.33881 3.89026 3.62504
# Velocity P-wave (km/s) = 5.85004 6.49942 6.18326
#
# Compressibility (1/GPa) = 0.02139245
#
# Stress axis : x y z
#
# Youngs Moduli (GPa) = 53.23657 74.21341 42.81316
#
# Poissons Ratio (x) = 0.08171 0.56821
# Poissons Ratio (y) = 0.05861 0.11726
# Poissons Ratio (z) = 0.70655 0.20326
#
# Static dielectric constant tensor:
#      x y z
#    x 4.599490 -0.132660 0.330320 
#    y -0.132660 4.340360 0.140420 
#    z 0.330320 0.140420 4.504710 
# 
# 
# High freq. dielectric constant tensor:
#      x y z
#    x 1.963850 0.001470 0.021060 
#    y 0.001470 1.951820 -0.003620 
#    z 0.021060 -0.003620 1.942860 
# 
# From -- ./inp_files/504988.got.cif
#   From: 2010.06.25/outbox.cif.g09.slc.cpg/sg2_253_cif.got.tgz:504988.got - 2010.06.27 13:26:56.
