data_PCOD8016924
_publ_section_title
;
Structure prediction by ZEFSAII (Michael W. Deem and Ramdas Pophale) SiO2 
 PCOD8016924
Probable space group: P -1
;
_chemical_formula_sum "Si O2"
_cell_formula_units_Z 16
_cell_length_a 9.600352
_cell_length_b 17.337560
_cell_length_c 6.665249
_cell_angle_alpha 133.102818
_cell_angle_beta 113.565450
_cell_angle_gamma 57.478445
_cell_volume 682.043850
_symmetry_space_group_name_H-M "P -1"
_symmetry_group_IT_number 2
_symmetry_cell_setting 'triclinic'
loop_
_space_group_symop_operation_xyz
x,y,z
-x,-y,-z
loop_
_atom_site_type_symbol
_atom_site_label
_atom_site_fract_x
_atom_site_fract_y
_atom_site_fract_z
Si Si1 0.774034 0.338109 0.810485
Si Si2 0.782878 0.074891 0.937656
Si Si3 0.354277 0.481292 0.274398
Si Si4 0.457228 0.297793 0.668402
Si Si5 0.545913 0.864487 0.309662
Si Si6 0.932482 0.953749 0.189127
Si Si7 0.192067 0.474122 0.560638
Si Si8 0.862755 0.849668 0.313865
O O1 0.747788 0.406414 0.711308
O O2 0.632701 0.287278 0.660717
O O3 0.950598 0.237193 0.706671
O O4 0.768620 0.421080 0.139990
O O5 0.593834 0.161129 0.943478
O O6 0.911563 0.124895 0.003068
O O7 0.830975 0.953874 0.634658
O O8 0.806488 0.054155 0.153666
O O9 0.500000 0.500000 0.500000
O O10 0.233607 0.460776 0.327591
O O11 0.425857 0.370069 0.981351
O O12 0.462366 0.174152 0.531615
O O13 0.305944 0.356123 0.530397
O O14 0.728090 0.796203 0.196853
O O15 0.500000 0.000000 0.500000
O O16 0.838278 0.883320 0.120595
O O17 0.000000 0.000000 0.500000
O O18 0.000000 0.500000 0.500000
#
# Coordination Sequence:
#
# PCOD8016924 Si02
#       8
#     2   2   2   2   2   2   2   2
#     4  11  23  41  68  99 136 174 226 273 326 418
#     4   9  19  40  62  85 124 168 217 271 332 388
#     4  11  21  44  68 101 134 172 219 271 341 412
#     4  11  23  44  69  97 135 181 227 273 335 406
#     4  10  23  43  63  93 134 175 222 283 331 389
#     4   9  18  37  62  86 116 159 221 270 321 387
#     4  11  25  42  69 104 139 171 215 281 342 404
#     4  10  22  37  59  93 126 168 214 271 332 386
#
# _framework density 23.458902999999999
#
# number of rings (size 3 to 8) (size 9 to 14) (size 15 to 20)
#    0.000    1.750    2.500    1.500    3.500    3.500 
#    9.000    2.500    0.000    0.000    0.000    0.000 
#    0.000    0.000    0.000    0.000    0.000    0.000 
#
# Total GULP energy -198250.300887 kJ/mol
# GULP energy per Si atom -12390.643805 kJ/mol
# Density = 2.340551 g / cm^3
# Si number density = 23.458903 Si / 1000 Ang^3
#
#
#
# Elastic Constant Matrix: (Units=GPa)
#
#
# Indices 1 2 3 4 5 6 
#
# 1 171.3265 78.9979 14.9683 -23.3263 -16.1006 -15.2411
# 2 78.9979 152.0448 33.6779 -30.2591 -17.7372 1.5988
# 3 14.9683 33.6779 63.4555 -25.6829 -16.8651 4.9762
# 4 -23.3263 -30.2591 -25.6829 39.2409 3.0699 -0.5617
# 5 -16.1006 -17.7372 -16.8651 3.0699 23.7015 -1.3446
# 6 -15.2411 1.5988 4.9762 -0.5617 -1.3446 49.1827
#
#
#
# Elastic Compliance Matrix: (Units=1/GPa)
#
#
# Indices 1 2 3 4 5 6 
#
# 1 0.008468 -0.003774 0.002272 0.003315 0.004267 0.002672
# 2 -0.003774 0.010143 -0.001955 0.004044 0.003046 -0.001172
# 3 0.002272 -0.001955 0.027780 0.016627 0.017616 -0.001372
# 4 0.003315 0.004044 0.016627 0.040527 0.011860 0.000001
# 5 0.004267 0.003046 0.017616 0.011860 0.058435 0.001174
# 6 0.002672 -0.001172 -0.001372 0.000001 0.001174 0.021369
#
#
# Mechanical properties :
#
#
# Convention : Reuss Voigt Hill
#
# Bulk Modulus (GPa) = 25.33110 71.34612 48.33861
# Shear Modulus (GPa) = 26.76730 39.70387 33.23559
#
# Velocity S-wave (km/s) = 3.38158 4.11845 3.76807
# Velocity P-wave (km/s) = 5.10571 7.28661 6.29138
#
# Compressibility (1/GPa) = 0.03947716
#
# Stress axis : x y z
#
# Youngs Moduli (GPa) = 118.08625 98.58932 35.99738
#
# Poissons Ratio (x) = 0.37204 -0.08177
# Poissons Ratio (y) = 0.44561 0.07038
# Poissons Ratio (z) = -0.26825 0.19275
#
# Static dielectric constant tensor:
#      x y z
#    x 5.839310 0.228310 -0.178780 
#    y 0.228310 4.458960 -0.230730 
#    z -0.178780 -0.230730 4.114200 
# 
# 
# High freq. dielectric constant tensor:
#      x y z
#    x 1.946680 -0.002550 -0.013980 
#    y -0.002550 1.931990 -0.022360 
#    z -0.013980 -0.022360 1.904410 
# 
# From -- ./inp_files/49041.got.cif
#   From: 2010.06.25/outbox.cif.g09.slc.cpg/sg2_25_cif.got.tgz:49041.got - 2010.06.27 13:26:56.
