data_PCOD8016096
_publ_section_title
;
Structure prediction by ZEFSAII (Michael W. Deem and Ramdas Pophale) SiO2 
 PCOD8016096
Probable space group: P -1
;
_chemical_formula_sum "Si O2"
_cell_formula_units_Z 16
_cell_length_a 12.126912
_cell_length_b 15.456335
_cell_length_c 16.278229
_cell_angle_alpha 153.419626
_cell_angle_beta 33.297709
_cell_angle_gamma 131.141822
_cell_volume 697.912493
_symmetry_space_group_name_H-M "P -1"
_symmetry_group_IT_number 2
_symmetry_cell_setting 'triclinic'
loop_
_space_group_symop_operation_xyz
x,y,z
-x,-y,-z
loop_
_atom_site_type_symbol
_atom_site_label
_atom_site_fract_x
_atom_site_fract_y
_atom_site_fract_z
Si Si1 0.443727 0.928857 0.207150
Si Si2 0.829722 0.610893 0.631510
Si Si3 0.312718 0.338020 0.903072
Si Si4 0.835436 0.419823 0.293058
Si Si5 0.671704 0.850367 0.703408
Si Si6 0.985655 0.977544 0.817508
Si Si7 0.629856 0.026636 0.328012
Si Si8 0.844017 0.191518 0.594190
O O1 0.239045 0.918905 0.375580
O O2 0.366942 0.083740 0.310510
O O3 0.593237 0.016059 0.244499
O O4 0.586730 0.694919 0.889518
O O5 0.850557 0.458729 0.413865
O O6 0.869471 0.814378 0.749300
O O7 0.000000 0.500000 0.500000
O O8 0.455343 0.240773 0.652007
O O9 0.401031 0.179717 0.790457
O O10 0.313381 0.567906 0.115677
O O11 0.068248 0.363756 0.058198
O O12 0.663524 0.619011 0.524083
O O13 0.791711 0.205622 0.125757
O O14 0.910287 0.836605 0.565607
O O15 0.500000 0.000000 0.000000
O O16 0.131023 0.972216 0.802953
O O17 0.154521 0.927069 0.593103
#
# Coordination Sequence:
#
# PCOD8016096 Si02
#       8
#     2   2   2   2   2   2   2   2
#     4  12  25  41  64 101 140 173 231 281 331 405
#     4  12  25  42  67 101 140 180 219 284 337 405
#     4   9  18  39  62  97 132 172 218 276 341 399
#     4  10  21  43  70  93 129 181 227 275 336 395
#     4  11  22  48  71  93 135 186 229 280 336 402
#     4  11  23  44  71  98 138 178 231 273 346 411
#     4  10  22  36  64 102 136 175 224 279 342 402
#     4  11  23  41  72  99 131 182 229 278 345 393
#
# _framework density 22.925509999999999
#
# number of rings (size 3 to 8) (size 9 to 14) (size 15 to 20)
#    0.000    1.250    3.750    4.125    1.750    3.000 
#    0.000    9.375    0.000    0.000    0.000    0.000 
#    0.000    0.000    0.000    0.000    0.000    0.000 
#
# Total GULP energy -198374.617483 kJ/mol
# GULP energy per Si atom -12398.413593 kJ/mol
# Density = 2.287333 g / cm^3
# Si number density = 22.925510 Si / 1000 Ang^3
#
#
#
# Elastic Constant Matrix: (Units=GPa)
#
#
# Indices 1 2 3 4 5 6 
#
# 1 78.1847 27.4939 29.3046 12.0243 2.3584 -27.2674
# 2 27.4939 85.0641 45.3588 7.0736 10.1596 -18.3270
# 3 29.3046 45.3588 160.8871 25.3355 4.8962 -10.9784
# 4 12.0243 7.0736 25.3355 39.1439 6.2631 -7.1448
# 5 2.3584 10.1596 4.8962 6.2631 37.0391 4.8172
# 6 -27.2674 -18.3270 -10.9784 -7.1448 4.8172 35.1052
#
#
#
# Elastic Compliance Matrix: (Units=1/GPa)
#
#
# Indices 1 2 3 4 5 6 
#
# 1 0.019023 -0.002087 -0.001659 -0.001714 -0.001829 0.013069
# 2 -0.002087 0.016476 -0.004005 0.002342 -0.005152 0.006911
# 3 -0.001659 -0.004005 0.008208 -0.004611 0.001147 -0.001909
# 4 -0.001714 0.002342 -0.004611 0.030560 -0.005802 0.005465
# 5 -0.001829 -0.005152 0.001147 -0.005802 0.030544 -0.009124
# 6 0.013069 0.006911 -0.001909 0.005465 -0.009124 0.044013
#
#
# Mechanical properties :
#
#
# Convention : Reuss Voigt Hill
#
# Bulk Modulus (GPa) = 35.45611 58.71669 47.08640
# Shear Modulus (GPa) = 28.78072 37.05622 32.91847
#
# Velocity S-wave (km/s) = 3.54701 4.02478 3.79342
# Velocity P-wave (km/s) = 5.68106 6.87503 6.30636
#
# Compressibility (1/GPa) = 0.02820388
#
# Stress axis : x y z
#
# Youngs Moduli (GPa) = 52.56848 60.69550 121.83397
#
# Poissons Ratio (x) = 0.12667 0.20213
# Poissons Ratio (y) = 0.10971 0.48798
# Poissons Ratio (z) = 0.08722 0.24310
#
# Static dielectric constant tensor:
#      x y z
#    x 3.939750 -0.138520 0.026830 
#    y -0.138520 4.216780 0.210470 
#    z 0.026830 0.210470 4.719630 
# 
# 
# High freq. dielectric constant tensor:
#      x y z
#    x 1.889430 -0.000910 0.002600 
#    y -0.000910 1.894570 -0.001460 
#    z 0.002600 -0.001460 1.928860 
# 
# From -- ./inp_files/522574.got.cif
#   From: 2010.06.25/outbox.cif.g09.slc.cpg/sg2_262_cif.got.tgz:522574.got - 2010.06.27 13:26:56.
