data_PCOD8016095
_publ_section_title
;
Structure prediction by ZEFSAII (Michael W. Deem and Ramdas Pophale) SiO2 
 PCOD8016095
Probable space group: P -1
;
_chemical_formula_sum "Si O2"
_cell_formula_units_Z 16
_cell_length_a 16.385253
_cell_length_b 15.478620
_cell_length_c 15.172671
_cell_angle_alpha 153.849406
_cell_angle_beta 149.246857
_cell_angle_gamma 26.187698
_cell_volume 719.170248
_symmetry_space_group_name_H-M "P -1"
_symmetry_group_IT_number 2
_symmetry_cell_setting 'triclinic'
loop_
_space_group_symop_operation_xyz
x,y,z
-x,-y,-z
loop_
_atom_site_type_symbol
_atom_site_label
_atom_site_fract_x
_atom_site_fract_y
_atom_site_fract_z
Si Si1 0.978975 0.088736 0.374376
Si Si2 0.889898 0.375694 0.264828
Si Si3 0.468083 0.218061 0.615709
Si Si4 0.351485 0.759404 0.503883
Si Si5 0.384643 0.309186 0.155652
Si Si6 0.884979 0.101148 0.859869
Si Si7 0.721156 0.916066 0.019311
Si Si8 0.303853 0.360755 0.406052
O O1 0.869516 0.363138 0.499482
O O2 0.160761 0.015948 0.538880
O O3 0.065809 0.916284 0.212677
O O4 0.841850 0.031552 0.246009
O O5 0.663512 0.551091 0.235208
O O6 0.000000 0.500000 0.500000
O O7 0.914862 0.292072 0.109447
O O8 0.968443 0.154036 0.197431
O O9 0.667065 0.184986 0.749231
O O10 0.353236 0.252462 0.450344
O O11 0.500000 0.000000 0.500000
O O12 0.282015 0.578890 0.277819
O O13 0.435489 0.767410 0.682209
O O14 0.511162 0.665457 0.490063
O O15 0.232918 0.271604 0.030883
O O16 0.491429 0.126754 0.006173
O O17 0.759888 0.786754 0.843098
#
# Coordination Sequence:
#
# PCOD8016095 Si02
#       8
#     2   2   2   2   2   2   2   2
#     4  12  24  42  67  97 129 180 216 268 333 385
#     4  11  24  44  67  95 131 167 220 278 321 392
#     4  12  24  45  71  96 133 178 220 272 339 384
#     4  10  21  43  70  91 135 175 214 273 332 384
#     4   9  20  45  66  97 135 171 219 273 325 390
#     4  11  25  42  66  97 129 172 221 269 330 392
#     4  10  23  42  67  98 132 175 215 272 328 386
#     4  11  24  45  64  97 138 169 219 277 324 389
#
# _framework density 22.247862000000001
#
# number of rings (size 3 to 8) (size 9 to 14) (size 15 to 20)
#    0.000    1.250    5.000    0.375    1.750    1.000 
#   11.250    0.000    0.000    0.000    0.000    0.000 
#    0.000    0.000    0.000    0.000    0.000    0.000 
#
# Total GULP energy -198377.473594 kJ/mol
# GULP energy per Si atom -12398.592100 kJ/mol
# Density = 2.219723 g / cm^3
# Si number density = 22.247862 Si / 1000 Ang^3
#
#
#
# Elastic Constant Matrix: (Units=GPa)
#
#
# Indices 1 2 3 4 5 6 
#
# 1 81.0239 28.8919 18.6660 5.5585 -8.0322 -2.0668
# 2 28.8919 132.0901 24.8057 12.4749 -6.2188 0.2780
# 3 18.6660 24.8057 85.5980 11.7237 -11.5313 -4.0888
# 4 5.5585 12.4749 11.7237 26.6384 -3.1999 -2.3920
# 5 -8.0322 -6.2188 -11.5313 -3.1999 34.7602 1.3277
# 6 -2.0668 0.2780 -4.0888 -2.3920 1.3277 30.8239
#
#
#
# Elastic Compliance Matrix: (Units=1/GPa)
#
#
# Indices 1 2 3 4 5 6 
#
# 1 0.013949 -0.002540 -0.001922 -0.000577 0.002056 0.000570
# 2 -0.002540 0.008707 -0.001579 -0.002890 0.000207 -0.000691
# 3 -0.001922 -0.001579 0.013667 -0.004362 0.003359 0.001215
# 4 -0.000577 -0.002890 -0.004362 0.041356 0.001612 0.002549
# 5 0.002056 0.000207 0.003359 0.001612 0.030567 -0.000610
# 6 0.000570 -0.000691 0.001215 0.002549 -0.000610 0.032872
#
#
# Mechanical properties :
#
#
# Convention : Reuss Voigt Hill
#
# Bulk Modulus (GPa) = 41.25279 49.27100 45.26190
# Shear Modulus (GPa) = 31.00214 33.53439 32.26827
#
# Velocity S-wave (km/s) = 3.73700 3.88662 3.81254
# Velocity P-wave (km/s) = 6.09941 6.50658 6.30628
#
# Compressibility (1/GPa) = 0.02424078
#
# Stress axis : x y z
#
# Youngs Moduli (GPa) = 71.69216 114.85387 73.16787
#
# Poissons Ratio (x) = 0.29171 0.14066
# Poissons Ratio (y) = 0.18209 0.11550
# Poissons Ratio (z) = 0.13782 0.18131
#
# Static dielectric constant tensor:
#      x y z
#    x 4.034800 -0.015910 -0.127290 
#    y -0.015910 3.948200 0.176310 
#    z -0.127290 0.176310 4.082200 
# 
# 
# High freq. dielectric constant tensor:
#      x y z
#    x 1.882480 -0.008470 -0.005310 
#    y -0.008470 1.868290 0.013360 
#    z -0.005310 0.013360 1.875500 
# 
# From -- ./inp_files/533937.got.cif
#   From: 2010.06.25/outbox.cif.g09.slc.cpg/sg2_267_cif.got.tgz:533937.got - 2010.06.27 13:26:56.
