data_PCOD8016214
_publ_section_title
;
Structure prediction by ZEFSAII (Michael W. Deem and Ramdas Pophale) SiO2 
 PCOD8016214
Probable space group: P -1
;
_chemical_formula_sum "Si O2"
_cell_formula_units_Z 14
_cell_length_a 8.684095
_cell_length_b 12.706510
_cell_length_c 10.286893
_cell_angle_alpha 119.452568
_cell_angle_beta 120.834555
_cell_angle_gamma 103.556586
_cell_volume 644.524710
_symmetry_space_group_name_H-M "P -1"
_symmetry_group_IT_number 2
_symmetry_cell_setting 'triclinic'
loop_
_space_group_symop_operation_xyz
x,y,z
-x,-y,-z
loop_
_atom_site_type_symbol
_atom_site_label
_atom_site_fract_x
_atom_site_fract_y
_atom_site_fract_z
Si Si1 0.381269 0.695636 0.211988
Si Si2 0.978205 0.285778 0.052441
Si Si3 0.611357 0.572084 0.870556
Si Si4 0.698124 0.077431 0.238421
Si Si5 0.458796 0.053577 0.381585
Si Si6 0.747727 0.863321 0.252424
Si Si7 0.078394 0.397120 0.456889
O O1 0.371702 0.547361 0.119622
O O2 0.485128 0.783611 0.451617
O O3 0.553040 0.814746 0.244331
O O4 0.131055 0.649731 0.039349
O O5 0.229375 0.360310 0.147586
O O6 0.022708 0.339754 0.251472
O O7 0.810836 0.093281 0.863962
O O8 0.351250 0.498563 0.671719
O O9 0.720050 0.713979 0.105400
O O10 0.631136 0.098118 0.364342
O O11 0.935023 0.249234 0.403278
O O12 0.728708 0.946460 0.174406
O O13 0.500000 0.000000 0.000000
O O14 0.500000 0.000000 0.500000
O O15 0.000000 0.000000 0.500000
O O16 0.000000 0.500000 0.500000
#
# Coordination Sequence:
#
# PCOD8016214 Si02
#       7
#     2   2   2   2   2   2   2
#     4  11  23  45  71 106 140 183 238 297 352 414
#     4  11  23  46  69 102 143 189 238 289 354 427
#     4  12  27  44  68 109 145 181 236 298 359 420
#     4  12  23  46  75 102 137 194 241 287 352 425
#     4  10  21  43  75 105 137 184 246 290 346 422
#     4  12  25  45  71 103 143 184 241 294 351 428
#     4  12  27  47  70 102 147 189 233 296 361 423
#
# _framework density 21.721433999999999
#
# number of rings (size 3 to 8) (size 9 to 14) (size 15 to 20)
#    0.000    0.571    4.286    4.714    4.000    1.143 
#    2.571    1.429    0.000    0.000    0.000    0.000 
#    0.000    0.000    0.000    0.000    0.000    0.000 
#
# Total GULP energy -173578.770742 kJ/mol
# GULP energy per Si atom -12398.483624 kJ/mol
# Density = 2.167199 g / cm^3
# Si number density = 21.721434 Si / 1000 Ang^3
#
#
#
# Elastic Constant Matrix: (Units=GPa)
#
#
# Indices 1 2 3 4 5 6 
#
# 1 139.3328 66.5299 71.9531 7.8202 3.6767 10.4528
# 2 66.5299 95.9986 66.7952 13.2661 -4.7698 -4.9530
# 3 71.9531 66.7952 167.8269 9.9365 -5.9963 -3.9752
# 4 7.8202 13.2661 9.9365 36.1638 2.7088 -4.5452
# 5 3.6767 -4.7698 -5.9963 2.7088 49.4524 1.9379
# 6 10.4528 -4.9530 -3.9752 -4.5452 1.9379 49.9845
#
#
#
# Elastic Compliance Matrix: (Units=1/GPa)
#
#
# Indices 1 2 3 4 5 6 
#
# 1 0.012075 -0.006859 -0.002609 0.000337 -0.001764 -0.003313
# 2 -0.006859 0.018893 -0.004205 -0.004121 0.001949 0.002522
# 3 -0.002609 -0.004205 0.008816 -0.000282 0.000842 0.000772
# 4 0.000337 -0.004121 -0.000282 0.029617 -0.002168 0.002276
# 5 -0.001764 0.001949 0.000842 -0.002168 0.020776 -0.000374
# 6 -0.003313 0.002522 0.000772 0.002276 -0.000374 0.021232
#
#
# Mechanical properties :
#
#
# Convention : Reuss Voigt Hill
#
# Bulk Modulus (GPa) = 80.39853 90.41277 85.40565
# Shear Modulus (GPa) = 34.98951 40.31215 37.65083
#
# Velocity S-wave (km/s) = 4.01787 4.31265 4.16787
# Velocity P-wave (km/s) = 7.65625 8.15554 7.90983
#
# Compressibility (1/GPa) = 0.01243804
#
# Stress axis : x y z
#
# Youngs Moduli (GPa) = 82.81275 52.93102 113.43223
#
# Poissons Ratio (x) = 0.36303 0.29593
# Poissons Ratio (y) = 0.56798 0.47702
# Poissons Ratio (z) = 0.21605 0.22259
#
# Static dielectric constant tensor:
#      x y z
#    x 4.450030 0.108190 -0.218840 
#    y 0.108190 3.959310 0.250970 
#    z -0.218840 0.250970 4.376140 
# 
# 
# High freq. dielectric constant tensor:
#      x y z
#    x 1.861880 0.008510 -0.007290 
#    y 0.008510 1.859200 0.011600 
#    z -0.007290 0.011600 1.867940 
# 
# From -- ./inp_files/158650.got.cif
#   From: 2010.06.25/outbox.cif.g09.slc.cpg/sg2_80_cif.got.tgz:158650.got - 2010.06.27 13:26:56.
