data_PCOD8016344
_publ_section_title
;
Structure prediction by ZEFSAII (Michael W. Deem and Ramdas Pophale) SiO2 
 PCOD8016344
Probable space group: P -1
;
_chemical_formula_sum "Si O2"
_cell_formula_units_Z 14
_cell_length_a 11.761046
_cell_length_b 7.160805
_cell_length_c 10.754765
_cell_angle_alpha 123.696181
_cell_angle_beta 129.916855
_cell_angle_gamma 78.600866
_cell_volume 559.896654
_symmetry_space_group_name_H-M "P -1"
_symmetry_group_IT_number 2
_symmetry_cell_setting 'triclinic'
loop_
_space_group_symop_operation_xyz
x,y,z
-x,-y,-z
loop_
_atom_site_type_symbol
_atom_site_label
_atom_site_fract_x
_atom_site_fract_y
_atom_site_fract_z
Si Si1 0.633711 0.193561 0.825719
Si Si2 0.758240 0.655524 0.191651
Si Si3 0.668469 0.092056 0.206755
Si Si4 0.213453 0.400830 0.523176
Si Si5 0.322759 0.962801 0.462341
Si Si6 0.890840 0.120487 0.146105
Si Si7 0.999067 0.711015 0.165918
O O1 0.470559 0.012154 0.677676
O O2 0.647710 0.201754 0.689387
O O3 0.623776 0.443126 0.965722
O O4 0.781219 0.116574 0.950255
O O5 0.805304 0.592049 0.337272
O O6 0.900389 0.658210 0.201461
O O7 0.704614 0.894093 0.248951
O O8 0.692939 0.351215 0.377654
O O9 0.796035 0.140477 0.208740
O O10 0.500000 0.000000 0.000000
O O11 0.307346 0.209665 0.486440
O O12 0.957165 0.668739 0.680151
O O13 0.170060 0.832633 0.379896
O O14 0.939854 0.881018 0.094616
O O15 0.000000 0.500000 0.000000
#
# Coordination Sequence:
#
# PCOD8016344 Si02
#       7
#     2   2   2   2   2   2   2
#     4  11  22  45  68  96 134 182 219 280 337 400
#     4  11  24  42  75  94 139 180 220 279 337 389
#     4  11  24  40  67 105 136 172 227 273 334 400
#     4  11  24  47  66 100 138 179 223 275 334 404
#     4  10  24  41  70  95 135 180 224 270 348 392
#     4  10  24  43  66  96 137 175 226 275 331 399
#     4  10  21  44  67  99 131 176 230 273 326 405
#
# _framework density 25.004615999999999
#
# number of rings (size 3 to 8) (size 9 to 14) (size 15 to 20)
#    0.000    1.429    2.857    1.286    2.000    8.571 
#    0.000    0.714    0.000    0.000    0.000    0.000 
#    0.000    0.000    0.000    0.000    0.000    0.000 
#
# Total GULP energy -173549.132446 kJ/mol
# GULP energy per Si atom -12396.366603 kJ/mol
# Density = 2.494770 g / cm^3
# Si number density = 25.004616 Si / 1000 Ang^3
#
#
#
# Elastic Constant Matrix: (Units=GPa)
#
#
# Indices 1 2 3 4 5 6 
#
# 1 41.2141 8.4877 26.8597 -2.9185 3.7200 -11.0500
# 2 8.4877 131.9570 65.6292 11.0772 10.4779 -2.9650
# 3 26.8597 65.6292 167.5478 -10.9769 25.0253 -7.4856
# 4 -2.9185 11.0772 -10.9769 49.0209 -12.0292 0.0703
# 5 3.7200 10.4779 25.0253 -12.0292 48.8970 0.9159
# 6 -11.0500 -2.9650 -7.4856 0.0703 0.9159 30.4735
#
#
#
# Elastic Compliance Matrix: (Units=1/GPa)
#
#
# Indices 1 2 3 4 5 6 
#
# 1 0.029738 0.000483 -0.004464 0.000620 -0.000111 0.009735
# 2 0.000483 0.009910 -0.004032 -0.003340 -0.000922 0.000184
# 3 -0.004464 -0.004032 0.008825 0.001923 -0.002844 0.000238
# 4 0.000620 -0.003340 0.001923 0.022927 0.005322 0.000160
# 5 -0.000111 -0.000922 -0.002844 0.005322 0.023451 -0.001546
# 6 0.009735 0.000184 0.000238 0.000160 -0.001546 0.036468
#
#
# Mechanical properties :
#
#
# Convention : Reuss Voigt Hill
#
# Bulk Modulus (GPa) = 30.82055 60.29688 45.55872
# Shear Modulus (GPa) = 31.61322 41.66110 36.63716
#
# Velocity S-wave (km/s) = 3.55955 4.08626 3.83197
# Velocity P-wave (km/s) = 5.40801 6.81396 6.15128
#
# Compressibility (1/GPa) = 0.03244589
#
# Stress axis : x y z
#
# Youngs Moduli (GPa) = 33.62744 100.90478 113.31422
#
# Poissons Ratio (x) = -0.04874 0.50587
# Poissons Ratio (y) = -0.01624 0.45691
# Poissons Ratio (z) = 0.15012 0.40687
#
# Static dielectric constant tensor:
#      x y z
#    x 4.715330 -1.051460 0.594390 
#    y -1.051460 8.629640 -0.939740 
#    z 0.594390 -0.939740 5.150970 
# 
# 
# High freq. dielectric constant tensor:
#      x y z
#    x 1.994660 -0.017390 0.011130 
#    y -0.017390 1.990150 0.010220 
#    z 0.011130 0.010220 2.013910 
# 
# From -- ./inp_files/529176.got.cif
#   From: 2010.06.25/outbox.cif.g09.slc.cpg/sg2_265_cif.got.tgz:529176.got - 2010.06.27 13:26:56.
