data_PCOD8016752
_publ_section_title
;
Structure prediction by ZEFSAII (Michael W. Deem and Ramdas Pophale) SiO2 
 PCOD8016752
Probable space group: P -1
;
_chemical_formula_sum "Si O2"
_cell_formula_units_Z 14
_cell_length_a 10.015917
_cell_length_b 8.626325
_cell_length_c 15.459981
_cell_angle_alpha 139.301444
_cell_angle_beta 69.345300
_cell_angle_gamma 115.774765
_cell_volume 783.753211
_symmetry_space_group_name_H-M "P -1"
_symmetry_group_IT_number 2
_symmetry_cell_setting 'triclinic'
loop_
_space_group_symop_operation_xyz
x,y,z
-x,-y,-z
loop_
_atom_site_type_symbol
_atom_site_label
_atom_site_fract_x
_atom_site_fract_y
_atom_site_fract_z
Si Si1 0.321175 0.487487 0.626569
Si Si2 0.656812 0.689547 0.643604
Si Si3 0.037707 0.276651 0.005004
Si Si4 0.121259 0.811054 0.173849
Si Si5 0.903068 0.211100 0.192384
Si Si6 0.118005 0.541341 0.414589
Si Si7 0.899946 0.941846 0.413588
O O1 0.485161 0.614186 0.677916
O O2 0.323759 0.343058 0.476327
O O3 0.239995 0.698480 0.714007
O O4 0.236426 0.297733 0.639024
O O5 0.735802 0.524923 0.613652
O O6 0.723932 0.979741 0.768999
O O7 0.934258 0.244399 0.098377
O O8 0.145531 0.555562 0.096882
O O9 0.924998 0.229122 0.931473
O O10 0.134164 0.079111 0.897703
O O11 0.994528 0.892497 0.290248
O O12 0.048085 0.365985 0.276407
O O13 0.000000 0.500000 0.500000
O O14 0.163459 0.826466 0.495312
O O15 0.000000 0.000000 0.500000
#
# Coordination Sequence:
#
# PCOD8016752 Si02
#       7
#     2   2   2   2   2   2   2
#     4  11  23  38  58  88 121 147 178 241 304 335
#     4  11  23  38  58  88 121 147 178 241 304 335
#     4  10  22  32  62  84 108 148 208 226 266 322
#     4  11  19  37  57  87 110 148 193 239 267 343
#     4  11  19  37  57  87 110 148 193 239 267 343
#     4  12  19  34  63  88 109 147 194 238 283 337
#     4  12  19  34  63  88 109 147 194 238 283 337
#
# _framework density 17.862765
#
# number of rings (size 3 to 8) (size 9 to 14) (size 15 to 20)
#    0.000    0.857    8.571    0.000    0.000    0.571 
#    0.000    1.429    0.000    0.000    0.000    0.000 
#    0.000    0.000    0.000    0.000    0.000    0.000 
#
# Total GULP energy -173629.740978 kJ/mol
# GULP energy per Si atom -12402.124356 kJ/mol
# Density = 1.782211 g / cm^3
# Si number density = 17.862765 Si / 1000 Ang^3
#
#
#
# Elastic Constant Matrix: (Units=GPa)
#
#
# Indices 1 2 3 4 5 6 
#
# 1 105.6564 46.4690 20.6844 21.2157 4.2299 8.0059
# 2 46.4690 108.5080 33.6004 35.7492 1.2621 -2.0184
# 3 20.6844 33.6004 71.4093 20.5791 12.6770 2.1043
# 4 21.2157 35.7492 20.5791 45.9228 -7.6621 -1.4816
# 5 4.2299 1.2621 12.6770 -7.6621 18.3702 1.3863
# 6 8.0059 -2.0184 2.1043 -1.4816 1.3863 30.8743
#
#
#
# Elastic Compliance Matrix: (Units=1/GPa)
#
#
# Indices 1 2 3 4 5 6 
#
# 1 0.012387 -0.004330 0.000102 -0.003121 -0.003664 -0.003487
# 2 -0.004330 0.014837 -0.003115 -0.008340 -0.001500 0.001972
# 3 0.000102 -0.003115 0.022031 -0.010777 -0.019404 -0.001378
# 4 -0.003121 -0.008340 -0.010777 0.038725 0.024748 0.001746
# 5 -0.003664 -0.001500 -0.019404 0.024748 0.079109 -0.000190
# 6 -0.003487 0.001972 -0.001378 0.001746 -0.000190 0.033609
#
#
# Mechanical properties :
#
#
# Convention : Reuss Voigt Hill
#
# Bulk Modulus (GPa) = 28.92859 54.12015 41.52437
# Shear Modulus (GPa) = 22.03546 31.35477 26.69512
#
# Velocity S-wave (km/s) = 3.51607 4.19419 3.87001
# Velocity P-wave (km/s) = 5.71959 7.33611 6.57770
#
# Compressibility (1/GPa) = 0.03456787
#
# Stress axis : x y z
#
# Youngs Moduli (GPa) = 80.73110 67.39949 45.39080
#
# Poissons Ratio (x) = 0.29186 -0.00464
# Poissons Ratio (y) = 0.34959 0.14141
# Poissons Ratio (z) = -0.00826 0.20997
#
# Static dielectric constant tensor:
#      x y z
#    x 3.232010 -0.194190 0.033790 
#    y -0.194190 3.749960 0.266070 
#    z 0.033790 0.266070 3.634160 
# 
# 
# High freq. dielectric constant tensor:
#      x y z
#    x 1.662770 -0.021670 0.007640 
#    y -0.021670 1.700960 0.008170 
#    z 0.007640 0.008170 1.705180 
# 
# From -- ./inp_files/165981.got.cif
#   From: 2010.06.25/outbox.cif.g09.slc.cpg/sg2_83_cif.got.tgz:165981.got - 2010.06.27 13:26:56.
