data_PCOD8016574
_publ_section_title
;
Structure prediction by ZEFSAII (Michael W. Deem and Ramdas Pophale) SiO2 
 PCOD8016574
Probable space group: P -1
;
_chemical_formula_sum "Si O2"
_cell_formula_units_Z 16
_cell_length_a 10.825129
_cell_length_b 10.864568
_cell_length_c 16.342873
_cell_angle_alpha 38.357268
_cell_angle_beta 149.088265
_cell_angle_gamma 127.413123
_cell_volume 599.791731
_symmetry_space_group_name_H-M "P -1"
_symmetry_group_IT_number 2
_symmetry_cell_setting 'triclinic'
loop_
_space_group_symop_operation_xyz
x,y,z
-x,-y,-z
loop_
_atom_site_type_symbol
_atom_site_label
_atom_site_fract_x
_atom_site_fract_y
_atom_site_fract_z
Si Si1 0.646656 0.186904 0.402354
Si Si2 0.040361 0.553834 0.748091
Si Si3 0.497822 0.374967 0.941410
Si Si4 0.190974 0.126586 0.996881
Si Si5 0.152387 0.074885 0.201160
Si Si6 0.762840 0.846407 0.326066
Si Si7 0.271589 0.822133 0.986237
Si Si8 0.705252 0.918148 0.430207
O O1 0.720856 0.117313 0.572368
O O2 0.354373 0.194867 0.221593
O O3 0.804465 0.040033 0.497642
O O4 0.684323 0.411460 0.291293
O O5 0.949589 0.635661 0.562431
O O6 0.838061 0.677606 0.634112
O O7 0.310092 0.603513 0.888536
O O8 0.061464 0.310837 0.888531
O O9 0.646113 0.316747 0.972226
O O10 0.318333 0.226033 0.942875
O O11 0.980897 0.009703 0.907755
O O12 0.408857 0.961497 0.250752
O O13 0.957683 0.228018 0.067476
O O14 0.763819 0.995065 0.330517
O O15 0.819515 0.945116 0.220857
O O16 0.486787 0.807514 0.182487
#
# Coordination Sequence:
#
# PCOD8016574 Si02
#       8
#     2   2   2   2   2   2   2   2
#     4  11  27  44  66  95 138 180 226 272 331 402
#     4  10  23  39  67 105 135 171 214 284 340 384
#     4  12  24  39  68 106 132 167 231 281 322 398
#     4  12  23  43  70 104 132 168 229 275 333 398
#     4  11  26  47  64  92 138 190 214 269 345 396
#     4   9  21  39  66 103 131 174 213 277 342 390
#     4  11  20  41  66  96 139 176 218 269 341 395
#     4  10  21  45  67  99 139 174 217 279 337 393
#
# _framework density 26.675927000000001
#
# number of rings (size 3 to 8) (size 9 to 14) (size 15 to 20)
#    0.750    0.500    3.750    1.875    3.500    3.500 
#    0.000    0.625    0.000    0.000    0.000    0.000 
#    0.000    0.000    0.000    0.000    0.000    0.000 
#
# Total GULP energy -198244.306293 kJ/mol
# GULP energy per Si atom -12390.269143 kJ/mol
# Density = 2.661521 g / cm^3
# Si number density = 26.675927 Si / 1000 Ang^3
#
#
#
# Elastic Constant Matrix: (Units=GPa)
#
#
# Indices 1 2 3 4 5 6 
#
# 1 115.3022 13.9793 6.8942 -3.9034 21.9376 -16.8679
# 2 13.9793 80.7683 21.8617 -8.3337 12.1270 -6.5056
# 3 6.8942 21.8617 89.0769 -7.8689 -10.0496 -14.1628
# 4 -3.9034 -8.3337 -7.8689 40.7952 -20.0625 4.6438
# 5 21.9376 12.1270 -10.0496 -20.0625 48.4511 4.2996
# 6 -16.8679 -6.5056 -14.1628 4.6438 4.2996 39.7422
#
#
#
# Elastic Compliance Matrix: (Units=1/GPa)
#
#
# Indices 1 2 3 4 5 6 
#
# 1 0.010717 -0.000511 -0.000902 -0.003129 -0.006672 0.005231
# 2 -0.000511 0.014210 -0.003738 -0.000101 -0.004254 0.001249
# 3 -0.000902 -0.003738 0.013674 0.004280 0.005708 0.002761
# 4 -0.003129 -0.000101 0.004280 0.033965 0.016893 -0.005616
# 5 -0.006672 -0.004254 0.005708 0.016893 0.033533 -0.007096
# 6 0.005231 0.001249 0.002761 -0.005616 -0.007096 0.029995
#
#
# Mechanical properties :
#
#
# Convention : Reuss Voigt Hill
#
# Bulk Modulus (GPa) = 35.33417 41.17975 38.25696
# Shear Modulus (GPa) = 32.08628 41.95852 37.02240
#
# Velocity S-wave (km/s) = 3.47193 3.97028 3.72944
# Velocity P-wave (km/s) = 5.41727 6.04054 5.73737
#
# Compressibility (1/GPa) = 0.02830122
#
# Stress axis : x y z
#
# Youngs Moduli (GPa) = 93.30561 70.37227 73.12882
#
# Poissons Ratio (x) = 0.03594 0.06593
# Poissons Ratio (y) = 0.04765 0.27337
# Poissons Ratio (z) = 0.08412 0.26307
#
# Static dielectric constant tensor:
#      x y z
#    x 4.834580 -0.225880 0.198200 
#    y -0.225880 4.432330 0.109190 
#    z 0.198200 0.109190 5.295810 
# 
# 
# High freq. dielectric constant tensor:
#      x y z
#    x 2.083890 -0.012860 0.012960 
#    y -0.012860 2.031250 0.016980 
#    z 0.012960 0.016980 2.102140 
# 
# From -- ./inp_files/568626.got.cif
#   From: 2010.06.25/outbox.cif.g09.slc.cpg/sg2_285_cif.got.tgz:568626.got - 2010.06.27 13:26:56.
