data_PCOD8016860
_publ_section_title
;
Structure prediction by ZEFSAII (Michael W. Deem and Ramdas Pophale) SiO2 
 PCOD8016860
Probable space group: P -1
;
_chemical_formula_sum "Si O2"
_cell_formula_units_Z 12
_cell_length_a 18.767225
_cell_length_b 10.503738
_cell_length_c 7.835872
_cell_angle_alpha 48.060025
_cell_angle_beta 37.430236
_cell_angle_gamma 34.756520
_cell_volume 534.653074
_symmetry_space_group_name_H-M "P -1"
_symmetry_group_IT_number 2
_symmetry_cell_setting 'triclinic'
loop_
_space_group_symop_operation_xyz
x,y,z
-x,-y,-z
loop_
_atom_site_type_symbol
_atom_site_label
_atom_site_fract_x
_atom_site_fract_y
_atom_site_fract_z
Si Si1 0.416467 0.627503 0.721344
Si Si2 0.124692 0.068747 0.356499
Si Si3 0.071069 0.484487 0.199831
Si Si4 0.573598 0.791510 0.241321
Si Si5 0.454657 0.820393 0.072153
Si Si6 0.092167 0.026613 0.068365
O O1 0.500000 0.500000 0.500000
O O2 0.514970 0.690852 0.564226
O O3 0.429866 0.439166 0.976733
O O4 0.241048 0.845270 0.834128
O O5 0.056801 0.326018 0.254587
O O6 0.147733 0.988542 0.191012
O O7 0.283330 0.912569 0.294770
O O8 0.019102 0.031288 0.690644
O O9 0.000000 0.500000 0.500000
O O10 0.245770 0.381739 0.982015
O O11 0.979948 0.726831 0.073533
O O12 0.476743 0.850537 0.200509
O O13 0.523634 0.021158 0.214442
#
# Coordination Sequence:
#
# PCOD8016860 Si02
#       6
#     2   2   2   2   2   2
#     4  10  22  36  62  92 128 165 209 266 312 376
#     4  10  24  45  66  94 132 173 212 262 321 390
#     4  11  25  40  71  97 124 171 217 272 320 372
#     4   9  20  38  59  91 126 158 212 268 307 373
#     4   9  19  38  61  86 127 163 208 255 314 374
#     4  11  25  43  65  96 135 170 212 262 324 386
#
# _framework density 22.444462999999999
#
# number of rings (size 3 to 8) (size 9 to 14) (size 15 to 20)
#    0.000    2.000    0.000    1.500   16.333    1.333 
#    0.000    3.333    0.000    0.000    0.000    0.000 
#    0.000    0.000    0.000    0.000    0.000    0.000 
#
# Total GULP energy -148664.470181 kJ/mol
# GULP energy per Si atom -12388.705848 kJ/mol
# Density = 2.239338 g / cm^3
# Si number density = 22.444463 Si / 1000 Ang^3
#
#
#
# Elastic Constant Matrix: (Units=GPa)
#
#
# Indices 1 2 3 4 5 6 
#
# 1 66.9806 40.7882 38.8107 4.8908 -28.6878 2.4312
# 2 40.7882 185.4059 57.2745 -28.0583 -32.6188 0.5613
# 3 38.8107 57.2745 98.6993 -18.5575 -36.3502 -0.5297
# 4 4.8908 -28.0583 -18.5575 39.1904 8.6213 -13.5745
# 5 -28.6878 -32.6188 -36.3502 8.6213 40.4431 -6.6682
# 6 2.4312 0.5613 -0.5297 -13.5745 -6.6682 25.4560
#
#
#
# Elastic Compliance Matrix: (Units=1/GPa)
#
#
# Indices 1 2 3 4 5 6 
#
# 1 0.028173 -0.004127 -0.007040 -0.015143 0.012303 -0.007598
# 2 -0.004127 0.007957 -0.001011 0.006824 0.001839 0.004318
# 3 -0.007040 -0.001011 0.019580 0.010259 0.011168 0.009498
# 4 -0.015143 0.006824 0.010259 0.046471 -0.001659 0.025855
# 5 0.012303 0.001839 0.011168 -0.001659 0.047052 0.010457
# 6 -0.007598 0.004318 0.009498 0.025855 0.010457 0.056638
#
#
# Mechanical properties :
#
#
# Convention : Reuss Voigt Hill
#
# Bulk Modulus (GPa) = 31.89450 69.42584 50.66017
# Shear Modulus (GPa) = 20.77458 35.29872 28.03665
#
# Velocity S-wave (km/s) = 3.04567 3.97005 3.53818
# Velocity P-wave (km/s) = 5.15843 7.21211 6.26992
#
# Compressibility (1/GPa) = 0.03135337
#
# Stress axis : x y z
#
# Youngs Moduli (GPa) = 35.49478 125.67513 51.07279
#
# Poissons Ratio (x) = 0.51869 0.35956
# Poissons Ratio (y) = 0.14650 0.05164
# Poissons Ratio (z) = 0.24989 0.12707
#
# Static dielectric constant tensor:
#      x y z
#    x 3.947690 0.476840 -0.730370 
#    y 0.476840 5.448480 -1.351180 
#    z -0.730370 -1.351180 5.017560 
# 
# 
# High freq. dielectric constant tensor:
#      x y z
#    x 1.865470 0.006540 -0.038100 
#    y 0.006540 1.906390 -0.025320 
#    z -0.038100 -0.025320 1.882980 
# 
# From -- ./inp_files/240797.got.cif
#   From: 2010.06.25/outbox.cif.g09.slc.cpg/sg2_121_cif.got.tgz:240797.got - 2010.06.27 13:26:56.
