data_PCOD8016655
_publ_section_title
;
Structure prediction by ZEFSAII (Michael W. Deem and Ramdas Pophale) SiO2 
 PCOD8016655
Probable space group: P -1
;
_chemical_formula_sum "Si O2"
_cell_formula_units_Z 16
_cell_length_a 16.529306
_cell_length_b 6.908661
_cell_length_c 13.658583
_cell_angle_alpha 117.464111
_cell_angle_beta 149.345333
_cell_angle_gamma 64.136307
_cell_volume 702.937789
_symmetry_space_group_name_H-M "P -1"
_symmetry_group_IT_number 2
_symmetry_cell_setting 'triclinic'
loop_
_space_group_symop_operation_xyz
x,y,z
-x,-y,-z
loop_
_atom_site_type_symbol
_atom_site_label
_atom_site_fract_x
_atom_site_fract_y
_atom_site_fract_z
Si Si1 0.416582 0.865464 0.745770
Si Si2 0.073020 0.253362 0.025741
Si Si3 0.436313 0.666494 0.386935
Si Si4 0.897305 0.028621 0.301025
Si Si5 0.871087 0.972997 0.624776
Si Si6 0.707161 0.853518 0.599288
Si Si7 0.723563 0.705700 0.929669
Si Si8 0.436327 0.724178 0.938381
O O1 0.242225 0.856218 0.516988
O O2 0.546353 0.816918 0.785772
O O3 0.434674 0.690210 0.811660
O O4 0.433529 0.106837 0.862963
O O5 0.940851 0.099904 0.817541
O O6 0.132177 0.190276 0.180402
O O7 0.225416 0.211717 0.103704
O O8 0.000000 0.500000 0.000000
O O9 0.500000 0.500000 0.500000
O O10 0.577426 0.691563 0.460791
O O11 0.292800 0.557016 0.153084
O O12 0.367737 0.896477 0.412400
O O13 0.740975 0.193682 0.190450
O O14 0.000000 0.000000 0.500000
O O15 0.997194 0.130243 0.339610
O O16 0.844809 0.787212 0.157465
O O17 0.762955 0.806132 0.532126
O O18 0.500000 0.500000 0.000000
#
# Coordination Sequence:
#
# PCOD8016655 Si02
#       8
#     2   2   2   2   2   2   2   2
#     4  10  22  41  68  97 135 170 228 285 338 405
#     4  11  24  44  65  97 145 185 224 280 350 409
#     4  11  22  43  70  99 140 177 237 286 341 408
#     4  10  21  45  74  98 140 183 226 289 358 414
#     4  11  23  41  70 100 137 180 230 283 345 415
#     4  11  25  41  69 102 139 185 230 288 340 415
#     4  10  22  40  71  99 130 189 227 280 347 407
#     4  10  22  45  69  95 131 179 226 284 344 405
#
# _framework density 22.761616
#
# number of rings (size 3 to 8) (size 9 to 14) (size 15 to 20)
#    0.000    1.500    2.500    1.875    3.500    1.000 
#    6.750    1.875    0.000    0.000    0.000    0.000 
#    0.000    0.000    0.000    0.000    0.000    0.000 
#
# Total GULP energy -198299.795420 kJ/mol
# GULP energy per Si atom -12393.737214 kJ/mol
# Density = 2.270981 g / cm^3
# Si number density = 22.761616 Si / 1000 Ang^3
#
#
#
# Elastic Constant Matrix: (Units=GPa)
#
#
# Indices 1 2 3 4 5 6 
#
# 1 159.4577 40.7560 43.1489 -8.0963 11.1821 18.7038
# 2 40.7560 100.4554 35.2602 -16.1850 -3.9841 22.2250
# 3 43.1489 35.2602 111.8690 -9.2179 -0.7476 14.6901
# 4 -8.0963 -16.1850 -9.2179 39.3251 2.3273 2.4488
# 5 11.1821 -3.9841 -0.7476 2.3273 36.9871 -2.2044
# 6 18.7038 22.2250 14.6901 2.4488 -2.2044 31.3728
#
#
#
# Elastic Compliance Matrix: (Units=1/GPa)
#
#
# Indices 1 2 3 4 5 6 
#
# 1 0.007849 -0.001881 -0.002050 0.000692 -0.002818 -0.002639
# 2 -0.001881 0.014245 -0.002227 0.005396 0.001226 -0.008262
# 3 -0.002050 -0.002227 0.010854 0.001330 0.000375 -0.002360
# 4 0.000692 0.005396 0.001330 0.028663 -0.001835 -0.007224
# 5 -0.002818 0.001226 0.000375 -0.001835 0.028308 0.002768
# 6 -0.002639 -0.008262 -0.002360 -0.007224 0.002768 0.041165
#
#
# Mechanical properties :
#
#
# Convention : Reuss Voigt Hill
#
# Bulk Modulus (GPa) = 48.46701 67.79027 58.12864
# Shear Modulus (GPa) = 33.27196 38.37816 35.82506
#
# Velocity S-wave (km/s) = 3.82744 4.11066 3.97158
# Velocity P-wave (km/s) = 6.39312 7.23722 6.82823
#
# Compressibility (1/GPa) = 0.02063259
#
# Stress axis : x y z
#
# Youngs Moduli (GPa) = 127.40385 70.19776 92.13616
#
# Poissons Ratio (x) = 0.13207 0.18885
# Poissons Ratio (y) = 0.23970 0.20515
# Poissons Ratio (z) = 0.26114 0.15630
#
# Static dielectric constant tensor:
#      x y z
#    x 4.598800 0.087690 0.104010 
#    y 0.087690 3.795740 0.262930 
#    z 0.104010 0.262930 4.458310 
# 
# 
# High freq. dielectric constant tensor:
#      x y z
#    x 1.921010 0.007720 0.008720 
#    y 0.007720 1.860530 0.005650 
#    z 0.008720 0.005650 1.910700 
# 
# From -- ./inp_files/536424.got.cif
#   From: 2010.06.25/outbox.cif.g09.slc.cpg/sg2_269_cif.got.tgz:536424.got - 2010.06.27 13:26:56.
