data_PCOD8016433
_publ_section_title
;
Structure prediction by ZEFSAII (Michael W. Deem and Ramdas Pophale) SiO2 
 PCOD8016433
Probable space group: P -1
;
_chemical_formula_sum "Si O2"
_cell_formula_units_Z 14
_cell_length_a 22.360840
_cell_length_b 16.763996
_cell_length_c 13.821424
_cell_angle_alpha 25.183677
_cell_angle_beta 28.304460
_cell_angle_gamma 17.273404
_cell_volume 649.156277
_symmetry_space_group_name_H-M "P -1"
_symmetry_group_IT_number 2
_symmetry_cell_setting 'triclinic'
loop_
_space_group_symop_operation_xyz
x,y,z
-x,-y,-z
loop_
_atom_site_type_symbol
_atom_site_label
_atom_site_fract_x
_atom_site_fract_y
_atom_site_fract_z
Si Si1 0.634652 0.282747 0.344864
Si Si2 0.985112 0.883932 0.739118
Si Si3 0.624436 0.764689 0.164487
Si Si4 0.388482 0.915912 0.010318
Si Si5 0.671451 0.237755 0.119296
Si Si6 0.066639 0.830317 0.304553
Si Si7 0.532568 0.885851 0.473963
O O1 0.492463 0.266505 0.578956
O O2 0.536842 0.580090 0.210224
O O3 0.638777 0.341085 0.162534
O O4 0.856274 0.979089 0.406608
O O5 0.184082 0.527994 0.846869
O O6 0.797035 0.964900 0.910507
O O7 0.967348 0.027986 0.701706
O O8 0.000000 0.000000 0.500000
O O9 0.500000 0.000000 0.000000
O O10 0.687521 0.856255 0.047660
O O11 0.501644 0.906869 0.779010
O O12 0.657684 0.029373 0.369707
O O13 0.500000 0.500000 0.000000
O O14 0.880269 0.078613 0.954448
O O15 0.243920 0.470113 0.461974
O O16 0.500000 0.000000 0.500000
#
# Coordination Sequence:
#
# PCOD8016433 Si02
#       7
#     2   2   2   2   2   2   2
#     4  12  25  47  70 104 145 180 225 289 355 409
#     4  12  25  45  71 100 138 190 239 278 339 413
#     4  12  28  45  69 104 142 186 232 286 344 407
#     4  12  24  45  71  99 138 184 239 283 336 408
#     4  10  21  44  70  98 136 176 229 280 343 412
#     4  11  25  43  71 101 144 183 222 292 355 401
#     4  11  22  42  70 104 133 179 236 283 337 419
#
# _framework density 21.566455000000001
#
# number of rings (size 3 to 8) (size 9 to 14) (size 15 to 20)
#    0.000    0.571    2.857    6.857    4.000    1.143 
#    2.571    1.429    0.000    0.000    0.000    0.000 
#    0.000    0.000    0.000    0.000    0.000    0.000 
#
# Total GULP energy -173570.609909 kJ/mol
# GULP energy per Si atom -12397.900708 kJ/mol
# Density = 2.151737 g / cm^3
# Si number density = 21.566455 Si / 1000 Ang^3
#
#
#
# Elastic Constant Matrix: (Units=GPa)
#
#
# Indices 1 2 3 4 5 6 
#
# 1 102.0961 20.7119 4.6138 -5.2804 -0.8009 21.3492
# 2 20.7119 83.2019 -7.5779 -15.6930 2.7002 16.8221
# 3 4.6138 -7.5779 88.3104 -4.8693 2.4820 7.0221
# 4 -5.2804 -15.6930 -4.8693 35.9021 0.6054 -0.8123
# 5 -0.8009 2.7002 2.4820 0.6054 41.5258 5.1237
# 6 21.3492 16.8221 7.0221 -0.8123 5.1237 46.6665
#
#
#
# Elastic Compliance Matrix: (Units=1/GPa)
#
#
# Indices 1 2 3 4 5 6 
#
# 1 0.011158 -0.001804 -0.000368 0.000686 0.000898 -0.004485
# 2 -0.001804 0.014831 0.002109 0.006409 -0.000644 -0.004656
# 3 -0.000368 0.002109 0.011855 0.002434 -0.000609 -0.002266
# 4 0.000686 0.006409 0.002434 0.031044 -0.000709 -0.002372
# 5 0.000898 -0.000644 -0.000609 -0.000709 0.024532 -0.002793
# 6 -0.004485 -0.004656 -0.002266 -0.002372 -0.002793 0.025765
#
#
# Mechanical properties :
#
#
# Convention : Reuss Voigt Hill
#
# Bulk Modulus (GPa) = 26.51355 34.34488 30.42922
# Shear Modulus (GPa) = 37.91157 41.87626 39.89391
#
# Velocity S-wave (km/s) = 4.19727 4.41129 4.30561
# Velocity P-wave (km/s) = 5.98415 6.47346 6.23361
#
# Compressibility (1/GPa) = 0.03771656
#
# Stress axis : x y z
#
# Youngs Moduli (GPa) = 89.62356 67.42558 84.34957
#
# Poissons Ratio (x) = 0.12164 0.03108
# Poissons Ratio (y) = 0.16168 -0.17786
# Poissons Ratio (z) = 0.03303 -0.14217
#
# Static dielectric constant tensor:
#      x y z
#    x 3.976640 0.012800 -0.215170 
#    y 0.012800 3.776530 0.006450 
#    z -0.215170 0.006450 4.329710 
# 
# 
# High freq. dielectric constant tensor:
#      x y z
#    x 1.856950 0.010540 -0.003110 
#    y 0.010540 1.841910 0.005130 
#    z -0.003110 0.005130 1.864050 
# 
# From -- ./inp_files/131664.got.cif
#   From: 2010.06.25/outbox.cif.g09.slc.cpg/sg2_66_cif.got.tgz:131664.got - 2010.06.27 13:26:56.
