data_PCOD8016795
_publ_section_title
;
Structure prediction by ZEFSAII (Michael W. Deem and Ramdas Pophale) SiO2 
 PCOD8016795
Probable space group: P -1
;
_chemical_formula_sum "Si O2"
_cell_formula_units_Z 12
_cell_length_a 9.285267
_cell_length_b 19.316882
_cell_length_c 9.151611
_cell_angle_alpha 137.388333
_cell_angle_beta 30.818796
_cell_angle_gamma 140.661506
_cell_volume 519.908296
_symmetry_space_group_name_H-M "P -1"
_symmetry_group_IT_number 2
_symmetry_cell_setting 'triclinic'
loop_
_space_group_symop_operation_xyz
x,y,z
-x,-y,-z
loop_
_atom_site_type_symbol
_atom_site_label
_atom_site_fract_x
_atom_site_fract_y
_atom_site_fract_z
Si Si1 0.673130 0.421052 0.219280
Si Si2 0.709854 0.767892 0.265722
Si Si3 0.223224 0.727100 0.869293
Si Si4 0.079508 0.963955 0.064363
Si Si5 0.256416 0.889514 0.352908
Si Si6 0.540817 0.775336 0.115346
O O1 0.500000 0.500000 0.500000
O O2 0.725274 0.374828 0.258403
O O3 0.464571 0.319154 0.138866
O O4 0.000000 0.500000 0.000000
O O5 0.499781 0.780972 0.597613
O O6 0.988403 0.888795 0.174632
O O7 0.492157 0.724602 0.243501
O O8 0.884886 0.686426 0.023993
O O9 0.212440 0.817941 0.134373
O O10 0.568679 0.002957 0.237712
O O11 0.027341 0.076699 0.319634
O O12 0.861877 0.888636 0.004714
O O13 0.274786 0.815224 0.360113
#
# Coordination Sequence:
#
# PCOD8016795 Si02
#       6
#     2   2   2   2   2   2
#     4  11  25  46  70  88 111 156 206 253 308 364
#     4  10  23  38  60  88 134 157 191 248 302 345
#     4  11  23  41  60  92 126 154 200 251 296 353
#     4  10  22  35  63  87 127 163 208 229 295 348
#     4  11  21  37  61  89 123 172 204 236 278 355
#     4   9  24  41  62  89 126 155 206 251 293 352
#
# _framework density 23.080994
#
# number of rings (size 3 to 8) (size 9 to 14) (size 15 to 20)
#    1.000    0.667    0.000    4.000    0.000   12.000 
#    0.000    5.000    0.000    0.000    0.000    0.000 
#    0.000    0.000    0.000    0.000    0.000    0.000 
#
# Total GULP energy -148714.559202 kJ/mol
# GULP energy per Si atom -12392.879933 kJ/mol
# Density = 2.302846 g / cm^3
# Si number density = 23.080994 Si / 1000 Ang^3
#
#
#
# Elastic Constant Matrix: (Units=GPa)
#
#
# Indices 1 2 3 4 5 6 
#
# 1 149.2492 24.4528 43.7804 4.9938 -0.8630 -31.2788
# 2 24.4528 61.6369 25.2910 10.7383 0.8943 -5.0265
# 3 43.7804 25.2910 104.5066 5.4419 -14.8642 -13.1401
# 4 4.9938 10.7383 5.4419 37.9400 -4.0798 -5.6424
# 5 -0.8630 0.8943 -14.8642 -4.0798 24.6030 -0.5186
# 6 -31.2788 -5.0265 -13.1401 -5.6424 -0.5186 27.4425
#
#
#
# Elastic Compliance Matrix: (Units=1/GPa)
#
#
# Indices 1 2 3 4 5 6 
#
# 1 0.009810 -0.002251 -0.002489 0.001084 -0.000692 0.009787
# 2 -0.002251 0.019790 -0.004485 -0.005484 -0.004466 -0.002301
# 3 -0.002489 -0.004485 0.013203 0.001046 0.008290 0.003035
# 4 0.001084 -0.005484 0.001046 0.029268 0.005867 0.006861
# 5 -0.000692 -0.004466 0.008290 0.005867 0.046859 0.004455
# 6 0.009787 -0.002301 0.003035 0.006861 0.004455 0.050122
#
#
# Mechanical properties :
#
#
# Convention : Reuss Voigt Hill
#
# Bulk Modulus (GPa) = 41.06366 55.82680 48.44523
# Shear Modulus (GPa) = 25.55970 32.78834 29.17402
#
# Velocity S-wave (km/s) = 3.33136 3.77314 3.55911
# Velocity P-wave (km/s) = 5.71201 6.57434 6.15829
#
# Compressibility (1/GPa) = 0.02435243
#
# Stress axis : x y z
#
# Youngs Moduli (GPa) = 101.93645 50.53035 75.73913
#
# Poissons Ratio (x) = 0.11375 0.18853
# Poissons Ratio (y) = 0.22948 0.33970
# Poissons Ratio (z) = 0.25374 0.22663
#
# Static dielectric constant tensor:
#      x y z
#    x 4.657470 -0.019730 -0.007260 
#    y -0.019730 4.246610 0.210370 
#    z -0.007260 0.210370 3.929180 
# 
# 
# High freq. dielectric constant tensor:
#      x y z
#    x 1.932780 -0.016790 -0.007160 
#    y -0.016790 1.876650 -0.006380 
#    z -0.007160 -0.006380 1.912760 
# 
# From -- ./inp_files/60300.got.cif
#   From: 2010.06.25/outbox.cif.g09.slc.cpg/sg2_31_cif.got.tgz:60300.got - 2010.06.27 13:26:56.
