data_PCOD8016273
_publ_section_title
;
Structure prediction by ZEFSAII (Michael W. Deem and Ramdas Pophale) SiO2 
 PCOD8016273
Probable space group: P -1
;
_chemical_formula_sum "Si O2"
_cell_formula_units_Z 14
_cell_length_a 7.481121
_cell_length_b 11.238736
_cell_length_c 22.106742
_cell_angle_alpha 24.832335
_cell_angle_beta 57.687988
_cell_angle_gamma 57.983250
_cell_volume 654.374959
_symmetry_space_group_name_H-M "P -1"
_symmetry_group_IT_number 2
_symmetry_cell_setting 'triclinic'
loop_
_space_group_symop_operation_xyz
x,y,z
-x,-y,-z
loop_
_atom_site_type_symbol
_atom_site_label
_atom_site_fract_x
_atom_site_fract_y
_atom_site_fract_z
Si Si1 0.711081 0.826495 0.150838
Si Si2 0.646013 0.214786 0.668851
Si Si3 0.891670 0.359252 0.255704
Si Si4 0.948177 0.218429 0.173694
Si Si5 0.416535 0.137828 0.626320
Si Si6 0.659289 0.945795 0.550968
Si Si7 0.175317 0.619407 0.164207
O O1 0.545746 0.765754 0.258686
O O2 0.703987 0.609646 0.195418
O O3 0.951474 0.778042 0.158797
O O4 0.663532 0.152692 0.985417
O O5 0.574609 0.079603 0.681673
O O6 0.701595 0.536383 0.500194
O O7 0.846405 0.016274 0.751451
O O8 0.863850 0.305745 0.215230
O O9 0.122482 0.452573 0.188557
O O10 0.870051 0.081338 0.429476
O O11 0.760615 0.079924 0.237649
O O12 0.000000 0.500000 0.000000
O O13 0.558802 0.092825 0.561606
O O14 0.713982 0.605594 0.704290
O O15 0.500000 0.000000 0.500000
#
# Coordination Sequence:
#
# PCOD8016273 Si02
#       7
#     2   2   2   2   2   2   2
#     4   9  21  42  70  97 126 176 228 268 335 394
#     4  11  25  47  70  96 139 183 223 275 339 406
#     4  10  21  44  65  96 129 169 229 266 331 395
#     4  12  28  44  67 106 140 174 222 281 344 400
#     4  11  25  46  68 100 135 183 226 274 338 398
#     4  12  22  40  66  99 130 170 224 274 329 394
#     4   9  21  39  69  96 128 172 224 276 328 390
#
# _framework density 21.394461
#
# number of rings (size 3 to 8) (size 9 to 14) (size 15 to 20)
#    0.857    0.571    2.857    1.714    4.000    2.857 
#    5.143    1.429    0.000    0.000    0.000    0.000 
#    0.000    0.000    0.000    0.000    0.000    0.000 
#
# Total GULP energy -173540.785010 kJ/mol
# GULP energy per Si atom -12395.770358 kJ/mol
# Density = 2.134577 g / cm^3
# Si number density = 21.394461 Si / 1000 Ang^3
#
#
#
# Elastic Constant Matrix: (Units=GPa)
#
#
# Indices 1 2 3 4 5 6 
#
# 1 53.6244 22.0107 35.5424 4.5543 2.7995 8.5672
# 2 22.0107 107.2280 30.3790 9.5544 0.2796 8.3084
# 3 35.5424 30.3790 167.0240 -3.0103 0.7453 8.0982
# 4 4.5543 9.5544 -3.0103 23.3710 -7.2521 -1.3130
# 5 2.7995 0.2796 0.7453 -7.2521 36.2189 -3.7211
# 6 8.5672 8.3084 8.0982 -1.3130 -3.7211 20.7394
#
#
#
# Elastic Compliance Matrix: (Units=1/GPa)
#
#
# Indices 1 2 3 4 5 6 
#
# 1 0.024757 -0.002609 -0.004472 -0.006016 -0.003880 -0.008512
# 2 -0.002609 0.010915 -0.001351 -0.004660 -0.001123 -0.003264
# 3 -0.004472 -0.001351 0.007235 0.002566 0.000706 -0.000147
# 4 -0.006016 -0.004660 0.002566 0.050209 0.011382 0.008571
# 5 -0.003880 -0.001123 0.000706 0.011382 0.031011 0.008062
# 6 -0.008512 -0.003264 -0.000147 0.008571 0.008062 0.055088
#
#
# Mechanical properties :
#
#
# Convention : Reuss Voigt Hill
#
# Bulk Modulus (GPa) = 38.39826 55.97119 47.18473
# Shear Modulus (GPa) = 24.41880 32.06214 28.24047
#
# Velocity S-wave (km/s) = 3.38207 3.87540 3.63711
# Velocity P-wave (km/s) = 5.76523 6.80024 6.30401
#
# Compressibility (1/GPa) = 0.02604285
#
# Stress axis : x y z
#
# Youngs Moduli (GPa) = 40.39311 91.61505 138.22203
#
# Poissons Ratio (x) = 0.23903 0.61813
# Poissons Ratio (y) = 0.10539 0.18671
# Poissons Ratio (z) = 0.18064 0.12375
#
# Static dielectric constant tensor:
#      x y z
#    x 3.630730 0.089650 -0.006920 
#    y 0.089650 3.683550 -0.334840 
#    z -0.006920 -0.334840 3.634630 
# 
# 
# High freq. dielectric constant tensor:
#      x y z
#    x 1.825200 0.001720 -0.008080 
#    y 0.001720 1.830310 -0.007550 
#    z -0.008080 -0.007550 1.856820 
# 
# From -- ./inp_files/607724.got.cif
#   From: 2010.06.25/outbox.cif.g09.slc.cpg/sg2_304_cif.got.tgz:607724.got - 2010.06.27 13:26:56.
