data_PCOD8016894
_publ_section_title
;
Structure prediction by ZEFSAII (Michael W. Deem and Ramdas Pophale) SiO2 
 PCOD8016894
Probable space group: P -1
;
_chemical_formula_sum "Si O2"
_cell_formula_units_Z 14
_cell_length_a 11.371509
_cell_length_b 14.695429
_cell_length_c 9.795616
_cell_angle_alpha 62.090821
_cell_angle_beta 95.681799
_cell_angle_gamma 145.293604
_cell_volume 677.863776
_symmetry_space_group_name_H-M "P -1"
_symmetry_group_IT_number 2
_symmetry_cell_setting 'triclinic'
loop_
_space_group_symop_operation_xyz
x,y,z
-x,-y,-z
loop_
_atom_site_type_symbol
_atom_site_label
_atom_site_fract_x
_atom_site_fract_y
_atom_site_fract_z
Si Si1 0.492874 0.874087 0.568254
Si Si2 0.679789 0.396927 0.833559
Si Si3 0.958720 0.422724 0.898535
Si Si4 0.927703 0.202795 0.196224
Si Si5 0.708091 0.613608 0.540370
Si Si6 0.722754 0.903304 0.786292
Si Si7 0.801684 0.779737 0.711400
O O1 0.610201 0.913970 0.688224
O O2 0.207900 0.618331 0.697441
O O3 0.500000 0.000000 0.500000
O O4 0.653081 0.964722 0.391245
O O5 0.742437 0.323574 0.866265
O O6 0.685425 0.470901 0.644371
O O7 0.907826 0.611631 0.802834
O O8 0.403840 0.195486 0.010371
O O9 0.890817 0.248591 0.027951
O O10 0.000000 0.500000 0.000000
O O11 0.064592 0.199255 0.184954
O O12 0.500000 0.500000 0.500000
O O13 0.649832 0.605647 0.695461
O O14 0.976597 0.855815 0.341669
O O15 0.638886 0.732002 0.820180
O O16 0.000000 0.000000 0.500000
#
# Coordination Sequence:
#
# PCOD8016894 Si02
#       7
#     2   2   2   2   2   2   2
#     4  12  16  26  47  72 106 129 156 202 260 297
#     4  10  18  31  48  74 104 128 165 208 251 295
#     4  10  17  26  43  74 104 125 159 207 258 298
#     4  10  17  27  43  70 105 128 155 201 255 302
#     4  10  21  35  50  71 102 139 172 201 241 299
#     4  11  19  32  52  76 104 130 161 210 259 290
#     4   9  18  33  50  74 106 130 163 208 254 298
#
# _framework density 20.653117000000002
#
# number of rings (size 3 to 8) (size 9 to 14) (size 15 to 20)
#    0.000    1.714   10.000    0.000    0.000    2.857 
#    0.000    0.000    0.000    0.000    0.000    8.000 
#    0.000    1.143    0.000    0.000    0.000    0.000 
#
# Total GULP energy -173456.897925 kJ/mol
# GULP energy per Si atom -12389.778423 kJ/mol
# Density = 2.060611 g / cm^3
# Si number density = 20.653117 Si / 1000 Ang^3
#
#
#
# Elastic Constant Matrix: (Units=GPa)
#
#
# Indices 1 2 3 4 5 6 
#
# 1 119.9834 41.7141 41.3570 8.9976 27.7129 36.7749
# 2 41.7141 51.6386 29.8689 0.7581 -0.2871 28.4029
# 3 41.3570 29.8689 125.7450 -12.1496 2.6854 21.6958
# 4 8.9976 0.7581 -12.1496 16.7765 18.4927 2.8960
# 5 27.7129 -0.2871 2.6854 18.4927 46.1490 4.5893
# 6 36.7749 28.4029 21.6958 2.8960 4.5893 26.8312
#
#
#
# Elastic Compliance Matrix: (Units=1/GPa)
#
#
# Indices 1 2 3 4 5 6 
#
# 1 0.017670 -0.003973 -0.001103 0.004797 -0.010723 -0.017805
# 2 -0.003973 0.049646 -0.003333 -0.005096 0.009454 -0.045480
# 3 -0.001103 -0.003333 0.011839 0.017378 -0.006484 -0.005299
# 4 0.004797 -0.005096 0.017378 0.135144 -0.056067 -0.020229
# 5 -0.010723 0.009454 -0.006484 -0.056067 0.050277 0.007385
# 6 -0.017805 -0.045480 -0.005299 -0.020229 0.007385 0.115023
#
#
# Mechanical properties :
#
#
# Convention : Reuss Voigt Hill
#
# Bulk Modulus (GPa) = 16.04206 58.13854 37.09030
# Shear Modulus (GPa) = 11.98475 30.24648 21.11561
#
# Velocity S-wave (km/s) = 2.41153 3.83103 3.20096
# Velocity P-wave (km/s) = 3.94185 6.91232 5.62665
#
# Compressibility (1/GPa) = 0.06233615
#
# Stress axis : x y z
#
# Youngs Moduli (GPa) = 56.59228 20.14279 84.46581
#
# Poissons Ratio (x) = 0.08002 0.09320
# Poissons Ratio (y) = 0.22483 0.28154
# Poissons Ratio (z) = 0.06245 0.06714
#
# Static dielectric constant tensor:
#      x y z
#    x 4.706670 0.306980 0.336000 
#    y 0.306980 3.140960 -0.050110 
#    z 0.336000 -0.050110 4.350320 
# 
# 
# High freq. dielectric constant tensor:
#      x y z
#    x 1.822260 0.044520 0.023250 
#    y 0.044520 1.719830 -0.014560 
#    z 0.023250 -0.014560 1.825300 
# 
# From -- ./inp_files/307282.got.cif
#   From: 2010.06.25/outbox.cif.g09.slc.cpg/sg2_154_cif.got.tgz:307282.got - 2010.06.27 13:26:56.
