data_PCOD8016723
_publ_section_title
;
Structure prediction by ZEFSAII (Michael W. Deem and Ramdas Pophale) SiO2 
 PCOD8016723
Probable space group: P -1
;
_chemical_formula_sum "Si O2"
_cell_formula_units_Z 12
_cell_length_a 9.259421
_cell_length_b 9.466604
_cell_length_c 14.023489
_cell_angle_alpha 71.728848
_cell_angle_beta 43.477750
_cell_angle_gamma 106.250481
_cell_volume 506.107839
_symmetry_space_group_name_H-M "P -1"
_symmetry_group_IT_number 2
_symmetry_cell_setting 'triclinic'
loop_
_space_group_symop_operation_xyz
x,y,z
-x,-y,-z
loop_
_atom_site_type_symbol
_atom_site_label
_atom_site_fract_x
_atom_site_fract_y
_atom_site_fract_z
Si Si1 0.190328 0.705277 0.940463
Si Si2 0.944671 0.036920 0.758763
Si Si3 0.245687 0.294501 0.742644
Si Si4 0.283856 0.956135 0.531081
Si Si5 0.249703 0.570030 0.125864
Si Si6 0.880333 0.539056 0.462722
O O1 0.515227 0.953701 0.682487
O O2 0.328456 0.674832 0.962037
O O3 0.000000 0.500000 0.000000
O O4 0.950911 0.698655 0.099156
O O5 0.993568 0.064099 0.844858
O O6 0.952273 0.203611 0.668866
O O7 0.231053 0.098651 0.555914
O O8 0.593381 0.759247 0.978401
O O9 0.500000 0.500000 0.500000
O O10 0.474928 0.323819 0.699361
O O11 0.917258 0.683923 0.749501
O O12 0.500000 0.000000 0.500000
O O13 0.986594 0.530886 0.312437
O O14 0.000000 0.500000 0.500000
#
# Coordination Sequence:
#
# PCOD8016723 Si02
#       6
#     2   2   2   2   2   2
#     4  12  24  46  81 109 157 204 249 316 386 446
#     4  11  25  50  76 105 161 201 251 322 377 451
#     4  10  21  46  80 106 146 203 253 311 379 452
#     4  12  27  48  76 113 154 202 259 309 380 463
#     4  12  26  47  76 114 155 200 257 315 381 457
#     4  11  25  46  79 115 150 194 262 319 376 451
#
# _framework density 23.710362
#
# number of rings (size 3 to 8) (size 9 to 14) (size 15 to 20)
#    0.000    0.667    5.000    4.000    2.333    2.000 
#    6.000    2.500    0.000    0.000    0.000    0.000 
#    0.000    0.000    0.000    0.000    0.000    0.000 
#
# Total GULP energy -148765.247886 kJ/mol
# GULP energy per Si atom -12397.103991 kJ/mol
# Density = 2.365640 g / cm^3
# Si number density = 23.710362 Si / 1000 Ang^3
#
#
#
# Elastic Constant Matrix: (Units=GPa)
#
#
# Indices 1 2 3 4 5 6 
#
# 1 143.9674 62.8321 58.2234 -10.7862 -4.8092 11.9712
# 2 62.8321 152.4222 64.4089 15.8745 -7.6190 7.5948
# 3 58.2234 64.4089 120.7666 4.7356 1.1902 13.9373
# 4 -10.7862 15.8745 4.7356 58.2712 7.3385 -7.7198
# 5 -4.8092 -7.6190 1.1902 7.3385 45.1559 -5.7971
# 6 11.9712 7.5948 13.9373 -7.7198 -5.7971 45.2798
#
#
#
# Elastic Compliance Matrix: (Units=1/GPa)
#
#
# Indices 1 2 3 4 5 6 
#
# 1 0.009780 -0.002938 -0.003185 0.002774 0.000098 -0.000627
# 2 -0.002938 0.009752 -0.003678 -0.003148 0.001939 -0.000015
# 3 -0.003185 -0.003678 0.012120 -0.000727 -0.001493 -0.002586
# 4 0.002774 -0.003148 -0.000727 0.019356 -0.002985 0.002936
# 5 0.000098 0.001939 -0.001493 -0.002985 0.023340 0.002588
# 6 -0.000627 -0.000015 -0.002586 0.002936 0.002588 0.023881
#
#
# Mechanical properties :
#
#
# Convention : Reuss Voigt Hill
#
# Bulk Modulus (GPa) = 83.00532 87.56500 85.28516
# Shear Modulus (GPa) = 41.03469 45.18750 43.11110
#
# Velocity S-wave (km/s) = 4.16464 4.37030 4.26871
# Velocity P-wave (km/s) = 7.62953 7.90426 7.76811
#
# Compressibility (1/GPa) = 0.01204742
#
# Stress axis : x y z
#
# Youngs Moduli (GPa) = 102.25123 102.54536 82.51054
#
# Poissons Ratio (x) = 0.30130 0.26283
# Poissons Ratio (y) = 0.30044 0.30350
# Poissons Ratio (z) = 0.32571 0.37720
#
# Static dielectric constant tensor:
#      x y z
#    x 4.034290 0.372370 -0.561820 
#    y 0.372370 4.720440 0.062970 
#    z -0.561820 0.062970 4.259170 
# 
# 
# High freq. dielectric constant tensor:
#      x y z
#    x 1.937190 0.010120 -0.010520 
#    y 0.010120 1.952050 0.006070 
#    z -0.010520 0.006070 1.947480 
# 
# From -- ./inp_files/333725.got.cif
#   From: 2010.06.25/outbox.cif.g09.slc.cpg/sg2_167_cif.got.tgz:333725.got - 2010.06.27 13:26:56.
