data_PCOD8016888
_publ_section_title
;
Structure prediction by ZEFSAII (Michael W. Deem and Ramdas Pophale) SiO2 
 PCOD8016888
Probable space group: P -1
;
_chemical_formula_sum "Si O2"
_cell_formula_units_Z 16
_cell_length_a 14.878058
_cell_length_b 8.834963
_cell_length_c 9.220759
_cell_angle_alpha 105.568102
_cell_angle_beta 40.623120
_cell_angle_gamma 93.833613
_cell_volume 741.869851
_symmetry_space_group_name_H-M "P -1"
_symmetry_group_IT_number 2
_symmetry_cell_setting 'triclinic'
loop_
_space_group_symop_operation_xyz
x,y,z
-x,-y,-z
loop_
_atom_site_type_symbol
_atom_site_label
_atom_site_fract_x
_atom_site_fract_y
_atom_site_fract_z
Si Si1 0.813727 0.916066 0.327074
Si Si2 0.088068 0.206319 0.112746
Si Si3 0.571336 0.137165 0.510288
Si Si4 0.124696 0.525386 0.458636
Si Si5 0.316069 0.410684 0.945071
Si Si6 0.729788 0.338150 0.175342
Si Si7 0.041028 0.944869 0.275716
Si Si8 0.151205 0.432526 0.721935
O O1 0.770261 0.747279 0.373758
O O2 0.893972 0.976794 0.376697
O O3 0.681583 0.056108 0.477760
O O4 0.923119 0.874724 0.049032
O O5 0.926723 0.292149 0.374298
O O6 0.140293 0.062771 0.126616
O O7 0.193896 0.327911 0.008646
O O8 0.457384 0.276456 0.764213
O O9 0.638201 0.214778 0.312494
O O10 0.500000 0.000000 0.500000
O O11 0.141127 0.417587 0.555890
O O12 0.000000 0.500000 0.500000
O O13 0.268927 0.492900 0.180296
O O14 0.347065 0.542665 0.826579
O O15 0.754772 0.443064 0.311099
O O16 0.875086 0.239206 0.896341
O O17 0.000000 0.000000 0.500000
O O18 0.000000 0.500000 0.000000
#
# Coordination Sequence:
#
# PCOD8016888 Si02
#       8
#     2   2   2   2   2   2   2   2
#     4  12  24  41  68  99 135 177 224 268 341 396
#     4  11  20  41  66  96 135 170 221 282 340 390
#     4  12  25  47  69  93 138 184 232 271 321 416
#     4  10  22  36  67  98 136 171 218 284 340 385
#     4  11  23  43  68  98 131 180 226 276 332 395
#     4  12  23  43  73  99 128 180 230 279 333 404
#     4  12  26  38  64 106 142 169 219 285 353 397
#     4  12  21  40  68 102 134 167 224 280 335 404
#
# _framework density 21.567124
#
# number of rings (size 3 to 8) (size 9 to 14) (size 15 to 20)
#    0.000    0.500    6.250    2.250    5.250    0.000 
#    0.000    1.250    2.750    0.000    0.000    0.000 
#    0.000    0.000    0.000    0.000    0.000    0.000 
#
# Total GULP energy -198304.084944 kJ/mol
# GULP energy per Si atom -12394.005309 kJ/mol
# Density = 2.151804 g / cm^3
# Si number density = 21.567124 Si / 1000 Ang^3
#
#
#
# Elastic Constant Matrix: (Units=GPa)
#
#
# Indices 1 2 3 4 5 6 
#
# 1 109.9223 51.0035 70.2401 6.3375 19.1744 -14.8505
# 2 51.0035 146.2440 55.8096 -1.1718 -0.8148 -21.6915
# 3 70.2401 55.8096 138.9957 20.2368 16.1345 -14.4070
# 4 6.3375 -1.1718 20.2368 44.8859 -12.0442 -11.1179
# 5 19.1744 -0.8148 16.1345 -12.0442 38.9040 -1.5758
# 6 -14.8505 -21.6915 -14.4070 -11.1179 -1.5758 35.4786
#
#
#
# Elastic Compliance Matrix: (Units=1/GPa)
#
#
# Indices 1 2 3 4 5 6 
#
# 1 0.015292 -0.002947 -0.005624 -0.000690 -0.005405 0.001859
# 2 -0.002947 0.009903 -0.003157 0.004621 0.004610 0.005192
# 3 -0.005624 -0.003157 0.012655 -0.006590 -0.004640 -0.001416
# 4 -0.000690 0.004621 -0.006590 0.031626 0.013381 0.010365
# 5 -0.005405 0.004610 -0.004640 0.013381 0.034710 0.004407
# 6 0.001859 0.005192 -0.001416 0.010365 0.004407 0.035007
#
#
# Mechanical properties :
#
#
# Convention : Reuss Voigt Hill
#
# Bulk Modulus (GPa) = 69.46759 83.25203 76.35981
# Shear Modulus (GPa) = 29.86013 38.39429 34.12721
#
# Velocity S-wave (km/s) = 3.72495 4.22385 3.98222
# Velocity P-wave (km/s) = 7.12602 7.90399 7.52507
#
# Compressibility (1/GPa) = 0.01439520
#
# Stress axis : x y z
#
# Youngs Moduli (GPa) = 65.39329 100.97746 79.01850
#
# Poissons Ratio (x) = 0.29757 0.44439
# Poissons Ratio (y) = 0.19271 0.24945
# Poissons Ratio (z) = 0.36776 0.31877
#
# Static dielectric constant tensor:
#      x y z
#    x 3.768320 -0.141070 0.239600 
#    y -0.141070 4.381870 0.225940 
#    z 0.239600 0.225940 4.188420 
# 
# 
# High freq. dielectric constant tensor:
#      x y z
#    x 1.823580 -0.011420 0.017510 
#    y -0.011420 1.871090 0.009520 
#    z 0.017510 0.009520 1.835650 
# 
# From -- ./inp_files/298643.got.cif
#   From: 2010.06.25/outbox.cif.g09.slc.cpg/sg2_150_cif.got.tgz:298643.got - 2010.06.27 13:26:56.
