data_PCOD8016761
_publ_section_title
;
Structure prediction by ZEFSAII (Michael W. Deem and Ramdas Pophale) SiO2 
 PCOD8016761
Probable space group: P -1
;
_chemical_formula_sum "Si O2"
_cell_formula_units_Z 16
_cell_length_a 26.356205
_cell_length_b 16.749300
_cell_length_c 14.690178
_cell_angle_alpha 28.995324
_cell_angle_beta 160.039223
_cell_angle_gamma 161.396476
_cell_volume 698.431157
_symmetry_space_group_name_H-M "P -1"
_symmetry_group_IT_number 2
_symmetry_cell_setting 'triclinic'
loop_
_space_group_symop_operation_xyz
x,y,z
-x,-y,-z
loop_
_atom_site_type_symbol
_atom_site_label
_atom_site_fract_x
_atom_site_fract_y
_atom_site_fract_z
Si Si1 0.254123 0.244160 0.536457
Si Si2 0.528331 0.831632 0.135543
Si Si3 0.011933 0.376555 0.006103
Si Si4 0.646862 0.190533 0.323374
Si Si5 0.130625 0.623439 0.774040
Si Si6 0.322407 0.728969 0.342851
Si Si7 0.190903 0.299487 0.661645
Si Si8 0.495181 0.611169 0.017730
O O1 0.406651 0.299840 0.655174
O O2 0.091611 0.261817 0.222818
O O3 0.420799 0.435747 0.709916
O O4 0.080397 0.946527 0.565637
O O5 0.741007 0.092342 0.287720
O O6 0.448021 0.886179 0.863332
O O7 0.313058 0.638319 0.034216
O O8 0.171205 0.593580 0.132792
O O9 0.022213 0.498200 0.813654
O O10 0.757803 0.185052 0.812155
O O11 0.918730 0.448559 0.520704
O O12 0.576020 0.971964 0.484237
O O13 0.510261 0.216287 0.119905
O O14 0.302419 0.546526 0.549957
O O15 0.313533 0.239355 0.887884
O O16 0.250312 0.358955 0.810886
#
# Coordination Sequence:
#
# PCOD8016761 Si02
#       8
#     2   2   2   2   2   2   2   2
#     4  11  22  40  61  86 122 164 197 247 298 350
#     4  10  23  42  67  88 115 157 210 250 297 350
#     4  11  23  38  61  91 126 159 197 244 303 359
#     4  11  22  40  62  90 122 155 199 251 301 354
#     4  11  23  43  65  90 117 158 204 254 297 353
#     4  11  23  37  60  92 125 159 195 244 300 364
#     4  11  22  38  57  89 127 159 198 240 293 367
#     4  10  22  34  56  86 119 159 197 233 296 359
#
# _framework density 22.908484999999999
#
# number of rings (size 3 to 8) (size 9 to 14) (size 15 to 20)
#    0.000    1.250    2.500    3.750    5.250    4.500 
#    0.000    0.000    0.000    0.750    0.000    0.000 
#    0.000    0.000    0.000    0.000    0.000    0.000 
#
# Total GULP energy -198212.035992 kJ/mol
# GULP energy per Si atom -12388.252249 kJ/mol
# Density = 2.285634 g / cm^3
# Si number density = 22.908485 Si / 1000 Ang^3
#
#
#
# Elastic Constant Matrix: (Units=GPa)
#
#
# Indices 1 2 3 4 5 6 
#
# 1 93.8844 13.5350 8.1198 11.5506 14.6738 -6.2051
# 2 13.5350 58.5546 20.0943 20.6332 -0.8963 4.9863
# 3 8.1198 20.0943 65.6901 13.3956 3.6948 -3.4284
# 4 11.5506 20.6332 13.3956 31.9349 -4.0506 3.3072
# 5 14.6738 -0.8963 3.6948 -4.0506 32.1061 0.9879
# 6 -6.2051 4.9863 -3.4284 3.3072 0.9879 27.4406
#
#
#
# Elastic Compliance Matrix: (Units=1/GPa)
#
#
# Indices 1 2 3 4 5 6 
#
# 1 0.012805 -0.001876 0.000596 -0.004952 -0.006726 0.004150
# 2 -0.001876 0.023800 -0.004802 -0.012197 0.000655 -0.003902
# 3 0.000596 -0.004802 0.018153 -0.005570 -0.003323 0.004066
# 4 -0.004952 -0.012197 -0.005570 0.044938 0.008397 -0.005318
# 5 -0.006726 0.000655 -0.003323 0.008397 0.035815 -0.004357
# 6 0.004150 -0.003902 0.004066 -0.005318 -0.004357 0.039396
#
#
# Mechanical properties :
#
#
# Convention : Reuss Voigt Hill
#
# Bulk Modulus (GPa) = 23.47688 33.51413 28.49551
# Shear Modulus (GPa) = 24.84249 30.05499 27.44874
#
# Velocity S-wave (km/s) = 3.29663 3.62603 3.46524
# Velocity P-wave (km/s) = 4.97602 5.67381 5.33633
#
# Compressibility (1/GPa) = 0.04259510
#
# Stress axis : x y z
#
# Youngs Moduli (GPa) = 78.09407 42.01719 55.08665
#
# Poissons Ratio (x) = 0.07881 -0.03282
# Poissons Ratio (y) = 0.14647 0.26451
# Poissons Ratio (z) = -0.04652 0.20175
#
# Static dielectric constant tensor:
#      x y z
#    x 4.391350 -0.096170 0.071330 
#    y -0.096170 3.831620 0.231840 
#    z 0.071330 0.231840 4.084030 
# 
# 
# High freq. dielectric constant tensor:
#      x y z
#    x 1.916300 -0.017070 0.009590 
#    y -0.017070 1.868150 0.020870 
#    z 0.009590 0.020870 1.898470 
# 
# From -- ./inp_files/403000.got.cif
#   From: 2010.06.25/outbox.cif.g09.slc.cpg/sg2_202_cif.got.tgz:403000.got - 2010.06.27 13:26:56.
