data_PCOD8016275
_publ_section_title
;
Structure prediction by ZEFSAII (Michael W. Deem and Ramdas Pophale) SiO2 
 PCOD8016275
Probable space group: P -1
;
_chemical_formula_sum "Si O2"
_cell_formula_units_Z 16
_cell_length_a 6.622515
_cell_length_b 21.346985
_cell_length_c 16.668972
_cell_angle_alpha 157.019927
_cell_angle_beta 63.590014
_cell_angle_gamma 102.803349
_cell_volume 694.926066
_symmetry_space_group_name_H-M "P -1"
_symmetry_group_IT_number 2
_symmetry_cell_setting 'triclinic'
loop_
_space_group_symop_operation_xyz
x,y,z
-x,-y,-z
loop_
_atom_site_type_symbol
_atom_site_label
_atom_site_fract_x
_atom_site_fract_y
_atom_site_fract_z
Si Si1 0.045206 0.841070 0.742526
Si Si2 0.243865 0.230607 0.592643
Si Si3 0.817933 0.715063 0.761428
Si Si4 0.210702 0.110191 0.864285
Si Si5 0.103947 0.176313 0.715249
Si Si6 0.548100 0.764657 0.161105
Si Si7 0.587111 0.510419 0.193888
Si Si8 0.791504 0.021724 0.830259
O O1 0.363419 0.686264 0.493468
O O2 0.913880 0.736355 0.682668
O O3 0.895188 0.933527 0.795564
O O4 0.000000 0.000000 0.000000
O O5 0.043039 0.247374 0.716964
O O6 0.229293 0.425070 0.805437
O O7 0.192471 0.144114 0.421043
O O8 0.534320 0.100113 0.426489
O O9 0.000000 0.500000 0.500000
O O10 0.864271 0.824556 0.953465
O O11 0.506173 0.791559 0.897130
O O12 0.279186 0.239908 0.951709
O O13 0.973968 0.095431 0.849251
O O14 0.318738 0.219833 0.763977
O O15 0.236723 0.947398 0.428356
O O16 0.810002 0.315229 0.972988
O O17 0.558378 0.566451 0.928021
#
# Coordination Sequence:
#
# PCOD8016275 Si02
#       8
#     2   2   2   2   2   2   2   2
#     4  12  24  47  70 102 140 186 236 290 348 413
#     4  10  23  42  69 100 136 176 230 278 341 415
#     4  11  24  42  66 100 136 177 238 289 346 415
#     4  10  21  44  65  96 133 181 226 279 342 413
#     4  10  24  44  67 100 140 185 224 280 347 421
#     4  10  24  43  68 102 142 178 226 283 351 408
#     4  12  24  42  69 102 138 174 235 285 336 413
#     4  11  23  45  74  96 138 191 227 290 356 405
#
# _framework density 23.02403
#
# number of rings (size 3 to 8) (size 9 to 14) (size 15 to 20)
#    0.000    1.250    2.500    2.625    1.750    8.000 
#    2.250    0.000    0.000    0.000    0.000    0.000 
#    0.000    0.000    0.000    0.000    0.000    0.000 
#
# Total GULP energy -198277.011064 kJ/mol
# GULP energy per Si atom -12392.313191 kJ/mol
# Density = 2.297163 g / cm^3
# Si number density = 23.024030 Si / 1000 Ang^3
#
#
#
# Elastic Constant Matrix: (Units=GPa)
#
#
# Indices 1 2 3 4 5 6 
#
# 1 104.6113 37.2106 51.5948 6.0083 -6.0544 -0.8627
# 2 37.2106 80.8438 31.9294 -0.8914 2.9574 -8.4971
# 3 51.5948 31.9294 147.3783 4.5290 -11.7248 -6.0897
# 4 6.0083 -0.8914 4.5290 24.8147 2.5351 8.9836
# 5 -6.0544 2.9574 -11.7248 2.5351 39.5557 2.5818
# 6 -0.8627 -8.4971 -6.0897 8.9836 2.5818 34.8150
#
#
#
# Elastic Compliance Matrix: (Units=1/GPa)
#
#
# Indices 1 2 3 4 5 6 
#
# 1 0.013219 -0.004930 -0.003390 -0.002591 0.001613 -0.000920
# 2 -0.004930 0.015821 -0.001821 0.001174 -0.002769 0.003323
# 3 -0.003390 -0.001821 0.008636 -0.001480 0.002194 0.001201
# 4 -0.002591 0.001174 -0.001480 0.045760 -0.003098 -0.011614
# 5 0.001613 -0.002769 0.002194 -0.003098 0.026677 -0.001431
# 6 -0.000920 0.003323 0.001201 -0.011614 -0.001431 0.032825
#
#
# Mechanical properties :
#
#
# Convention : Reuss Voigt Hill
#
# Bulk Modulus (GPa) = 57.48635 63.81144 60.64889
# Shear Modulus (GPa) = 29.58268 33.97698 31.77983
#
# Velocity S-wave (km/s) = 3.58838 3.84568 3.71926
# Velocity P-wave (km/s) = 6.49545 6.89161 6.69646
#
# Compressibility (1/GPa) = 0.01739544
#
# Stress axis : x y z
#
# Youngs Moduli (GPa) = 75.64713 63.20559 115.79301
#
# Poissons Ratio (x) = 0.31160 0.39252
# Poissons Ratio (y) = 0.37294 0.21084
# Poissons Ratio (z) = 0.25643 0.11509
#
# Static dielectric constant tensor:
#      x y z
#    x 4.235030 0.118130 -0.096850 
#    y 0.118130 3.869440 0.459730 
#    z -0.096850 0.459730 3.502240 
# 
# 
# High freq. dielectric constant tensor:
#      x y z
#    x 1.913240 0.008470 -0.004200 
#    y 0.008470 1.900570 -0.001110 
#    z -0.004200 -0.001110 1.921300 
# 
# From -- ./inp_files/551264.got.cif
#   From: 2010.06.25/outbox.cif.g09.slc.cpg/sg2_276_cif.got.tgz:551264.got - 2010.06.27 13:26:56.
