data_PCOD8016331
_publ_section_title
;
Structure prediction by ZEFSAII (Michael W. Deem and Ramdas Pophale) SiO2 
 PCOD8016331
Probable space group: P -1
;
_chemical_formula_sum "Si O2"
_cell_formula_units_Z 16
_cell_length_a 12.195202
_cell_length_b 11.425758
_cell_length_c 8.373099
_cell_angle_alpha 53.916841
_cell_angle_beta 62.825072
_cell_angle_gamma 52.937559
_cell_volume 742.979051
_symmetry_space_group_name_H-M "P -1"
_symmetry_group_IT_number 2
_symmetry_cell_setting 'triclinic'
loop_
_space_group_symop_operation_xyz
x,y,z
-x,-y,-z
loop_
_atom_site_type_symbol
_atom_site_label
_atom_site_fract_x
_atom_site_fract_y
_atom_site_fract_z
Si Si1 0.304095 0.378113 0.032678
Si Si2 0.458774 0.546843 0.311481
Si Si3 0.215542 0.833777 0.384004
Si Si4 0.070569 0.059886 0.033320
Si Si5 0.572182 0.726649 0.646741
Si Si6 0.781477 0.879644 0.687648
Si Si7 0.069680 0.698677 0.816734
Si Si8 0.309247 0.038862 0.672966
O O1 0.435547 0.398609 0.877447
O O2 0.161174 0.504918 0.939656
O O3 0.308492 0.388353 0.214820
O O4 0.318220 0.198919 0.129974
O O5 0.500000 0.500000 0.500000
O O6 0.308825 0.703521 0.293553
O O7 0.457471 0.392892 0.350513
O O8 0.173966 0.757523 0.621434
O O9 0.085048 0.955639 0.268165
O O10 0.282128 0.943273 0.328065
O O11 0.971207 0.240147 0.021965
O O12 0.212039 0.049452 0.877834
O O13 0.000000 0.000000 0.000000
O O14 0.625449 0.839348 0.424492
O O15 0.429085 0.851428 0.730400
O O16 0.779400 0.903013 0.478921
O O17 0.938545 0.753143 0.741548
#
# Coordination Sequence:
#
# PCOD8016331 Si02
#       8
#     2   2   2   2   2   2   2   2
#     4  11  24  42  64  94 128 168 206 261 325 364
#     4  12  24  39  64  95 125 164 208 262 312 374
#     4  11  23  41  63  92 127 167 213 253 311 374
#     4  11  23  36  66  94 122 170 212 256 308 375
#     4  10  24  42  67  93 129 164 207 269 314 374
#     4  10  22  43  66  89 128 169 209 258 312 378
#     4  11  23  42  63  93 131 167 209 258 314 374
#     4  10  21  44  67  93 124 167 215 260 316 367
#
# _framework density 21.534927
#
# number of rings (size 3 to 8) (size 9 to 14) (size 15 to 20)
#    0.000    1.250    1.250    5.250    3.500    2.500 
#    2.250    1.250    0.000    0.000    0.000    0.000 
#    0.000    0.000    0.000    0.000    0.000    0.000 
#
# Total GULP energy -198270.857850 kJ/mol
# GULP energy per Si atom -12391.928616 kJ/mol
# Density = 2.148591 g / cm^3
# Si number density = 21.534927 Si / 1000 Ang^3
#
#
#
# Elastic Constant Matrix: (Units=GPa)
#
#
# Indices 1 2 3 4 5 6 
#
# 1 91.4017 31.4895 29.1267 -10.7835 -7.4105 17.5880
# 2 31.4895 106.2897 44.3246 -1.3521 -21.0044 9.1485
# 3 29.1267 44.3246 98.0752 -8.0457 -6.7610 12.2614
# 4 -10.7835 -1.3521 -8.0457 30.6940 -3.3076 -2.2987
# 5 -7.4105 -21.0044 -6.7610 -3.3076 41.0705 -6.6479
# 6 17.5880 9.1485 12.2614 -2.2987 -6.6479 37.9402
#
#
#
# Elastic Compliance Matrix: (Units=1/GPa)
#
#
# Indices 1 2 3 4 5 6 
#
# 1 0.013946 -0.002802 -0.001922 0.003939 0.000295 -0.004878
# 2 -0.002802 0.013338 -0.004977 -0.001064 0.005506 0.000592
# 3 -0.001922 -0.004977 0.013434 0.002366 -0.000856 -0.002257
# 4 0.003939 -0.001064 0.002366 0.034935 0.003432 0.000384
# 5 0.000295 0.005506 -0.000856 0.003432 0.027988 0.003924
# 6 -0.004878 0.000592 -0.002257 0.000384 0.003924 0.029916
#
#
# Mechanical properties :
#
#
# Convention : Reuss Voigt Hill
#
# Bulk Modulus (GPa) = 46.91668 56.18312 51.54990
# Shear Modulus (GPa) = 31.23744 34.66266 32.95005
#
# Velocity S-wave (km/s) = 3.81274 4.01634 3.91586
# Velocity P-wave (km/s) = 6.41999 6.90318 6.66596
#
# Compressibility (1/GPa) = 0.02131438
#
# Stress axis : x y z
#
# Youngs Moduli (GPa) = 71.70678 74.97561 74.43877
#
# Poissons Ratio (x) = 0.21007 0.14308
# Poissons Ratio (y) = 0.20091 0.37052
# Poissons Ratio (z) = 0.13783 0.37319
#
# Static dielectric constant tensor:
#      x y z
#    x 4.259120 0.251180 0.219180 
#    y 0.251180 3.615280 0.139670 
#    z 0.219180 0.139670 3.967720 
# 
# 
# High freq. dielectric constant tensor:
#      x y z
#    x 1.851360 0.001430 0.003210 
#    y 0.001430 1.835890 -0.016080 
#    z 0.003210 -0.016080 1.857130 
# 
# From -- ./inp_files/243564.got.cif
#   From: 2010.06.25/outbox.cif.g09.slc.cpg/sg2_122_cif.got.tgz:243564.got - 2010.06.27 13:26:56.
