data_PCOD8016571
_publ_section_title
;
Structure prediction by ZEFSAII (Michael W. Deem and Ramdas Pophale) SiO2 
 PCOD8016571
Probable space group: P -1
;
_chemical_formula_sum "Si O2"
_cell_formula_units_Z 16
_cell_length_a 10.334087
_cell_length_b 17.481590
_cell_length_c 8.884483
_cell_angle_alpha 42.179328
_cell_angle_beta 137.463137
_cell_angle_gamma 136.402495
_cell_volume 670.135723
_symmetry_space_group_name_H-M "P -1"
_symmetry_group_IT_number 2
_symmetry_cell_setting 'triclinic'
loop_
_space_group_symop_operation_xyz
x,y,z
-x,-y,-z
loop_
_atom_site_type_symbol
_atom_site_label
_atom_site_fract_x
_atom_site_fract_y
_atom_site_fract_z
Si Si1 0.647875 0.204420 0.646554
Si Si2 0.934693 0.606348 0.351461
Si Si3 0.219253 0.244217 0.510991
Si Si4 0.338511 0.723550 0.116142
Si Si5 0.579748 0.040145 0.341990
Si Si6 0.779538 0.763501 0.808000
Si Si7 0.738137 0.532595 0.610092
Si Si8 0.983063 0.003441 0.803347
O O1 0.729535 0.231457 0.851107
O O2 0.454391 0.241115 0.381845
O O3 0.844065 0.278198 0.600132
O O4 0.578221 0.058049 0.766570
O O5 0.791147 0.568549 0.429664
O O6 0.000000 0.500000 0.500000
O O7 0.785811 0.636388 0.060352
O O8 0.466549 0.307122 0.618065
O O9 0.121205 0.212406 0.308118
O O10 0.130013 0.340212 0.369479
O O11 0.187086 0.118002 0.757603
O O12 0.193658 0.584875 0.130632
O O13 0.391590 0.822027 0.882786
O O14 0.806182 0.041030 0.526132
O O15 0.500000 0.000000 0.500000
O O16 0.946020 0.870113 0.898867
O O17 0.500000 0.500000 0.500000
O O18 0.000000 0.000000 0.000000
#
# Coordination Sequence:
#
# PCOD8016571 Si02
#       8
#     2   2   2   2   2   2   2   2
#     4  10  24  45  69 105 138 182 235 286 357 413
#     4  12  25  45  76 104 140 188 241 287 345 430
#     4  10  22  41  69  97 136 187 227 286 357 421
#     4  10  21  45  67  97 140 179 229 294 346 415
#     4  11  25  40  66 102 136 177 229 299 349 407
#     4  10  25  45  69 102 141 186 231 295 356 411
#     4  10  23  45  70 102 143 189 227 287 360 418
#     4  11  23  41  66  97 136 182 236 287 355 417
#
# _framework density 23.87576
#
# number of rings (size 3 to 8) (size 9 to 14) (size 15 to 20)
#    0.000    1.500    1.250    2.250    7.000    3.500 
#    2.250    1.250    0.000    0.000    0.000    0.000 
#    0.000    0.000    0.000    0.000    0.000    0.000 
#
# Total GULP energy -198231.578177 kJ/mol
# GULP energy per Si atom -12389.473636 kJ/mol
# Density = 2.382142 g / cm^3
# Si number density = 23.875760 Si / 1000 Ang^3
#
#
#
# Elastic Constant Matrix: (Units=GPa)
#
#
# Indices 1 2 3 4 5 6 
#
# 1 124.3249 44.7009 41.6296 -12.9829 -40.7021 -10.9340
# 2 44.7009 98.3769 46.3850 -21.4525 -14.7558 -15.5127
# 3 41.6296 46.3850 116.5837 -32.4066 -27.8990 -8.5095
# 4 -12.9829 -21.4525 -32.4066 39.1723 3.5448 -0.3645
# 5 -40.7021 -14.7558 -27.8990 3.5448 40.6761 2.9990
# 6 -10.9340 -15.5127 -8.5095 -0.3645 2.9990 47.3856
#
#
#
# Elastic Compliance Matrix: (Units=1/GPa)
#
#
# Indices 1 2 3 4 5 6 
#
# 1 0.013621 -0.003939 0.000021 0.001298 0.012021 0.001107
# 2 -0.003939 0.014790 -0.003459 0.004106 -0.001560 0.003442
# 3 0.000021 -0.003459 0.014514 0.009422 0.007823 0.001057
# 4 0.001298 0.004106 0.009422 0.035496 0.005919 0.003234
# 5 0.012021 -0.001560 0.007823 0.005919 0.040813 0.001130
# 6 0.001107 0.003442 0.001057 0.003234 0.001130 0.022629
#
#
# Mechanical properties :
#
#
# Convention : Reuss Voigt Hill
#
# Bulk Modulus (GPa) = 35.49532 67.19073 51.34303
# Shear Modulus (GPa) = 30.11956 39.21813 34.66884
#
# Velocity S-wave (km/s) = 3.55563 4.05729 3.81471
# Velocity P-wave (km/s) = 5.63521 7.08179 6.39950
#
# Compressibility (1/GPa) = 0.02817273
#
# Stress axis : x y z
#
# Youngs Moduli (GPa) = 73.41844 67.61533 68.89805
#
# Poissons Ratio (x) = 0.26631 -0.00148
# Poissons Ratio (y) = 0.28917 0.23829
# Poissons Ratio (z) = -0.00158 0.23386
#
# Static dielectric constant tensor:
#      x y z
#    x 4.581160 -0.020110 0.027170 
#    y -0.020110 5.041510 -0.204840 
#    z 0.027170 -0.204840 4.111250 
# 
# 
# High freq. dielectric constant tensor:
#      x y z
#    x 1.951410 -0.002350 0.006840 
#    y -0.002350 1.958750 -0.013220 
#    z 0.006840 -0.013220 1.942440 
# 
# From -- ./inp_files/278877.got.cif
#   From: 2010.06.25/outbox.cif.g09.slc.cpg/sg2_140_cif.got.tgz:278877.got - 2010.06.27 13:26:56.
