data_PCOD8016169
_publ_section_title
;
Structure prediction by ZEFSAII (Michael W. Deem and Ramdas Pophale) SiO2 
 PCOD8016169
Probable space group: P -1
;
_chemical_formula_sum "Si O2"
_cell_formula_units_Z 12
_cell_length_a 10.257975
_cell_length_b 8.604214
_cell_length_c 11.808058
_cell_angle_alpha 143.675362
_cell_angle_beta 84.802768
_cell_angle_gamma 111.640344
_cell_volume 531.945670
_symmetry_space_group_name_H-M "P -1"
_symmetry_group_IT_number 2
_symmetry_cell_setting 'triclinic'
loop_
_space_group_symop_operation_xyz
x,y,z
-x,-y,-z
loop_
_atom_site_type_symbol
_atom_site_label
_atom_site_fract_x
_atom_site_fract_y
_atom_site_fract_z
Si Si1 0.161630 0.382522 0.005539
Si Si2 0.168604 0.155490 0.532112
Si Si3 0.826979 0.136909 0.863231
Si Si4 0.170089 0.788416 0.649816
Si Si5 0.323422 0.818599 0.432082
Si Si6 0.676877 0.148366 0.085772
O O1 0.231959 0.648251 0.061675
O O2 0.255206 0.500324 0.183961
O O3 0.996122 0.335185 0.014758
O O4 0.158057 0.080839 0.785865
O O5 0.246598 0.506777 0.757290
O O6 0.177218 0.108299 0.368678
O O7 0.256859 0.020816 0.510976
O O8 0.000000 0.000000 0.500000
O O9 0.723848 0.976465 0.887416
O O10 0.273505 0.740592 0.521520
O O11 0.261876 0.868018 0.805963
O O12 0.000000 0.500000 0.500000
O O13 0.500000 0.000000 0.500000
O O14 0.500000 0.000000 0.000000
#
# Coordination Sequence:
#
# PCOD8016169 Si02
#       6
#     2   2   2   2   2   2
#     4  10  22  42  74  96 129 177 234 273 331 418
#     4  11  23  47  74  95 134 188 234 273 339 433
#     4  10  21  43  71  99 128 181 231 272 334 418
#     4  12  26  45  69 101 142 181 227 282 348 420
#     4  11  26  43  70 101 133 178 234 288 339 401
#     4  12  28  41  65 104 145 176 219 290 357 398
#
# _framework density 22.558693000000002
#
# number of rings (size 3 to 8) (size 9 to 14) (size 15 to 20)
#    0.000    1.000    0.000    8.000    7.000    5.333 
#    0.000    0.000    0.000    0.000    0.000    0.000 
#    0.000    0.000    0.000    0.000    0.000    0.000 
#
# Total GULP energy -148776.135514 kJ/mol
# GULP energy per Si atom -12398.011293 kJ/mol
# Density = 2.250735 g / cm^3
# Si number density = 22.558693 Si / 1000 Ang^3
#
#
#
# Elastic Constant Matrix: (Units=GPa)
#
#
# Indices 1 2 3 4 5 6 
#
# 1 119.8797 47.3494 46.3336 -11.5371 21.1530 25.3495
# 2 47.3494 107.9554 54.8717 -38.1582 12.4345 41.8429
# 3 46.3336 54.8717 123.8779 -22.7942 3.2665 20.5862
# 4 -11.5371 -38.1582 -22.7942 52.0943 -6.3294 -7.8265
# 5 21.1530 12.4345 3.2665 -6.3294 37.2251 1.7560
# 6 25.3495 41.8429 20.5862 -7.8265 1.7560 42.7248
#
#
#
# Elastic Compliance Matrix: (Units=1/GPa)
#
#
# Indices 1 2 3 4 5 6 
#
# 1 0.012049 -0.002221 -0.003064 -0.001552 -0.005933 -0.003537
# 2 -0.002221 0.024113 -0.004590 0.012073 -0.003500 -0.017730
# 3 -0.003064 -0.004590 0.011262 0.001342 0.002465 0.001031
# 4 -0.001552 0.012073 0.001342 0.027503 0.001718 -0.006582
# 5 -0.005933 -0.003500 0.002465 0.001718 0.031254 0.004790
# 6 -0.003537 -0.017730 0.001031 -0.006582 0.004790 0.040969
#
#
# Mechanical properties :
#
#
# Convention : Reuss Voigt Hill
#
# Bulk Modulus (GPa) = 36.13501 72.09138 54.11320
# Shear Modulus (GPa) = 28.38912 39.95274 34.17093
#
# Velocity S-wave (km/s) = 3.55132 4.21296 3.89621
# Velocity P-wave (km/s) = 5.73313 7.46271 6.65435
#
# Compressibility (1/GPa) = 0.02767399
#
# Stress axis : x y z
#
# Youngs Moduli (GPa) = 82.99599 41.47156 88.79412
#
# Poissons Ratio (x) = 0.09212 0.27205
# Poissons Ratio (y) = 0.18436 0.40754
# Poissons Ratio (z) = 0.25429 0.19034
#
# Static dielectric constant tensor:
#      x y z
#    x 3.923010 -0.085640 0.000100 
#    y -0.085640 4.088300 -0.277710 
#    z 0.000100 -0.277710 4.354830 
# 
# 
# High freq. dielectric constant tensor:
#      x y z
#    x 1.888570 -0.000530 -0.002260 
#    y -0.000530 1.887840 -0.019370 
#    z -0.002260 -0.019370 1.902500 
# 
# From -- ./inp_files/173546.got.cif
#   From: 2010.06.25/outbox.cif.g09.slc.cpg/sg2_87_cif.got.tgz:173546.got - 2010.06.27 13:26:56.
