data_PCOD8016707
_publ_section_title
;
Structure prediction by ZEFSAII (Michael W. Deem and Ramdas Pophale) SiO2 
 PCOD8016707
Probable space group: P -1
;
_chemical_formula_sum "Si O2"
_cell_formula_units_Z 14
_cell_length_a 14.121579
_cell_length_b 11.661079
_cell_length_c 11.514935
_cell_angle_alpha 39.003055
_cell_angle_beta 48.983464
_cell_angle_gamma 32.153803
_cell_volume 635.109321
_symmetry_space_group_name_H-M "P -1"
_symmetry_group_IT_number 2
_symmetry_cell_setting 'triclinic'
loop_
_space_group_symop_operation_xyz
x,y,z
-x,-y,-z
loop_
_atom_site_type_symbol
_atom_site_label
_atom_site_fract_x
_atom_site_fract_y
_atom_site_fract_z
Si Si1 0.207784 0.766801 0.021439
Si Si2 0.859499 0.156208 0.733043
Si Si3 0.220646 0.983467 0.626375
Si Si4 0.756963 0.664895 0.763670
Si Si5 0.485475 0.502574 0.373393
Si Si6 0.942409 0.669162 0.026756
Si Si7 0.541608 0.064382 0.031418
O O1 0.255902 0.761908 0.119577
O O2 0.265112 0.504857 0.147893
O O3 0.288870 0.830098 0.815307
O O4 0.000000 0.000000 0.000000
O O5 0.709306 0.385215 0.585247
O O6 0.017600 0.136659 0.639843
O O7 0.948271 0.879592 0.830394
O O8 0.227649 0.195675 0.457531
O O9 0.350750 0.786126 0.574864
O O10 0.930656 0.501523 0.833017
O O11 0.583429 0.881308 0.809455
O O12 0.500000 0.500000 0.500000
O O13 0.496502 0.685419 0.158127
O O14 0.000000 0.500000 0.000000
O O15 0.742589 0.818493 0.103588
O O16 0.500000 0.000000 0.000000
#
# Coordination Sequence:
#
# PCOD8016707 Si02
#       7
#     2   2   2   2   2   2   2
#     4  10  21  46  71  95 138 175 226 279 329 402
#     4  10  24  46  67  99 133 181 221 277 342 385
#     4  11  24  42  70  99 134 177 223 278 331 401
#     4  12  23  43  67 100 135 176 223 275 338 393
#     4  11  24  42  66  98 136 175 227 274 334 403
#     4  11  22  40  68  96 131 180 221 271 339 395
#     4  11  22  39  65  95 136 178 220 276 334 397
#
# _framework density 22.043448000000001
#
# number of rings (size 3 to 8) (size 9 to 14) (size 15 to 20)
#    0.000    1.143    5.714    0.857    2.000    5.714 
#    0.000    0.714    0.000    0.000    0.000    0.000 
#    0.000    0.000    0.000    0.000    0.000    0.000 
#
# Total GULP energy -173581.974722 kJ/mol
# GULP energy per Si atom -12398.712480 kJ/mol
# Density = 2.199328 g / cm^3
# Si number density = 22.043448 Si / 1000 Ang^3
#
#
#
# Elastic Constant Matrix: (Units=GPa)
#
#
# Indices 1 2 3 4 5 6 
#
# 1 69.9894 32.9817 34.0220 -5.2408 8.4989 0.1207
# 2 32.9817 119.7948 40.6214 5.1392 5.4203 -2.9664
# 3 34.0220 40.6214 129.7416 4.1684 -6.3263 3.1616
# 4 -5.2408 5.1392 4.1684 20.4521 -0.5898 2.8904
# 5 8.4989 5.4203 -6.3263 -0.5898 35.7552 2.4502
# 6 0.1207 -2.9664 3.1616 2.8904 2.4502 45.7903
#
#
#
# Elastic Compliance Matrix: (Units=1/GPa)
#
#
# Indices 1 2 3 4 5 6 
#
# 1 0.019278 -0.003948 -0.004255 0.006693 -0.004613 -0.000188
# 2 -0.003948 0.010404 -0.002198 -0.003369 -0.001159 0.001111
# 3 -0.004255 -0.002198 0.009757 -0.002321 0.003089 -0.000824
# 4 0.006693 -0.003369 -0.002321 0.052393 -0.000396 -0.003362
# 5 -0.004613 -0.001159 0.003089 -0.000396 0.029907 -0.001852
# 6 -0.000188 0.001111 -0.000824 -0.003362 -0.001852 0.022279
#
#
# Mechanical properties :
#
#
# Convention : Reuss Voigt Hill
#
# Bulk Modulus (GPa) = 53.65194 59.41956 56.53575
# Shear Modulus (GPa) = 29.23438 34.52623 31.88030
#
# Velocity S-wave (km/s) = 3.64568 3.96192 3.80708
# Velocity P-wave (km/s) = 6.48948 6.92411 6.71031
#
# Compressibility (1/GPa) = 0.01863866
#
# Stress axis : x y z
#
# Youngs Moduli (GPa) = 51.87223 96.11485 102.49461
#
# Poissons Ratio (x) = 0.37946 0.43607
# Poissons Ratio (y) = 0.20479 0.22524
# Poissons Ratio (z) = 0.22069 0.21122
#
# Static dielectric constant tensor:
#      x y z
#    x 4.159600 0.145610 0.313330 
#    y 0.145610 4.311020 0.215600 
#    z 0.313330 0.215600 4.342600 
# 
# 
# High freq. dielectric constant tensor:
#      x y z
#    x 1.868330 0.001680 -0.000160 
#    y 0.001680 1.883060 -0.005180 
#    z -0.000160 -0.005180 1.854060 
# 
# From -- ./inp_files/425041.got.cif
#   From: 2010.06.25/outbox.cif.g09.slc.cpg/sg2_213_cif.got.tgz:425041.got - 2010.06.27 13:26:56.
