data_PCOD8016065
_publ_section_title
;
Structure prediction by ZEFSAII (Michael W. Deem and Ramdas Pophale) SiO2 
 PCOD8016065
Probable space group: P -1
;
_chemical_formula_sum "Si O2"
_cell_formula_units_Z 14
_cell_length_a 16.496408
_cell_length_b 9.079354
_cell_length_c 11.833942
_cell_angle_alpha 121.082055
_cell_angle_beta 47.058307
_cell_angle_gamma 149.396862
_cell_volume 648.760298
_symmetry_space_group_name_H-M "P -1"
_symmetry_group_IT_number 2
_symmetry_cell_setting 'triclinic'
loop_
_space_group_symop_operation_xyz
x,y,z
-x,-y,-z
loop_
_atom_site_type_symbol
_atom_site_label
_atom_site_fract_x
_atom_site_fract_y
_atom_site_fract_z
Si Si1 0.778000 0.214982 0.611373
Si Si2 0.119311 0.792406 0.066896
Si Si3 0.389646 0.322987 0.861146
Si Si4 0.436917 0.275195 0.552169
Si Si5 0.737075 0.381646 0.360269
Si Si6 0.576423 0.226179 0.683329
Si Si7 0.404573 0.063783 0.095594
O O1 0.671357 0.268834 0.724399
O O2 0.000000 0.500000 0.500000
O O3 0.713337 0.028499 0.490280
O O4 0.722187 0.057025 0.720608
O O5 0.961011 0.689290 0.252039
O O6 0.276918 0.900326 0.039256
O O7 0.000000 0.500000 0.000000
O O8 0.208129 0.049636 0.002500
O O9 0.339810 0.221069 0.737600
O O10 0.565895 0.421173 0.773797
O O11 0.444423 0.591667 0.927543
O O12 0.500000 0.500000 0.500000
O O13 0.632607 0.426431 0.451051
O O14 0.701402 0.298695 0.493295
O O15 0.644343 0.111856 0.263250
O O16 0.500000 0.000000 0.000000
#
# Coordination Sequence:
#
# PCOD8016065 Si02
#       7
#     2   2   2   2   2   2   2
#     4  11  23  41  69  99 136 169 225 282 331 393
#     4  12  25  42  70  99 133 176 234 269 326 412
#     4  11  23  45  70  94 133 180 224 274 336 410
#     4  10  21  43  69  97 134 175 221 274 344 393
#     4   9  19  37  67  97 126 172 221 269 320 402
#     4   9  18  39  69  92 128 174 218 267 338 386
#     4  12  28  47  65  96 142 182 216 281 352 393
#
# _framework density 21.579619000000001
#
# number of rings (size 3 to 8) (size 9 to 14) (size 15 to 20)
#    0.000    1.429    2.857    3.000    4.000    0.000 
#    5.143    3.571    0.000    0.000    0.000    0.000 
#    0.000    0.000    0.000    0.000    0.000    0.000 
#
# Total GULP energy -173532.753994 kJ/mol
# GULP energy per Si atom -12395.196714 kJ/mol
# Density = 2.153050 g / cm^3
# Si number density = 21.579619 Si / 1000 Ang^3
#
#
#
# Elastic Constant Matrix: (Units=GPa)
#
#
# Indices 1 2 3 4 5 6 
#
# 1 127.0047 71.5718 39.8635 -6.1426 13.9229 -16.8557
# 2 71.5718 125.9070 63.7884 -16.1224 -2.5600 -14.3694
# 3 39.8635 63.7884 77.5375 -17.5958 10.9750 -4.7763
# 4 -6.1426 -16.1224 -17.5958 43.9456 -4.0137 1.8535
# 5 13.9229 -2.5600 10.9750 -4.0137 42.1460 0.0050
# 6 -16.8557 -14.3694 -4.7763 1.8535 0.0050 38.2148
#
#
#
# Elastic Compliance Matrix: (Units=1/GPa)
#
#
# Indices 1 2 3 4 5 6 
#
# 1 0.012793 -0.007109 -0.000203 -0.001462 -0.004745 0.003016
# 2 -0.007109 0.018817 -0.012308 0.001508 0.006840 0.002327
# 3 -0.000203 -0.012308 0.025096 0.004966 -0.006742 -0.001821
# 4 -0.001462 0.001508 0.004966 0.025276 0.001689 -0.000683
# 5 -0.004745 0.006840 -0.006742 0.001689 0.027626 -0.000449
# 6 0.003016 0.002327 -0.001821 -0.000683 -0.000449 0.028179
#
#
# Mechanical properties :
#
#
# Convention : Reuss Voigt Hill
#
# Bulk Modulus (GPa) = 57.25424 75.65518 66.45471
# Shear Modulus (GPa) = 27.34499 35.20965 31.27732
#
# Velocity S-wave (km/s) = 3.56359 4.04371 3.81122
# Velocity P-wave (km/s) = 6.59708 7.54565 7.08725
#
# Compressibility (1/GPa) = 0.01746595
#
# Stress axis : x y z
#
# Youngs Moduli (GPa) = 78.16585 53.14449 39.84707
#
# Poissons Ratio (x) = 0.37779 0.00811
# Poissons Ratio (y) = 0.55566 0.49043
# Poissons Ratio (z) = 0.01590 0.65409
#
# Static dielectric constant tensor:
#      x y z
#    x 4.459420 0.116680 0.501950 
#    y 0.116680 3.634710 0.023350 
#    z 0.501950 0.023350 4.374460 
# 
# 
# High freq. dielectric constant tensor:
#      x y z
#    x 1.859810 -0.010620 0.019090 
#    y -0.010620 1.825600 -0.001700 
#    z 0.019090 -0.001700 1.857590 
# 
# From -- ./inp_files/242360.got.cif
#   From: 2010.06.25/outbox.cif.g09.slc.cpg/sg2_122_cif.got.tgz:242360.got - 2010.06.27 13:26:56.
