data_PCOD8016684
_publ_section_title
;
Structure prediction by ZEFSAII (Michael W. Deem and Ramdas Pophale) SiO2 
 PCOD8016684
Probable space group: P -1
;
_chemical_formula_sum "Si O2"
_cell_formula_units_Z 16
_cell_length_a 20.141693
_cell_length_b 10.708362
_cell_length_c 16.920373
_cell_angle_alpha 33.136309
_cell_angle_beta 159.413536
_cell_angle_gamma 145.931075
_cell_volume 682.425832
_symmetry_space_group_name_H-M "P -1"
_symmetry_group_IT_number 2
_symmetry_cell_setting 'triclinic'
loop_
_space_group_symop_operation_xyz
x,y,z
-x,-y,-z
loop_
_atom_site_type_symbol
_atom_site_label
_atom_site_fract_x
_atom_site_fract_y
_atom_site_fract_z
Si Si1 0.787564 0.252751 0.481904
Si Si2 0.267795 0.250045 0.124737
Si Si3 0.915713 0.761362 0.307266
Si Si4 0.739959 0.272246 0.184394
Si Si5 0.100369 0.735557 0.216078
Si Si6 0.626440 0.095304 0.821920
Si Si7 0.658221 0.439496 0.536700
Si Si8 0.553968 0.169431 0.871805
O O1 0.778660 0.497420 0.298608
O O2 0.831256 0.284771 0.606565
O O3 0.587994 0.061147 0.350341
O O4 0.963958 0.174297 0.674452
O O5 0.481830 0.270907 0.383646
O O6 0.196742 0.988663 0.149562
O O7 0.262069 0.453588 0.945253
O O8 0.130876 0.287537 0.026770
O O9 0.065531 0.785403 0.535112
O O10 0.783161 0.941488 0.074527
O O11 0.547889 0.107740 0.095298
O O12 0.725782 0.232193 0.094699
O O13 0.156101 0.537790 0.326972
O O14 0.691669 0.314015 0.720788
O O15 0.642660 0.227282 0.854025
O O16 0.614432 0.692181 0.370145
#
# Coordination Sequence:
#
# PCOD8016684 Si02
#       8
#     2   2   2   2   2   2   2   2
#     4  11  24  43  66 104 142 165 214 278 336 402
#     4  10  22  40  67  98 132 164 218 274 326 391
#     4  11  25  42  66 104 135 171 218 271 339 395
#     4  10  21  46  68  94 131 177 221 276 319 390
#     4  11  23  40  69 103 130 175 214 273 337 390
#     4  12  25  43  67  99 133 181 216 271 335 389
#     4  11  25  43  66  98 132 177 223 269 326 389
#     4  10  24  47  69  92 135 178 227 275 315 388
#
# _framework density 23.445771000000001
#
# number of rings (size 3 to 8) (size 9 to 14) (size 15 to 20)
#    0.000    1.250    3.750    1.125    3.500    3.500 
#    6.750    0.625    0.000    0.000    0.000    0.000 
#    0.000    0.000    0.000    0.000    0.000    0.000 
#
# Total GULP energy -198336.218356 kJ/mol
# GULP energy per Si atom -12396.013647 kJ/mol
# Density = 2.339241 g / cm^3
# Si number density = 23.445771 Si / 1000 Ang^3
#
#
#
# Elastic Constant Matrix: (Units=GPa)
#
#
# Indices 1 2 3 4 5 6 
#
# 1 149.2870 5.5498 34.7997 -13.8344 5.4644 0.7843
# 2 5.5498 60.1917 -1.1325 -18.4574 -0.7336 12.2836
# 3 34.7997 -1.1325 71.4605 -12.2823 9.2007 4.1252
# 4 -13.8344 -18.4574 -12.2823 34.0522 -5.4964 0.3709
# 5 5.4644 -0.7336 9.2007 -5.4964 39.6494 -8.8939
# 6 0.7843 12.2836 4.1252 0.3709 -8.8939 23.4558
#
#
#
# Elastic Compliance Matrix: (Units=1/GPa)
#
#
# Indices 1 2 3 4 5 6 
#
# 1 0.007677 -0.000381 -0.003506 0.001659 0.000107 0.000574
# 2 -0.000381 0.023910 0.004017 0.014144 -0.001630 -0.014057
# 3 -0.003506 0.004017 0.017830 0.006581 -0.004197 -0.006818
# 4 0.001659 0.014144 0.006581 0.040534 0.002238 -0.008412
# 5 0.000107 -0.001630 -0.004197 0.002238 0.029301 0.012663
# 6 0.000574 -0.014057 -0.006818 -0.008412 0.012663 0.056109
#
#
# Mechanical properties :
#
#
# Convention : Reuss Voigt Hill
#
# Bulk Modulus (GPa) = 20.13045 39.93035 30.03040
# Shear Modulus (GPa) = 26.08786 35.54630 30.81708
#
# Velocity S-wave (km/s) = 3.33932 3.89795 3.62940
# Velocity P-wave (km/s) = 4.84486 6.10955 5.51358
#
# Compressibility (1/GPa) = 0.04967600
#
# Stress axis : x y z
#
# Youngs Moduli (GPa) = 130.26286 41.82290 56.08570
#
# Poissons Ratio (x) = 0.01593 0.19665
# Poissons Ratio (y) = 0.04963 -0.22528
# Poissons Ratio (z) = 0.45674 -0.16799
#
# Static dielectric constant tensor:
#      x y z
#    x 4.219770 0.156730 -0.132150 
#    y 0.156730 4.367570 -0.065360 
#    z -0.132150 -0.065360 4.217740 
# 
# 
# High freq. dielectric constant tensor:
#      x y z
#    x 1.922030 0.012730 -0.011260 
#    y 0.012730 1.926870 -0.006570 
#    z -0.011260 -0.006570 1.928430 
# 
# From -- ./inp_files/278885.got.cif
#   From: 2010.06.25/outbox.cif.g09.slc.cpg/sg2_140_cif.got.tgz:278885.got - 2010.06.27 13:26:56.
