data_PCOD8016942
_publ_section_title
;
Structure prediction by ZEFSAII (Michael W. Deem and Ramdas Pophale) SiO2 
 PCOD8016942
Probable space group: P -1
;
_chemical_formula_sum "Si O2"
_cell_formula_units_Z 16
_cell_length_a 13.385116
_cell_length_b 5.111413
_cell_length_c 22.089097
_cell_angle_alpha 108.335860
_cell_angle_beta 146.934694
_cell_angle_gamma 60.313095
_cell_volume 700.037825
_symmetry_space_group_name_H-M "P -1"
_symmetry_group_IT_number 2
_symmetry_cell_setting 'triclinic'
loop_
_space_group_symop_operation_xyz
x,y,z
-x,-y,-z
loop_
_atom_site_type_symbol
_atom_site_label
_atom_site_fract_x
_atom_site_fract_y
_atom_site_fract_z
Si Si1 0.382778 0.811189 0.718029
Si Si2 0.234914 0.860397 0.989537
Si Si3 0.673000 0.552162 0.224054
Si Si4 0.699349 0.382774 0.462764
Si Si5 0.982462 0.517639 0.847512
Si Si6 0.333364 0.660480 0.376218
Si Si7 0.195901 0.226067 0.104610
Si Si8 0.885819 0.838251 0.613713
O O1 0.370095 0.609545 0.752033
O O2 0.270813 0.755606 0.599212
O O3 0.616056 0.703541 0.810420
O O4 0.278289 0.171039 0.708599
O O5 0.121762 0.657035 0.896777
O O6 0.135147 0.187600 0.929065
O O7 0.479377 0.676081 0.088139
O O8 0.219835 0.916455 0.059541
O O9 0.868212 0.309195 0.268611
O O10 0.457570 0.603051 0.371917
O O11 0.819334 0.584526 0.541061
O O12 0.802704 0.106339 0.541703
O O13 0.830990 0.477938 0.719619
O O14 0.834884 0.777612 0.839227
O O15 0.500000 0.500000 0.500000
O O16 0.207197 0.020825 0.357059
O O17 0.000000 0.500000 0.000000
#
# Coordination Sequence:
#
# PCOD8016942 Si02
#       8
#     2   2   2   2   2   2   2   2
#     4  11  22  37  63  91 129 162 205 262 313 375
#     4  10  22  37  60  92 130 159 203 252 311 382
#     4  11  23  41  60  92 131 166 203 253 315 377
#     4  11  23  42  64  95 120 161 216 266 314 365
#     4  11  21  38  64  92 122 164 207 254 316 367
#     4  10  24  46  66  94 126 164 217 265 308 362
#     4   9  18  35  56  91 124 159 193 249 314 369
#     4  11  25  42  65  85 126 173 209 259 310 362
#
# _framework density 22.855906999999998
#
# number of rings (size 3 to 8) (size 9 to 14) (size 15 to 20)
#    0.000    1.500    1.250    4.500    0.000   10.000 
#    0.000    1.250    0.000    0.000    0.000    0.000 
#    0.000    0.000    0.000    0.000    0.000    0.000 
#
# Total GULP energy -198329.733276 kJ/mol
# GULP energy per Si atom -12395.608330 kJ/mol
# Density = 2.280389 g / cm^3
# Si number density = 22.855907 Si / 1000 Ang^3
#
#
#
# Elastic Constant Matrix: (Units=GPa)
#
#
# Indices 1 2 3 4 5 6 
#
# 1 40.1388 31.6380 21.0870 -11.7226 10.5699 5.0966
# 2 31.6380 105.9725 54.2647 -6.8701 13.3921 8.6759
# 3 21.0870 54.2647 126.9545 9.1428 24.9191 -10.7511
# 4 -11.7226 -6.8701 9.1428 43.4235 -4.5943 13.5296
# 5 10.5699 13.3921 24.9191 -4.5943 27.1928 -3.8915
# 6 5.0966 8.6759 -10.7511 13.5296 -3.8915 45.4020
#
#
#
# Elastic Compliance Matrix: (Units=1/GPa)
#
#
# Indices 1 2 3 4 5 6 
#
# 1 0.039020 -0.007650 -0.003216 0.011625 -0.007604 -0.007796
# 2 -0.007650 0.015228 -0.005990 0.003036 0.000861 -0.004301
# 3 -0.003216 -0.005990 0.013781 -0.007607 -0.008815 0.006280
# 4 0.011625 0.003036 -0.007607 0.032811 0.004630 -0.013067
# 5 -0.007604 0.000861 -0.008815 0.004630 0.048362 0.001367
# 6 -0.007796 -0.004301 0.006280 -0.013067 0.001367 0.029221
#
#
# Mechanical properties :
#
#
# Convention : Reuss Voigt Hill
#
# Bulk Modulus (GPa) = 29.13980 54.11612 41.62796
# Shear Modulus (GPa) = 22.36390 34.27539 28.31964
#
# Velocity S-wave (km/s) = 3.13145 3.87671 3.52384
# Velocity P-wave (km/s) = 5.08445 6.61566 5.89994
#
# Compressibility (1/GPa) = 0.03431733
#
# Stress axis : x y z
#
# Youngs Moduli (GPa) = 25.62762 65.67005 72.56150
#
# Poissons Ratio (x) = 0.50235 0.23339
# Poissons Ratio (y) = 0.19604 0.43465
# Poissons Ratio (z) = 0.08243 0.39337
#
# Static dielectric constant tensor:
#      x y z
#    x 4.315640 -0.692350 0.182590 
#    y -0.692350 4.707980 0.075640 
#    z 0.182590 0.075640 4.240490 
# 
# 
# High freq. dielectric constant tensor:
#      x y z
#    x 1.878690 -0.003140 0.016840 
#    y -0.003140 1.909220 0.001200 
#    z 0.016840 0.001200 1.911960 
# 
# From -- ./inp_files/611205.got.cif
#   From: 2010.06.25/outbox.cif.g09.slc.cpg/sg2_306_cif.got.tgz:611205.got - 2010.06.27 13:26:56.
