data_PCOD8016354
_publ_section_title
;
Structure prediction by ZEFSAII (Michael W. Deem and Ramdas Pophale) SiO2 
 PCOD8016354
Probable space group: P -1
;
_chemical_formula_sum "Si O2"
_cell_formula_units_Z 16
_cell_length_a 12.252506
_cell_length_b 15.967557
_cell_length_c 9.111496
_cell_angle_alpha 89.179066
_cell_angle_beta 98.337380
_cell_angle_gamma 153.310109
_cell_volume 765.121273
_symmetry_space_group_name_H-M "P -1"
_symmetry_group_IT_number 2
_symmetry_cell_setting 'triclinic'
loop_
_space_group_symop_operation_xyz
x,y,z
-x,-y,-z
loop_
_atom_site_type_symbol
_atom_site_label
_atom_site_fract_x
_atom_site_fract_y
_atom_site_fract_z
Si Si1 0.267702 0.203535 0.687780
Si Si2 0.031089 0.360761 0.782593
Si Si3 0.920474 0.023893 0.083069
Si Si4 0.691594 0.575451 0.946569
Si Si5 0.759388 0.934896 0.567654
Si Si6 0.492432 0.788114 0.811756
Si Si7 0.718376 0.091064 0.472818
Si Si8 0.490020 0.005208 0.170747
O O1 0.534144 0.411999 0.805482
O O2 0.332024 0.206309 0.544014
O O3 0.114686 0.029130 0.755990
O O4 0.068943 0.145167 0.636170
O O5 0.206392 0.561351 0.787312
O O6 0.974373 0.284731 0.610599
O O7 0.774748 0.215185 0.817724
O O8 0.158345 0.377785 0.908815
O O9 0.121506 0.236670 0.111762
O O10 0.648560 0.873280 0.985088
O O11 0.000000 0.000000 0.000000
O O12 0.500000 0.500000 0.000000
O O13 0.628515 0.833879 0.702556
O O14 0.661056 0.953479 0.476185
O O15 0.494273 0.887794 0.780708
O O16 0.500000 0.000000 0.500000
O O17 0.723358 0.117728 0.298394
O O18 0.500000 0.000000 0.000000
#
# Coordination Sequence:
#
# PCOD8016354 Si02
#       8
#     2   2   2   2   2   2   2   2
#     4  11  25  41  64 102 136 181 220 276 327 394
#     4  11  23  41  69  97 126 177 221 266 337 400
#     4  12  21  38  67  93 130 176 217 267 330 390
#     4  12  21  38  68  98 133 173 226 266 326 400
#     4  11  23  45  64  94 144 174 224 276 329 394
#     4  12  22  43  67  92 132 175 220 269 334 402
#     4  10  21  44  68  91 128 178 220 272 332 389
#     4  11  26  46  68  97 129 169 224 285 333 385
#
# _framework density 20.911718
#
# number of rings (size 3 to 8) (size 9 to 14) (size 15 to 20)
#    0.000    0.750    7.500    0.750    1.750    1.000 
#    4.500    1.250    0.000    0.000    0.000    0.000 
#    0.000    0.000    0.000    0.000    0.000    0.000 
#
# Total GULP energy -198379.576591 kJ/mol
# GULP energy per Si atom -12398.723537 kJ/mol
# Density = 2.086412 g / cm^3
# Si number density = 20.911718 Si / 1000 Ang^3
#
#
#
# Elastic Constant Matrix: (Units=GPa)
#
#
# Indices 1 2 3 4 5 6 
#
# 1 86.9074 33.0820 39.1445 0.8835 11.1013 -3.7936
# 2 33.0820 127.7534 41.8366 15.8966 -8.3023 -5.1721
# 3 39.1445 41.8366 147.6750 9.8482 5.6980 2.5770
# 4 0.8835 15.8966 9.8482 33.6417 5.0100 1.6358
# 5 11.1013 -8.3023 5.6980 5.0100 41.2622 -4.4019
# 6 -3.7936 -5.1721 2.5770 1.6358 -4.4019 20.8070
#
#
#
# Elastic Compliance Matrix: (Units=1/GPa)
#
#
# Indices 1 2 3 4 5 6 
#
# 1 0.014734 -0.003432 -0.002960 0.002716 -0.004464 0.001042
# 2 -0.003432 0.010395 -0.001923 -0.005065 0.004269 0.003498
# 3 -0.002960 -0.001923 0.008250 -0.001205 -0.000809 -0.002116
# 4 0.002716 -0.005065 -0.001205 0.033535 -0.006140 -0.004550
# 5 -0.004464 0.004269 -0.000809 -0.006140 0.027870 0.006726
# 6 0.001042 0.003498 -0.002116 -0.004550 0.006726 0.051163
#
#
# Mechanical properties :
#
#
# Convention : Reuss Voigt Hill
#
# Bulk Modulus (GPa) = 59.70765 65.60689 62.65727
# Shear Modulus (GPa) = 29.73323 35.69369 32.71346
#
# Velocity S-wave (km/s) = 3.77483 4.13592 3.95949
# Velocity P-wave (km/s) = 6.90024 7.36540 7.13661
#
# Compressibility (1/GPa) = 0.01674827
#
# Stress axis : x y z
#
# Youngs Moduli (GPa) = 67.86811 96.19709 121.21579
#
# Poissons Ratio (x) = 0.33014 0.35885
# Poissons Ratio (y) = 0.23291 0.23314
# Poissons Ratio (z) = 0.20092 0.18502
#
# Static dielectric constant tensor:
#      x y z
#    x 3.783240 0.021650 0.331730 
#    y 0.021650 3.851000 0.222910 
#    z 0.331730 0.222910 4.533910 
# 
# 
# High freq. dielectric constant tensor:
#      x y z
#    x 1.816890 -0.006330 0.016390 
#    y -0.006330 1.801530 0.002750 
#    z 0.016390 0.002750 1.837170 
# 
# From -- ./inp_files/273216.got.cif
#   From: 2010.06.25/outbox.cif.g09.slc.cpg/sg2_137_cif.got.tgz:273216.got - 2010.06.27 13:26:56.
