data_PCOD8016779
_publ_section_title
;
Structure prediction by ZEFSAII (Michael W. Deem and Ramdas Pophale) SiO2 
 PCOD8016779
Probable space group: P -1
;
_chemical_formula_sum "Si O2"
_cell_formula_units_Z 14
_cell_length_a 7.680543
_cell_length_b 13.175053
_cell_length_c 6.984181
_cell_angle_alpha 67.252062
_cell_angle_beta 121.182022
_cell_angle_gamma 96.034225
_cell_volume 553.539490
_symmetry_space_group_name_H-M "P -1"
_symmetry_group_IT_number 2
_symmetry_cell_setting 'triclinic'
loop_
_space_group_symop_operation_xyz
x,y,z
-x,-y,-z
loop_
_atom_site_type_symbol
_atom_site_label
_atom_site_fract_x
_atom_site_fract_y
_atom_site_fract_z
Si Si1 0.630826 0.124234 0.650666
Si Si2 0.996566 0.348455 0.968071
Si Si3 0.174392 0.417646 0.399885
Si Si4 0.813663 0.771622 0.188174
Si Si5 0.075299 0.991273 0.831101
Si Si6 0.563233 0.292899 0.804391
Si Si7 0.323884 0.954220 0.649641
O O1 0.568406 0.238219 0.636454
O O2 0.609993 0.144787 0.395024
O O3 0.505148 0.028336 0.726419
O O4 0.870253 0.072676 0.885069
O O5 0.932312 0.457706 0.721544
O O6 0.109180 0.250456 0.970369
O O7 0.791638 0.312810 0.980682
O O8 0.151205 0.377936 0.197048
O O9 0.077513 0.330620 0.547527
O O10 0.417195 0.408797 0.599564
O O11 0.878217 0.881825 0.238760
O O12 0.560190 0.777791 0.059121
O O13 0.858882 0.972394 0.628062
O O14 0.242377 0.919151 0.835180
#
# Coordination Sequence:
#
# PCOD8016779 Si02
#       7
#     2   2   2   2   2   2   2
#     4  11  22  39  56  85 121 156 195 238 287 345
#     4  11  21  44  67  82 123 162 182 257 315 331
#     4   9  23  43  61  94 118 147 209 242 293 377
#     4  10  23  40  60  94 121 150 207 245 285 365
#     4  11  22  39  56  85 121 156 195 238 287 345
#     4  10  23  40  60  94 121 150 207 245 285 365
#     4  10  22  35  58  80 115 161 196 237 283 336
#
# _framework density 25.291782000000001
#
# number of rings (size 3 to 8) (size 9 to 14) (size 15 to 20)
#    0.857    0.857    1.429    2.571    0.000    6.857 
#    2.571    1.429    0.000    0.000    0.000    0.000 
#    0.000    0.000    0.000    0.000    0.000    0.000 
#
# Total GULP energy -173453.898176 kJ/mol
# GULP energy per Si atom -12389.564155 kJ/mol
# Density = 2.523422 g / cm^3
# Si number density = 25.291782 Si / 1000 Ang^3
#
#
#
# Elastic Constant Matrix: (Units=GPa)
#
#
# Indices 1 2 3 4 5 6 
#
# 1 114.4311 8.4953 17.6425 9.4828 11.6182 2.0572
# 2 8.4953 64.8501 -3.2887 7.5798 -2.4643 -8.6921
# 3 17.6425 -3.2887 35.7646 9.3194 -1.0017 1.0771
# 4 9.4828 7.5798 9.3194 23.4524 1.1889 -3.1630
# 5 11.6182 -2.4643 -1.0017 1.1889 42.9261 3.3087
# 6 2.0572 -8.6921 1.0771 -3.1630 3.3087 38.4462
#
#
#
# Elastic Compliance Matrix: (Units=1/GPa)
#
#
# Indices 1 2 3 4 5 6 
#
# 1 0.010014 -0.001556 -0.004722 -0.001614 -0.002815 -0.000646
# 2 -0.001556 0.017007 0.003847 -0.006036 0.001408 0.003203
# 3 -0.004722 0.003847 0.034201 -0.013221 0.002752 -0.001160
# 4 -0.001614 -0.006036 -0.013221 0.051059 -0.001899 0.003456
# 5 -0.002815 0.001408 0.002752 -0.001899 0.024399 -0.001864
# 6 -0.000646 0.003203 -0.001160 0.003456 -0.001864 0.027246
#
#
# Mechanical properties :
#
#
# Convention : Reuss Voigt Hill
#
# Bulk Modulus (GPa) = 17.74283 28.97157 23.35720
# Shear Modulus (GPa) = 26.65619 33.77805 30.21712
#
# Velocity S-wave (km/s) = 3.24998 3.65846 3.46025
# Velocity P-wave (km/s) = 4.59496 5.41531 5.02191
#
# Compressibility (1/GPa) = 0.05636080
#
# Stress axis : x y z
#
# Youngs Moduli (GPa) = 99.86457 58.79794 29.23929
#
# Poissons Ratio (x) = 0.09150 0.13805
# Poissons Ratio (y) = 0.15540 -0.11249
# Poissons Ratio (z) = 0.47151 -0.22621
#
# Static dielectric constant tensor:
#      x y z
#    x 5.046420 -0.286640 0.181090 
#    y -0.286640 4.287190 0.105470 
#    z 0.181090 0.105470 4.441660 
# 
# 
# High freq. dielectric constant tensor:
#      x y z
#    x 2.028200 -0.018020 0.009570 
#    y -0.018020 1.990610 0.004060 
#    z 0.009570 0.004060 2.012280 
# 
# From -- ./inp_files/176954.got.cif
#   From: 2010.06.25/outbox.cif.g09.slc.cpg/sg2_89_cif.got.tgz:176954.got - 2010.06.27 13:26:56.
