data_PCOD8016264
_publ_section_title
;
Structure prediction by ZEFSAII (Michael W. Deem and Ramdas Pophale) SiO2 
 PCOD8016264
Probable space group: P -1
;
_chemical_formula_sum "Si O2"
_cell_formula_units_Z 16
_cell_length_a 6.797632
_cell_length_b 13.449296
_cell_length_c 12.105362
_cell_angle_alpha 115.627508
_cell_angle_beta 113.634605
_cell_angle_gamma 104.586881
_cell_volume 783.688623
_symmetry_space_group_name_H-M "P -1"
_symmetry_group_IT_number 2
_symmetry_cell_setting 'triclinic'
loop_
_space_group_symop_operation_xyz
x,y,z
-x,-y,-z
loop_
_atom_site_type_symbol
_atom_site_label
_atom_site_fract_x
_atom_site_fract_y
_atom_site_fract_z
Si Si1 0.340349 0.095161 0.788680
Si Si2 0.731644 0.375905 0.396947
Si Si3 0.338812 0.416085 0.199728
Si Si4 0.853442 0.195213 0.047887
Si Si5 0.110443 0.824837 0.711656
Si Si6 0.533992 0.683903 0.460810
Si Si7 0.445071 0.864837 0.378705
Si Si8 0.047903 0.213345 0.877440
O O1 0.381968 0.115990 0.677810
O O2 0.138152 0.132750 0.791722
O O3 0.230968 0.945875 0.716596
O O4 0.588890 0.184173 0.959397
O O5 0.536347 0.380731 0.273282
O O6 0.742267 0.249602 0.311148
O O7 0.641667 0.371280 0.499026
O O8 0.000000 0.500000 0.500000
O O9 0.080040 0.344844 0.179785
O O10 0.447084 0.567967 0.297707
O O11 0.268213 0.358519 0.030563
O O12 0.844601 0.125397 0.126868
O O13 0.916048 0.135038 0.925255
O O14 0.818055 0.733344 0.579650
O O15 0.509470 0.797079 0.456970
O O16 0.153670 0.775993 0.237711
O O17 0.500000 0.000000 0.500000
#
# Coordination Sequence:
#
# PCOD8016264 Si02
#       8
#     2   2   2   2   2   2   2   2
#     4  11  23  43  66  94 126 173 218 255 319 376
#     4  12  23  40  67  99 134 162 208 262 324 386
#     4  10  21  44  65  93 131 164 207 262 327 374
#     4   9  21  40  63  93 134 162 205 267 321 375
#     4  12  23  37  66 101 129 169 212 258 319 389
#     4  12  24  41  65  96 130 172 210 262 322 372
#     4  11  25  45  64  91 130 169 217 270 311 369
#     4   9  22  42  64  87 129 168 209 269 308 365
#
# _framework density 20.416271999999999
#
# number of rings (size 3 to 8) (size 9 to 14) (size 15 to 20)
#    0.750    0.500    2.500    3.750    0.000    5.000 
#    0.000    0.625    0.000    0.000    0.000    0.000 
#    0.000    0.000    0.000    0.000    0.000    0.000 
#
# Total GULP energy -198350.530796 kJ/mol
# GULP energy per Si atom -12396.908175 kJ/mol
# Density = 2.036980 g / cm^3
# Si number density = 20.416272 Si / 1000 Ang^3
#
#
#
# Elastic Constant Matrix: (Units=GPa)
#
#
# Indices 1 2 3 4 5 6 
#
# 1 107.3836 31.4669 30.6011 4.5011 -1.4541 -9.6160
# 2 31.4669 65.6287 19.8569 5.0891 3.6750 -10.0173
# 3 30.6011 19.8569 92.2257 -4.0490 -2.4024 -2.7903
# 4 4.5011 5.0891 -4.0490 24.4470 -1.3464 0.7313
# 5 -1.4541 3.6750 -2.4024 -1.3464 25.2729 12.2304
# 6 -9.6160 -10.0173 -2.7903 0.7313 12.2304 30.2855
#
#
#
# Elastic Compliance Matrix: (Units=1/GPa)
#
#
# Indices 1 2 3 4 5 6 
#
# 1 0.011663 -0.004215 -0.002982 -0.001834 -0.000128 0.002130
# 2 -0.004215 0.020267 -0.003119 -0.004636 -0.007761 0.008324
# 3 -0.002982 -0.003119 0.012667 0.003499 0.002617 -0.001953
# 4 -0.001834 -0.004636 0.003499 0.043254 0.005691 -0.005136
# 5 -0.000128 -0.007761 0.002617 0.005691 0.052765 -0.023812
# 6 0.002130 0.008324 -0.001953 -0.005136 -0.023812 0.046009
#
#
# Mechanical properties :
#
#
# Convention : Reuss Voigt Hill
#
# Bulk Modulus (GPa) = 41.72824 47.67642 44.70233
# Shear Modulus (GPa) = 23.22941 28.22196 25.72568
#
# Velocity S-wave (km/s) = 3.37677 3.72200 3.55358
# Velocity P-wave (km/s) = 5.97382 6.47100 6.22738
#
# Compressibility (1/GPa) = 0.02396459
#
# Stress axis : x y z
#
# Youngs Moduli (GPa) = 85.73898 49.34233 78.94833
#
# Poissons Ratio (x) = 0.20800 0.23541
# Poissons Ratio (y) = 0.36143 0.24622
# Poissons Ratio (z) = 0.25565 0.15388
#
# Static dielectric constant tensor:
#      x y z
#    x 3.798200 0.132140 0.140520 
#    y 0.132140 3.458400 0.015550 
#    z 0.140520 0.015550 3.844560 
# 
# 
# High freq. dielectric constant tensor:
#      x y z
#    x 1.807720 0.006040 0.010070 
#    y 0.006040 1.772380 0.000480 
#    z 0.010070 0.000480 1.813620 
# 
# From -- ./inp_files/367028.got.cif
#   From: 2010.06.25/outbox.cif.g09.slc.cpg/sg2_184_cif.got.tgz:367028.got - 2010.06.27 13:26:56.
