data_PCOD8016285
_publ_section_title
;
Structure prediction by ZEFSAII (Michael W. Deem and Ramdas Pophale) SiO2 
 PCOD8016285
Probable space group: P -1
;
_chemical_formula_sum "Si O2"
_cell_formula_units_Z 16
_cell_length_a 7.280385
_cell_length_b 13.334552
_cell_length_c 9.057758
_cell_angle_alpha 107.421636
_cell_angle_beta 112.825968
_cell_angle_gamma 75.544773
_cell_volume 764.332921
_symmetry_space_group_name_H-M "P -1"
_symmetry_group_IT_number 2
_symmetry_cell_setting 'triclinic'
loop_
_space_group_symop_operation_xyz
x,y,z
-x,-y,-z
loop_
_atom_site_type_symbol
_atom_site_label
_atom_site_fract_x
_atom_site_fract_y
_atom_site_fract_z
Si Si1 0.965677 0.728845 0.656723
Si Si2 0.151638 0.083168 0.084581
Si Si3 0.383518 0.358997 0.914166
Si Si4 0.293584 0.549950 0.780370
Si Si5 0.797197 0.201269 0.516095
Si Si6 0.825347 0.832510 0.190736
Si Si7 0.559910 0.658019 0.396647
Si Si8 0.445221 0.990985 0.648449
O O1 0.956414 0.810496 0.823929
O O2 0.742421 0.715494 0.534195
O O3 0.081650 0.615634 0.696784
O O4 0.078739 0.773158 0.575521
O O5 0.352462 0.031762 0.205758
O O6 0.208425 0.107848 0.947442
O O7 0.000000 0.000000 0.000000
O O8 0.264531 0.476617 0.883636
O O9 0.228373 0.286267 0.896755
O O10 0.488805 0.306618 0.773672
O O11 0.549257 0.369610 0.096203
O O12 0.380288 0.470947 0.637710
O O13 0.633733 0.304542 0.546711
O O14 0.689579 0.100480 0.404692
O O15 0.944049 0.175242 0.689805
O O16 0.679651 0.897080 0.293697
O O17 0.500000 0.000000 0.500000
#
# Coordination Sequence:
#
# PCOD8016285 Si02
#       8
#     2   2   2   2   2   2   2   2
#     4  12  24  44  70 101 139 180 226 280 337 401
#     4  12  28  45  65 105 139 176 226 284 338 406
#     4   9  21  43  65 102 133 179 221 276 340 395
#     4   9  22  40  72  95 144 178 218 287 338 397
#     4  12  24  43  70 101 133 180 228 276 338 409
#     4  12  25  42  72  98 137 182 225 276 342 410
#     4  10  21  44  65  98 138 175 232 272 338 391
#     4  12  25  46  71 100 137 177 225 283 342 406
#
# _framework density 20.933285000000001
#
# number of rings (size 3 to 8) (size 9 to 14) (size 15 to 20)
#    0.750    0.250    2.500    4.125    5.250    0.500 
#    0.000    3.750    0.000    0.000    0.000    0.000 
#    0.000    0.000    0.000    0.000    0.000    0.000 
#
# Total GULP energy -198414.799385 kJ/mol
# GULP energy per Si atom -12400.924962 kJ/mol
# Density = 2.088564 g / cm^3
# Si number density = 20.933285 Si / 1000 Ang^3
#
#
#
# Elastic Constant Matrix: (Units=GPa)
#
#
# Indices 1 2 3 4 5 6 
#
# 1 119.8047 51.4293 61.5515 0.2402 13.6605 -8.8671
# 2 51.4293 100.4771 42.2205 9.0546 11.2868 -9.2631
# 3 61.5515 42.2205 112.7316 9.3070 7.6762 6.0991
# 4 0.2402 9.0546 9.3070 40.2441 2.4061 -1.5507
# 5 13.6605 11.2868 7.6762 2.4061 40.9969 7.7152
# 6 -8.8671 -9.2631 6.0991 -1.5507 7.7152 35.2028
#
#
#
# Elastic Compliance Matrix: (Units=1/GPa)
#
#
# Indices 1 2 3 4 5 6 
#
# 1 0.014054 -0.003938 -0.006430 0.002665 -0.003394 0.004479
# 2 -0.003938 0.014029 -0.002951 -0.002156 -0.002563 0.003678
# 3 -0.006430 -0.002951 0.013900 -0.002805 0.001506 -0.005258
# 4 0.002665 -0.002156 -0.002805 0.026149 -0.001702 0.002115
# 5 -0.003394 -0.002563 0.001506 -0.001702 0.027533 -0.007900
# 6 0.004479 0.003678 -0.005258 0.002115 -0.007900 0.033238
#
#
# Mechanical properties :
#
#
# Convention : Reuss Voigt Hill
#
# Bulk Modulus (GPa) = 65.16151 71.49065 68.32608
# Shear Modulus (GPa) = 31.12240 35.14290 33.13265
#
# Velocity S-wave (km/s) = 3.86001 4.10177 3.98272
# Velocity P-wave (km/s) = 7.14577 7.52718 7.33895
#
# Compressibility (1/GPa) = 0.01534648
#
# Stress axis : x y z
#
# Youngs Moduli (GPa) = 71.15478 71.28015 71.94249
#
# Poissons Ratio (x) = 0.28067 0.46258
# Poissons Ratio (y) = 0.28017 0.21229
# Poissons Ratio (z) = 0.45752 0.21033
#
# Static dielectric constant tensor:
#      x y z
#    x 2.841880 -0.095300 0.089960 
#    y -0.095300 3.873790 0.099100 
#    z 0.089960 0.099100 3.924420 
# 
# 
# High freq. dielectric constant tensor:
#      x y z
#    x 1.812230 0.000230 0.013420 
#    y 0.000230 1.826150 0.007890 
#    z 0.013420 0.007890 1.830960 
# 
# From -- ./inp_files/135742.got.cif
#   From: 2010.06.25/outbox.cif.g09.slc.cpg/sg2_68_cif.got.tgz:135742.got - 2010.06.27 13:26:56.
