data_PCOD8016503
_publ_section_title
;
Structure prediction by ZEFSAII (Michael W. Deem and Ramdas Pophale) SiO2 
 PCOD8016503
Probable space group: P -1
;
_chemical_formula_sum "Si O2"
_cell_formula_units_Z 14
_cell_length_a 11.435554
_cell_length_b 8.779046
_cell_length_c 17.597075
_cell_angle_alpha 62.407018
_cell_angle_beta 151.812317
_cell_angle_gamma 129.896896
_cell_volume 614.256535
_symmetry_space_group_name_H-M "P -1"
_symmetry_group_IT_number 2
_symmetry_cell_setting 'triclinic'
loop_
_space_group_symop_operation_xyz
x,y,z
-x,-y,-z
loop_
_atom_site_type_symbol
_atom_site_label
_atom_site_fract_x
_atom_site_fract_y
_atom_site_fract_z
Si Si1 0.666076 0.109262 0.949907
Si Si2 0.790178 0.891276 0.751157
Si Si3 0.725337 0.640929 0.031862
Si Si4 0.707297 0.961273 0.378677
Si Si5 0.300225 0.257255 0.430204
Si Si6 0.333242 0.680487 0.672483
Si Si7 0.256335 0.728065 0.887628
O O1 0.557032 0.175804 0.800237
O O2 0.497607 0.858339 0.927779
O O3 0.593575 0.198140 0.960594
O O4 0.012592 0.205956 0.108836
O O5 0.658590 0.837146 0.602273
O O6 0.515308 0.779961 0.676469
O O7 0.004355 0.133395 0.839255
O O8 0.531194 0.630537 0.850520
O O9 0.500000 0.500000 0.000000
O O10 0.884499 0.516886 0.136437
O O11 0.723132 0.170794 0.346816
O O12 0.622977 0.846645 0.436337
O O13 0.000000 0.000000 0.500000
O O14 0.500000 0.500000 0.500000
O O15 0.969206 0.199778 0.264081
O O16 0.000000 0.500000 0.500000
#
# Coordination Sequence:
#
# PCOD8016503 Si02
#       7
#     2   2   2   2   2   2   2
#     4  10  21  44  73 105 142 196 241 302 351 452
#     4  11  26  51  73 105 152 196 253 299 367 451
#     4  12  25  45  78 107 146 193 248 300 369 443
#     4  12  26  46  74 104 150 189 247 301 375 433
#     4  11  28  46  73 108 148 197 244 308 372 437
#     4  12  31  48  73 111 152 196 246 312 379 430
#     4  10  22  42  72 106 144 188 249 288 371 434
#
# _framework density 22.791778999999998
#
# number of rings (size 3 to 8) (size 9 to 14) (size 15 to 20)
#    0.000    0.857    4.286    0.429    8.000    0.571 
#    0.000    2.857    0.000    0.000    0.000    0.000 
#    0.000    0.000    0.000    0.000    0.000    0.000 
#
# Total GULP energy -173470.591445 kJ/mol
# GULP energy per Si atom -12390.756532 kJ/mol
# Density = 2.273990 g / cm^3
# Si number density = 22.791779 Si / 1000 Ang^3
#
#
#
# Elastic Constant Matrix: (Units=GPa)
#
#
# Indices 1 2 3 4 5 6 
#
# 1 133.6912 43.8056 56.8397 0.7536 -12.2363 18.2891
# 2 43.8056 105.0125 41.9647 8.9423 -14.8948 2.4267
# 3 56.8397 41.9647 103.8117 2.2162 -35.8707 11.1517
# 4 0.7536 8.9423 2.2162 45.3043 2.3703 4.2333
# 5 -12.2363 -14.8948 -35.8707 2.3703 51.7199 0.8544
# 6 18.2891 2.4267 11.1517 4.2333 0.8544 33.8983
#
#
#
# Elastic Compliance Matrix: (Units=1/GPa)
#
#
# Indices 1 2 3 4 5 6 
#
# 1 0.010934 -0.002792 -0.005016 0.001089 -0.001678 -0.004143
# 2 -0.002792 0.012291 -0.003399 -0.002435 0.000600 0.002033
# 3 -0.005016 -0.003399 0.017574 -0.000349 0.010089 -0.003042
# 4 0.001089 -0.002435 -0.000349 0.022932 -0.001685 -0.003120
# 5 -0.001678 0.000600 0.010089 -0.001685 0.026233 -0.002908
# 6 -0.004143 0.002033 -0.003042 -0.003120 -0.002908 0.033053
#
#
# Mechanical properties :
#
#
# Convention : Reuss Voigt Hill
#
# Bulk Modulus (GPa) = 54.39242 69.74837 62.07039
# Shear Modulus (GPa) = 32.99007 39.51154 36.25080
#
# Velocity S-wave (km/s) = 3.80867 4.16815 3.99246
# Velocity P-wave (km/s) = 6.57708 7.33713 6.96748
#
# Compressibility (1/GPa) = 0.01838492
#
# Stress axis : x y z
#
# Youngs Moduli (GPa) = 91.45422 81.36042 56.90281
#
# Poissons Ratio (x) = 0.22713 0.28544
# Poissons Ratio (y) = 0.25531 0.19343
# Poissons Ratio (z) = 0.45876 0.27657
#
# Static dielectric constant tensor:
#      x y z
#    x 4.085660 -0.376800 0.207700 
#    y -0.376800 4.360940 0.073930 
#    z 0.207700 0.073930 3.917340 
# 
# 
# High freq. dielectric constant tensor:
#      x y z
#    x 1.919130 -0.007630 -0.004680 
#    y -0.007630 1.889440 -0.002460 
#    z -0.004680 -0.002460 1.908800 
# 
# From -- ./inp_files/242604.got.cif
#   From: 2010.06.25/outbox.cif.g09.slc.cpg/sg2_122_cif.got.tgz:242604.got - 2010.06.27 13:26:56.
