data_PCOD8016970
_publ_section_title
;
Structure prediction by ZEFSAII (Michael W. Deem and Ramdas Pophale) SiO2 
 PCOD8016970
Probable space group: P -1
;
_chemical_formula_sum "Si O2"
_cell_formula_units_Z 16
_cell_length_a 18.533464
_cell_length_b 12.175399
_cell_length_c 9.134684
_cell_angle_alpha 142.531245
_cell_angle_beta 39.228472
_cell_angle_gamma 142.203464
_cell_volume 705.807990
_symmetry_space_group_name_H-M "P -1"
_symmetry_group_IT_number 2
_symmetry_cell_setting 'triclinic'
loop_
_space_group_symop_operation_xyz
x,y,z
-x,-y,-z
loop_
_atom_site_type_symbol
_atom_site_label
_atom_site_fract_x
_atom_site_fract_y
_atom_site_fract_z
Si Si1 0.346394 0.776013 0.564644
Si Si2 0.298895 0.504325 0.098370
Si Si3 0.461505 0.556227 0.311240
Si Si4 0.730172 0.884376 0.951613
Si Si5 0.922871 0.876972 0.850472
Si Si6 0.144271 0.586828 0.915643
Si Si7 0.843752 0.016166 0.606324
Si Si8 0.287061 0.426275 0.711429
O O1 0.340420 0.715968 0.340242
O O2 0.462609 0.754205 0.441205
O O3 0.219979 0.614486 0.675089
O O4 0.359777 0.001560 0.790976
O O5 0.154915 0.353136 0.214621
O O6 0.394417 0.409168 0.886836
O O7 0.307126 0.547649 0.958649
O O8 0.364632 0.354957 0.161541
O O9 0.416997 0.536706 0.529790
O O10 0.818225 0.944132 0.022531
O O11 0.831205 0.953296 0.730524
O O12 0.014517 0.894495 0.589389
O O13 0.000000 0.000000 0.000000
O O14 0.195553 0.801222 0.149540
O O15 0.167476 0.431410 0.818639
O O16 0.000000 0.500000 0.000000
O O17 0.749274 0.810411 0.449742
#
# Coordination Sequence:
#
# PCOD8016970 Si02
#       8
#     2   2   2   2   2   2   2   2
#     4  10  22  39  63  93 120 156 210 257 304 359
#     4  12  23  41  63  91 130 162 199 263 312 357
#     4  10  22  44  66  88 120 164 216 250 299 370
#     4  10  23  41  67  91 118 167 206 250 306 367
#     4  12  24  39  60  95 129 159 197 255 316 363
#     4  10  22  37  62  91 120 164 211 247 296 374
#     4  10  22  40  63  86 124 162 204 246 298 372
#     4  10  23  41  62  90 124 164 204 252 309 364
#
# _framework density 22.669056000000001
#
# number of rings (size 3 to 8) (size 9 to 14) (size 15 to 20)
#    0.000    1.500    2.500    1.875    7.000    1.500 
#    0.000    1.875    0.000    6.000    0.000    0.000 
#    0.000    0.000    0.000    0.000    0.000    0.000 
#
# Total GULP energy -198315.438202 kJ/mol
# GULP energy per Si atom -12394.714888 kJ/mol
# Density = 2.261746 g / cm^3
# Si number density = 22.669056 Si / 1000 Ang^3
#
#
#
# Elastic Constant Matrix: (Units=GPa)
#
#
# Indices 1 2 3 4 5 6 
#
# 1 90.4332 18.9262 43.7512 -0.6963 10.1592 -1.5002
# 2 18.9262 78.0028 25.3745 -7.5846 7.6361 -1.7331
# 3 43.7512 25.3745 110.8894 7.8628 10.2123 -7.9143
# 4 -0.6963 -7.5846 7.8628 26.8110 -6.6681 -6.0825
# 5 10.1592 7.6361 10.2123 -6.6681 36.5873 -3.7300
# 6 -1.5002 -1.7331 -7.9143 -6.0825 -3.7300 22.2641
#
#
#
# Elastic Compliance Matrix: (Units=1/GPa)
#
#
# Indices 1 2 3 4 5 6 
#
# 1 0.014090 -0.001496 -0.005148 0.000645 -0.002167 -0.001184
# 2 -0.001496 0.014754 -0.002987 0.005103 -0.000773 0.001250
# 3 -0.005148 -0.002987 0.012405 -0.004614 -0.002023 0.002231
# 4 0.000645 0.005103 -0.004614 0.045415 0.009628 0.012821
# 5 -0.002167 -0.000773 -0.002023 0.009628 0.031119 0.006918
# 6 -0.001184 0.001250 0.002231 0.012821 0.006918 0.050388
#
#
# Mechanical properties :
#
#
# Convention : Reuss Voigt Hill
#
# Bulk Modulus (GPa) = 45.47911 50.60324 48.04117
# Shear Modulus (GPa) = 25.67233 29.88407 27.77820
#
# Velocity S-wave (km/s) = 3.36889 3.63475 3.50434
# Velocity P-wave (km/s) = 5.93619 6.32347 6.13288
#
# Compressibility (1/GPa) = 0.02198812
#
# Stress axis : x y z
#
# Youngs Moduli (GPa) = 70.97215 67.77653 80.61062
#
# Poissons Ratio (x) = 0.10137 0.41495
# Poissons Ratio (y) = 0.10615 0.24082
# Poissons Ratio (z) = 0.36534 0.20248
#
# Static dielectric constant tensor:
#      x y z
#    x 3.899250 -0.139650 0.011660 
#    y -0.139650 4.002060 -0.149440 
#    z 0.011660 -0.149440 4.478060 
# 
# 
# High freq. dielectric constant tensor:
#      x y z
#    x 1.872030 -0.010280 0.006120 
#    y -0.010280 1.892870 -0.018720 
#    z 0.006120 -0.018720 1.908030 
# 
# From -- ./inp_files/333882.got.cif
#   From: 2010.06.25/outbox.cif.g09.slc.cpg/sg2_167_cif.got.tgz:333882.got - 2010.06.27 13:26:56.
