data_PCOD8016663
_publ_section_title
;
Structure prediction by ZEFSAII (Michael W. Deem and Ramdas Pophale) SiO2 
 PCOD8016663
Probable space group: P -1
;
_chemical_formula_sum "Si O2"
_cell_formula_units_Z 16
_cell_length_a 11.543220
_cell_length_b 12.201472
_cell_length_c 11.573605
_cell_angle_alpha 105.006648
_cell_angle_beta 116.817199
_cell_angle_gamma 127.373377
_cell_volume 763.094456
_symmetry_space_group_name_H-M "P -1"
_symmetry_group_IT_number 2
_symmetry_cell_setting 'triclinic'
loop_
_space_group_symop_operation_xyz
x,y,z
-x,-y,-z
loop_
_atom_site_type_symbol
_atom_site_label
_atom_site_fract_x
_atom_site_fract_y
_atom_site_fract_z
Si Si1 0.867628 0.574415 0.603408
Si Si2 0.572771 0.727165 0.064227
Si Si3 0.049358 0.219204 0.079350
Si Si4 0.364785 0.250277 0.170916
Si Si5 0.708954 0.229909 0.532913
Si Si6 0.200583 0.890979 0.642866
Si Si7 0.821528 0.141088 0.744189
Si Si8 0.881896 0.751085 0.273878
O O1 0.898093 0.685897 0.749599
O O2 0.624535 0.422048 0.386419
O O3 0.875393 0.452907 0.623379
O O4 0.092241 0.748754 0.666593
O O5 0.764315 0.788256 0.232729
O O6 0.593562 0.869947 0.160992
O O7 0.631269 0.770644 0.968021
O O8 0.309267 0.488079 0.906493
O O9 0.283202 0.319862 0.174993
O O10 0.989738 0.270121 0.968724
O O11 0.818959 0.969270 0.910845
O O12 0.681261 0.113837 0.390165
O O13 0.830585 0.266471 0.712476
O O14 0.449416 0.088538 0.407139
O O15 0.989026 0.806218 0.463191
O O16 0.914105 0.107063 0.693938
#
# Coordination Sequence:
#
# PCOD8016663 Si02
#       8
#     2   2   2   2   2   2   2   2
#     4  12  23  42  65  97 125 172 215 260 320 374
#     4  11  21  41  65  99 127 166 210 257 329 377
#     4  11  23  41  67  94 128 170 209 260 330 375
#     4  11  22  41  64  97 135 157 211 270 316 387
#     4  10  24  44  64  91 134 168 219 265 302 375
#     4  11  23  42  64  94 128 171 211 261 317 373
#     4  10  21  46  63  89 128 173 207 267 312 369
#     4  10  22  41  66  93 131 162 210 267 315 382
#
# _framework density 20.96726
#
# number of rings (size 3 to 8) (size 9 to 14) (size 15 to 20)
#    0.000    1.250    5.000    1.125    0.000    0.500 
#   13.500    1.250    0.000    0.000    0.000    0.000 
#    0.000    0.000    0.000    0.000    0.000    0.000 
#
# Total GULP energy -198453.353952 kJ/mol
# GULP energy per Si atom -12403.334622 kJ/mol
# Density = 2.091954 g / cm^3
# Si number density = 20.967260 Si / 1000 Ang^3
#
#
#
# Elastic Constant Matrix: (Units=GPa)
#
#
# Indices 1 2 3 4 5 6 
#
# 1 84.8821 35.9168 17.4130 11.6884 -13.6894 9.5171
# 2 35.9168 109.7734 29.8752 -4.1646 -7.6364 -3.5924
# 3 17.4130 29.8752 42.5050 2.3808 -16.4334 -8.6014
# 4 11.6884 -4.1646 2.3808 35.4779 1.1890 -1.7382
# 5 -13.6894 -7.6364 -16.4334 1.1890 25.3936 -2.9287
# 6 9.5171 -3.5924 -8.6014 -1.7382 -2.9287 25.9759
#
#
#
# Elastic Compliance Matrix: (Units=1/GPa)
#
#
# Indices 1 2 3 4 5 6 
#
# 1 0.017067 -0.005019 -0.002504 -0.006600 0.005503 -0.007597
# 2 -0.005019 0.013070 -0.009162 0.003981 -0.004853 0.000332
# 3 -0.002504 -0.009162 0.045320 -0.003352 0.027401 0.017522
# 4 -0.006600 0.003981 -0.003352 0.031405 -0.005617 0.003327
# 5 0.005503 -0.004853 0.027401 -0.005617 0.060361 0.012816
# 6 -0.007597 0.000332 0.017522 0.003327 0.012816 0.048796
#
#
# Mechanical properties :
#
#
# Convention : Reuss Voigt Hill
#
# Bulk Modulus (GPa) = 23.76095 44.84115 34.30105
# Shear Modulus (GPa) = 18.98135 27.63318 23.30726
#
# Velocity S-wave (km/s) = 3.01206 3.63426 3.33769
# Velocity P-wave (km/s) = 4.84290 6.24845 5.59003
#
# Compressibility (1/GPa) = 0.04208587
#
# Stress axis : x y z
#
# Youngs Moduli (GPa) = 58.59380 76.51347 22.06548
#
# Poissons Ratio (x) = 0.38400 0.05526
# Poissons Ratio (y) = 0.29407 0.20217
# Poissons Ratio (z) = 0.14673 0.70103
#
# Static dielectric constant tensor:
#      x y z
#    x 3.679710 0.045230 0.116140 
#    y 0.045230 3.990770 -0.158020 
#    z 0.116140 -0.158020 3.687330 
# 
# 
# High freq. dielectric constant tensor:
#      x y z
#    x 1.817750 0.008620 0.007680 
#    y 0.008620 1.833940 -0.015280 
#    z 0.007680 -0.015280 1.814360 
# 
# From -- ./inp_files/95054.got.cif
#   From: 2010.06.25/outbox.cif.g09.slc.cpg/sg2_48_cif.got.tgz:95054.got - 2010.06.27 13:26:56.
