data_PCOD8016063
_publ_section_title
;
Structure prediction by ZEFSAII (Michael W. Deem and Ramdas Pophale) SiO2 
 PCOD8016063
Probable space group: P -1
;
_chemical_formula_sum "Si O2"
_cell_formula_units_Z 16
_cell_length_a 9.257659
_cell_length_b 8.992350
_cell_length_c 11.801844
_cell_angle_alpha 92.116569
_cell_angle_beta 47.881188
_cell_angle_gamma 97.399125
_cell_volume 721.058717
_symmetry_space_group_name_H-M "P -1"
_symmetry_group_IT_number 2
_symmetry_cell_setting 'triclinic'
loop_
_space_group_symop_operation_xyz
x,y,z
-x,-y,-z
loop_
_atom_site_type_symbol
_atom_site_label
_atom_site_fract_x
_atom_site_fract_y
_atom_site_fract_z
Si Si1 0.790914 0.354868 0.334744
Si Si2 0.463109 0.752614 0.736977
Si Si3 0.179790 0.627600 0.420308
Si Si4 0.090958 0.383832 0.865604
Si Si5 0.165347 0.217183 0.140826
Si Si6 0.848271 0.068966 0.002264
Si Si7 0.586050 0.562819 0.137331
Si Si8 0.896100 0.837387 0.567351
O O1 0.600247 0.303218 0.357224
O O2 0.741541 0.342188 0.492176
O O3 0.867812 0.530147 0.272657
O O4 0.951380 0.247494 0.210833
O O5 0.410733 0.616553 0.852371
O O6 0.696132 0.802217 0.599996
O O7 0.354300 0.895010 0.832457
O O8 0.362740 0.594040 0.250174
O O9 0.000000 0.500000 0.500000
O O10 0.081531 0.762629 0.423958
O O11 0.290726 0.348675 0.821474
O O12 0.954385 0.228868 0.904379
O O13 0.000000 0.500000 0.000000
O O14 0.168710 0.211910 0.273466
O O15 0.213594 0.056522 0.065124
O O16 0.319705 0.363017 0.026302
O O17 0.000000 0.000000 0.000000
O O18 0.000000 0.000000 0.500000
#
# Coordination Sequence:
#
# PCOD8016063 Si02
#       8
#     2   2   2   2   2   2   2   2
#     4  10  21  43  69  97 130 173 223 277 337 380
#     4  11  22  42  71  95 133 175 225 278 325 395
#     4  11  25  47  66  96 137 178 223 272 330 403
#     4  11  18  36  65 101 134 162 218 284 320 383
#     4  11  23  43  69  98 131 178 219 276 339 394
#     4  12  20  36  66 105 132 166 220 275 338 389
#     4  11  21  42  69  98 128 172 231 272 324 389
#     4  11  28  49  62  93 147 177 216 276 339 402
#
# _framework density 22.189595000000001
#
# number of rings (size 3 to 8) (size 9 to 14) (size 15 to 20)
#    0.000    1.000    7.500    0.000    1.750    4.000 
#    4.500    1.250    0.000    0.000    0.000    0.000 
#    0.000    0.000    0.000    0.000    0.000    0.000 
#
# Total GULP energy -198256.542163 kJ/mol
# GULP energy per Si atom -12391.033885 kJ/mol
# Density = 2.213909 g / cm^3
# Si number density = 22.189595 Si / 1000 Ang^3
#
#
#
# Elastic Constant Matrix: (Units=GPa)
#
#
# Indices 1 2 3 4 5 6 
#
# 1 116.3850 34.1211 41.1069 -1.1601 -26.6102 -11.0263
# 2 34.1211 114.8251 22.8732 -6.2061 -11.3311 -8.8855
# 3 41.1069 22.8732 70.1603 -5.5065 -21.1348 -11.3692
# 4 -1.1601 -6.2061 -5.5065 36.1336 1.6802 -9.3744
# 5 -26.6102 -11.3311 -21.1348 1.6802 23.7817 2.4064
# 6 -11.0263 -8.8855 -11.3692 -9.3744 2.4064 34.3639
#
#
#
# Elastic Compliance Matrix: (Units=1/GPa)
#
#
# Indices 1 2 3 4 5 6 
#
# 1 0.012939 -0.002025 -0.003656 -0.000558 0.010146 0.001556
# 2 -0.002025 0.009917 -0.001287 0.001899 0.000985 0.001938
# 3 -0.003656 -0.001287 0.022412 0.003964 0.014328 0.005987
# 4 -0.000558 0.001899 0.003964 0.031178 0.000580 0.010088
# 5 0.010146 0.000985 0.014328 0.000580 0.066181 0.003774
# 6 0.001556 0.001938 0.005987 0.010088 0.003774 0.034569
#
#
# Mechanical properties :
#
#
# Convention : Reuss Voigt Hill
#
# Bulk Modulus (GPa) = 31.91628 55.28587 43.60108
# Shear Modulus (GPa) = 24.80466 32.40711 28.60588
#
# Velocity S-wave (km/s) = 3.34705 3.82575 3.59438
# Velocity P-wave (km/s) = 5.41772 6.66967 6.07602
#
# Compressibility (1/GPa) = 0.03133197
#
# Stress axis : x y z
#
# Youngs Moduli (GPa) = 77.28747 100.83900 44.61908
#
# Poissons Ratio (x) = 0.20421 0.16313
# Poissons Ratio (y) = 0.15652 0.05741
# Poissons Ratio (z) = 0.28256 0.12974
#
# Static dielectric constant tensor:
#      x y z
#    x 4.444300 0.663950 0.126370 
#    y 0.663950 4.991570 1.217450 
#    z 0.126370 1.217450 3.861820 
# 
# 
# High freq. dielectric constant tensor:
#      x y z
#    x 1.879300 -0.012480 -0.016440 
#    y -0.012480 1.880010 -0.003170 
#    z -0.016440 -0.003170 1.849990 
# 
# From -- ./inp_files/381888.got.cif
#   From: 2010.06.25/outbox.cif.g09.slc.cpg/sg2_191_cif.got.tgz:381888.got - 2010.06.27 13:26:56.
