data_PCOD8016921
_publ_section_title
;
Structure prediction by ZEFSAII (Michael W. Deem and Ramdas Pophale) SiO2 
 PCOD8016921
Probable space group: P -1
;
_chemical_formula_sum "Si O2"
_cell_formula_units_Z 12
_cell_length_a 22.097134
_cell_length_b 24.636652
_cell_length_c 11.571213
_cell_angle_alpha 150.061875
_cell_angle_beta 31.116713
_cell_angle_gamma 169.247513
_cell_volume 585.756962
_symmetry_space_group_name_H-M "P -1"
_symmetry_group_IT_number 2
_symmetry_cell_setting 'triclinic'
loop_
_space_group_symop_operation_xyz
x,y,z
-x,-y,-z
loop_
_atom_site_type_symbol
_atom_site_label
_atom_site_fract_x
_atom_site_fract_y
_atom_site_fract_z
Si Si1 0.691256 0.271053 0.151136
Si Si2 0.362800 0.620791 0.360355
Si Si3 0.755593 0.805102 0.193824
Si Si4 0.376838 0.515760 0.725370
Si Si5 0.755033 0.939147 0.095030
Si Si6 0.653447 0.848202 0.658087
O O1 0.781993 0.409330 0.378794
O O2 0.499122 0.183190 0.217757
O O3 0.000000 0.500000 0.000000
O O4 0.500000 0.000000 0.000000
O O5 0.689689 0.857480 0.325595
O O6 0.506875 0.783845 0.302367
O O7 0.074837 0.286930 0.189885
O O8 0.699702 0.783892 0.380838
O O9 0.500000 0.500000 0.000000
O O10 0.118166 0.068046 0.073844
O O11 0.500000 0.500000 0.500000
O O12 0.419884 0.605118 0.693338
O O13 0.565920 0.756919 0.949542
O O14 0.997571 0.186036 0.769250
#
# Coordination Sequence:
#
# PCOD8016921 Si02
#       6
#     2   2   2   2   2   2
#     4  11  23  44  71  90 115 155 209 276 317 344
#     4  10  22  37  59  90 117 155 203 254 309 353
#     4   9  20  33  56  84 124 157 192 243 299 361
#     4  12  24  37  61  88 135 175 198 231 291 379
#     4  11  21  36  57  86 129 164 192 236 299 372
#     4  11  24  40  59  94 123 159 214 246 300 368
#
# _framework density 20.486311000000001
#
# number of rings (size 3 to 8) (size 9 to 14) (size 15 to 20)
#    0.000    1.333    1.667    4.000    4.667    6.667 
#    0.000    0.000    0.000   20.000    0.000    0.000 
#    0.000    0.000    0.000    0.000    0.000    0.000 
#
# Total GULP energy -148746.896381 kJ/mol
# GULP energy per Si atom -12395.574698 kJ/mol
# Density = 2.043968 g / cm^3
# Si number density = 20.486311 Si / 1000 Ang^3
#
#
#
# Elastic Constant Matrix: (Units=GPa)
#
#
# Indices 1 2 3 4 5 6 
#
# 1 88.6631 26.9314 41.7052 2.9373 9.1718 -9.1599
# 2 26.9314 96.0495 33.9856 -3.1535 6.2702 -0.8473
# 3 41.7052 33.9856 113.0044 -6.3332 17.4308 6.8439
# 4 2.9373 -3.1535 -6.3332 37.6955 -1.5651 8.4090
# 5 9.1718 6.2702 17.4308 -1.5651 40.3623 3.2556
# 6 -9.1599 -0.8473 6.8439 8.4090 3.2556 37.2299
#
#
#
# Elastic Compliance Matrix: (Units=1/GPa)
#
#
# Indices 1 2 3 4 5 6 
#
# 1 0.015330 -0.002415 -0.005252 -0.003592 -0.001433 0.005619
# 2 -0.002415 0.012069 -0.002676 0.000738 -0.000143 0.000018
# 3 -0.005252 -0.002676 0.012527 0.003055 -0.003355 -0.004052
# 4 -0.003592 0.000738 0.003055 0.029247 0.001173 -0.008137
# 5 -0.001433 -0.000143 -0.003355 0.001173 0.026807 -0.002348
# 6 0.005619 0.000018 -0.004052 -0.008137 -0.002348 0.031031
#
#
# Mechanical properties :
#
#
# Convention : Reuss Voigt Hill
#
# Bulk Modulus (GPa) = 51.97595 55.88459 53.93027
# Shear Modulus (GPa) = 32.44412 36.06385 34.25398
#
# Velocity S-wave (km/s) = 3.98389 4.20025 4.09350
# Velocity P-wave (km/s) = 6.82554 7.13169 6.98029
#
# Compressibility (1/GPa) = 0.01923967
#
# Stress axis : x y z
#
# Youngs Moduli (GPa) = 65.22994 82.85637 79.83053
#
# Poissons Ratio (x) = 0.20009 0.41928
# Poissons Ratio (y) = 0.15753 0.21363
# Poissons Ratio (z) = 0.34260 0.22173
#
# Static dielectric constant tensor:
#      x y z
#    x 3.771640 0.091740 0.223760 
#    y 0.091740 3.299450 0.068830 
#    z 0.223760 0.068830 3.995200 
# 
# 
# High freq. dielectric constant tensor:
#      x y z
#    x 1.791780 -0.003100 0.024160 
#    y -0.003100 1.805310 0.004250 
#    z 0.024160 0.004250 1.797250 
# 
# From -- ./inp_files/59375.got.cif
#   From: 2010.06.25/outbox.cif.g09.slc.cpg/sg2_30_cif.got.tgz:59375.got - 2010.06.27 13:26:56.
