data_PCOD8016408
_publ_section_title
;
Structure prediction by ZEFSAII (Michael W. Deem and Ramdas Pophale) SiO2 
 PCOD8016408
Probable space group: P -1
;
_chemical_formula_sum "Si O2"
_cell_formula_units_Z 14
_cell_length_a 28.218105
_cell_length_b 9.421901
_cell_length_c 8.968597
_cell_angle_alpha 44.086664
_cell_angle_beta 34.291277
_cell_angle_gamma 26.703115
_cell_volume 601.838594
_symmetry_space_group_name_H-M "P -1"
_symmetry_group_IT_number 2
_symmetry_cell_setting 'triclinic'
loop_
_space_group_symop_operation_xyz
x,y,z
-x,-y,-z
loop_
_atom_site_type_symbol
_atom_site_label
_atom_site_fract_x
_atom_site_fract_y
_atom_site_fract_z
Si Si1 0.296139 0.758051 0.448342
Si Si2 0.560410 0.589865 0.351155
Si Si3 0.608586 0.815377 0.480964
Si Si4 0.223831 0.286373 0.100731
Si Si5 0.957016 0.348284 0.214648
Si Si6 0.002525 0.763257 0.130763
Si Si7 0.199856 0.615337 0.189149
O O1 0.376297 0.591620 0.518161
O O2 0.333494 0.522796 0.400632
O O3 0.319251 0.935902 0.180973
O O4 0.141893 0.052470 0.662379
O O5 0.500000 0.500000 0.500000
O O6 0.449200 0.970966 0.380800
O O7 0.669533 0.493339 0.033143
O O8 0.500000 0.000000 0.500000
O O9 0.721579 0.747235 0.175109
O O10 0.221895 0.481944 0.068729
O O11 0.075747 0.501621 0.272094
O O12 0.830362 0.513589 0.518326
O O13 0.078995 0.990572 0.222174
O O14 0.916817 0.391966 0.115907
O O15 0.000000 0.500000 0.000000
O O16 0.000000 0.000000 0.000000
#
# Coordination Sequence:
#
# PCOD8016408 Si02
#       7
#     2   2   2   2   2   2   2
#     4  11  23  44  72 104 139 180 240 297 349 414
#     4  11  24  48  73 100 149 193 234 290 354 424
#     4  10  21  44  69  98 140 176 241 292 339 412
#     4  12  23  43  75 104 136 189 238 287 363 421
#     4  11  24  43  72 101 145 185 227 296 365 413
#     4  12  21  45  70 102 143 181 228 300 353 418
#     4  11  23  45  69 105 144 184 237 293 352 422
#
# _framework density 23.262051
#
# number of rings (size 3 to 8) (size 9 to 14) (size 15 to 20)
#    0.000    0.857    7.143    1.286    0.000    3.429 
#    2.571    2.143    0.000    0.000    0.000    0.000 
#    0.000    0.000    0.000    0.000    0.000    0.000 
#
# Total GULP energy -173458.118875 kJ/mol
# GULP energy per Si atom -12389.865634 kJ/mol
# Density = 2.320911 g / cm^3
# Si number density = 23.262051 Si / 1000 Ang^3
#
#
#
# Elastic Constant Matrix: (Units=GPa)
#
#
# Indices 1 2 3 4 5 6 
#
# 1 115.0377 38.5212 51.7556 -1.2781 -14.1081 12.4151
# 2 38.5212 115.7338 49.8697 -9.2261 -2.0844 9.8976
# 3 51.7556 49.8697 115.3071 1.9154 -23.5995 23.0272
# 4 -1.2781 -9.2261 1.9154 37.2330 3.5246 1.0765
# 5 -14.1081 -2.0844 -23.5995 3.5246 29.9546 -0.0542
# 6 12.4151 9.8976 23.0272 1.0765 -0.0542 33.6188
#
#
#
# Elastic Compliance Matrix: (Units=1/GPa)
#
#
# Indices 1 2 3 4 5 6 
#
# 1 0.011400 -0.002195 -0.003395 -0.000185 0.002561 -0.001228
# 2 -0.002195 0.011793 -0.005338 0.003554 -0.004836 0.000874
# 3 -0.003395 -0.005338 0.016579 -0.003132 0.011445 -0.008412
# 4 -0.000185 0.003554 -0.003132 0.028421 -0.005651 0.000248
# 5 0.002561 -0.004836 0.011445 -0.005651 0.043923 -0.007110
# 6 -0.001228 0.000874 -0.008412 0.000248 -0.007110 0.035684
#
#
# Mechanical properties :
#
#
# Convention : Reuss Voigt Hill
#
# Bulk Modulus (GPa) = 55.81720 69.59684 62.70702
# Shear Modulus (GPa) = 28.46924 33.89010 31.17967
#
# Velocity S-wave (km/s) = 3.50215 3.82106 3.66507
# Velocity P-wave (km/s) = 6.35614 7.03213 6.70266
#
# Compressibility (1/GPa) = 0.01791562
#
# Stress axis : x y z
#
# Youngs Moduli (GPa) = 87.72070 84.79667 60.31578
#
# Poissons Ratio (x) = 0.18613 0.20477
# Poissons Ratio (y) = 0.19255 0.32198
# Poissons Ratio (z) = 0.29780 0.45267
#
# Static dielectric constant tensor:
#      x y z
#    x 4.005760 0.410360 -0.019760 
#    y 0.410360 3.858810 -0.521490 
#    z -0.019760 -0.521490 4.333680 
# 
# 
# High freq. dielectric constant tensor:
#      x y z
#    x 1.905130 0.005140 -0.014550 
#    y 0.005140 1.929170 0.004590 
#    z -0.014550 0.004590 1.921950 
# 
# From -- ./inp_files/356350.got.cif
#   From: 2010.06.25/outbox.cif.g09.slc.cpg/sg2_179_cif.got.tgz:356350.got - 2010.06.27 13:26:56.
