data_PCOD8016758
_publ_section_title
;
Structure prediction by ZEFSAII (Michael W. Deem and Ramdas Pophale) SiO2 
 PCOD8016758
Probable space group: P -1
;
_chemical_formula_sum "Si O2"
_cell_formula_units_Z 14
_cell_length_a 13.580521
_cell_length_b 15.741782
_cell_length_c 12.492845
_cell_angle_alpha 143.010992
_cell_angle_beta 133.610778
_cell_angle_gamma 26.945281
_cell_volume 725.705709
_symmetry_space_group_name_H-M "P -1"
_symmetry_group_IT_number 2
_symmetry_cell_setting 'triclinic'
loop_
_space_group_symop_operation_xyz
x,y,z
-x,-y,-z
loop_
_atom_site_type_symbol
_atom_site_label
_atom_site_fract_x
_atom_site_fract_y
_atom_site_fract_z
Si Si1 0.349511 0.100904 0.148056
Si Si2 0.187541 0.263356 0.963783
Si Si3 0.294537 0.629732 0.547466
Si Si4 0.091456 0.063848 0.576332
Si Si5 0.175795 0.954133 0.951340
Si Si6 0.559140 0.683278 0.472770
Si Si7 0.697735 0.352614 0.080534
O O1 0.378654 0.202693 0.358528
O O2 0.581377 0.867499 0.037289
O O3 0.184135 0.278960 0.106477
O O4 0.262142 0.041808 0.091880
O O5 0.161140 0.118893 0.773989
O O6 0.000000 0.500000 0.000000
O O7 0.500000 0.500000 0.500000
O O8 0.212844 0.837840 0.753352
O O9 0.352820 0.457910 0.496458
O O10 0.102072 0.718362 0.421993
O O11 0.299261 0.865656 0.456371
O O12 0.000000 0.000000 0.500000
O O13 0.305630 0.773338 0.963720
O O14 0.919531 0.169413 0.996793
O O15 0.674525 0.521452 0.293464
O O16 0.500000 0.500000 0.000000
#
# Coordination Sequence:
#
# PCOD8016758 Si02
#       7
#     2   2   2   2   2   2   2
#     4  10  22  38  55  85 123 151 194 235 293 350
#     4  10  22  34  54  82 125 160 184 228 285 357
#     4  11  21  34  58  85 118 151 189 235 290 341
#     4  11  20  32  53  84 113 150 195 227 281 343
#     4  10  23  39  61  87 112 156 195 243 291 348
#     4  10  22  38  57  85 116 154 190 244 286 347
#     4  10  22  43  63  83 112 149 205 250 287 337
#
# _framework density 19.291567000000001
#
# number of rings (size 3 to 8) (size 9 to 14) (size 15 to 20)
#    0.000    1.714    1.429    2.571    6.000    1.714 
#    0.000    0.714    0.000    0.000    0.000    0.000 
#    0.000    0.000    0.000    0.000    0.000    0.000 
#
# Total GULP energy -173628.298814 kJ/mol
# GULP energy per Si atom -12402.021344 kJ/mol
# Density = 1.924766 g / cm^3
# Si number density = 19.291567 Si / 1000 Ang^3
#
#
#
# Elastic Constant Matrix: (Units=GPa)
#
#
# Indices 1 2 3 4 5 6 
#
# 1 102.2597 38.1409 54.7439 -2.4770 8.6322 -6.5951
# 2 38.1409 138.2998 33.7705 -8.6344 -7.5730 0.1520
# 3 54.7439 33.7705 100.9457 4.7966 -4.9711 -10.2763
# 4 -2.4770 -8.6344 4.7966 31.6806 -2.6888 -3.3609
# 5 8.6322 -7.5730 -4.9711 -2.6888 33.7151 2.3372
# 6 -6.5951 0.1520 -10.2763 -3.3609 2.3372 23.3516
#
#
#
# Elastic Compliance Matrix: (Units=1/GPa)
#
#
# Indices 1 2 3 4 5 6 
#
# 1 0.015509 -0.002627 -0.007697 0.001366 -0.005710 0.001778
# 2 -0.002627 0.008648 -0.001598 0.002470 0.002674 -0.001414
# 3 -0.007697 -0.001598 0.015300 -0.002658 0.003389 0.003848
# 4 0.001366 0.002470 -0.002658 0.033336 0.002210 0.003777
# 5 -0.005710 0.002674 0.003389 0.002210 0.032613 -0.003085
# 6 0.001778 -0.001414 0.003848 0.003777 -0.003085 0.045881
#
#
# Mechanical properties :
#
#
# Convention : Reuss Voigt Hill
#
# Bulk Modulus (GPa) = 64.04994 66.09064 65.07029
# Shear Modulus (GPa) = 27.72631 32.07279 29.89955
#
# Velocity S-wave (km/s) = 3.79519 4.08184 3.94112
# Velocity P-wave (km/s) = 7.24415 7.51987 7.38329
#
# Compressibility (1/GPa) = 0.01561282
#
# Stress axis : x y z
#
# Youngs Moduli (GPa) = 64.47792 115.63932 65.35973
#
# Poissons Ratio (x) = 0.30379 0.50307
# Poissons Ratio (y) = 0.16939 0.10444
# Poissons Ratio (z) = 0.49629 0.18478
#
# Static dielectric constant tensor:
#      x y z
#    x 3.338100 0.007370 -0.021300 
#    y 0.007370 3.835190 -0.022060 
#    z -0.021300 -0.022060 3.662680 
# 
# 
# High freq. dielectric constant tensor:
#      x y z
#    x 1.736960 0.000630 0.005010 
#    y 0.000630 1.765540 0.000240 
#    z 0.005010 0.000240 1.755830 
# 
# From -- ./inp_files/100852.got.cif
#   From: 2010.06.25/outbox.cif.g09.slc.cpg/sg2_51_cif.got.tgz:100852.got - 2010.06.27 13:26:56.
