data_PCOD8016145
_publ_section_title
;
Structure prediction by ZEFSAII (Michael W. Deem and Ramdas Pophale) SiO2 
 PCOD8016145
Probable space group: P -1
;
_chemical_formula_sum "Si O2"
_cell_formula_units_Z 16
_cell_length_a 16.096064
_cell_length_b 12.685801
_cell_length_c 8.466152
_cell_angle_alpha 104.639884
_cell_angle_beta 85.572878
_cell_angle_gamma 153.773263
_cell_volume 692.483739
_symmetry_space_group_name_H-M "P -1"
_symmetry_group_IT_number 2
_symmetry_cell_setting 'triclinic'
loop_
_space_group_symop_operation_xyz
x,y,z
-x,-y,-z
loop_
_atom_site_type_symbol
_atom_site_label
_atom_site_fract_x
_atom_site_fract_y
_atom_site_fract_z
Si Si1 0.629404 0.693662 0.309078
Si Si2 0.700339 0.410730 0.546786
Si Si3 0.752700 0.454906 0.896564
Si Si4 0.324160 0.842203 0.715104
Si Si5 0.759404 0.722967 0.611973
Si Si6 0.852933 0.803092 0.096074
Si Si7 0.944375 0.530267 0.129165
Si Si8 0.747737 0.073300 0.484092
O O1 0.690574 0.700702 0.457423
O O2 0.388349 0.427950 0.270128
O O3 0.695060 0.708209 0.144060
O O4 0.743299 0.944002 0.377146
O O5 0.832094 0.553141 0.741855
O O6 0.737829 0.350719 0.412516
O O7 0.764340 0.599399 0.525954
O O8 0.465664 0.135270 0.511210
O O9 0.557615 0.146995 0.803448
O O10 0.710472 0.529384 0.982712
O O11 0.914763 0.600726 0.050076
O O12 0.258925 0.756881 0.872949
O O13 0.194322 0.778406 0.614037
O O14 0.986385 0.030705 0.726773
O O15 0.000000 0.000000 0.000000
O O16 0.107192 0.747593 0.320880
O O17 0.000000 0.500000 0.000000
#
# Coordination Sequence:
#
# PCOD8016145 Si02
#       8
#     2   2   2   2   2   2   2   2
#     4  10  24  43  69  99 134 178 233 278 337 405
#     4  10  21  43  71  90 131 175 224 267 333 413
#     4  11  24  44  63 101 133 171 220 279 340 395
#     4  11  24  43  69  92 132 184 218 268 338 410
#     4  10  22  45  68 100 130 181 230 279 336 406
#     4  12  25  42  68 100 139 175 226 281 345 400
#     4  12  25  40  63 101 136 166 223 281 337 393
#     4  10  22  43  66  96 129 173 224 274 328 407
#
# _framework density 23.105236000000001
#
# number of rings (size 3 to 8) (size 9 to 14) (size 15 to 20)
#    0.000    1.250    1.250    4.875    3.500    1.500 
#    6.750    0.000    0.000    0.000    0.000    0.000 
#    0.000    0.000    0.000    0.000    0.000    0.000 
#
# Total GULP energy -198272.640016 kJ/mol
# GULP energy per Si atom -12392.040001 kJ/mol
# Density = 2.305265 g / cm^3
# Si number density = 23.105236 Si / 1000 Ang^3
#
#
#
# Elastic Constant Matrix: (Units=GPa)
#
#
# Indices 1 2 3 4 5 6 
#
# 1 141.5840 35.5704 63.4290 -14.5728 -15.2671 -22.7838
# 2 35.5704 47.7515 22.4938 -5.4367 -15.8433 -6.1468
# 3 63.4290 22.4938 71.4898 6.2107 -28.9463 3.9987
# 4 -14.5728 -5.4367 6.2107 37.5123 6.4836 -2.8192
# 5 -15.2671 -15.8433 -28.9463 6.4836 54.4771 4.3789
# 6 -22.7838 -6.1468 3.9987 -2.8192 4.3789 29.6467
#
#
#
# Elastic Compliance Matrix: (Units=1/GPa)
#
#
# Indices 1 2 3 4 5 6 
#
# 1 0.029111 -0.004423 -0.034764 0.021603 -0.016635 0.030655
# 2 -0.004423 0.027891 -0.003287 0.002238 0.004671 0.002350
# 3 -0.034764 -0.003287 0.063523 -0.033047 0.030493 -0.043612
# 4 0.021603 0.002238 -0.033047 0.046226 -0.018661 0.028675
# 5 -0.016635 0.004671 0.030493 -0.018661 0.035319 -0.022920
# 6 0.030655 0.002350 -0.043612 0.028675 -0.022920 0.069771
#
#
# Mechanical properties :
#
#
# Convention : Reuss Voigt Hill
#
# Bulk Modulus (GPa) = 28.10615 55.97907 42.04261
# Shear Modulus (GPa) = 13.56306 33.61601 23.58954
#
# Velocity S-wave (km/s) = 2.42546 3.81846 3.19871
# Velocity P-wave (km/s) = 4.47601 6.61221 5.64606
#
# Compressibility (1/GPa) = 0.03557940
#
# Stress axis : x y z
#
# Youngs Moduli (GPa) = 34.35126 35.85346 15.74221
#
# Poissons Ratio (x) = 0.15857 0.54726
# Poissons Ratio (y) = 0.15193 0.05174
# Poissons Ratio (z) = 1.19419 0.11783
#
# Static dielectric constant tensor:
#      x y z
#    x 4.453850 -0.024070 0.047600 
#    y -0.024070 4.079780 -0.026060 
#    z 0.047600 -0.026060 4.176040 
# 
# 
# High freq. dielectric constant tensor:
#      x y z
#    x 1.925100 -0.009060 0.004190 
#    y -0.009060 1.909040 0.001310 
#    z 0.004190 0.001310 1.917710 
# 
# From -- ./inp_files/308026.got.cif
#   From: 2010.06.25/outbox.cif.g09.slc.cpg/sg2_155_cif.got.tgz:308026.got - 2010.06.27 13:26:56.
