data_PCOD8016070
_publ_section_title
;
Structure prediction by ZEFSAII (Michael W. Deem and Ramdas Pophale) SiO2 
 PCOD8016070
Probable space group: P -1
;
_chemical_formula_sum "Si O2"
_cell_formula_units_Z 14
_cell_length_a 16.933094
_cell_length_b 7.736419
_cell_length_c 14.765328
_cell_angle_alpha 48.748916
_cell_angle_beta 25.653660
_cell_angle_gamma 62.740489
_cell_volume 571.687952
_symmetry_space_group_name_H-M "P -1"
_symmetry_group_IT_number 2
_symmetry_cell_setting 'triclinic'
loop_
_space_group_symop_operation_xyz
x,y,z
-x,-y,-z
loop_
_atom_site_type_symbol
_atom_site_label
_atom_site_fract_x
_atom_site_fract_y
_atom_site_fract_z
Si Si1 0.814727 0.397884 0.629459
Si Si2 0.627914 0.253195 0.504953
Si Si3 0.929135 0.728822 0.236100
Si Si4 0.592305 0.969354 0.819016
Si Si5 0.810827 0.807669 0.064625
Si Si6 0.703078 0.035454 0.330254
Si Si7 0.032045 0.116136 0.574894
O O1 0.821854 0.463935 0.491733
O O2 0.934175 0.656377 0.468451
O O3 0.902252 0.182649 0.611162
O O4 0.592962 0.276845 0.944648
O O5 0.645452 0.196297 0.612601
O O6 0.784875 0.540699 0.225174
O O7 0.405446 0.194380 0.724160
O O8 0.689488 0.072688 0.439186
O O9 0.751710 0.787645 0.351696
O O10 0.101488 0.720871 0.993561
O O11 0.050965 0.969967 0.090324
O O12 0.775063 0.890048 0.670310
O O13 0.500000 0.000000 0.000000
O O14 0.913274 0.854579 0.842478
O O15 0.500000 0.000000 0.500000
#
# Coordination Sequence:
#
# PCOD8016070 Si02
#       7
#     2   2   2   2   2   2   2
#     4  10  22  44  66  99 132 177 227 273 330 405
#     4  11  23  43  69  94 139 174 221 283 330 397
#     4  10  23  41  67 101 134 173 223 274 333 405
#     4  12  27  44  66 101 136 181 225 277 336 401
#     4  10  21  43  69  99 130 178 223 272 344 393
#     4  11  23  41  68 102 135 171 222 278 334 398
#     4  10  22  43  73  92 132 178 227 277 333 402
#
# _framework density 24.488883999999999
#
# number of rings (size 3 to 8) (size 9 to 14) (size 15 to 20)
#    0.000    1.429    2.857    2.143    0.000    7.429 
#    5.143    0.000    0.000    0.000    0.000    0.000 
#    0.000    0.000    0.000    0.000    0.000    0.000 
#
# Total GULP energy -173473.902354 kJ/mol
# GULP energy per Si atom -12390.993025 kJ/mol
# Density = 2.443315 g / cm^3
# Si number density = 24.488884 Si / 1000 Ang^3
#
#
#
# Elastic Constant Matrix: (Units=GPa)
#
#
# Indices 1 2 3 4 5 6 
#
# 1 93.2876 45.1517 40.1697 8.0891 27.2333 -20.0353
# 2 45.1517 92.1146 71.2629 21.0611 16.0190 -25.9623
# 3 40.1697 71.2629 164.6938 14.4765 30.3903 -34.6178
# 4 8.0891 21.0611 14.4765 46.6631 -11.3327 4.8020
# 5 27.2333 16.0190 30.3903 -11.3327 52.0612 -2.1394
# 6 -20.0353 -25.9623 -34.6178 4.8020 -2.1394 30.4040
#
#
#
# Elastic Compliance Matrix: (Units=1/GPa)
#
#
# Indices 1 2 3 4 5 6 
#
# 1 0.017393 -0.004420 0.001995 -0.005002 -0.009578 0.010075
# 2 -0.004420 0.023501 -0.004597 -0.010766 -0.004031 0.013337
# 3 0.001995 -0.004597 0.011517 -0.004630 -0.006918 0.010747
# 4 -0.005002 -0.010766 -0.004630 0.034575 0.015248 -0.022149
# 5 -0.009578 -0.004031 -0.006918 0.015248 0.032085 -0.017781
# 6 0.010075 0.013337 0.010747 -0.022149 -0.017781 0.065401
#
#
# Mechanical properties :
#
#
# Convention : Reuss Voigt Hill
#
# Bulk Modulus (GPa) = 26.06475 73.69606 49.88040
# Shear Modulus (GPa) = 23.66233 38.72644 31.19438
#
# Velocity S-wave (km/s) = 3.11183 3.98098 3.57293
# Velocity P-wave (km/s) = 4.85571 7.16170 6.11833
#
# Compressibility (1/GPa) = 0.03836599
#
# Stress axis : x y z
#
# Youngs Moduli (GPa) = 57.49297 42.55176 86.82896
#
# Poissons Ratio (x) = 0.18809 -0.17322
# Poissons Ratio (y) = 0.25414 0.39917
# Poissons Ratio (z) = -0.11470 0.19562
#
# Static dielectric constant tensor:
#      x y z
#    x 4.701060 -0.274210 0.179180 
#    y -0.274210 4.192300 -0.096470 
#    z 0.179180 -0.096470 5.095660 
# 
# 
# High freq. dielectric constant tensor:
#      x y z
#    x 1.982240 -0.012950 0.005360 
#    y -0.012950 1.955680 0.006750 
#    z 0.005360 0.006750 1.993280 
# 
# From -- ./inp_files/577195.got.cif
#   From: 2010.06.25/outbox.cif.g09.slc.cpg/sg2_289_cif.got.tgz:577195.got - 2010.06.27 13:26:56.
