data_PCOD8016585
_publ_section_title
;
Structure prediction by ZEFSAII (Michael W. Deem and Ramdas Pophale) SiO2 
 PCOD8016585
Probable space group: P -1
;
_chemical_formula_sum "Si O2"
_cell_formula_units_Z 16
_cell_length_a 11.718847
_cell_length_b 8.961635
_cell_length_c 15.359876
_cell_angle_alpha 84.444110
_cell_angle_beta 28.483430
_cell_angle_gamma 95.818874
_cell_volume 704.113014
_symmetry_space_group_name_H-M "P -1"
_symmetry_group_IT_number 2
_symmetry_cell_setting 'triclinic'
loop_
_space_group_symop_operation_xyz
x,y,z
-x,-y,-z
loop_
_atom_site_type_symbol
_atom_site_label
_atom_site_fract_x
_atom_site_fract_y
_atom_site_fract_z
Si Si1 0.790239 0.800572 0.335919
Si Si2 0.957893 0.815111 0.042373
Si Si3 0.533120 0.874493 0.654737
Si Si4 0.263418 0.792631 0.415454
Si Si5 0.169799 0.298231 0.425247
Si Si6 0.060350 0.446279 0.648915
Si Si7 0.632624 0.531156 0.000902
Si Si8 0.775816 0.840468 0.984240
O O1 0.561079 0.836850 0.535546
O O2 0.787082 0.642490 0.396545
O O3 0.750090 0.743619 0.264886
O O4 0.046160 0.969789 0.163508
O O5 0.224519 0.791195 0.886855
O O6 0.849361 0.751205 0.023179
O O7 0.000000 0.000000 0.000000
O O8 0.711295 0.819286 0.602546
O O9 0.645166 0.067749 0.580826
O O10 0.229934 0.633312 0.502077
O O11 0.487015 0.833465 0.190681
O O12 0.001009 0.780308 0.541479
O O13 0.988147 0.351133 0.609557
O O14 0.420207 0.458966 0.222635
O O15 0.823777 0.435668 0.870711
O O16 0.783591 0.726010 0.904641
O O17 0.500000 0.500000 0.000000
#
# Coordination Sequence:
#
# PCOD8016585 Si02
#       8
#     2   2   2   2   2   2   2   2
#     4  10  23  43  66  97 129 173 225 267 324 390
#     4  10  21  45  68  93 133 172 218 282 317 381
#     4  11  23  42  68  96 131 172 223 272 325 392
#     4  12  21  42  66  95 134 176 213 269 337 386
#     4  11  24  42  63  97 138 169 213 281 329 383
#     4  11  23  42  65  92 138 171 215 277 321 391
#     4  12  23  41  67  95 131 176 219 265 331 395
#     4  11  24  43  70  95 132 174 223 268 331 389
#
# _framework density 22.723624999999998
#
# number of rings (size 3 to 8) (size 9 to 14) (size 15 to 20)
#    0.000    1.000    5.000    3.000    0.000    2.000 
#    2.250    5.000    0.000    0.000    0.000    0.000 
#    0.000    0.000    0.000    0.000    0.000    0.000 
#
# Total GULP energy -198225.204472 kJ/mol
# GULP energy per Si atom -12389.075279 kJ/mol
# Density = 2.267190 g / cm^3
# Si number density = 22.723625 Si / 1000 Ang^3
#
#
#
# Elastic Constant Matrix: (Units=GPa)
#
#
# Indices 1 2 3 4 5 6 
#
# 1 72.0438 40.3490 17.5128 1.2391 10.0901 -1.2696
# 2 40.3490 101.0837 20.5962 13.3994 7.7434 -2.0818
# 3 17.5128 20.5962 84.1768 20.5089 8.4235 -6.9572
# 4 1.2391 13.3994 20.5089 40.4399 -3.0782 5.1306
# 5 10.0901 7.7434 8.4235 -3.0782 38.3066 -0.2342
# 6 -1.2696 -2.0818 -6.9572 5.1306 -0.2342 24.4277
#
#
#
# Elastic Compliance Matrix: (Units=1/GPa)
#
#
# Indices 1 2 3 4 5 6 
#
# 1 0.018891 -0.007215 -0.002756 0.003147 -0.002665 -0.001104
# 2 -0.007215 0.013562 -0.000547 -0.004267 -0.001054 0.001511
# 3 -0.002756 -0.000547 0.015502 -0.008603 -0.003227 0.006001
# 4 0.003147 -0.004267 -0.008603 0.031928 0.004434 -0.009314
# 5 -0.002665 -0.001054 -0.003227 0.004434 0.028075 -0.001810
# 6 -0.001104 0.001511 0.006001 -0.009314 -0.001810 0.044657
#
#
# Mechanical properties :
#
#
# Convention : Reuss Voigt Hill
#
# Bulk Modulus (GPa) = 37.14943 46.02448 41.58696
# Shear Modulus (GPa) = 27.37888 32.55792 29.96840
#
# Velocity S-wave (km/s) = 3.47488 3.78931 3.63550
# Velocity P-wave (km/s) = 5.69944 6.28038 5.99695
#
# Compressibility (1/GPa) = 0.02691831
#
# Stress axis : x y z
#
# Youngs Moduli (GPa) = 52.93583 73.73756 64.50774
#
# Poissons Ratio (x) = 0.53199 0.17779
# Poissons Ratio (y) = 0.38191 0.03530
# Poissons Ratio (z) = 0.14590 0.04035
#
# Static dielectric constant tensor:
#      x y z
#    x 5.194490 0.048910 0.312120 
#    y 0.048910 4.171260 -0.083710 
#    z 0.312120 -0.083710 3.585370 
# 
# 
# High freq. dielectric constant tensor:
#      x y z
#    x 1.884450 0.001950 0.015330 
#    y 0.001950 1.897170 0.017380 
#    z 0.015330 0.017380 1.901260 
# 
# From -- ./inp_files/307365.got.cif
#   From: 2010.06.25/outbox.cif.g09.slc.cpg/sg2_154_cif.got.tgz:307365.got - 2010.06.27 13:26:56.
