data_PCOD8016243
_publ_section_title
;
Structure prediction by ZEFSAII (Michael W. Deem and Ramdas Pophale) SiO2 
 PCOD8016243
Probable space group: P -1
;
_chemical_formula_sum "Si O2"
_cell_formula_units_Z 12
_cell_length_a 16.924373
_cell_length_b 6.501559
_cell_length_c 12.737585
_cell_angle_alpha 115.845794
_cell_angle_beta 22.508608
_cell_angle_gamma 120.636647
_cell_volume 459.073737
_symmetry_space_group_name_H-M "P -1"
_symmetry_group_IT_number 2
_symmetry_cell_setting 'triclinic'
loop_
_space_group_symop_operation_xyz
x,y,z
-x,-y,-z
loop_
_atom_site_type_symbol
_atom_site_label
_atom_site_fract_x
_atom_site_fract_y
_atom_site_fract_z
Si Si1 0.907364 0.195070 0.547446
Si Si2 0.205317 0.894253 0.899175
Si Si3 0.701012 0.997882 0.962275
Si Si4 0.687691 0.405632 0.704142
Si Si5 0.238869 0.272247 0.503619
Si Si6 0.496144 0.385459 0.591987
O O1 0.874833 0.416531 0.566055
O O2 0.154152 0.188099 0.252534
O O3 0.796780 0.188618 0.794978
O O4 0.756587 0.965307 0.615568
O O5 0.312072 0.738873 0.659888
O O6 0.271876 0.173965 0.842807
O O7 0.945536 0.788845 0.192956
O O8 0.280905 0.867315 0.919596
O O9 0.445202 0.863966 0.230014
O O10 0.809954 0.556841 0.488802
O O11 0.500000 0.500000 0.000000
O O12 0.461718 0.409828 0.322965
O O13 0.500000 0.500000 0.500000
#
# Coordination Sequence:
#
# PCOD8016243 Si02
#       6
#     2   2   2   2   2   2
#     4  10  24  41  66 100 136 176 221 276 323 400
#     4  10  24  44  63  94 136 162 222 282 316 400
#     4  10  21  44  63  96 140 170 220 276 324 390
#     4  12  24  40  67 101 137 181 219 267 337 397
#     4  11  24  44  65  97 134 173 222 273 333 393
#     4  11  25  42  69  95 122 177 220 273 342 388
#
# _framework density 26.139592
#
# number of rings (size 3 to 8) (size 9 to 14) (size 15 to 20)
#    0.000    1.333    3.333    1.000    2.333    4.000 
#    0.000    0.000    0.000    0.000    0.000    0.000 
#    0.000    0.000    0.000    0.000    0.000    0.000 
#
# Total GULP energy -148787.273527 kJ/mol
# GULP energy per Si atom -12398.939461 kJ/mol
# Density = 2.608010 g / cm^3
# Si number density = 26.139592 Si / 1000 Ang^3
#
#
#
# Elastic Constant Matrix: (Units=GPa)
#
#
# Indices 1 2 3 4 5 6 
#
# 1 121.5763 26.0782 19.7222 -13.6816 1.9554 -31.0043
# 2 26.0782 54.7964 21.9713 -27.6281 6.4341 -24.1876
# 3 19.7222 21.9713 92.6990 -28.1340 4.0736 -11.0061
# 4 -13.6816 -27.6281 -28.1340 36.7298 -5.0626 7.9607
# 5 1.9554 6.4341 4.0736 -5.0626 44.8540 -0.7340
# 6 -31.0043 -24.1876 -11.0061 7.9607 -0.7340 45.1552
#
#
#
# Elastic Compliance Matrix: (Units=1/GPa)
#
#
# Indices 1 2 3 4 5 6 
#
# 1 0.010288 -0.001621 -0.000914 0.000648 0.000036 0.005859
# 2 -0.001621 0.038437 0.000827 0.025321 -0.002412 0.015175
# 3 -0.000914 0.000827 0.014259 0.010890 -0.000122 0.001369
# 4 0.000648 0.025321 0.010890 0.053490 0.001507 0.007257
# 5 0.000036 -0.002412 -0.000122 0.001507 0.022801 -0.001192
# 6 0.005859 0.015175 0.001369 0.007257 -0.001192 0.033332
#
#
# Mechanical properties :
#
#
# Convention : Reuss Voigt Hill
#
# Bulk Modulus (GPa) = 16.78738 44.95722 30.87230
# Shear Modulus (GPa) = 25.52608 38.76781 32.14695
#
# Velocity S-wave (km/s) = 3.12834 3.85529 3.51068
# Velocity P-wave (km/s) = 4.41416 6.08719 5.31689
#
# Compressibility (1/GPa) = 0.05956857
#
# Stress axis : x y z
#
# Youngs Moduli (GPa) = 97.20306 26.01650 70.13071
#
# Poissons Ratio (x) = 0.04217 0.06409
# Poissons Ratio (y) = 0.15756 -0.05800
# Poissons Ratio (z) = 0.08883 -0.02152
#
# Static dielectric constant tensor:
#      x y z
#    x 4.955310 0.436740 -0.110920 
#    y 0.436740 5.105850 -0.498100 
#    z -0.110920 -0.498100 4.759410 
# 
# 
# High freq. dielectric constant tensor:
#      x y z
#    x 2.055050 0.011530 -0.000740 
#    y 0.011530 2.052550 -0.023520 
#    z -0.000740 -0.023520 2.035110 
# 
# From -- ./inp_files/24475.got.cif
#   From: 2010.06.25/outbox.cif.g09.slc.cpg/sg2_13_cif.got.tgz:24475.got - 2010.06.27 13:26:56.
