data_PCOD8016829
_publ_section_title
;
Structure prediction by ZEFSAII (Michael W. Deem and Ramdas Pophale) SiO2 
 PCOD8016829
Probable space group: P -1
;
_chemical_formula_sum "Si O2"
_cell_formula_units_Z 16
_cell_length_a 17.617545
_cell_length_b 5.183697
_cell_length_c 13.948028
_cell_angle_alpha 63.873969
_cell_angle_beta 50.434509
_cell_angle_gamma 55.641965
_cell_volume 804.063408
_symmetry_space_group_name_H-M "P -1"
_symmetry_group_IT_number 2
_symmetry_cell_setting 'triclinic'
loop_
_space_group_symop_operation_xyz
x,y,z
-x,-y,-z
loop_
_atom_site_type_symbol
_atom_site_label
_atom_site_fract_x
_atom_site_fract_y
_atom_site_fract_z
Si Si1 0.073977 0.174770 0.946352
Si Si2 0.819335 0.376579 0.707334
Si Si3 0.771321 0.232182 0.565525
Si Si4 0.042175 0.196564 0.626693
Si Si5 0.383220 0.119440 0.968541
Si Si6 0.383887 0.978139 0.202592
Si Si7 0.250153 0.829582 0.017970
Si Si8 0.109758 0.499388 0.689426
O O1 0.136245 0.253498 0.795012
O O2 0.166368 0.963851 0.977820
O O3 0.000000 0.500000 0.000000
O O4 0.000000 0.000000 0.000000
O O5 0.823409 0.205913 0.632369
O O6 0.715231 0.699708 0.745190
O O7 0.934903 0.398292 0.619180
O O8 0.814366 0.159893 0.835160
O O9 0.779395 0.515812 0.449029
O O10 0.847177 0.895126 0.509390
O O11 0.647111 0.278722 0.672891
O O12 0.039077 0.408769 0.684866
O O13 0.040451 0.861959 0.718182
O O14 0.331927 0.483555 0.977797
O O15 0.504208 0.030126 0.846696
O O16 0.318694 0.037306 0.949336
O O17 0.390376 0.914743 0.092761
#
# Coordination Sequence:
#
# PCOD8016829 Si02
#       8
#     2   2   2   2   2   2   2   2
#     4  12  24  42  67  91 120 161 202 246 300 359
#     4  11  21  35  58  91 122 160 198 238 308 356
#     4  10  22  36  59  87 122 164 194 248 294 366
#     4  10  23  37  56  88 127 156 196 244 292 368
#     4  10  23  40  59  90 122 159 205 248 301 352
#     4  10  22  36  61  86 125 162 203 247 298 359
#     4  11  23  39  63  90 124 156 198 254 298 358
#     4  10  23  40  56  85 120 160 197 243 294 358
#
# _framework density 19.898928000000002
#
# number of rings (size 3 to 8) (size 9 to 14) (size 15 to 20)
#    0.750    0.750    1.250    4.125    3.500    3.500 
#    0.000    0.000    0.000    1.500    0.000    0.000 
#    0.000    0.000    0.000    0.000    0.000    0.000 
#
# Total GULP energy -198276.011751 kJ/mol
# GULP energy per Si atom -12392.250734 kJ/mol
# Density = 1.985364 g / cm^3
# Si number density = 19.898928 Si / 1000 Ang^3
#
#
#
# Elastic Constant Matrix: (Units=GPa)
#
#
# Indices 1 2 3 4 5 6 
#
# 1 121.4487 25.6520 55.1335 -0.1265 -14.2914 5.6657
# 2 25.6520 56.4573 32.6702 0.0100 -8.4591 9.5971
# 3 55.1335 32.6702 146.5544 -9.6839 -16.5182 -11.2069
# 4 -0.1265 0.0100 -9.6839 21.8184 -2.7575 -3.5502
# 5 -14.2914 -8.4591 -16.5182 -2.7575 31.1055 0.0533
# 6 5.6657 9.5971 -11.2069 -3.5502 0.0533 33.4083
#
#
#
# Elastic Compliance Matrix: (Units=1/GPa)
#
#
# Indices 1 2 3 4 5 6 
#
# 1 0.010694 -0.001953 -0.003643 -0.001696 0.002301 -0.002658
# 2 -0.001953 0.023325 -0.005048 -0.003318 0.002485 -0.008419
# 3 -0.003643 -0.005048 0.010545 0.006067 0.003080 0.006245
# 4 -0.001696 -0.003318 0.006067 0.050686 0.006019 0.008653
# 5 0.002301 0.002485 0.003080 0.006019 0.036050 0.000511
# 6 -0.002658 -0.008419 0.006245 0.008653 0.000511 0.035816
#
#
# Mechanical properties :
#
#
# Convention : Reuss Voigt Hill
#
# Bulk Modulus (GPa) = 42.96544 61.26355 52.11449
# Shear Modulus (GPa) = 25.48906 31.33342 28.41124
#
# Velocity S-wave (km/s) = 3.58289 3.97246 3.78269
# Velocity P-wave (km/s) = 6.22534 7.20381 6.73237
#
# Compressibility (1/GPa) = 0.02327452
#
# Stress axis : x y z
#
# Youngs Moduli (GPa) = 93.51419 42.87219 94.83258
#
# Poissons Ratio (x) = 0.08375 0.34551
# Poissons Ratio (y) = 0.18267 0.47869
# Poissons Ratio (z) = 0.34071 0.21641
#
# Static dielectric constant tensor:
#      x y z
#    x 3.538960 0.140860 -0.122460 
#    y 0.140860 3.470460 -0.126320 
#    z -0.122460 -0.126320 4.055190 
# 
# 
# High freq. dielectric constant tensor:
#      x y z
#    x 1.762810 0.026940 -0.013450 
#    y 0.026940 1.759760 0.003000 
#    z -0.013450 0.003000 1.785000 
# 
# From -- ./inp_files/536152.got.cif
#   From: 2010.06.25/outbox.cif.g09.slc.cpg/sg2_269_cif.got.tgz:536152.got - 2010.06.27 13:26:56.
