data_PCOD8016220
_publ_section_title
;
Structure prediction by ZEFSAII (Michael W. Deem and Ramdas Pophale) SiO2 
 PCOD8016220
Probable space group: P -1
;
_chemical_formula_sum "Si O2"
_cell_formula_units_Z 16
_cell_length_a 20.923785
_cell_length_b 6.072389
_cell_length_c 18.832883
_cell_angle_alpha 116.240371
_cell_angle_beta 160.045104
_cell_angle_gamma 66.651420
_cell_volume 731.025566
_symmetry_space_group_name_H-M "P -1"
_symmetry_group_IT_number 2
_symmetry_cell_setting 'triclinic'
loop_
_space_group_symop_operation_xyz
x,y,z
-x,-y,-z
loop_
_atom_site_type_symbol
_atom_site_label
_atom_site_fract_x
_atom_site_fract_y
_atom_site_fract_z
Si Si1 0.099635 0.257580 0.580921
Si Si2 0.628374 0.919709 0.460747
Si Si3 0.216456 0.594609 0.237685
Si Si4 0.521927 0.891343 0.806302
Si Si5 0.490717 0.722218 0.426954
Si Si6 0.130874 0.229576 0.763944
Si Si7 0.766009 0.459247 0.467864
Si Si8 0.411518 0.358422 0.822585
O O1 0.204565 0.319044 0.775729
O O2 0.235689 0.201238 0.650270
O O3 0.000000 0.500000 0.500000
O O4 0.946126 0.035293 0.381867
O O5 0.497850 0.738845 0.350758
O O6 0.762870 0.741885 0.533170
O O7 0.759281 0.124190 0.668551
O O8 0.491910 0.067102 0.287298
O O9 0.301908 0.587520 0.245158
O O10 0.327458 0.412321 0.376625
O O11 0.000000 0.500000 0.000000
O O12 0.332043 0.734565 0.607503
O O13 0.545372 0.162434 0.902838
O O14 0.705941 0.760624 0.005016
O O15 0.500000 0.000000 0.500000
O O16 0.977581 0.395754 0.663130
O O17 0.649465 0.444769 0.270870
O O18 0.500000 0.500000 0.000000
#
# Coordination Sequence:
#
# PCOD8016220 Si02
#       8
#     2   2   2   2   2   2   2   2
#     4  11  21  38  60  89 122 156 229 290 327 380
#     4  10  23  44  65  94 141 177 210 266 327 400
#     4  10  21  43  76 106 132 167 217 266 317 384
#     4  11  24  42  61  89 131 173 219 267 337 392
#     4   9  20  42  70 100 137 167 210 260 317 385
#     4  11  24  39  63  88 120 172 222 281 330 384
#     4  11  23  43  60  88 131 171 218 273 329 397
#     4  11  22  37  63  88 122 168 219 282 338 389
#
# _framework density 21.887060999999999
#
# number of rings (size 3 to 8) (size 9 to 14) (size 15 to 20)
#    0.000    1.500    2.500    2.250    1.750    4.000 
#    0.000   16.250    0.000    0.000    0.000    0.000 
#    0.000    0.000    0.000    0.000    0.000    0.000 
#
# Total GULP energy -198233.231687 kJ/mol
# GULP energy per Si atom -12389.576980 kJ/mol
# Density = 2.183725 g / cm^3
# Si number density = 21.887061 Si / 1000 Ang^3
#
#
#
# Elastic Constant Matrix: (Units=GPa)
#
#
# Indices 1 2 3 4 5 6 
#
# 1 139.2665 35.7876 52.8509 -14.4333 -13.1630 19.2170
# 2 35.7876 83.0097 33.2991 -15.3816 -5.1098 -1.9401
# 3 52.8509 33.2991 95.3412 -12.0997 -0.4666 1.2498
# 4 -14.4333 -15.3816 -12.0997 35.8576 -1.2668 -4.3133
# 5 -13.1630 -5.1098 -0.4666 -1.2668 28.2702 -6.2619
# 6 19.2170 -1.9401 1.2498 -4.3133 -6.2619 46.5360
#
#
#
# Elastic Compliance Matrix: (Units=1/GPa)
#
#
# Indices 1 2 3 4 5 6 
#
# 1 0.010599 -0.002230 -0.004858 0.001354 0.003689 -0.003717
# 2 -0.002230 0.015580 -0.003597 0.004956 0.002486 0.002461
# 3 -0.004858 -0.003597 0.014600 0.001502 -0.002318 0.001291
# 4 0.001354 0.004956 0.001502 0.031557 0.003634 0.003021
# 5 0.003689 0.002486 -0.002318 0.003634 0.038589 0.004172
# 6 -0.003717 0.002461 0.001291 0.003021 0.004172 0.023933
#
#
# Mechanical properties :
#
#
# Convention : Reuss Voigt Hill
#
# Bulk Modulus (GPa) = 51.51944 62.38809 56.95377
# Shear Modulus (GPa) = 30.73206 35.17805 32.95506
#
# Velocity S-wave (km/s) = 3.75122 4.01341 3.88453
# Velocity P-wave (km/s) = 6.50785 7.07411 6.79688
#
# Compressibility (1/GPa) = 0.01941015
#
# Stress axis : x y z
#
# Youngs Moduli (GPa) = 94.34866 64.18648 68.49266
#
# Poissons Ratio (x) = 0.14311 0.33274
# Poissons Ratio (y) = 0.21036 0.24634
# Poissons Ratio (z) = 0.45835 0.23085
#
# Static dielectric constant tensor:
#      x y z
#    x 7.053080 0.920890 0.448560 
#    y 0.920890 4.302820 0.010300 
#    z 0.448560 0.010300 3.701200 
# 
# 
# High freq. dielectric constant tensor:
#      x y z
#    x 1.876790 0.007010 -0.004200 
#    y 0.007010 1.880390 -0.009460 
#    z -0.004200 -0.009460 1.825110 
# 
# From -- ./inp_files/47710.got.cif
#   From: 2010.06.25/outbox.cif.g09.slc.cpg/sg2_24_cif.got.tgz:47710.got - 2010.06.27 13:26:56.
