data_PCOD8016514
_publ_section_title
;
Structure prediction by ZEFSAII (Michael W. Deem and Ramdas Pophale) SiO2 
 PCOD8016514
Probable space group: P -1
;
_chemical_formula_sum "Si O2"
_cell_formula_units_Z 12
_cell_length_a 5.359735
_cell_length_b 15.955363
_cell_length_c 5.351533
_cell_angle_alpha 69.024748
_cell_angle_beta 98.749448
_cell_angle_gamma 82.646762
_cell_volume 414.011233
_symmetry_space_group_name_H-M "P -1"
_symmetry_group_IT_number 2
_symmetry_cell_setting 'triclinic'
loop_
_space_group_symop_operation_xyz
x,y,z
-x,-y,-z
loop_
_atom_site_type_symbol
_atom_site_label
_atom_site_fract_x
_atom_site_fract_y
_atom_site_fract_z
Si Si1 0.077830 0.396219 0.544699
Si Si2 0.358519 0.944312 0.351563
Si Si3 0.521697 0.439325 0.316085
Si Si4 0.709775 0.731274 0.845335
Si Si5 0.840579 0.223597 0.450229
Si Si6 0.256418 0.128315 0.926234
O O1 0.273613 0.388728 0.342839
O O2 0.234204 0.344036 0.850449
O O3 0.000000 0.500000 0.500000
O O4 0.804961 0.367880 0.450417
O O5 0.171464 0.882919 0.515773
O O6 0.559897 0.871897 0.289190
O O7 0.500000 0.000000 0.500000
O O8 0.203243 0.026038 0.064950
O O9 0.500000 0.500000 0.500000
O O10 0.500000 0.500000 0.000000
O O11 0.618883 0.832141 0.853218
O O12 0.450880 0.714903 0.674881
O O13 0.967757 0.729236 0.732715
O O14 0.989190 0.203928 0.762739
#
# Coordination Sequence:
#
# PCOD8016514 Si02
#       6
#     2   2   2   2   2   2
#     4  10  23  48  71 103 143 189 243 300 369 437
#     4  11  23  47  72 102 142 188 237 293 358 438
#     4  10  21  44  74 107 140 184 244 305 365 443
#     4  12  27  47  71 102 150 184 242 299 361 429
#     4  12  25  47  68 107 140 188 235 299 360 427
#     4  11  25  44  71 104 141 187 240 290 365 425
#
# _framework density 28.984719999999999
#
# number of rings (size 3 to 8) (size 9 to 14) (size 15 to 20)
#    0.000    1.000    3.333    2.000    2.333    2.667 
#   18.000    0.000    0.000    0.000    0.000    0.000 
#    0.000    0.000    0.000    0.000    0.000    0.000 
#
# Total GULP energy -148736.945463 kJ/mol
# GULP energy per Si atom -12394.745455 kJ/mol
# Density = 2.891875 g / cm^3
# Si number density = 28.984720 Si / 1000 Ang^3
#
#
#
# Elastic Constant Matrix: (Units=GPa)
#
#
# Indices 1 2 3 4 5 6 
#
# 1 257.2765 84.7495 104.3754 -2.4198 -7.9477 13.0674
# 2 84.7495 111.3486 20.5433 2.2631 5.3084 -5.1904
# 3 104.3754 20.5433 146.0043 -32.6129 7.7395 -5.8519
# 4 -2.4198 2.2631 -32.6129 62.0309 -0.7885 9.9743
# 5 -7.9477 5.3084 7.7395 -0.7885 50.7171 -9.9858
# 6 13.0674 -5.1904 -5.8519 9.9743 -9.9858 65.2176
#
#
#
# Elastic Compliance Matrix: (Units=1/GPa)
#
#
# Indices 1 2 3 4 5 6 
#
# 1 0.008081 -0.005247 -0.005720 -0.002171 0.002287 -0.001868
# 2 -0.005247 0.012760 0.002175 0.000138 -0.002110 0.001918
# 3 -0.005720 0.002175 0.012127 0.005862 -0.002666 0.001102
# 4 -0.002171 0.000138 0.005862 0.019452 -0.001383 -0.002215
# 5 0.002287 -0.002110 -0.002666 -0.001383 0.021192 0.002591
# 6 -0.001868 0.001918 0.001102 -0.002215 0.002591 0.016694
#
#
# Mechanical properties :
#
#
# Convention : Reuss Voigt Hill
#
# Bulk Modulus (GPa) = 64.99817 103.77397 84.38607
# Shear Modulus (GPa) = 44.24100 55.92387 50.08244
#
# Velocity S-wave (km/s) = 3.91110 4.39729 4.16130
# Velocity P-wave (km/s) = 6.54746 7.85253 7.22951
#
# Compressibility (1/GPa) = 0.01538505
#
# Stress axis : x y z
#
# Youngs Moduli (GPa) = 123.75009 78.36747 82.46256
#
# Poissons Ratio (x) = 0.41121 0.47165
# Poissons Ratio (y) = 0.64934 -0.17938
# Poissons Ratio (z) = 0.70779 -0.17047
#
# Static dielectric constant tensor:
#      x y z
#    x 1.313130 1.206800 -2.397870 
#    y 1.206800 6.026700 -0.072230 
#    z -2.397870 -0.072230 4.441370 
# 
# 
# High freq. dielectric constant tensor:
#      x y z
#    x 2.193840 0.019910 0.020760 
#    y 0.019910 2.238610 -0.017650 
#    z 0.020760 -0.017650 2.186620 
# 
# From -- ./inp_files/6203.got.cif
#   From: 2010.06.25/outbox.cif.g09.slc.cpg/sg2_4_cif.got.tgz:6203.got - 2010.06.27 13:26:56.
