data_PCOD8016195
_publ_section_title
;
Structure prediction by ZEFSAII (Michael W. Deem and Ramdas Pophale) SiO2 
 PCOD8016195
Probable space group: P -1
;
_chemical_formula_sum "Si O2"
_cell_formula_units_Z 14
_cell_length_a 28.931526
_cell_length_b 11.576461
_cell_length_c 14.208806
_cell_angle_alpha 29.204062
_cell_angle_beta 160.186918
_cell_angle_gamma 159.612014
_cell_volume 560.314937
_symmetry_space_group_name_H-M "P -1"
_symmetry_group_IT_number 2
_symmetry_cell_setting 'triclinic'
loop_
_space_group_symop_operation_xyz
x,y,z
-x,-y,-z
loop_
_atom_site_type_symbol
_atom_site_label
_atom_site_fract_x
_atom_site_fract_y
_atom_site_fract_z
Si Si1 0.808723 0.219850 0.154790
Si Si2 0.597870 0.300311 0.194865
Si Si3 0.312712 0.495684 0.412991
Si Si4 0.721285 0.807720 0.934108
Si Si5 0.868181 0.779950 0.538741
Si Si6 0.335006 0.131485 0.414756
Si Si7 0.906782 0.115571 0.697789
O O1 0.927003 0.481267 0.284832
O O2 0.918242 0.123709 0.390987
O O3 0.769897 0.376635 0.891152
O O4 0.612447 0.860129 0.069649
O O5 0.655787 0.468515 0.083977
O O6 0.748712 0.575022 0.363907
O O7 0.576400 0.994018 0.371242
O O8 0.251445 0.451508 0.434815
O O9 0.222777 0.132302 0.461210
O O10 0.546558 0.773258 0.653395
O O11 0.768122 0.858251 0.876163
O O12 0.930469 0.119242 0.157524
O O13 0.500000 0.500000 0.500000
O O14 0.208374 0.907833 0.419652
O O15 0.000000 0.000000 0.000000
#
# Coordination Sequence:
#
# PCOD8016195 Si02
#       7
#     2   2   2   2   2   2   2
#     4  11  23  46  70 102 150 190 237 305 356 428
#     4  12  27  47  72 106 148 193 242 300 360 433
#     4  11  24  48  74 107 143 194 243 300 366 429
#     4  12  25  46  74 109 143 192 242 297 366 427
#     4  12  28  47  72 108 148 194 248 295 360 434
#     4  12  24  48  74 105 147 185 238 305 365 431
#     4  10  21  43  73 104 140 186 242 296 363 426
#
# _framework density 24.985949000000002
#
# number of rings (size 3 to 8) (size 9 to 14) (size 15 to 20)
#    0.000    0.571    4.286    4.286    0.000    3.429 
#    2.571    0.000    0.000    0.000    0.000    0.000 
#    0.000    0.000    0.000    0.000    0.000    0.000 
#
# Total GULP energy -173465.909736 kJ/mol
# GULP energy per Si atom -12390.422124 kJ/mol
# Density = 2.492908 g / cm^3
# Si number density = 24.985949 Si / 1000 Ang^3
#
#
#
# Elastic Constant Matrix: (Units=GPa)
#
#
# Indices 1 2 3 4 5 6 
#
# 1 39.0599 -15.2622 4.5063 -19.0712 -8.0612 3.0842
# 2 -15.2622 54.9877 8.4787 -4.7123 -0.1186 -9.4945
# 3 4.5063 8.4787 98.5970 13.0780 4.3675 -7.1346
# 4 -19.0712 -4.7123 13.0780 33.2387 4.5134 6.5298
# 5 -8.0612 -0.1186 4.3675 4.5134 32.2231 -0.9796
# 6 3.0842 -9.4945 -7.1346 6.5298 -0.9796 38.4383
#
#
#
# Elastic Compliance Matrix: (Units=1/GPa)
#
#
# Indices 1 2 3 4 5 6 
#
# 1 0.056177 0.019191 -0.010458 0.039339 0.009784 -0.008142
# 2 0.019191 0.025928 -0.005299 0.016067 0.003402 0.001238
# 3 -0.010458 -0.005299 0.013117 -0.012350 -0.002562 0.003998
# 4 0.039339 0.016067 -0.012350 0.061787 0.002558 -0.011911
# 5 0.009784 0.003402 -0.002562 0.002558 0.033483 -0.000002
# 6 -0.008142 0.001238 0.003998 -0.011911 -0.000002 0.029740
#
#
# Mechanical properties :
#
#
# Convention : Reuss Voigt Hill
#
# Bulk Modulus (GPa) = 9.79532 20.89889 15.34711
# Shear Modulus (GPa) = 20.21080 33.77480 26.99280
#
# Velocity S-wave (km/s) = 2.84718 3.68061 3.29039
# Velocity P-wave (km/s) = 3.83893 5.14246 4.53775
#
# Compressibility (1/GPa) = 0.10208956
#
# Stress axis : x y z
#
# Youngs Moduli (GPa) = 17.80095 38.56884 76.23763
#
# Poissons Ratio (x) = -0.74019 0.79732
# Poissons Ratio (y) = -0.34163 0.40398
# Poissons Ratio (z) = 0.18617 0.20437
#
# Static dielectric constant tensor:
#      x y z
#    x 3.980610 -0.071830 -0.255870 
#    y -0.071830 4.523360 0.183680 
#    z -0.255870 0.183680 4.566760 
# 
# 
# High freq. dielectric constant tensor:
#      x y z
#    x 1.983720 0.014030 -0.005860 
#    y 0.014030 2.001080 0.006300 
#    z -0.005860 0.006300 2.010790 
# 
# From -- ./inp_files/471839.got.cif
#   From: 2010.06.25/outbox.cif.g09.slc.cpg/sg2_236_cif.got.tgz:471839.got - 2010.06.27 13:26:56.
