data_PCOD8016252
_publ_section_title
;
Structure prediction by ZEFSAII (Michael W. Deem and Ramdas Pophale) SiO2 
 PCOD8016252
Probable space group: P -1
;
_chemical_formula_sum "Si O2"
_cell_formula_units_Z 16
_cell_length_a 16.550353
_cell_length_b 9.422149
_cell_length_c 13.474837
_cell_angle_alpha 60.816653
_cell_angle_beta 156.148890
_cell_angle_gamma 118.877276
_cell_volume 737.737247
_symmetry_space_group_name_H-M "P -1"
_symmetry_group_IT_number 2
_symmetry_cell_setting 'triclinic'
loop_
_space_group_symop_operation_xyz
x,y,z
-x,-y,-z
loop_
_atom_site_type_symbol
_atom_site_label
_atom_site_fract_x
_atom_site_fract_y
_atom_site_fract_z
Si Si1 0.972812 0.088728 0.127886
Si Si2 0.646182 0.251115 0.029888
Si Si3 0.292970 0.307067 0.298870
Si Si4 0.613205 0.864201 0.725822
Si Si5 0.305683 0.002220 0.676002
Si Si6 0.290255 0.670383 0.143435
Si Si7 0.486390 0.752726 0.830018
Si Si8 0.763909 0.494097 0.245014
O O1 0.113001 0.170535 0.170548
O O2 0.827580 0.216296 0.959069
O O3 0.101858 0.027172 0.383116
O O4 0.837818 0.932240 0.987195
O O5 0.758655 0.297781 0.037321
O O6 0.415839 0.176095 0.776468
O O7 0.756170 0.113736 0.259473
O O8 0.652262 0.412666 0.049669
O O9 0.370131 0.282155 0.282550
O O10 0.216833 0.485365 0.155769
O O11 0.470968 0.292058 0.582948
O O12 0.478916 0.797424 0.690777
O O13 0.500000 0.000000 0.500000
O O14 0.463901 0.915350 0.813666
O O15 0.303030 0.614729 0.696425
O O16 0.695309 0.676232 0.116294
O O17 0.000000 0.500000 0.500000
#
# Coordination Sequence:
#
# PCOD8016252 Si02
#       8
#     2   2   2   2   2   2   2   2
#     4  12  24  44  68  95 131 174 227 271 329 397
#     4  10  21  44  64  97 133 167 213 274 329 386
#     4  11  24  44  65  95 134 173 226 271 325 390
#     4  12  24  43  69  97 133 177 219 277 335 380
#     4  10  22  42  69  95 132 170 214 275 333 387
#     4  11  23  44  66  92 134 172 220 275 322 392
#     4  10  23  44  68  95 138 169 217 279 321 388
#     4  10  23  46  69  99 133 176 217 266 333 401
#
# _framework density 21.687939
#
# number of rings (size 3 to 8) (size 9 to 14) (size 15 to 20)
#    0.000    1.250    2.500    3.000    3.500    0.500 
#   11.250    0.000    0.000    0.000    0.000    0.000 
#    0.000    0.000    0.000    0.000    0.000    0.000 
#
# Total GULP energy -198432.775683 kJ/mol
# GULP energy per Si atom -12402.048480 kJ/mol
# Density = 2.163858 g / cm^3
# Si number density = 21.687939 Si / 1000 Ang^3
#
#
#
# Elastic Constant Matrix: (Units=GPa)
#
#
# Indices 1 2 3 4 5 6 
#
# 1 127.2655 22.2792 25.8560 -7.2758 -17.1246 19.0899
# 2 22.2792 75.2163 32.0337 -2.8910 -2.3862 -4.7688
# 3 25.8560 32.0337 103.6526 -4.7352 -5.6767 14.4290
# 4 -7.2758 -2.8910 -4.7352 33.2552 -3.3128 -0.0792
# 5 -17.1246 -2.3862 -5.6767 -3.3128 36.8058 -2.2594
# 6 19.0899 -4.7688 14.4290 -0.0792 -2.2594 35.6342
#
#
#
# Elastic Compliance Matrix: (Units=1/GPa)
#
#
# Indices 1 2 3 4 5 6 
#
# 1 0.009944 -0.002821 -0.000548 0.002263 0.004243 -0.005209
# 2 -0.002821 0.016750 -0.005326 0.000026 -0.000685 0.005866
# 3 -0.000548 -0.005326 0.012288 0.001262 0.001082 -0.005324
# 4 0.002263 0.000026 0.001262 0.031139 0.003966 -0.001399
# 5 0.004243 -0.000685 0.001082 0.003966 0.029567 -0.000920
# 6 -0.005209 0.005866 -0.005324 -0.001399 -0.000920 0.033733
#
#
# Mechanical properties :
#
#
# Convention : Reuss Voigt Hill
#
# Bulk Modulus (GPa) = 46.31063 51.83024 49.07043
# Shear Modulus (GPa) = 31.64396 36.20343 33.92369
#
# Velocity S-wave (km/s) = 3.82391 4.09013 3.95925
# Velocity P-wave (km/s) = 6.39499 6.80114 6.60119
#
# Compressibility (1/GPa) = 0.02159332
#
# Stress axis : x y z
#
# Youngs Moduli (GPa) = 100.55896 59.70194 81.37903
#
# Poissons Ratio (x) = 0.16841 0.04459
# Poissons Ratio (y) = 0.28366 0.43341
# Poissons Ratio (z) = 0.05510 0.31796
#
# Static dielectric constant tensor:
#      x y z
#    x 4.019040 0.033030 -0.185810 
#    y 0.033030 4.122280 -0.050880 
#    z -0.185810 -0.050880 3.814250 
# 
# 
# High freq. dielectric constant tensor:
#      x y z
#    x 1.857720 0.004690 -0.013110 
#    y 0.004690 1.860120 -0.008450 
#    z -0.013110 -0.008450 1.838250 
# 
# From -- ./inp_files/447286.got.cif
#   From: 2010.06.25/outbox.cif.g09.slc.cpg/sg2_224_cif.got.tgz:447286.got - 2010.06.27 13:26:56.
