data_PCOD8016558
_publ_section_title
;
Structure prediction by ZEFSAII (Michael W. Deem and Ramdas Pophale) SiO2 
 PCOD8016558
Probable space group: P -1
;
_chemical_formula_sum "Si O2"
_cell_formula_units_Z 14
_cell_length_a 8.329105
_cell_length_b 7.008180
_cell_length_c 16.326423
_cell_angle_alpha 54.538034
_cell_angle_beta 76.752106
_cell_angle_gamma 56.478063
_cell_volume 641.249151
_symmetry_space_group_name_H-M "P -1"
_symmetry_group_IT_number 2
_symmetry_cell_setting 'triclinic'
loop_
_space_group_symop_operation_xyz
x,y,z
-x,-y,-z
loop_
_atom_site_type_symbol
_atom_site_label
_atom_site_fract_x
_atom_site_fract_y
_atom_site_fract_z
Si Si1 0.743301 0.912758 0.295027
Si Si2 0.534456 0.220999 0.399109
Si Si3 0.836047 0.779052 0.856447
Si Si4 0.299347 0.590227 0.544778
Si Si5 0.146343 0.773554 0.348837
Si Si6 0.894001 0.854123 0.013178
Si Si7 0.562428 0.187614 0.084173
O O1 0.702358 0.668352 0.354676
O O2 0.964055 0.782616 0.328130
O O3 0.595042 0.144511 0.317556
O O4 0.708077 0.063103 0.175020
O O5 0.712666 0.221605 0.424280
O O6 0.337231 0.516537 0.350616
O O7 0.500000 0.000000 0.500000
O O8 0.622401 0.833747 0.873114
O O9 0.991195 0.463977 0.894229
O O10 0.848907 0.953936 0.737865
O O11 0.888280 0.872285 0.911247
O O12 0.500000 0.500000 0.500000
O O13 0.134284 0.749642 0.455017
O O14 0.676140 0.006532 0.036457
O O15 0.000000 0.000000 0.000000
O O16 0.500000 0.500000 0.000000
#
# Coordination Sequence:
#
# PCOD8016558 Si02
#       7
#     2   2   2   2   2   2   2
#     4  12  26  45  68 103 139 182 234 282 350 411
#     4  11  24  44  73  98 141 185 224 284 350 412
#     4  11  26  45  73 101 140 184 232 289 351 409
#     4  10  21  45  67 101 137 172 228 280 341 416
#     4  11  25  44  71 104 139 178 232 287 341 422
#     4  11  24  48  70 102 139 180 237 292 345 413
#     4  12  26  45  73 102 140 186 233 288 349 413
#
# _framework density 21.832388000000002
#
# number of rings (size 3 to 8) (size 9 to 14) (size 15 to 20)
#    0.000    0.857    4.286    3.429    4.000    4.000 
#    0.000    0.000    0.000    0.000    0.000    0.000 
#    0.000    0.000    0.000    0.000    0.000    0.000 
#
# Total GULP energy -173657.577780 kJ/mol
# GULP energy per Si atom -12404.112699 kJ/mol
# Density = 2.178270 g / cm^3
# Si number density = 21.832388 Si / 1000 Ang^3
#
#
#
# Elastic Constant Matrix: (Units=GPa)
#
#
# Indices 1 2 3 4 5 6 
#
# 1 110.6150 34.2921 24.3931 -12.8957 6.3077 15.3295
# 2 34.2921 131.4635 47.1365 -10.3807 3.1089 8.3032
# 3 24.3931 47.1365 130.0115 -22.9599 8.7101 13.2354
# 4 -12.8957 -10.3807 -22.9599 30.2906 2.4440 0.0377
# 5 6.3077 3.1089 8.7101 2.4440 38.5822 0.2337
# 6 15.3295 8.3032 13.2354 0.0377 0.2337 46.0349
#
#
#
# Elastic Compliance Matrix: (Units=1/GPa)
#
#
# Indices 1 2 3 4 5 6 
#
# 1 0.010740 -0.002224 -0.000081 0.003897 -0.001786 -0.003146
# 2 -0.002224 0.009240 -0.002951 -0.000040 0.000288 -0.000079
# 3 -0.000081 -0.002951 0.010445 0.007080 -0.002541 -0.002437
# 4 0.003897 -0.000040 0.007080 0.040414 -0.004772 -0.003335
# 5 -0.001786 0.000288 -0.002541 -0.004772 0.027056 0.001140
# 6 -0.003146 -0.000079 -0.002437 -0.003335 0.001140 0.023482
#
#
# Mechanical properties :
#
#
# Convention : Reuss Voigt Hill
#
# Bulk Modulus (GPa) = 50.21646 64.85926 57.53786
# Shear Modulus (GPa) = 36.09404 40.73276 38.41340
#
# Velocity S-wave (km/s) = 4.07041 4.32406 4.19915
# Velocity P-wave (km/s) = 6.71876 7.39610 7.06556
#
# Compressibility (1/GPa) = 0.01991379
#
# Stress axis : x y z
#
# Youngs Moduli (GPa) = 93.11189 108.22634 95.73705
#
# Poissons Ratio (x) = 0.24068 0.00771
# Poissons Ratio (y) = 0.20707 0.28253
# Poissons Ratio (z) = 0.00750 0.31939
#
# Static dielectric constant tensor:
#      x y z
#    x 1.810670 1.607660 1.241710 
#    y 1.607660 3.084710 -0.373420 
#    z 1.241710 -0.373420 3.695880 
# 
# 
# High freq. dielectric constant tensor:
#      x y z
#    x 1.870370 0.007360 0.002340 
#    y 0.007360 1.863230 -0.003260 
#    z 0.002340 -0.003260 1.865050 
# 
# From -- ./inp_files/488086.got.cif
#   From: 2010.06.25/outbox.cif.g09.slc.cpg/sg2_245_cif.got.tgz:488086.got - 2010.06.27 13:26:56.
