data_PCOD8016501
_publ_section_title
;
Structure prediction by ZEFSAII (Michael W. Deem and Ramdas Pophale) SiO2 
 PCOD8016501
Probable space group: P -1
;
_chemical_formula_sum "Si O2"
_cell_formula_units_Z 16
_cell_length_a 12.985071
_cell_length_b 18.531582
_cell_length_c 9.059746
_cell_angle_alpha 104.139491
_cell_angle_beta 94.150246
_cell_angle_gamma 20.980632
_cell_volume 676.541548
_symmetry_space_group_name_H-M "P -1"
_symmetry_group_IT_number 2
_symmetry_cell_setting 'triclinic'
loop_
_space_group_symop_operation_xyz
x,y,z
-x,-y,-z
loop_
_atom_site_type_symbol
_atom_site_label
_atom_site_fract_x
_atom_site_fract_y
_atom_site_fract_z
Si Si1 0.230711 0.728732 0.166883
Si Si2 0.865512 0.508472 0.996152
Si Si3 0.777246 0.765783 0.834631
Si Si4 0.818020 0.086773 0.883122
Si Si5 0.430459 0.877691 0.702720
Si Si6 0.206525 0.168892 0.643683
Si Si7 0.198042 0.524850 0.511518
Si Si8 0.799976 0.199658 0.497171
O O1 0.315878 0.755327 0.152064
O O2 0.216616 0.723475 0.341711
O O3 0.500000 0.500000 0.000000
O O4 0.886910 0.941712 0.165749
O O5 0.492810 0.752164 0.025602
O O6 0.900174 0.460806 0.147015
O O7 0.000000 0.500000 0.000000
O O8 0.115315 0.284528 0.826695
O O9 0.641455 0.775689 0.795328
O O10 0.871631 0.743513 0.682866
O O11 0.500000 0.000000 0.000000
O O12 0.051181 0.881302 0.690339
O O13 0.000000 0.000000 0.000000
O O14 0.647273 0.662978 0.556308
O O15 0.306573 0.018513 0.633004
O O16 0.891175 0.385254 0.615291
O O17 0.500000 0.000000 0.500000
O O18 0.435680 0.423532 0.549383
O O19 0.000000 0.000000 0.500000
#
# Coordination Sequence:
#
# PCOD8016501 Si02
#       8
#     2   2   2   2   2   2   2   2
#     4  11  25  45  73 102 143 192 247 304 373 440
#     4  12  27  43  72 105 146 189 244 302 372 438
#     4  12  25  44  68 104 144 190 239 305 366 431
#     4  11  24  47  70 105 144 185 244 304 359 444
#     4  12  25  45  76 103 146 197 247 297 381 437
#     4  12  26  47  66 110 148 185 246 310 357 448
#     4  12  24  46  77 100 144 198 243 296 378 439
#     4  10  21  44  73 100 137 191 245 294 360 452
#
# _framework density 23.649695000000001
#
# number of rings (size 3 to 8) (size 9 to 14) (size 15 to 20)
#    0.000    0.500    5.000    4.125    5.250    0.000 
#    0.000    2.500    0.000    0.000    0.000    0.000 
#    0.000    0.000    0.000    0.000    0.000    0.000 
#
# Total GULP energy -198269.351442 kJ/mol
# GULP energy per Si atom -12391.834465 kJ/mol
# Density = 2.359587 g / cm^3
# Si number density = 23.649695 Si / 1000 Ang^3
#
#
#
# Elastic Constant Matrix: (Units=GPa)
#
#
# Indices 1 2 3 4 5 6 
#
# 1 81.3468 40.5005 26.0399 8.0504 -8.3359 -24.6065
# 2 40.5005 123.0980 43.2481 -11.2378 10.2390 -16.2656
# 3 26.0399 43.2481 160.4252 12.1384 12.1289 -13.9960
# 4 8.0504 -11.2378 12.1384 46.2426 -8.1821 -0.3472
# 5 -8.3359 10.2390 12.1289 -8.1821 26.2523 -0.4802
# 6 -24.6065 -16.2656 -13.9960 -0.3472 -0.4802 56.7693
#
#
#
# Elastic Compliance Matrix: (Units=1/GPa)
#
#
# Indices 1 2 3 4 5 6 
#
# 1 0.018514 -0.005743 -0.001313 -0.002820 0.007958 0.006106
# 2 -0.005743 0.011459 -0.002088 0.003591 -0.004204 0.000266
# 3 -0.001313 -0.002088 0.007596 -0.002981 -0.004029 0.000653
# 4 -0.002820 0.003591 -0.002981 0.024978 0.006853 -0.000718
# 5 0.007958 -0.004204 -0.004029 0.006853 0.046287 0.001685
# 6 0.006106 0.000266 0.000653 -0.000718 0.001685 0.020509
#
#
# Mechanical properties :
#
#
# Convention : Reuss Voigt Hill
#
# Bulk Modulus (GPa) = 51.85744 64.93854 58.39799
# Shear Modulus (GPa) = 32.45555 42.85830 37.65693
#
# Velocity S-wave (km/s) = 3.70854 4.26163 3.99467
# Velocity P-wave (km/s) = 6.34922 7.19260 6.78403
#
# Compressibility (1/GPa) = 0.01928364
#
# Stress axis : x y z
#
# Youngs Moduli (GPa) = 54.01368 87.26702 131.64000
#
# Poissons Ratio (x) = 0.50115 0.17278
# Poissons Ratio (y) = 0.31018 0.27482
# Poissons Ratio (z) = 0.07089 0.18219
#
# Static dielectric constant tensor:
#      x y z
#    x 2.803270 -0.398150 0.851930 
#    y -0.398150 4.509990 -0.210430 
#    z 0.851930 -0.210430 4.943380 
# 
# 
# High freq. dielectric constant tensor:
#      x y z
#    x 1.924690 -0.020860 0.002250 
#    y -0.020860 1.946170 -0.004670 
#    z 0.002250 -0.004670 1.949370 
# 
# From -- ./inp_files/319385.got.cif
#   From: 2010.06.25/outbox.cif.g09.slc.cpg/sg2_160_cif.got.tgz:319385.got - 2010.06.27 13:26:56.
