data_PCOD8016679
_publ_section_title
;
Structure prediction by ZEFSAII (Michael W. Deem and Ramdas Pophale) SiO2 
 PCOD8016679
Probable space group: P -1
;
_chemical_formula_sum "Si O2"
_cell_formula_units_Z 14
_cell_length_a 15.325739
_cell_length_b 7.631643
_cell_length_c 14.514554
_cell_angle_alpha 98.423289
_cell_angle_beta 152.693694
_cell_angle_gamma 66.877785
_cell_volume 628.376348
_symmetry_space_group_name_H-M "P -1"
_symmetry_group_IT_number 2
_symmetry_cell_setting 'triclinic'
loop_
_space_group_symop_operation_xyz
x,y,z
-x,-y,-z
loop_
_atom_site_type_symbol
_atom_site_label
_atom_site_fract_x
_atom_site_fract_y
_atom_site_fract_z
Si Si1 0.609176 0.943262 0.499349
Si Si2 0.693977 0.947385 0.935517
Si Si3 0.127094 0.754417 0.417453
Si Si4 0.057260 0.515618 0.948675
Si Si5 0.867923 0.682986 0.313686
Si Si6 0.528896 0.391982 0.421267
Si Si7 0.408716 0.892799 0.804808
O O1 0.858978 0.720201 0.721025
O O2 0.500000 0.000000 0.500000
O O3 0.439912 0.916804 0.271596
O O4 0.622510 0.138824 0.493364
O O5 0.491920 0.998542 0.819823
O O6 0.873312 0.694256 0.058326
O O7 0.884289 0.975377 0.165464
O O8 0.291275 0.598948 0.474567
O O9 0.280086 0.805652 0.624848
O O10 0.051940 0.628836 0.401111
O O11 0.273268 0.534338 0.148626
O O12 0.000000 0.500000 0.000000
O O13 0.000000 0.500000 0.500000
O O14 0.777404 0.919059 0.286789
O O15 0.640822 0.699284 0.062348
O O16 0.500000 0.500000 0.500000
#
# Coordination Sequence:
#
# PCOD8016679 Si02
#       7
#     2   2   2   2   2   2   2
#     4  11  22  40  65  89 124 186 230 264 330 388
#     4  10  22  40  65  94 134 172 222 273 334 381
#     4  11  22  44  68  98 136 174 217 280 326 388
#     4  11  20  40  61  86 132 177 220 276 322 381
#     4  10  24  44  73  98 130 172 217 273 345 401
#     4  11  24  42  61  98 138 175 225 273 322 390
#     4  10  21  46  67  97 135 166 216 278 332 398
#
# _framework density 22.279641999999999
#
# number of rings (size 3 to 8) (size 9 to 14) (size 15 to 20)
#    0.000    1.429    5.714    1.286    0.000    3.429 
#    0.000    4.286    0.000    0.000    0.000    0.000 
#    0.000    0.000    0.000    0.000    0.000    0.000 
#
# Total GULP energy -173467.612453 kJ/mol
# GULP energy per Si atom -12390.543747 kJ/mol
# Density = 2.222893 g / cm^3
# Si number density = 22.279642 Si / 1000 Ang^3
#
#
#
# Elastic Constant Matrix: (Units=GPa)
#
#
# Indices 1 2 3 4 5 6 
#
# 1 144.7292 14.8013 64.3893 -1.7045 4.5992 -6.4307
# 2 14.8013 46.8981 46.6668 2.9617 -1.3762 -8.5861
# 3 64.3893 46.6668 230.6264 8.2048 -22.6164 11.6550
# 4 -1.7045 2.9617 8.2048 41.0981 -2.0736 -1.7855
# 5 4.5992 -1.3762 -22.6164 -2.0736 48.1526 2.6101
# 6 -6.4307 -8.5861 11.6550 -1.7855 2.6101 22.9349
#
#
#
# Elastic Compliance Matrix: (Units=1/GPa)
#
#
# Indices 1 2 3 4 5 6 
#
# 1 0.008479 0.001164 -0.003118 0.000973 -0.002457 0.004753
# 2 0.001164 0.031874 -0.007996 -0.000120 -0.003869 0.016753
# 3 -0.003118 -0.007996 0.007690 -0.001245 0.004080 -0.008337
# 4 0.000973 -0.000120 -0.001245 0.024761 0.000236 0.002761
# 5 -0.002457 -0.003869 0.004080 0.000236 0.023188 -0.006831
# 6 0.004753 0.016753 -0.008337 0.002761 -0.006831 0.056436
#
#
# Mechanical properties :
#
#
# Convention : Reuss Voigt Hill
#
# Bulk Modulus (GPa) = 35.53573 74.88538 55.21055
# Shear Modulus (GPa) = 27.51645 42.19686 34.85666
#
# Velocity S-wave (km/s) = 3.51814 4.35669 3.95968
# Velocity P-wave (km/s) = 5.69979 7.68064 6.76313
#
# Compressibility (1/GPa) = 0.02814069
#
# Stress axis : x y z
#
# Youngs Moduli (GPa) = 117.94528 31.37388 130.03265
#
# Poissons Ratio (x) = -0.03651 0.40549
# Poissons Ratio (y) = -0.13726 1.03978
# Poissons Ratio (z) = 0.36780 0.25088
#
# Static dielectric constant tensor:
#      x y z
#    x 3.915860 -0.733330 -0.213170 
#    y -0.733330 3.174270 0.198950 
#    z -0.213170 0.198950 4.621450 
# 
# 
# High freq. dielectric constant tensor:
#      x y z
#    x 1.889600 -0.030900 0.001130 
#    y -0.030900 1.832160 0.018580 
#    z 0.001130 0.018580 1.909190 
# 
# From -- ./inp_files/529795.got.cif
#   From: 2010.06.25/outbox.cif.g09.slc.cpg/sg2_265_cif.got.tgz:529795.got - 2010.06.27 13:26:56.
