data_PCOD8016750
_publ_section_title
;
Structure prediction by ZEFSAII (Michael W. Deem and Ramdas Pophale) SiO2 
 PCOD8016750
Probable space group: P -1
;
_chemical_formula_sum "Si O2"
_cell_formula_units_Z 16
_cell_length_a 24.602037
_cell_length_b 16.838313
_cell_length_c 16.321323
_cell_angle_alpha 162.464023
_cell_angle_beta 153.573914
_cell_angle_gamma 25.602356
_cell_volume 846.762029
_symmetry_space_group_name_H-M "P -1"
_symmetry_group_IT_number 2
_symmetry_cell_setting 'triclinic'
loop_
_space_group_symop_operation_xyz
x,y,z
-x,-y,-z
loop_
_atom_site_type_symbol
_atom_site_label
_atom_site_fract_x
_atom_site_fract_y
_atom_site_fract_z
Si Si1 0.644443 0.508510 0.699283
Si Si2 0.454042 0.277259 0.763753
Si Si3 0.843108 0.577903 0.455719
Si Si4 0.518671 0.265217 0.024189
Si Si5 0.308239 0.011841 0.658348
Si Si6 0.995446 0.964962 0.054929
Si Si7 0.218769 0.435819 0.827128
Si Si8 0.576048 0.705278 0.632018
O O1 0.500000 0.500000 0.500000
O O2 0.677181 0.554903 0.694112
O O3 0.740324 0.201620 0.562033
O O4 0.651303 0.771035 0.017713
O O5 0.298520 0.391849 0.673795
O O6 0.500000 0.000000 0.500000
O O7 0.500000 0.500000 0.000000
O O8 0.521744 0.216400 0.883727
O O9 0.887816 0.823666 0.793222
O O10 0.843923 0.597373 0.376742
O O11 0.945389 0.279441 0.334470
O O12 0.587527 0.485426 0.357691
O O13 0.370505 0.390741 0.981132
O O14 0.603523 0.970315 0.891531
O O15 0.200840 0.200522 0.633474
O O16 0.430649 0.811313 0.575555
O O17 0.139448 0.749821 0.065895
O O18 0.000000 0.000000 0.000000
#
# Coordination Sequence:
#
# PCOD8016750 Si02
#       8
#     2   2   2   2   2   2   2   2
#     4  10  17  26  38  57  86 123 158 187 220 257
#     4  11  22  37  53  70  94 122 155 203 248 282
#     4  10  21  33  48  68  90 125 164 191 232 278
#     4  10  20  30  47  68  88 123 162 190 227 275
#     4  10  18  25  39  61  87 124 159 186 217 259
#     4  10  19  31  47  67  93 125 158 195 226 265
#     4   9  18  29  44  65  94 123 158 189 214 265
#     4  10  17  29  42  60  89 121 159 195 217 265
#
# _framework density 18.895509000000001
#
# number of rings (size 3 to 8) (size 9 to 14) (size 15 to 20)
#    0.000    2.000    0.000    8.250    0.000   13.000 
#    0.000    0.000    0.000    0.000    0.000    0.000 
#    0.000    0.000    0.000   78.750    0.000   30.750 
#
# Total GULP energy -198264.138288 kJ/mol
# GULP energy per Si atom -12391.508643 kJ/mol
# Density = 1.885250 g / cm^3
# Si number density = 18.895509 Si / 1000 Ang^3
#
#
#
# Elastic Constant Matrix: (Units=GPa)
#
#
# Indices 1 2 3 4 5 6 
#
# 1 73.4899 45.7805 33.1320 10.4558 -4.1023 18.0485
# 2 45.7805 100.1007 26.4963 34.3135 1.4781 22.4805
# 3 33.1320 26.4963 112.3725 28.4714 -8.0283 9.1917
# 4 10.4558 34.3135 28.4714 31.2273 4.0470 7.2757
# 5 -4.1023 1.4781 -8.0283 4.0470 31.9190 2.8562
# 6 18.0485 22.4805 9.1917 7.2757 2.8562 22.1809
#
#
#
# Elastic Compliance Matrix: (Units=1/GPa)
#
#
# Indices 1 2 3 4 5 6 
#
# 1 0.024651 -0.011771 -0.006938 0.013115 0.001174 -0.009707
# 2 -0.011771 0.025337 0.005309 -0.026818 0.002934 -0.009882
# 3 -0.006938 0.005309 0.014422 -0.017107 0.004722 -0.000709
# 4 0.013115 -0.026818 -0.017107 0.073927 -0.010815 0.000741
# 5 0.001174 0.002934 0.004722 -0.010815 0.034510 -0.006782
# 6 -0.009707 -0.009882 -0.000709 0.000741 -0.006782 0.063922
#
#
# Mechanical properties :
#
#
# Convention : Reuss Voigt Hill
#
# Bulk Modulus (GPa) = 26.58762 55.19786 40.89274
# Shear Modulus (GPa) = 18.10896 29.10238 23.60567
#
# Velocity S-wave (km/s) = 3.09912 3.92876 3.53834
# Velocity P-wave (km/s) = 5.18724 7.06086 6.19529
#
# Compressibility (1/GPa) = 0.03761149
#
# Stress axis : x y z
#
# Youngs Moduli (GPa) = 40.56585 39.46800 69.33619
#
# Poissons Ratio (x) = 0.46457 0.48104
# Poissons Ratio (y) = 0.47749 -0.36811
# Poissons Ratio (z) = 0.28144 -0.20954
#
# Static dielectric constant tensor:
#      x y z
#    x 3.642780 0.613810 -0.068480 
#    y 0.613810 4.333280 0.525800 
#    z -0.068480 0.525800 3.700870 
# 
# 
# High freq. dielectric constant tensor:
#      x y z
#    x 1.673790 0.037700 -0.004230 
#    y 0.037700 1.728650 0.025800 
#    z -0.004230 0.025800 1.752340 
# 
# From -- ./inp_files/534884.got.cif
#   From: 2010.06.25/outbox.cif.g09.slc.cpg/sg2_268_cif.got.tgz:534884.got - 2010.06.27 13:26:56.
