data_PCOD8016142
_publ_section_title
;
Structure prediction by ZEFSAII (Michael W. Deem and Ramdas Pophale) SiO2 
 PCOD8016142
Probable space group: P -1
;
_chemical_formula_sum "Si O2"
_cell_formula_units_Z 16
_cell_length_a 11.575535
_cell_length_b 14.928916
_cell_length_c 9.395775
_cell_angle_alpha 132.846138
_cell_angle_beta 39.729618
_cell_angle_gamma 113.532439
_cell_volume 733.902032
_symmetry_space_group_name_H-M "P -1"
_symmetry_group_IT_number 2
_symmetry_cell_setting 'triclinic'
loop_
_space_group_symop_operation_xyz
x,y,z
-x,-y,-z
loop_
_atom_site_type_symbol
_atom_site_label
_atom_site_fract_x
_atom_site_fract_y
_atom_site_fract_z
Si Si1 0.617535 0.375633 0.329255
Si Si2 0.791079 0.130045 0.749149
Si Si3 0.675965 0.711898 0.322259
Si Si4 0.796460 0.886423 0.615556
Si Si5 0.481443 0.146887 0.650865
Si Si6 0.178869 0.245730 0.264792
Si Si7 0.120448 0.878746 0.670975
Si Si8 0.955360 0.478338 0.180915
O O1 0.500000 0.500000 0.500000
O O2 0.501096 0.341588 0.533882
O O3 0.806019 0.395803 0.240794
O O4 0.653428 0.268394 0.055765
O O5 0.824227 0.091640 0.510645
O O6 0.983762 0.134416 0.648081
O O7 0.698444 0.029621 0.809777
O O8 0.720986 0.783559 0.494300
O O9 0.626445 0.809693 0.345997
O O10 0.858046 0.595909 0.991146
O O11 0.765503 0.865026 0.788375
O O12 0.685300 0.174073 0.485377
O O13 0.500000 0.000000 0.500000
O O14 0.359386 0.230442 0.980033
O O15 0.126523 0.385827 0.525594
O O16 0.998506 0.225089 0.328581
O O17 0.000000 0.000000 0.000000
O O18 0.000000 0.500000 0.000000
#
# Coordination Sequence:
#
# PCOD8016142 Si02
#       8
#     2   2   2   2   2   2   2   2
#     4  12  25  42  73 110 142 186 234 299 360 420
#     4  10  23  40  74 106 139 183 244 294 361 420
#     4  12  27  44  74 109 144 190 237 301 359 425
#     4  10  21  43  71 107 137 178 243 304 357 412
#     4  12  28  47  70 106 148 188 239 287 362 435
#     4  11  25  45  77 100 140 195 234 295 363 414
#     4  11  24  45  69 100 148 188 229 293 362 425
#     4  12  23  49  74 103 147 182 242 301 356 421
#
# _framework density 21.801276000000001
#
# number of rings (size 3 to 8) (size 9 to 14) (size 15 to 20)
#    0.000    0.750    5.000    1.500    5.250    3.000 
#    0.000    1.250    0.000    0.000    0.000    0.000 
#    0.000    0.000    0.000    0.000    0.000    0.000 
#
# Total GULP energy -198439.125977 kJ/mol
# GULP energy per Si atom -12402.445374 kJ/mol
# Density = 2.175165 g / cm^3
# Si number density = 21.801276 Si / 1000 Ang^3
#
#
#
# Elastic Constant Matrix: (Units=GPa)
#
#
# Indices 1 2 3 4 5 6 
#
# 1 95.9193 34.0971 48.4067 -0.0110 -7.2617 -1.0134
# 2 34.0971 106.6132 51.8963 4.3493 -3.2657 -1.7647
# 3 48.4067 51.8963 149.3775 9.4633 1.5175 4.0636
# 4 -0.0110 4.3493 9.4633 39.3263 6.8983 -5.6619
# 5 -7.2617 -3.2657 1.5175 6.8983 31.6461 3.2785
# 6 -1.0134 -1.7647 4.0636 -5.6619 3.2785 41.1319
#
#
#
# Elastic Compliance Matrix: (Units=1/GPa)
#
#
# Indices 1 2 3 4 5 6 
#
# 1 0.013303 -0.002469 -0.003538 0.000707 0.002767 0.000448
# 2 -0.002469 0.011837 -0.003302 -0.000579 0.000875 0.000624
# 3 -0.003538 -0.003302 0.009151 -0.001840 -0.001055 -0.001302
# 4 0.000707 -0.000579 -0.001840 0.027688 -0.006310 0.004489
# 5 0.002767 0.000875 -0.001055 -0.006310 0.034100 -0.003377
# 6 0.000448 0.000624 -0.001302 0.004489 -0.003377 0.025365
#
#
# Mechanical properties :
#
#
# Convention : Reuss Voigt Hill
#
# Bulk Modulus (GPa) = 63.80219 68.96778 66.38498
# Shear Modulus (GPa) = 34.41458 36.92151 35.66805
#
# Velocity S-wave (km/s) = 3.97742 4.11974 4.04920
# Velocity P-wave (km/s) = 7.10085 7.37110 7.23723
#
# Compressibility (1/GPa) = 0.01567344
#
# Stress axis : x y z
#
# Youngs Moduli (GPa) = 75.17106 84.47975 109.28025
#
# Poissons Ratio (x) = 0.20857 0.38666
# Poissons Ratio (y) = 0.18559 0.36079
# Poissons Ratio (z) = 0.26598 0.27891
#
# Static dielectric constant tensor:
#      x y z
#    x 4.090440 0.196940 -0.307110 
#    y 0.196940 4.078110 -0.194910 
#    z -0.307110 -0.194910 3.653230 
# 
# 
# High freq. dielectric constant tensor:
#      x y z
#    x 1.855720 0.015190 -0.011240 
#    y 0.015190 1.856110 0.000280 
#    z -0.011240 0.000280 1.865020 
# 
# From -- ./inp_files/274211.got.cif
#   From: 2010.06.25/outbox.cif.g09.slc.cpg/sg2_138_cif.got.tgz:274211.got - 2010.06.27 13:26:56.
