data_PCOD8016090
_publ_section_title
;
Structure prediction by ZEFSAII (Michael W. Deem and Ramdas Pophale) SiO2 
 PCOD8016090
Probable space group: P -1
;
_chemical_formula_sum "Si O2"
_cell_formula_units_Z 12
_cell_length_a 7.041576
_cell_length_b 6.702636
_cell_length_c 10.842891
_cell_angle_alpha 75.827541
_cell_angle_beta 74.702331
_cell_angle_gamma 60.161422
_cell_volume 424.219138
_symmetry_space_group_name_H-M "P -1"
_symmetry_group_IT_number 2
_symmetry_cell_setting 'triclinic'
loop_
_space_group_symop_operation_xyz
x,y,z
-x,-y,-z
loop_
_atom_site_type_symbol
_atom_site_label
_atom_site_fract_x
_atom_site_fract_y
_atom_site_fract_z
Si Si1 0.518419 0.161285 0.602389
Si Si2 0.902224 0.746566 0.722144
Si Si3 0.299508 0.316125 0.007948
Si Si4 0.737629 0.213571 0.064979
Si Si5 0.116826 0.252586 0.799412
Si Si6 0.602842 0.362335 0.330008
O O1 0.304196 0.128498 0.681204
O O2 0.509117 0.215301 0.449171
O O3 0.528822 0.369570 0.646260
O O4 0.738331 0.924514 0.626607
O O5 0.924398 0.485794 0.735718
O O6 0.136062 0.743987 0.667525
O O7 0.812369 0.806265 0.870297
O O8 0.566769 0.187882 0.001875
O O9 0.183989 0.597505 0.023809
O O10 0.243911 0.321815 0.873642
O O11 0.576534 0.335042 0.192628
O O12 0.938441 0.954134 0.108271
#
# Coordination Sequence:
#
# PCOD8016090 Si02
#       6
#     2   2   2   2   2   2
#     4  10  21  43  70  87 132 171 208 265 313 381
#     4  11  22  41  66  95 127 171 207 264 321 372
#     4  11  23  42  65  96 131 167 211 259 323 378
#     4  11  23  41  66  98 127 167 215 260 315 385
#     4  11  23  42  65  98 130 168 206 264 325 370
#     4  10  23  43  67  97 122 172 219 255 320 369
#
# _framework density 28.287265999999999
#
# number of rings (size 3 to 8) (size 9 to 14) (size 15 to 20)
#    0.000    1.333    5.000    1.500    0.000    1.333 
#    3.000    0.833    0.000    0.000    0.000    0.000 
#    0.000    0.000    0.000    0.000    0.000    0.000 
#
# Total GULP energy -148775.625472 kJ/mol
# GULP energy per Si atom -12397.968789 kJ/mol
# Density = 2.822288 g / cm^3
# Si number density = 28.287266 Si / 1000 Ang^3
#
#
#
# Elastic Constant Matrix: (Units=GPa)
#
#
# Indices 1 2 3 4 5 6 
#
# 1 48.4097 16.5887 27.4602 -8.0398 -7.7876 -6.3147
# 2 16.5887 153.7714 16.0701 -35.9766 9.6132 -31.5011
# 3 27.4602 16.0701 104.4117 -25.0889 -15.7657 9.1581
# 4 -8.0398 -35.9766 -25.0889 49.0305 13.2125 6.1890
# 5 -7.7876 9.6132 -15.7657 13.2125 47.8919 -4.9417
# 6 -6.3147 -31.5011 9.1581 6.1890 -4.9417 30.5791
#
#
#
# Elastic Compliance Matrix: (Units=1/GPa)
#
#
# Indices 1 2 3 4 5 6 
#
# 1 0.026468 -0.001336 -0.007425 -0.002318 0.003526 0.007352
# 2 -0.001336 0.010326 -0.000916 0.006750 -0.003556 0.008694
# 3 -0.007425 -0.000916 0.013933 0.005898 0.001146 -0.007658
# 4 -0.002318 0.006750 0.005898 0.030651 -0.008543 -0.002876
# 5 0.003526 -0.003556 0.001146 -0.008543 0.025161 0.002517
# 6 0.007352 0.008694 -0.007658 -0.002876 0.002517 0.046459
#
#
# Mechanical properties :
#
#
# Convention : Reuss Voigt Hill
#
# Bulk Modulus (GPa) = 31.87356 47.42563 39.64960
# Shear Modulus (GPa) = 27.35102 41.93187 34.64144
#
# Velocity S-wave (km/s) = 3.11288 3.85432 3.50327
# Velocity P-wave (km/s) = 4.92060 6.05060 5.51462
#
# Compressibility (1/GPa) = 0.03137396
#
# Stress axis : x y z
#
# Youngs Moduli (GPa) = 37.78184 96.84655 71.77203
#
# Poissons Ratio (x) = 0.12938 0.53289
# Poissons Ratio (y) = 0.05047 0.06571
# Poissons Ratio (z) = 0.28052 0.08867
#
# Static dielectric constant tensor:
#      x y z
#    x 4.528350 0.145210 -0.357640 
#    y 0.145210 5.712030 0.006010 
#    z -0.357640 0.006010 5.368570 
# 
# 
# High freq. dielectric constant tensor:
#      x y z
#    x 2.103460 0.005650 -0.028110 
#    y 0.005650 2.179690 -0.003120 
#    z -0.028110 -0.003120 2.163310 
# 
# From -- ./inp_files/223282.got.cif
#   From: 2010.06.25/outbox.cif.g09.slc.cpg/sg2_112_cif.got.tgz:223282.got - 2010.06.27 13:26:56.
