data_PCOD8016629
_publ_section_title
;
Structure prediction by ZEFSAII (Michael W. Deem and Ramdas Pophale) SiO2 
 PCOD8016629
Probable space group: P -1
;
_chemical_formula_sum "Si O2"
_cell_formula_units_Z 12
_cell_length_a 18.134270
_cell_length_b 6.930368
_cell_length_c 5.248020
_cell_angle_alpha 98.955183
_cell_angle_beta 59.036616
_cell_angle_gamma 114.110841
_cell_volume 514.971796
_symmetry_space_group_name_H-M "P -1"
_symmetry_group_IT_number 2
_symmetry_cell_setting 'triclinic'
loop_
_space_group_symop_operation_xyz
x,y,z
-x,-y,-z
loop_
_atom_site_type_symbol
_atom_site_label
_atom_site_fract_x
_atom_site_fract_y
_atom_site_fract_z
Si Si1 0.979689 0.708738 0.061622
Si Si2 0.792397 0.670663 0.566783
Si Si3 0.914350 0.119945 0.596114
Si Si4 0.346668 0.157768 0.321041
Si Si5 0.241902 0.743652 0.171991
Si Si6 0.410814 0.056013 0.691977
O O1 0.015368 0.843691 0.285943
O O2 0.868483 0.646560 0.232395
O O3 0.029020 0.850537 0.762277
O O4 0.000000 0.500000 0.000000
O O5 0.756671 0.477242 0.786637
O O6 0.834842 0.884517 0.703841
O O7 0.705303 0.678457 0.561928
O O8 0.862325 0.285474 0.740749
O O9 0.270029 0.914600 0.390533
O O10 0.403869 0.190733 0.487302
O O11 0.417665 0.198052 0.962053
O O12 0.318259 0.837025 0.830067
O O13 0.500000 0.000000 0.500000
#
# Coordination Sequence:
#
# PCOD8016629 Si02
#       6
#     2   2   2   2   2   2
#     4  12  25  43  64  94 130 182 221 267 315 377
#     4  11  23  44  67  95 136 173 220 273 316 384
#     4  11  25  44  61  94 132 172 226 267 319 377
#     4   9  23  42  64  98 126 169 213 261 331 383
#     4   9  23  40  67  94 129 169 214 266 330 371
#     4  10  21  45  71  92 131 167 210 266 330 396
#
# _framework density 23.302246
#
# number of rings (size 3 to 8) (size 9 to 14) (size 15 to 20)
#    1.000    0.667    1.667    2.000    4.667    1.333 
#    6.000    1.667    0.000    0.000    0.000    0.000 
#    0.000    0.000    0.000    0.000    0.000    0.000 
#
# Total GULP energy -148799.785760 kJ/mol
# GULP energy per Si atom -12399.982147 kJ/mol
# Density = 2.324921 g / cm^3
# Si number density = 23.302246 Si / 1000 Ang^3
#
#
#
# Elastic Constant Matrix: (Units=GPa)
#
#
# Indices 1 2 3 4 5 6 
#
# 1 121.4162 15.7239 77.7589 5.0700 -5.9419 -55.4650
# 2 15.7239 87.0120 22.5043 -0.2882 6.4120 -36.9698
# 3 77.7589 22.5043 160.8464 6.4166 2.1276 -25.8586
# 4 5.0700 -0.2882 6.4166 23.9576 -11.4165 -2.9821
# 5 -5.9419 6.4120 2.1276 -11.4165 48.0717 8.3360
# 6 -55.4650 -36.9698 -25.8586 -2.9821 8.3360 43.7386
#
#
#
# Elastic Compliance Matrix: (Units=1/GPa)
#
#
# Indices 1 2 3 4 5 6 
#
# 1 0.058132 0.035968 -0.017379 -0.001892 -0.014006 0.096384
# 2 0.035968 0.041542 -0.010551 -0.001532 -0.014365 0.077119
# 3 -0.017379 -0.010551 0.012210 -0.001520 0.002577 -0.024333
# 4 -0.001892 -0.001532 -0.001520 0.047806 0.012020 -0.003624
# 5 -0.014006 -0.014365 0.002577 0.012020 0.029481 -0.033178
# 6 0.096384 0.077119 -0.024333 -0.003624 -0.033178 0.201963
#
#
# Mechanical properties :
#
#
# Convention : Reuss Voigt Hill
#
# Bulk Modulus (GPa) = 7.81506 66.80544 37.31025
# Shear Modulus (GPa) = 11.96998 40.03942 26.00470
#
# Velocity S-wave (km/s) = 2.26892 4.14969 3.34424
# Velocity P-wave (km/s) = 3.19766 7.18966 5.56401
#
# Compressibility (1/GPa) = 0.12795800
#
# Stress axis : x y z
#
# Youngs Moduli (GPa) = 17.20218 24.07217 81.90188
#
# Poissons Ratio (x) = -0.86582 1.42341
# Poissons Ratio (y) = -0.61872 0.86415
# Poissons Ratio (z) = 0.29896 0.25399
#
# Static dielectric constant tensor:
#      x y z
#    x 4.074230 -0.280460 -0.050180 
#    y -0.280460 3.987260 0.024820 
#    z -0.050180 0.024820 4.012920 
# 
# 
# High freq. dielectric constant tensor:
#      x y z
#    x 1.910890 -0.033350 -0.004640 
#    y -0.033350 1.913790 0.004540 
#    z -0.004640 0.004540 1.915110 
# 
# From -- ./inp_files/103188.got.cif
#   From: 2010.06.25/outbox.cif.g09.slc.cpg/sg2_52_cif.got.tgz:103188.got - 2010.06.27 13:26:56.
