data_PCOD8016798
_publ_section_title
;
Structure prediction by ZEFSAII (Michael W. Deem and Ramdas Pophale) SiO2 
 PCOD8016798
Probable space group: P -1
;
_chemical_formula_sum "Si O2"
_cell_formula_units_Z 16
_cell_length_a 19.963497
_cell_length_b 17.124727
_cell_length_c 12.736164
_cell_angle_alpha 45.447583
_cell_angle_beta 24.769447
_cell_angle_gamma 29.045774
_cell_volume 789.378725
_symmetry_space_group_name_H-M "P -1"
_symmetry_group_IT_number 2
_symmetry_cell_setting 'triclinic'
loop_
_space_group_symop_operation_xyz
x,y,z
-x,-y,-z
loop_
_atom_site_type_symbol
_atom_site_label
_atom_site_fract_x
_atom_site_fract_y
_atom_site_fract_z
Si Si1 0.925616 0.605383 0.668799
Si Si2 0.301633 0.094040 0.787934
Si Si3 0.630232 0.736334 0.760892
Si Si4 0.548252 0.184641 0.715871
Si Si5 0.750390 0.301770 0.373499
Si Si6 0.769887 0.712031 0.110120
Si Si7 0.079767 0.197537 0.364089
Si Si8 0.222792 0.790482 0.353803
O O1 0.797006 0.702768 0.647352
O O2 0.017001 0.669843 0.530573
O O3 0.182747 0.390223 0.486047
O O4 0.726203 0.647832 0.988444
O O5 0.307163 0.201987 0.746565
O O6 0.500000 0.000000 0.500000
O O7 0.392690 0.943875 0.871974
O O8 0.012000 0.221153 0.036833
O O9 0.503367 0.693701 0.025331
O O10 0.745028 0.178992 0.456690
O O11 0.478856 0.211040 0.665945
O O12 0.670124 0.007199 0.757089
O O13 0.500000 0.500000 0.500000
O O14 0.744541 0.309511 0.500638
O O15 0.848845 0.771370 0.869257
O O16 0.000000 0.500000 0.000000
O O17 0.850332 0.238746 0.618420
O O18 0.000000 0.000000 0.500000
#
# Coordination Sequence:
#
# PCOD8016798 Si02
#       8
#     2   2   2   2   2   2   2   2
#     4  10  22  35  63  98 124 163 208 276 317 376
#     4  12  26  42  66  94 135 174 211 269 338 383
#     4  11  22  40  63  94 132 164 217 267 328 381
#     4  11  21  40  67  89 127 167 223 259 316 384
#     4  12  25  41  64  98 128 171 220 266 323 390
#     4  11  23  39  63  96 126 171 219 265 315 389
#     4  11  21  38  66  91 125 165 224 260 316 383
#     4  12  20  41  66  90 120 168 217 265 315 390
#
# _framework density 20.269105
#
# number of rings (size 3 to 8) (size 9 to 14) (size 15 to 20)
#    0.000    0.750    5.000    3.750    5.250    0.500 
#    0.000    0.625    0.000    0.000    0.000    0.000 
#    0.000    0.000    0.000    0.000    0.000    0.000 
#
# Total GULP energy -198430.793531 kJ/mol
# GULP energy per Si atom -12401.924596 kJ/mol
# Density = 2.022297 g / cm^3
# Si number density = 20.269105 Si / 1000 Ang^3
#
#
#
# Elastic Constant Matrix: (Units=GPa)
#
#
# Indices 1 2 3 4 5 6 
#
# 1 163.4626 51.8011 55.3185 6.6561 -13.0254 25.2838
# 2 51.8011 93.0116 27.3929 12.0169 -1.1942 -4.9089
# 3 55.3185 27.3929 101.1844 7.6648 -0.3548 8.6312
# 4 6.6561 12.0169 7.6648 27.7808 1.8712 -3.0184
# 5 -13.0254 -1.1942 -0.3548 1.8712 34.5299 1.7064
# 6 25.2838 -4.9089 8.6312 -3.0184 1.7064 44.9119
#
#
#
# Elastic Compliance Matrix: (Units=1/GPa)
#
#
# Indices 1 2 3 4 5 6 
#
# 1 0.010061 -0.004730 -0.003710 -0.000214 0.003883 -0.005630
# 2 -0.004730 0.014555 -0.001405 -0.004223 -0.001279 0.004289
# 3 -0.003710 -0.001405 0.012480 -0.001926 -0.001188 -0.000548
# 4 -0.000214 -0.004223 -0.001926 0.038870 -0.002488 0.002736
# 5 0.003883 -0.001279 -0.001188 -0.002488 0.030673 -0.003430
# 6 -0.005630 0.004289 -0.000548 0.002736 -0.003430 0.026324
#
#
# Mechanical properties :
#
#
# Convention : Reuss Voigt Hill
#
# Bulk Modulus (GPa) = 57.45016 69.63149 63.54083
# Shear Modulus (GPa) = 31.55467 36.32093 33.93780
#
# Velocity S-wave (km/s) = 3.94989 4.23772 4.09633
# Velocity P-wave (km/s) = 7.01480 7.64019 7.33416
#
# Compressibility (1/GPa) = 0.01740639
#
# Stress axis : x y z
#
# Youngs Moduli (GPa) = 99.39248 68.70453 80.12903
#
# Poissons Ratio (x) = 0.32500 0.29726
# Poissons Ratio (y) = 0.47017 0.11255
# Poissons Ratio (z) = 0.36873 0.09651
#
# Static dielectric constant tensor:
#      x y z
#    x 4.172340 0.048110 -0.222100 
#    y 0.048110 3.744880 0.008370 
#    z -0.222100 0.008370 3.477190 
# 
# 
# High freq. dielectric constant tensor:
#      x y z
#    x 1.809900 -0.000840 -0.017030 
#    y -0.000840 1.793830 0.002130 
#    z -0.017030 0.002130 1.764530 
# 
# From -- ./inp_files/206323.got.cif
#   From: 2010.06.25/outbox.cif.g09.slc.cpg/sg2_104_cif.got.tgz:206323.got - 2010.06.27 13:26:56.
