data_PCOD8016047
_publ_section_title
;
Structure prediction by ZEFSAII (Michael W. Deem and Ramdas Pophale) SiO2 
 PCOD8016047
Probable space group: P -1
;
_chemical_formula_sum "Si O2"
_cell_formula_units_Z 14
_cell_length_a 15.101801
_cell_length_b 7.696088
_cell_length_c 10.782317
_cell_angle_alpha 96.786139
_cell_angle_beta 40.432118
_cell_angle_gamma 69.344527
_cell_volume 586.137306
_symmetry_space_group_name_H-M "P -1"
_symmetry_group_IT_number 2
_symmetry_cell_setting 'triclinic'
loop_
_space_group_symop_operation_xyz
x,y,z
-x,-y,-z
loop_
_atom_site_type_symbol
_atom_site_label
_atom_site_fract_x
_atom_site_fract_y
_atom_site_fract_z
Si Si1 0.835817 0.973507 0.046613
Si Si2 0.333139 0.311272 0.208597
Si Si3 0.806492 0.209256 0.661853
Si Si4 0.782259 0.729370 0.264566
Si Si5 0.750840 0.380456 0.333164
Si Si6 0.582398 0.273261 0.122127
Si Si7 0.677518 0.989279 0.657660
O O1 0.783091 0.205505 0.182335
O O2 0.761332 0.046848 0.991402
O O3 0.729336 0.904018 0.221171
O O4 0.062403 0.753104 0.792791
O O5 0.190330 0.599256 0.382690
O O6 0.479208 0.201611 0.160248
O O7 0.228612 0.224060 0.354881
O O8 0.452760 0.193287 0.943689
O O9 0.769620 0.099551 0.584405
O O10 0.645780 0.345229 0.949937
O O11 0.000000 0.000000 0.500000
O O12 0.687268 0.620716 0.355335
O O13 0.727303 0.883959 0.458821
O O14 0.000000 0.500000 0.000000
O O15 0.570980 0.482544 0.614739
#
# Coordination Sequence:
#
# PCOD8016047 Si02
#       7
#     2   2   2   2   2   2   2
#     4  10  24  39  66  94 133 178 214 269 336 382
#     4  10  23  44  68  94 131 174 220 282 327 392
#     4  11  27  42  68 101 128 174 227 279 335 397
#     4  10  22  39  65  97 129 173 215 266 327 393
#     4  10  22  43  61  94 136 173 218 270 321 395
#     4  11  22  42  67  97 128 172 222 270 331 397
#     4  10  21  43  69  94 130 177 215 270 344 382
#
# _framework density 23.885187999999999
#
# number of rings (size 3 to 8) (size 9 to 14) (size 15 to 20)
#    0.000    1.714    1.429    2.143    6.000    3.429 
#    0.000    8.571    0.000    0.000    0.000    0.000 
#    0.000    0.000    0.000    0.000    0.000    0.000 
#
# Total GULP energy -173487.164300 kJ/mol
# GULP energy per Si atom -12391.940307 kJ/mol
# Density = 2.383082 g / cm^3
# Si number density = 23.885188 Si / 1000 Ang^3
#
#
#
# Elastic Constant Matrix: (Units=GPa)
#
#
# Indices 1 2 3 4 5 6 
#
# 1 49.9491 33.0413 13.7424 12.1945 9.9772 -4.9216
# 2 33.0413 136.9155 9.5961 23.3634 8.3117 14.8797
# 3 13.7424 9.5961 55.8669 4.9941 8.6535 -1.1778
# 4 12.1945 23.3634 4.9941 29.4814 -6.5445 5.4993
# 5 9.9772 8.3117 8.6535 -6.5445 27.7390 4.6336
# 6 -4.9216 14.8797 -1.1778 5.4993 4.6336 42.0171
#
#
#
# Elastic Compliance Matrix: (Units=1/GPa)
#
#
# Indices 1 2 3 4 5 6 
#
# 1 0.030835 -0.005212 -0.003415 -0.012456 -0.012806 0.008405
# 2 -0.005212 0.009972 0.000321 -0.005657 -0.002018 -0.003170
# 3 -0.003415 0.000321 0.020019 -0.003846 -0.006227 0.001238
# 4 -0.012456 -0.005657 -0.003846 0.050368 0.020667 -0.008435
# 5 -0.012806 -0.002018 -0.006227 0.020667 0.049606 -0.009135
# 6 0.008405 -0.003170 0.001238 -0.008435 -0.009135 0.028053
#
#
# Mechanical properties :
#
#
# Convention : Reuss Voigt Hill
#
# Bulk Modulus (GPa) = 22.61831 39.49901 31.05866
# Shear Modulus (GPa) = 22.70623 32.27094 27.48858
#
# Velocity S-wave (km/s) = 3.08659 3.67970 3.39612
# Velocity P-wave (km/s) = 4.71093 5.88443 5.33007
#
# Compressibility (1/GPa) = 0.04421197
#
# Stress axis : x y z
#
# Youngs Moduli (GPa) = 32.43051 100.28496 49.95230
#
# Poissons Ratio (x) = 0.52273 0.17061
# Poissons Ratio (y) = 0.16904 -0.01603
# Poissons Ratio (z) = 0.11076 -0.03218
#
# Static dielectric constant tensor:
#      x y z
#    x 4.074580 0.278390 0.082450 
#    y 0.278390 4.734950 -0.108490 
#    z 0.082450 -0.108490 4.613910 
# 
# 
# High freq. dielectric constant tensor:
#      x y z
#    x 1.917800 0.016980 0.020120 
#    y 0.016980 1.962480 -0.003330 
#    z 0.020120 -0.003330 1.949030 
# 
# From -- ./inp_files/461203.got.cif
#   From: 2010.06.25/outbox.cif.g09.slc.cpg/sg2_231_cif.got.tgz:461203.got - 2010.06.27 13:26:56.
