data_PCOD8016833
_publ_section_title
;
Structure prediction by ZEFSAII (Michael W. Deem and Ramdas Pophale) SiO2 
 PCOD8016833
Probable space group: P -1
;
_chemical_formula_sum "Si O2"
_cell_formula_units_Z 16
_cell_length_a 8.364695
_cell_length_b 16.525459
_cell_length_c 15.760433
_cell_angle_alpha 25.577024
_cell_angle_beta 66.663109
_cell_angle_gamma 82.626927
_cell_volume 704.934214
_symmetry_space_group_name_H-M "P -1"
_symmetry_group_IT_number 2
_symmetry_cell_setting 'triclinic'
loop_
_space_group_symop_operation_xyz
x,y,z
-x,-y,-z
loop_
_atom_site_type_symbol
_atom_site_label
_atom_site_fract_x
_atom_site_fract_y
_atom_site_fract_z
Si Si1 0.178585 0.412297 0.505969
Si Si2 0.130571 0.715049 0.708646
Si Si3 0.694218 0.239317 0.003581
Si Si4 0.131602 0.561055 0.679345
Si Si5 0.427093 0.247875 0.539340
Si Si6 0.268506 0.768395 0.277794
Si Si7 0.649970 0.804379 0.754319
Si Si8 0.478006 0.670714 0.733705
O O1 0.274295 0.263022 0.621664
O O2 0.259447 0.552408 0.445010
O O3 0.920440 0.234016 0.727873
O O4 0.265178 0.592163 0.240461
O O5 0.060200 0.652792 0.684939
O O6 0.370184 0.790021 0.604581
O O7 0.135152 0.940690 0.514938
O O8 0.000000 0.500000 0.000000
O O9 0.540912 0.241907 0.102090
O O10 0.599202 0.991751 0.216726
O O11 0.917887 0.318406 0.926516
O O12 0.323842 0.546004 0.685751
O O13 0.219648 0.739429 0.415033
O O14 0.370339 0.286907 0.418475
O O15 0.500000 0.000000 0.000000
O O16 0.602589 0.803736 0.665595
O O17 0.686312 0.604144 0.952002
#
# Coordination Sequence:
#
# PCOD8016833 Si02
#       8
#     2   2   2   2   2   2   2   2
#     4  10  23  42  65  95 124 164 211 256 316 381
#     4  11  23  39  61  90 132 166 207 261 315 371
#     4  11  21  40  65  89 128 171 206 260 314 371
#     4  10  23  39  61  99 122 163 216 254 315 379
#     4  11  22  40  64  93 129 163 213 260 314 375
#     4  10  22  42  68  92 128 166 205 261 322 373
#     4  11  21  38  63  86 128 170 210 262 307 377
#     4  10  22  36  59  93 117 171 214 251 319 368
#
# _framework density 22.697154000000001
#
# number of rings (size 3 to 8) (size 9 to 14) (size 15 to 20)
#    0.000    1.500    3.750    1.875    1.750    2.000 
#    0.000   12.500    0.000    0.000    0.000    0.000 
#    0.000    0.000    0.000    0.000    0.000    0.000 
#
# Total GULP energy -198274.183613 kJ/mol
# GULP energy per Si atom -12392.136476 kJ/mol
# Density = 2.264549 g / cm^3
# Si number density = 22.697154 Si / 1000 Ang^3
#
#
#
# Elastic Constant Matrix: (Units=GPa)
#
#
# Indices 1 2 3 4 5 6 
#
# 1 29.7618 9.7600 -0.9930 -13.7271 1.4080 6.6151
# 2 9.7600 105.9800 23.3847 -6.8957 2.1021 12.8592
# 3 -0.9930 23.3847 93.7437 -4.8921 -7.5354 9.0838
# 4 -13.7271 -6.8957 -4.8921 32.0143 -0.1090 5.0734
# 5 1.4080 2.1021 -7.5354 -0.1090 31.8830 -2.8027
# 6 6.6151 12.8592 9.0838 5.0734 -2.8027 31.4056
#
#
#
# Elastic Compliance Matrix: (Units=1/GPa)
#
#
# Indices 1 2 3 4 5 6 
#
# 1 0.048267 -0.001909 0.003385 0.023060 -0.002384 -0.014302
# 2 -0.001909 0.010726 -0.002367 0.001714 -0.001503 -0.003716
# 3 0.003385 -0.002367 0.012015 0.003346 0.002547 -0.003532
# 4 0.023060 0.001714 0.003346 0.044185 -0.001402 -0.013790
# 5 -0.002384 -0.001503 0.002547 -0.001402 0.032474 0.003505
# 6 -0.014302 -0.003716 -0.003532 -0.013790 0.003505 0.039938
#
#
# Mechanical properties :
#
#
# Convention : Reuss Voigt Hill
#
# Bulk Modulus (GPa) = 14.44528 32.64321 23.54425
# Shear Modulus (GPa) = 23.53350 32.21618 27.87484
#
# Velocity S-wave (km/s) = 3.22351 3.77157 3.50826
# Velocity P-wave (km/s) = 4.49809 5.77751 5.17747
#
# Compressibility (1/GPa) = 0.06922677
#
# Stress axis : x y z
#
# Youngs Moduli (GPa) = 20.71805 93.23059 83.22649
#
# Poissons Ratio (x) = 0.17797 -0.28174
# Poissons Ratio (y) = 0.03955 0.19701
# Poissons Ratio (z) = -0.07013 0.22069
#
# Static dielectric constant tensor:
#      x y z
#    x 4.516480 -0.590940 -0.279020 
#    y -0.590940 4.974640 0.163460 
#    z -0.279020 0.163460 4.007830 
# 
# 
# High freq. dielectric constant tensor:
#      x y z
#    x 1.872150 0.003440 -0.009710 
#    y 0.003440 1.915640 0.007600 
#    z -0.009710 0.007600 1.890330 
# 
# From -- ./inp_files/504967.got.cif
#   From: 2010.06.25/outbox.cif.g09.slc.cpg/sg2_253_cif.got.tgz:504967.got - 2010.06.27 13:26:56.
