data_PCOD8016732
_publ_section_title
;
Structure prediction by ZEFSAII (Michael W. Deem and Ramdas Pophale) SiO2 
 PCOD8016732
Probable space group: P -1
;
_chemical_formula_sum "Si O2"
_cell_formula_units_Z 14
_cell_length_a 5.489515
_cell_length_b 22.877252
_cell_length_c 6.040033
_cell_angle_alpha 62.203789
_cell_angle_beta 106.221152
_cell_angle_gamma 73.112754
_cell_volume 559.694900
_symmetry_space_group_name_H-M "P -1"
_symmetry_group_IT_number 2
_symmetry_cell_setting 'triclinic'
loop_
_space_group_symop_operation_xyz
x,y,z
-x,-y,-z
loop_
_atom_site_type_symbol
_atom_site_label
_atom_site_fract_x
_atom_site_fract_y
_atom_site_fract_z
Si Si1 0.789189 0.001462 0.140288
Si Si2 0.259962 0.874924 0.769984
Si Si3 0.713779 0.765025 0.761533
Si Si4 0.800990 0.324533 0.234050
Si Si5 0.729883 0.632879 0.246872
Si Si6 0.374537 0.740156 0.328507
Si Si7 0.849028 0.458681 0.159092
O O1 0.963680 0.928566 0.469772
O O2 0.673544 0.078667 0.112371
O O3 0.500000 0.000000 0.000000
O O4 0.000000 0.000000 0.000000
O O5 0.529756 0.841895 0.719766
O O6 0.214152 0.809809 0.991315
O O7 0.541669 0.764755 0.500947
O O8 0.034119 0.743574 0.786624
O O9 0.801305 0.695996 0.071327
O O10 0.842170 0.278483 0.553142
O O11 0.948460 0.377507 0.204873
O O12 0.464106 0.378729 0.970852
O O13 0.564433 0.661270 0.388540
O O14 0.029373 0.556380 0.528345
O O15 0.500000 0.500000 0.000000
O O16 0.000000 0.500000 0.000000
#
# Coordination Sequence:
#
# PCOD8016732 Si02
#       7
#     2   2   2   2   2   2   2
#     4  11  26  55  76 109 163 201 253 300 365 454
#     4  10  24  48  77 116 145 202 249 306 376 440
#     4  10  22  45  71 112 142 189 247 315 375 435
#     4  11  25  45  75 106 151 188 251 316 379 443
#     4  10  24  45  70 101 146 190 240 313 378 437
#     4  10  21  47  69 112 147 189 247 315 377 437
#     4  12  28  48  74 105 148 203 253 303 376 460
#
# _framework density 25.013631
#
# number of rings (size 3 to 8) (size 9 to 14) (size 15 to 20)
#    0.000    1.429    1.429    1.714    6.000    3.429 
#   33.429    0.000    0.000    0.000    0.000    0.000 
#    0.000    0.000    0.000    0.000    0.000    0.000 
#
# Total GULP energy -173447.478294 kJ/mol
# GULP energy per Si atom -12389.105592 kJ/mol
# Density = 2.495670 g / cm^3
# Si number density = 25.013631 Si / 1000 Ang^3
#
#
#
# Elastic Constant Matrix: (Units=GPa)
#
#
# Indices 1 2 3 4 5 6 
#
# 1 145.4260 46.7752 58.5470 0.8795 -5.0095 -1.6531
# 2 46.7752 86.9208 32.1805 10.1568 -5.4634 1.2434
# 3 58.5470 32.1805 123.9722 -9.6513 -2.1228 15.9860
# 4 0.8795 10.1568 -9.6513 36.5387 -0.3272 -2.1654
# 5 -5.0095 -5.4634 -2.1228 -0.3272 40.6500 14.1928
# 6 -1.6531 1.2434 15.9860 -2.1654 14.1928 38.2308
#
#
#
# Elastic Compliance Matrix: (Units=1/GPa)
#
#
# Indices 1 2 3 4 5 6 
#
# 1 0.009685 -0.003817 -0.003888 -0.000066 -0.000321 0.002284
# 2 -0.003817 0.015108 -0.002397 -0.004757 0.001574 -0.000508
# 3 -0.003888 -0.002397 0.011514 0.003500 0.001691 -0.005334
# 4 -0.000066 -0.004757 0.003500 0.029644 -0.000407 0.000518
# 5 -0.000321 0.001574 0.001691 -0.000407 0.028878 -0.011516
# 6 0.002284 -0.000508 -0.005334 0.000518 -0.011516 0.032807
#
#
# Mechanical properties :
#
#
# Convention : Reuss Voigt Hill
#
# Bulk Modulus (GPa) = 62.10177 70.14716 66.12447
# Shear Modulus (GPa) = 32.63539 37.67165 35.15352
#
# Velocity S-wave (km/s) = 3.61599 3.88499 3.75290
# Velocity P-wave (km/s) = 6.50499 6.94468 6.72843
#
# Compressibility (1/GPa) = 0.01610260
#
# Stress axis : x y z
#
# Youngs Moduli (GPa) = 103.25513 66.18811 86.85151
#
# Poissons Ratio (x) = 0.25266 0.33768
# Poissons Ratio (y) = 0.39416 0.20818
# Poissons Ratio (z) = 0.40145 0.15865
#
# Static dielectric constant tensor:
#      x y z
#    x 4.419360 -0.199360 -0.024280 
#    y -0.199360 4.791950 0.098470 
#    z -0.024280 0.098470 4.785300 
# 
# 
# High freq. dielectric constant tensor:
#      x y z
#    x 1.988450 -0.004420 0.005640 
#    y -0.004420 1.998810 0.012660 
#    z 0.005640 0.012660 2.017800 
# 
# From -- ./inp_files/11122.got.cif
#   From: 2010.06.25/outbox.cif.g09.slc.cpg/sg2_6_cif.got.tgz:11122.got - 2010.06.27 13:26:56.
