data_PCOD8016943
_publ_section_title
;
Structure prediction by ZEFSAII (Michael W. Deem and Ramdas Pophale) SiO2 
 PCOD8016943
Probable space group: P -1
;
_chemical_formula_sum "Si O2"
_cell_formula_units_Z 14
_cell_length_a 23.951557
_cell_length_b 6.915330
_cell_length_c 15.383615
_cell_angle_alpha 57.099102
_cell_angle_beta 162.109422
_cell_angle_gamma 120.187490
_cell_volume 656.229484
_symmetry_space_group_name_H-M "P -1"
_symmetry_group_IT_number 2
_symmetry_cell_setting 'triclinic'
loop_
_space_group_symop_operation_xyz
x,y,z
-x,-y,-z
loop_
_atom_site_type_symbol
_atom_site_label
_atom_site_fract_x
_atom_site_fract_y
_atom_site_fract_z
Si Si1 0.504903 0.258769 0.019492
Si Si2 0.283133 0.850059 0.802991
Si Si3 0.967580 0.612821 0.017850
Si Si4 0.696590 0.290781 0.773159
Si Si5 0.084137 0.156672 0.839274
Si Si6 0.838914 0.090536 0.653419
Si Si7 0.344198 0.554035 0.134947
O O1 0.574602 0.286969 0.017490
O O2 0.650675 0.090193 0.325359
O O3 0.500000 0.500000 0.000000
O O4 0.318355 0.125609 0.783380
O O5 0.073635 0.828105 0.471256
O O6 0.323887 0.743801 0.983276
O O7 0.871216 0.437745 0.979496
O O8 0.846186 0.851782 0.774897
O O9 0.000000 0.500000 0.000000
O O10 0.152285 0.687977 0.321924
O O11 0.528104 0.387938 0.439977
O O12 0.644589 0.303435 0.794116
O O13 0.751760 0.027015 0.896365
O O14 0.005627 0.091937 0.832239
O O15 0.167542 0.404819 0.906862
#
# Coordination Sequence:
#
# PCOD8016943 Si02
#       7
#     2   2   2   2   2   2   2
#     4  10  23  41  64  92 125 162 207 266 314 369
#     4  10  24  42  65  92 125 166 213 258 313 376
#     4  11  21  38  64  91 121 165 203 263 312 370
#     4  11  24  39  64  90 128 167 212 258 316 365
#     4  11  22  41  64  91 125 166 213 257 309 374
#     4  10  22  37  60  93 125 156 213 258 314 369
#     4  11  24  43  59  92 133 165 209 260 307 381
#
# _framework density 21.334002000000002
#
# number of rings (size 3 to 8) (size 9 to 14) (size 15 to 20)
#    0.000    1.429    2.857    1.714    2.000    4.000 
#    0.000    0.000    0.000    0.000    0.000    0.000 
#    0.000    0.000    0.000    0.000    0.000    0.000 
#
# Total GULP energy -173598.198508 kJ/mol
# GULP energy per Si atom -12399.871322 kJ/mol
# Density = 2.128544 g / cm^3
# Si number density = 21.334002 Si / 1000 Ang^3
#
#
#
# Elastic Constant Matrix: (Units=GPa)
#
#
# Indices 1 2 3 4 5 6 
#
# 1 83.5969 20.6030 14.3960 -9.6737 -16.6403 -7.8166
# 2 20.6030 90.3367 1.5337 5.6481 2.4828 -14.1189
# 3 14.3960 1.5337 73.3959 6.4545 -6.3838 -4.0221
# 4 -9.6737 5.6481 6.4545 29.7792 -0.2853 -3.7204
# 5 -16.6403 2.4828 -6.3838 -0.2853 31.4362 -0.9524
# 6 -7.8166 -14.1189 -4.0221 -3.7204 -0.9524 36.3397
#
#
#
# Elastic Compliance Matrix: (Units=1/GPa)
#
#
# Indices 1 2 3 4 5 6 
#
# 1 0.016136 -0.003897 -0.002825 0.006996 0.008417 0.002581
# 2 -0.003897 0.012832 0.000758 -0.003416 -0.002838 0.003807
# 3 -0.002825 0.000758 0.014700 -0.004118 0.001421 0.000930
# 4 0.006996 -0.003416 -0.004118 0.037890 0.003593 0.003695
# 5 0.008417 -0.002838 0.001421 0.003593 0.036878 0.002199
# 6 0.002581 0.003807 0.000930 0.003695 0.002199 0.030091
#
#
# Mechanical properties :
#
#
# Convention : Reuss Voigt Hill
#
# Bulk Modulus (GPa) = 31.50675 35.59942 33.55309
# Shear Modulus (GPa) = 29.23395 33.56416 31.39906
#
# Velocity S-wave (km/s) = 3.70577 3.97075 3.84055
# Velocity P-wave (km/s) = 5.75419 6.14373 5.95215
#
# Compressibility (1/GPa) = 0.03173923
#
# Stress axis : x y z
#
# Youngs Moduli (GPa) = 61.97498 77.92826 68.02885
#
# Poissons Ratio (x) = 0.30372 0.19219
# Poissons Ratio (y) = 0.24155 -0.05160
# Poissons Ratio (z) = 0.17509 -0.05911
#
# Static dielectric constant tensor:
#      x y z
#    x 3.864790 -0.088450 -0.086320 
#    y -0.088450 3.841250 0.184490 
#    z -0.086320 0.184490 4.068090 
# 
# 
# High freq. dielectric constant tensor:
#      x y z
#    x 1.832550 -0.001080 -0.013630 
#    y -0.001080 1.842050 0.013490 
#    z -0.013630 0.013490 1.838470 
# 
# From -- ./inp_files/71560.got.cif
#   From: 2010.06.25/outbox.cif.g09.slc.cpg/sg2_36_cif.got.tgz:71560.got - 2010.06.27 13:26:56.
