data_PCOD8016803
_publ_section_title
;
Structure prediction by ZEFSAII (Michael W. Deem and Ramdas Pophale) SiO2 
 PCOD8016803
Probable space group: P -1
;
_chemical_formula_sum "Si O2"
_cell_formula_units_Z 16
_cell_length_a 18.521364
_cell_length_b 11.996786
_cell_length_c 12.048679
_cell_angle_alpha 114.762278
_cell_angle_beta 28.645901
_cell_angle_gamma 133.686838
_cell_volume 780.925519
_symmetry_space_group_name_H-M "P -1"
_symmetry_group_IT_number 2
_symmetry_cell_setting 'triclinic'
loop_
_space_group_symop_operation_xyz
x,y,z
-x,-y,-z
loop_
_atom_site_type_symbol
_atom_site_label
_atom_site_fract_x
_atom_site_fract_y
_atom_site_fract_z
Si Si1 0.416899 0.430845 0.904920
Si Si2 0.124044 0.441516 0.194520
Si Si3 0.993549 0.380635 0.094217
Si Si4 0.844838 0.096852 0.795898
Si Si5 0.345190 0.633183 0.548093
Si Si6 0.291965 0.237334 0.203454
Si Si7 0.263983 0.791534 0.201358
Si Si8 0.701082 0.033889 0.212294
O O1 0.628161 0.487311 0.588504
O O2 0.486923 0.579065 0.959084
O O3 0.271144 0.407560 0.997006
O O4 0.275747 0.252645 0.098928
O O5 0.279425 0.655376 0.096944
O O6 0.030781 0.381678 0.172244
O O7 0.906869 0.297746 0.504540
O O8 0.810782 0.379081 0.327285
O O9 0.911735 0.203369 0.073810
O O10 0.229858 0.561172 0.794179
O O11 0.845254 0.213777 0.763306
O O12 0.084145 0.175098 0.520056
O O13 0.688673 0.898017 0.867054
O O14 0.760894 0.088360 0.025658
O O15 0.603444 0.839925 0.292719
O O16 0.500000 0.000000 0.000000
O O17 0.500000 0.000000 0.500000
#
# Coordination Sequence:
#
# PCOD8016803 Si02
#       8
#     2   2   2   2   2   2   2   2
#     4  11  21  41  61  97 130 167 210 269 328 386
#     4  11  26  43  62  97 137 164 220 258 332 394
#     4  10  24  41  64  93 126 174 216 268 310 386
#     4  11  21  41  63  97 123 165 224 267 316 388
#     4  10  22  40  66  91 125 169 223 263 316 373
#     4  10  22  35  68  92 127 166 213 271 322 378
#     4  11  26  41  65  92 132 177 207 265 330 388
#     4  10  22  38  62  94 120 161 220 269 308 366
#
# _framework density 20.488507999999999
#
# number of rings (size 3 to 8) (size 9 to 14) (size 15 to 20)
#    0.000    1.500    2.500    1.500   10.500    1.500 
#    0.000    0.625    0.000    0.000    0.000    0.000 
#    0.000    0.000    0.000    0.000    0.000    0.000 
#
# Total GULP energy -198331.062381 kJ/mol
# GULP energy per Si atom -12395.691399 kJ/mol
# Density = 2.044188 g / cm^3
# Si number density = 20.488508 Si / 1000 Ang^3
#
#
#
# Elastic Constant Matrix: (Units=GPa)
#
#
# Indices 1 2 3 4 5 6 
#
# 1 130.2060 47.0707 59.4827 2.3894 21.1918 0.3979
# 2 47.0707 89.2057 39.3853 -5.0717 4.3412 0.3658
# 3 59.4827 39.3853 97.9758 7.6240 22.4139 1.8413
# 4 2.3894 -5.0717 7.6240 39.7519 -2.5272 -1.3423
# 5 21.1918 4.3412 22.4139 -2.5272 29.3197 2.3818
# 6 0.3979 0.3658 1.8413 -1.3423 2.3818 31.3823
#
#
#
# Elastic Compliance Matrix: (Units=1/GPa)
#
#
# Indices 1 2 3 4 5 6 
#
# 1 0.012023 -0.004169 -0.004497 -0.000676 -0.004733 0.000490
# 2 -0.004169 0.015654 -0.005172 0.003553 0.004959 -0.000051
# 3 -0.004497 -0.005172 0.017606 -0.004401 -0.009792 -0.000361
# 4 -0.000676 0.003553 -0.004401 0.026880 0.005567 0.000953
# 5 -0.004733 0.004959 -0.009792 0.005567 0.044970 -0.002598
# 6 0.000490 -0.000051 -0.000361 0.000953 -0.002598 0.032119
#
#
# Mechanical properties :
#
#
# Convention : Reuss Voigt Hill
#
# Bulk Modulus (GPa) = 56.79751 67.69609 62.24680
# Shear Modulus (GPa) = 27.35283 31.52071 29.43677
#
# Velocity S-wave (km/s) = 3.65777 3.92657 3.79455
# Velocity P-wave (km/s) = 6.75432 7.32598 7.04595
#
# Compressibility (1/GPa) = 0.01760641
#
# Stress axis : x y z
#
# Youngs Moduli (GPa) = 83.17467 63.88122 56.79982
#
# Poissons Ratio (x) = 0.26629 0.25546
# Poissons Ratio (y) = 0.34671 0.29378
# Poissons Ratio (z) = 0.37408 0.33040
#
# Static dielectric constant tensor:
#      x y z
#    x 3.469540 -0.085270 0.146090 
#    y -0.085270 4.582580 -0.310750 
#    z 0.146090 -0.310750 3.733030 
# 
# 
# High freq. dielectric constant tensor:
#      x y z
#    x 1.777910 -0.002220 0.017350 
#    y -0.002220 1.815920 -0.003700 
#    z 0.017350 -0.003700 1.803690 
# 
# From -- ./inp_files/446703.got.cif
#   From: 2010.06.25/outbox.cif.g09.slc.cpg/sg2_224_cif.got.tgz:446703.got - 2010.06.27 13:26:56.
