data_PCOD8016008
_publ_section_title
;
Structure prediction by ZEFSAII (Michael W. Deem and Ramdas Pophale) SiO2 
 PCOD8016008
Probable space group: P -1
;
_chemical_formula_sum "Si O2"
_cell_formula_units_Z 16
_cell_length_a 11.071994
_cell_length_b 20.940093
_cell_length_c 18.964775
_cell_angle_alpha 160.025921
_cell_angle_beta 138.996450
_cell_angle_gamma 29.859669
_cell_volume 699.034707
_symmetry_space_group_name_H-M "P -1"
_symmetry_group_IT_number 2
_symmetry_cell_setting 'triclinic'
loop_
_space_group_symop_operation_xyz
x,y,z
-x,-y,-z
loop_
_atom_site_type_symbol
_atom_site_label
_atom_site_fract_x
_atom_site_fract_y
_atom_site_fract_z
Si Si1 0.377410 0.184548 0.304258
Si Si2 0.065909 0.147343 0.516822
Si Si3 0.609774 0.386596 0.663492
Si Si4 0.350400 0.649973 0.197234
Si Si5 0.895465 0.062377 0.829865
Si Si6 0.791389 0.804542 0.901574
Si Si7 0.049102 0.359834 0.048589
Si Si8 0.793842 0.019739 0.891423
O O1 0.397279 0.379889 0.545044
O O2 0.194353 0.322638 0.297048
O O3 0.227788 0.170327 0.282425
O O4 0.659541 0.893510 0.111018
O O5 0.832735 0.213908 0.524639
O O6 0.057649 0.375504 0.760550
O O7 0.328314 0.869676 0.377334
O O8 0.039347 0.120818 0.395450
O O9 0.722513 0.271274 0.671428
O O10 0.483151 0.681085 0.911416
O O11 0.637761 0.368146 0.019596
O O12 0.141338 0.667780 0.086252
O O13 0.866658 0.951782 0.770619
O O14 0.133328 0.035254 0.917036
O O15 0.965767 0.605002 0.836286
O O16 0.500000 0.000000 0.000000
O O17 0.000000 0.000000 0.000000
#
# Coordination Sequence:
#
# PCOD8016008 Si02
#       8
#     2   2   2   2   2   2   2   2
#     4  11  22  45  71  99 138 177 229 276 336 407
#     4  12  23  43  71  99 133 182 229 272 341 405
#     4  11  25  44  73 100 131 187 225 276 342 404
#     4  11  25  45  67 101 141 175 223 290 339 392
#     4  11  24  45  67 101 144 174 219 289 342 394
#     4  10  21  43  68  97 134 176 217 280 333 396
#     4  11  24  41  73 102 133 177 234 279 330 405
#     4  11  24  45  68 102 141 175 224 287 335 400
#
# _framework density 22.888705000000002
#
# number of rings (size 3 to 8) (size 9 to 14) (size 15 to 20)
#    0.000    1.000    5.000    1.500    0.000    4.500 
#    4.500    2.500    0.000    0.000    0.000    0.000 
#    0.000    0.000    0.000    0.000    0.000    0.000 
#
# Total GULP energy -198408.952762 kJ/mol
# GULP energy per Si atom -12400.559548 kJ/mol
# Density = 2.283661 g / cm^3
# Si number density = 22.888705 Si / 1000 Ang^3
#
#
#
# Elastic Constant Matrix: (Units=GPa)
#
#
# Indices 1 2 3 4 5 6 
#
# 1 130.7646 37.9466 32.7633 -10.9023 -4.3140 14.5480
# 2 37.9466 83.1040 8.3848 -25.6725 -13.1787 23.2900
# 3 32.7633 8.3848 62.6397 -12.6832 -6.7043 15.2045
# 4 -10.9023 -25.6725 -12.6832 20.5924 6.7128 -6.5822
# 5 -4.3140 -13.1787 -6.7043 6.7128 38.7242 -0.9206
# 6 14.5480 23.2900 15.2045 -6.5822 -0.9206 40.0268
#
#
#
# Elastic Compliance Matrix: (Units=1/GPa)
#
#
# Indices 1 2 3 4 5 6 
#
# 1 0.010384 -0.006330 -0.006110 -0.005380 -0.001091 0.001320
# 2 -0.006330 0.028021 0.009511 0.032014 0.004637 -0.012245
# 3 -0.006110 0.009511 0.024469 0.019692 0.003158 -0.009297
# 4 -0.005380 0.032014 0.019692 0.096089 -0.003152 -0.008424
# 5 -0.001091 0.004637 0.003158 -0.003152 0.028293 -0.003368
# 6 0.001320 -0.012245 -0.009297 -0.008424 -0.003368 0.033697
#
#
# Mechanical properties :
#
#
# Convention : Reuss Voigt Hill
#
# Bulk Modulus (GPa) = 17.53947 48.29976 32.91962
# Shear Modulus (GPa) = 20.34042 33.02959 26.68501
#
# Velocity S-wave (km/s) = 2.98428 3.80287 3.41817
# Velocity P-wave (km/s) = 4.42201 6.35848 5.47652
#
# Compressibility (1/GPa) = 0.05701425
#
# Stress axis : x y z
#
# Youngs Moduli (GPa) = 96.30439 35.68800 40.86805
#
# Poissons Ratio (x) = 0.22590 0.24972
# Poissons Ratio (y) = 0.60959 -0.38868
# Poissons Ratio (z) = 0.58846 -0.33942
#
# Static dielectric constant tensor:
#      x y z
#    x 4.370090 0.313660 -0.113620 
#    y 0.313660 4.395220 -0.109060 
#    z -0.113620 -0.109060 3.999810 
# 
# 
# High freq. dielectric constant tensor:
#      x y z
#    x 1.917660 0.008940 -0.005900 
#    y 0.008940 1.906090 -0.004030 
#    z -0.005900 -0.004030 1.895220 
# 
# From -- ./inp_files/427800.got.cif
#   From: 2010.06.25/outbox.cif.g09.slc.cpg/sg2_214_cif.got.tgz:427800.got - 2010.06.27 13:26:56.
