data_PCOD8016839
_publ_section_title
;
Structure prediction by ZEFSAII (Michael W. Deem and Ramdas Pophale) SiO2 
 PCOD8016839
Probable space group: P -1
;
_chemical_formula_sum "Si O2"
_cell_formula_units_Z 14
_cell_length_a 15.499290
_cell_length_b 5.403148
_cell_length_c 12.469933
_cell_angle_alpha 127.199729
_cell_angle_beta 128.126922
_cell_angle_gamma 70.189921
_cell_volume 653.357106
_symmetry_space_group_name_H-M "P -1"
_symmetry_group_IT_number 2
_symmetry_cell_setting 'triclinic'
loop_
_space_group_symop_operation_xyz
x,y,z
-x,-y,-z
loop_
_atom_site_type_symbol
_atom_site_label
_atom_site_fract_x
_atom_site_fract_y
_atom_site_fract_z
Si Si1 0.703997 0.892305 0.761138
Si Si2 0.128642 0.542795 0.204819
Si Si3 0.056476 0.334083 0.641746
Si Si4 0.102703 0.617623 0.961227
Si Si5 0.865246 0.744905 0.543233
Si Si6 0.511060 0.236861 0.351261
Si Si7 0.369403 0.259027 0.555118
O O1 0.751379 0.550132 0.687211
O O2 0.615775 0.904827 0.794153
O O3 0.644199 0.962926 0.620214
O O4 0.814456 0.092420 0.927448
O O5 0.027835 0.318366 0.115658
O O6 0.110988 0.888418 0.322544
O O7 0.134368 0.488035 0.066959
O O8 0.120966 0.372672 0.814291
O O9 0.139149 0.365296 0.612917
O O10 0.964469 0.587798 0.637475
O O11 0.000000 0.000000 0.500000
O O12 0.748930 0.629251 0.472237
O O13 0.500000 0.500000 0.500000
O O14 0.557123 0.417938 0.327665
O O15 0.582343 0.950182 0.368331
#
# Coordination Sequence:
#
# PCOD8016839 Si02
#       7
#     2   2   2   2   2   2   2
#     4  11  22  36  62  91 132 158 201 259 320 366
#     4  11  23  36  61  95 128 161 202 255 314 382
#     4  11  25  40  59  87 127 165 210 252 307 382
#     4  11  24  36  59  91 129 164 201 253 320 370
#     4  11  23  40  63  88 123 166 210 256 309 374
#     4  10  22  36  60  94 130 158 206 261 318 366
#     4  11  22  38  63  94 124 164 208 260 313 372
#
# _framework density 21.427792
#
# number of rings (size 3 to 8) (size 9 to 14) (size 15 to 20)
#    0.000    1.143    2.857    4.714    8.000    0.000 
#    0.000    0.000    0.000    1.714    0.000    0.000 
#    0.000    0.000    0.000    0.000    0.000    0.000 
#
# Total GULP energy -173435.629697 kJ/mol
# GULP energy per Si atom -12388.259264 kJ/mol
# Density = 2.137902 g / cm^3
# Si number density = 21.427792 Si / 1000 Ang^3
#
#
#
# Elastic Constant Matrix: (Units=GPa)
#
#
# Indices 1 2 3 4 5 6 
#
# 1 157.8318 39.5589 47.6030 11.2552 21.2358 19.1679
# 2 39.5589 104.5629 30.6412 5.7438 5.8923 5.3341
# 3 47.6030 30.6412 79.9463 7.8717 -6.4838 -0.2626
# 4 11.2552 5.7438 7.8717 17.8343 4.9350 0.5544
# 5 21.2358 5.8923 -6.4838 4.9350 39.8772 3.4787
# 6 19.1679 5.3341 -0.2626 0.5544 3.4787 29.6361
#
#
#
# Elastic Compliance Matrix: (Units=1/GPa)
#
#
# Indices 1 2 3 4 5 6 
#
# 1 0.009892 -0.001421 -0.005628 -0.001667 -0.005283 -0.005541
# 2 -0.001421 0.011298 -0.003514 -0.000801 -0.001299 -0.000978
# 3 -0.005628 -0.003514 0.018305 -0.005404 0.006836 0.003733
# 4 -0.001667 -0.000801 -0.005404 0.061843 -0.007605 0.000910
# 5 -0.005283 -0.001299 0.006836 -0.007605 0.030107 0.000320
# 6 -0.005541 -0.000978 0.003733 0.000910 0.000320 0.037481
#
#
# Mechanical properties :
#
#
# Convention : Reuss Voigt Hill
#
# Bulk Modulus (GPa) = 54.43896 64.21636 59.32766
# Shear Modulus (GPa) = 25.48747 32.43871 28.96309
#
# Velocity S-wave (km/s) = 3.45259 3.89506 3.68048
# Velocity P-wave (km/s) = 6.43077 7.08960 6.76821
#
# Compressibility (1/GPa) = 0.01836920
#
# Stress axis : x y z
#
# Youngs Moduli (GPa) = 101.09053 88.51052 54.63029
#
# Poissons Ratio (x) = 0.12580 0.30746
# Poissons Ratio (y) = 0.14368 0.19195
# Poissons Ratio (z) = 0.56893 0.31100
#
# Static dielectric constant tensor:
#      x y z
#    x 5.290580 0.058520 0.042730 
#    y 0.058520 3.968790 0.083500 
#    z 0.042730 0.083500 3.921400 
# 
# 
# High freq. dielectric constant tensor:
#      x y z
#    x 1.856960 0.016290 0.017600 
#    y 0.016290 1.835500 -0.009310 
#    z 0.017600 -0.009310 1.800420 
# 
# From -- ./inp_files/441445.got.cif
#   From: 2010.06.25/outbox.cif.g09.slc.cpg/sg2_221_cif.got.tgz:441445.got - 2010.06.27 13:26:56.
