data_PCOD8016311
_publ_section_title
;
Structure prediction by ZEFSAII (Michael W. Deem and Ramdas Pophale) SiO2 
 PCOD8016311
Probable space group: P -1
;
_chemical_formula_sum "Si O2"
_cell_formula_units_Z 16
_cell_length_a 18.180415
_cell_length_b 8.992522
_cell_length_c 8.266518
_cell_angle_alpha 51.498215
_cell_angle_beta 44.535777
_cell_angle_gamma 73.707534
_cell_volume 708.232177
_symmetry_space_group_name_H-M "P -1"
_symmetry_group_IT_number 2
_symmetry_cell_setting 'triclinic'
loop_
_space_group_symop_operation_xyz
x,y,z
-x,-y,-z
loop_
_atom_site_type_symbol
_atom_site_label
_atom_site_fract_x
_atom_site_fract_y
_atom_site_fract_z
Si Si1 0.497309 0.515134 0.184421
Si Si2 0.252729 0.292251 0.248916
Si Si3 0.594634 0.194263 0.677600
Si Si4 0.052612 0.843846 0.448485
Si Si5 0.743410 0.058056 0.731097
Si Si6 0.097050 0.527309 0.205578
Si Si7 0.469891 0.112143 0.622027
Si Si8 0.889709 0.040207 0.085812
O O1 0.619930 0.601977 0.998528
O O2 0.500000 0.500000 0.000000
O O3 0.420526 0.633723 0.299981
O O4 0.434216 0.296056 0.490185
O O5 0.237586 0.148452 0.214068
O O6 0.195207 0.462806 0.182716
O O7 0.205662 0.156457 0.573191
O O8 0.577413 0.210609 0.500938
O O9 0.716381 0.175652 0.536277
O O10 0.500000 0.000000 0.000000
O O11 0.957211 0.632164 0.741150
O O12 0.149856 0.813114 0.428776
O O13 0.105627 0.930192 0.134387
O O14 0.000000 0.000000 0.500000
O O15 0.635562 0.032073 0.027413
O O16 0.000000 0.500000 0.500000
O O17 0.129726 0.759088 0.940377
O O18 0.500000 0.000000 0.500000
O O19 0.000000 0.000000 0.000000
#
# Coordination Sequence:
#
# PCOD8016311 Si02
#       8
#     2   2   2   2   2   2   2   2
#     4  12  26  43  69 103 141 182 244 294 348 430
#     4  12  24  45  71 101 141 190 235 292 363 417
#     4  10  21  44  66  95 140 178 230 292 348 421
#     4  11  22  44  73 103 142 179 236 294 347 425
#     4  11  24  43  72 100 143 188 226 299 356 413
#     4  10  22  43  73  98 139 180 233 288 351 411
#     4  11  25  45  71  99 139 187 240 293 359 423
#     4  11  23  45  73 100 140 187 234 294 356 423
#
# _framework density 22.591462
#
# number of rings (size 3 to 8) (size 9 to 14) (size 15 to 20)
#    0.000    1.000    6.250    1.875    1.750    5.000 
#    0.000    2.500    0.000    0.000    0.000    0.000 
#    0.000    0.000    0.000    0.000    0.000    0.000 
#
# Total GULP energy -198244.349159 kJ/mol
# GULP energy per Si atom -12390.271822 kJ/mol
# Density = 2.254004 g / cm^3
# Si number density = 22.591462 Si / 1000 Ang^3
#
#
#
# Elastic Constant Matrix: (Units=GPa)
#
#
# Indices 1 2 3 4 5 6 
#
# 1 145.4697 41.2946 7.7570 -3.5480 3.8029 -7.2574
# 2 41.2946 156.4050 17.8525 -9.8296 11.6220 -3.2689
# 3 7.7570 17.8525 47.4740 -4.2935 0.5864 -5.7664
# 4 -3.5480 -9.8296 -4.2935 42.6684 -1.8757 9.3717
# 5 3.8029 11.6220 0.5864 -1.8757 31.8796 3.3738
# 6 -7.2574 -3.2689 -5.7664 9.3717 3.3738 47.9391
#
#
#
# Elastic Compliance Matrix: (Units=1/GPa)
#
#
# Indices 1 2 3 4 5 6 
#
# 1 0.007489 -0.001894 -0.000394 -0.000085 -0.000306 0.000995
# 2 -0.001894 0.007412 -0.002354 0.001241 -0.002345 -0.000142
# 3 -0.000394 -0.002354 0.022388 0.001206 0.000330 0.002214
# 4 -0.000085 0.001241 0.001206 0.024950 0.001508 -0.004767
# 5 -0.000306 -0.002345 0.000330 0.001508 0.032634 -0.002758
# 6 0.000995 -0.000142 0.002214 -0.004767 -0.002758 0.022393
#
#
# Mechanical properties :
#
#
# Convention : Reuss Voigt Hill
#
# Bulk Modulus (GPa) = 35.70969 53.68408 44.69689
# Shear Modulus (GPa) = 36.79628 43.32707 40.06168
#
# Velocity S-wave (km/s) = 4.04018 4.38408 4.21564
# Velocity P-wave (km/s) = 6.13230 7.03146 6.59722
#
# Compressibility (1/GPa) = 0.02800360
#
# Stress axis : x y z
#
# Youngs Moduli (GPa) = 133.53758 134.92306 44.66759
#
# Poissons Ratio (x) = 0.25554 0.01762
# Poissons Ratio (y) = 0.25291 0.10513
# Poissons Ratio (z) = 0.05267 0.31757
#
# Static dielectric constant tensor:
#      x y z
#    x 5.303880 -0.306940 0.745590 
#    y -0.306940 4.632140 -0.530430 
#    z 0.745590 -0.530430 4.800840 
# 
# 
# High freq. dielectric constant tensor:
#      x y z
#    x 1.894790 -0.008150 0.003300 
#    y -0.008150 1.906640 0.002070 
#    z 0.003300 0.002070 1.884130 
# 
# From -- ./inp_files/327029.got.cif
#   From: 2010.06.25/outbox.cif.g09.slc.cpg/sg2_164_cif.got.tgz:327029.got - 2010.06.27 13:26:56.
