data_PCOD8016653
_publ_section_title
;
Structure prediction by ZEFSAII (Michael W. Deem and Ramdas Pophale) SiO2 
 PCOD8016653
Probable space group: P -1
;
_chemical_formula_sum "Si O2"
_cell_formula_units_Z 16
_cell_length_a 19.250463
_cell_length_b 7.029678
_cell_length_c 17.477504
_cell_angle_alpha 127.081817
_cell_angle_beta 28.718922
_cell_angle_gamma 140.142054
_cell_volume 709.148342
_symmetry_space_group_name_H-M "P -1"
_symmetry_group_IT_number 2
_symmetry_cell_setting 'triclinic'
loop_
_space_group_symop_operation_xyz
x,y,z
-x,-y,-z
loop_
_atom_site_type_symbol
_atom_site_label
_atom_site_fract_x
_atom_site_fract_y
_atom_site_fract_z
Si Si1 0.366409 0.258896 0.369640
Si Si2 0.798555 0.893653 0.660832
Si Si3 0.543999 0.801457 0.567686
Si Si4 0.792979 0.237131 0.159036
Si Si5 0.173070 0.755194 0.138684
Si Si6 0.229004 0.628074 0.615488
Si Si7 0.549081 0.663903 0.071585
Si Si8 0.270797 0.354176 0.969662
O O1 0.214401 0.028274 0.396007
O O2 0.354489 0.116596 0.428222
O O3 0.361480 0.538185 0.454843
O O4 0.552654 0.366212 0.176740
O O5 0.642165 0.521869 0.738221
O O6 0.768270 0.074650 0.794662
O O7 0.000000 0.000000 0.500000
O O8 0.500000 0.500000 0.500000
O O9 0.358507 0.775119 0.748657
O O10 0.699625 0.084674 0.435514
O O11 0.751861 0.269127 0.291987
O O12 0.787884 0.948703 0.086861
O O13 0.000000 0.500000 0.000000
O O14 0.980161 0.665887 0.273631
O O15 0.130203 0.429198 0.112023
O O16 0.336412 0.976393 0.971770
O O17 0.691280 0.643748 0.976415
O O18 0.500000 0.500000 0.000000
#
# Coordination Sequence:
#
# PCOD8016653 Si02
#       8
#     2   2   2   2   2   2   2   2
#     4  11  24  44  74  98 140 182 231 286 351 408
#     4  10  21  45  74 106 142 183 232 292 346 410
#     4  12  26  46  72 100 136 188 232 285 356 411
#     4  12  27  46  72 103 143 180 234 293 350 417
#     4  11  25  44  73 102 141 183 236 285 351 415
#     4  12  25  47  69 103 142 180 231 294 339 419
#     4   9  22  43  70  96 139 183 228 287 345 404
#     4  11  25  44  67 102 141 184 231 287 350 413
#
# _framework density 22.562276000000001
#
# number of rings (size 3 to 8) (size 9 to 14) (size 15 to 20)
#    0.000    1.000    3.750    1.875    5.250    6.000 
#    0.000    0.625    0.000    0.000    0.000    0.000 
#    0.000    0.000    0.000    0.000    0.000    0.000 
#
# Total GULP energy -198246.016639 kJ/mol
# GULP energy per Si atom -12390.376040 kJ/mol
# Density = 2.251092 g / cm^3
# Si number density = 22.562276 Si / 1000 Ang^3
#
#
#
# Elastic Constant Matrix: (Units=GPa)
#
#
# Indices 1 2 3 4 5 6 
#
# 1 162.7788 32.6368 38.1442 -4.4037 12.3230 -7.5748
# 2 32.6368 91.9406 32.4439 6.7287 -6.3754 -12.2403
# 3 38.1442 32.4439 84.2312 -1.8107 -5.8412 -7.1779
# 4 -4.4037 6.7287 -1.8107 37.7515 5.6342 -3.0674
# 5 12.3230 -6.3754 -5.8412 5.6342 36.7955 -1.3243
# 6 -7.5748 -12.2403 -7.1779 -3.0674 -1.3243 33.1569
#
#
#
# Elastic Compliance Matrix: (Units=1/GPa)
#
#
# Indices 1 2 3 4 5 6 
#
# 1 0.007537 -0.001997 -0.002822 0.001662 -0.003559 0.000385
# 2 -0.001997 0.013919 -0.004000 -0.003063 0.003046 0.003654
# 3 -0.002822 -0.004000 0.014997 0.000828 0.002553 0.001304
# 4 0.001662 -0.003063 0.000828 0.028194 -0.005207 0.001828
# 5 -0.003559 0.003046 0.002553 -0.005207 0.030157 0.001587
# 6 0.000385 0.003654 0.001304 0.001828 0.001587 0.032112
#
#
# Mechanical properties :
#
#
# Convention : Reuss Voigt Hill
#
# Bulk Modulus (GPa) = 53.15065 60.60005 56.87535
# Shear Modulus (GPa) = 33.15075 37.25581 35.20328
#
# Velocity S-wave (km/s) = 3.83730 4.06796 3.95431
# Velocity P-wave (km/s) = 6.57584 6.99869 6.79056
#
# Compressibility (1/GPa) = 0.01881444
#
# Stress axis : x y z
#
# Youngs Moduli (GPa) = 132.67236 71.84467 66.68020
#
# Poissons Ratio (x) = 0.14345 0.18820
# Poissons Ratio (y) = 0.26491 0.26674
# Poissons Ratio (z) = 0.37446 0.28740
#
# Static dielectric constant tensor:
#      x y z
#    x 4.463610 -0.041570 0.211530 
#    y -0.041570 4.182580 -0.338160 
#    z 0.211530 -0.338160 4.460990 
# 
# 
# High freq. dielectric constant tensor:
#      x y z
#    x 1.910300 0.005690 0.008020 
#    y 0.005690 1.878580 -0.002650 
#    z 0.008020 -0.002650 1.889040 
# 
# From -- ./inp_files/307787.got.cif
#   From: 2010.06.25/outbox.cif.g09.slc.cpg/sg2_154_cif.got.tgz:307787.got - 2010.06.27 13:26:56.
