data_PCOD8016867
_publ_section_title
;
Structure prediction by ZEFSAII (Michael W. Deem and Ramdas Pophale) SiO2 
 PCOD8016867
Probable space group: P -1
;
_chemical_formula_sum "Si O2"
_cell_formula_units_Z 14
_cell_length_a 8.372706
_cell_length_b 8.297260
_cell_length_c 18.454725
_cell_angle_alpha 131.456658
_cell_angle_beta 139.639648
_cell_angle_gamma 68.095422
_cell_volume 598.994812
_symmetry_space_group_name_H-M "P -1"
_symmetry_group_IT_number 2
_symmetry_cell_setting 'triclinic'
loop_
_space_group_symop_operation_xyz
x,y,z
-x,-y,-z
loop_
_atom_site_type_symbol
_atom_site_label
_atom_site_fract_x
_atom_site_fract_y
_atom_site_fract_z
Si Si1 0.715410 0.697304 0.598502
Si Si2 0.212646 0.607423 0.701167
Si Si3 0.459324 0.479170 0.090115
Si Si4 0.910037 0.705651 0.211751
Si Si5 0.535477 0.245177 0.609159
Si Si6 0.878208 0.156772 0.394859
Si Si7 0.465554 0.909491 0.286303
O O1 0.500000 0.500000 0.500000
O O2 0.654101 0.662941 0.480545
O O3 0.997648 0.667264 0.695920
O O4 0.720247 0.942266 0.706053
O O5 0.470871 0.631180 0.844442
O O6 0.284576 0.772298 0.705730
O O7 0.114111 0.356672 0.561857
O O8 0.723113 0.542298 0.154314
O O9 0.356404 0.703405 0.131401
O O10 0.236414 0.300279 0.917735
O O11 0.165213 0.622801 0.263013
O O12 0.991188 0.958681 0.345285
O O13 0.459693 0.231928 0.663499
O O14 0.500000 0.000000 0.500000
O O15 0.707708 0.081351 0.384847
#
# Coordination Sequence:
#
# PCOD8016867 Si02
#       7
#     2   2   2   2   2   2   2
#     4  11  21  37  58  93 128 157 195 261 311 359
#     4  11  23  38  62  95 123 160 202 255 319 354
#     4  10  24  40  67  89 122 167 205 252 297 374
#     4  10  22  44  62  91 124 163 210 247 306 362
#     4  10  22  36  63  90 122 160 202 256 305 354
#     4  10  22  37  63  90 125 157 208 259 296 367
#     4  10  22  38  61  89 121 162 206 250 301 360
#
# _framework density 23.372488000000001
#
# number of rings (size 3 to 8) (size 9 to 14) (size 15 to 20)
#    0.000    1.714    1.429    2.571   10.000    2.286 
#    0.000    0.000    3.143    4.286    0.000    0.000 
#    0.000    0.000    0.000    0.000    0.000    0.000 
#
# Total GULP energy -173449.734775 kJ/mol
# GULP energy per Si atom -12389.266770 kJ/mol
# Density = 2.331929 g / cm^3
# Si number density = 23.372488 Si / 1000 Ang^3
#
#
#
# Elastic Constant Matrix: (Units=GPa)
#
#
# Indices 1 2 3 4 5 6 
#
# 1 113.1380 31.7033 17.6153 3.2001 -9.3076 -7.8398
# 2 31.7033 57.8085 8.3240 -7.3924 -3.2126 -4.8914
# 3 17.6153 8.3240 61.1104 -14.9342 -7.0166 -13.0403
# 4 3.2001 -7.3924 -14.9342 27.3519 1.4550 0.9057
# 5 -9.3076 -3.2126 -7.0166 1.4550 24.6781 -4.2304
# 6 -7.8398 -4.8914 -13.0403 0.9057 -4.2304 45.4223
#
#
#
# Elastic Compliance Matrix: (Units=1/GPa)
#
#
# Indices 1 2 3 4 5 6 
#
# 1 0.011535 -0.006267 -0.003162 -0.004959 0.003064 0.000792
# 2 -0.006267 0.021650 0.000943 0.007023 0.000554 0.001432
# 3 -0.003162 0.000943 0.022076 0.012179 0.005546 0.006167
# 4 -0.004959 0.007023 0.012179 0.045592 0.000249 0.002511
# 5 0.003064 0.000554 0.005546 0.000249 0.044393 0.006310
# 6 0.000792 0.001432 0.006167 0.002511 0.006310 0.024615
#
#
# Mechanical properties :
#
#
# Convention : Reuss Voigt Hill
#
# Bulk Modulus (GPa) = 26.11843 38.59358 32.35601
# Shear Modulus (GPa) = 25.05057 31.11810 28.08433
#
# Velocity S-wave (km/s) = 3.27738 3.65279 3.47017
# Velocity P-wave (km/s) = 5.05181 5.85993 5.47081
#
# Compressibility (1/GPa) = 0.03828713
#
# Stress axis : x y z
#
# Youngs Moduli (GPa) = 86.69620 46.18981 45.29785
#
# Poissons Ratio (x) = 0.28949 0.14325
# Poissons Ratio (y) = 0.54335 -0.04271
# Poissons Ratio (z) = 0.27416 -0.04356
#
# Static dielectric constant tensor:
#      x y z
#    x 4.352170 -0.672470 0.474580 
#    y -0.672470 4.696880 -0.466460 
#    z 0.474580 -0.466460 4.309680 
# 
# 
# High freq. dielectric constant tensor:
#      x y z
#    x 1.949400 0.000620 -0.015360 
#    y 0.000620 1.921670 -0.004940 
#    z -0.015360 -0.004940 1.889150 
# 
# From -- ./inp_files/557520.got.cif
#   From: 2010.06.25/outbox.cif.g09.slc.cpg/sg2_279_cif.got.tgz:557520.got - 2010.06.27 13:26:56.
