data_PCOD8016932
_publ_section_title
;
Structure prediction by ZEFSAII (Michael W. Deem and Ramdas Pophale) SiO2 
 PCOD8016932
Probable space group: P -1
;
_chemical_formula_sum "Si O2"
_cell_formula_units_Z 16
_cell_length_a 10.129061
_cell_length_b 11.857275
_cell_length_c 14.821461
_cell_angle_alpha 69.894800
_cell_angle_beta 137.984361
_cell_angle_gamma 134.229779
_cell_volume 795.240814
_symmetry_space_group_name_H-M "P -1"
_symmetry_group_IT_number 2
_symmetry_cell_setting 'triclinic'
loop_
_space_group_symop_operation_xyz
x,y,z
-x,-y,-z
loop_
_atom_site_type_symbol
_atom_site_label
_atom_site_fract_x
_atom_site_fract_y
_atom_site_fract_z
Si Si1 0.372965 0.394082 0.554064
Si Si2 0.059613 0.107844 0.343896
Si Si3 0.366231 0.402442 0.097860
Si Si4 0.502736 0.140098 0.944984
Si Si5 0.112628 0.416687 0.567962
Si Si6 0.794911 0.081001 0.595821
Si Si7 0.096972 0.342118 0.155507
Si Si8 0.688879 0.738578 0.070513
O O1 0.500000 0.500000 0.500000
O O2 0.165429 0.198722 0.470805
O O3 0.204076 0.428027 0.508666
O O4 0.629193 0.462072 0.730528
O O5 0.092843 0.221312 0.249868
O O6 0.236394 0.064892 0.422620
O O7 0.730090 0.930626 0.230991
O O8 0.630827 0.472489 0.266154
O O9 0.118916 0.316905 0.067744
O O10 0.438874 0.553035 0.037136
O O11 0.285083 0.264065 0.023236
O O12 0.402235 0.165054 0.977712
O O13 0.820987 0.307124 0.033741
O O14 0.500000 0.000000 0.000000
O O15 0.000000 0.500000 0.500000
O O16 0.894798 0.219537 0.534762
O O17 0.011916 0.169307 0.763883
O O18 0.500000 0.000000 0.500000
#
# Coordination Sequence:
#
# PCOD8016932 Si02
#       8
#     2   2   2   2   2   2   2   2
#     4   9  19  35  57  82 114 149 190 239 284 339
#     4   9  19  37  57  79 122 150 188 236 295 345
#     4   9  19  36  58  80 112 147 189 242 281 332
#     4   9  18  34  54  77 109 147 179 230 288 338
#     4  10  22  37  60  88 117 153 198 240 289 347
#     4  10  22  38  59  83 120 158 189 241 298 344
#     4   9  18  34  58  88 108 148 195 234 286 343
#     4   9  19  39  56  80 114 149 188 235 290 340
#
# _framework density 20.119691
#
# number of rings (size 3 to 8) (size 9 to 14) (size 15 to 20)
#    0.000    2.750    0.000    0.000    5.250    4.000 
#    6.750    5.625    0.000    0.000    0.000    0.000 
#    0.000    0.000    0.000    0.000    0.000    0.000 
#
# Total GULP energy -198246.937005 kJ/mol
# GULP energy per Si atom -12390.433563 kJ/mol
# Density = 2.007390 g / cm^3
# Si number density = 20.119691 Si / 1000 Ang^3
#
#
#
# Elastic Constant Matrix: (Units=GPa)
#
#
# Indices 1 2 3 4 5 6 
#
# 1 189.8201 46.5374 95.2174 14.7867 -1.5486 -12.0927
# 2 46.5374 48.4664 35.8076 6.2491 -1.8125 -13.2539
# 3 95.2174 35.8076 89.8676 23.2754 4.2073 -8.9097
# 4 14.7867 6.2491 23.2754 30.7288 -1.7290 -1.8971
# 5 -1.5486 -1.8125 4.2073 -1.7290 45.1785 2.7983
# 6 -12.0927 -13.2539 -8.9097 -1.8971 2.7983 38.1057
#
#
#
# Elastic Compliance Matrix: (Units=1/GPa)
#
#
# Indices 1 2 3 4 5 6 
#
# 1 0.012125 -0.002446 -0.013179 0.004744 0.001725 0.000025
# 2 -0.002446 0.032624 -0.010486 0.003089 0.001816 0.008140
# 3 -0.013179 -0.010486 0.033997 -0.017566 -0.004685 -0.000411
# 4 0.004744 0.003089 -0.017566 0.043159 0.003552 0.000361
# 5 0.001725 0.001816 -0.004685 0.003552 0.022927 -0.001423
# 6 0.000025 0.008140 -0.000411 0.000361 -0.001423 0.029108
#
#
# Mechanical properties :
#
#
# Convention : Reuss Voigt Hill
#
# Bulk Modulus (GPa) = 37.70063 75.91988 56.81026
# Shear Modulus (GPa) = 21.27645 32.84203 27.05924
#
# Velocity S-wave (km/s) = 3.25544 4.04460 3.67128
# Velocity P-wave (km/s) = 5.73667 7.72190 6.80210
#
# Compressibility (1/GPa) = 0.02652476
#
# Stress axis : x y z
#
# Youngs Moduli (GPa) = 82.47680 30.65257 29.41438
#
# Poissons Ratio (x) = 0.07496 0.38765
# Poissons Ratio (y) = 0.20171 0.30843
# Poissons Ratio (z) = 1.08695 0.32142
#
# Static dielectric constant tensor:
#      x y z
#    x 4.135200 0.192100 -0.010470 
#    y 0.192100 4.053980 0.503490 
#    z -0.010470 0.503490 4.211680 
# 
# 
# High freq. dielectric constant tensor:
#      x y z
#    x 1.790920 -0.006500 0.002380 
#    y -0.006500 1.770050 0.019380 
#    z 0.002380 0.019380 1.780410 
# 
# From -- ./inp_files/398374.got.cif
#   From: 2010.06.25/outbox.cif.g09.slc.cpg/sg2_200_cif.got.tgz:398374.got - 2010.06.27 13:26:56.
