data_PCOD8016457
_publ_section_title
;
Structure prediction by ZEFSAII (Michael W. Deem and Ramdas Pophale) SiO2 
 PCOD8016457
Probable space group: P -1
;
_chemical_formula_sum "Si O2"
_cell_formula_units_Z 16
_cell_length_a 15.742035
_cell_length_b 14.707762
_cell_length_c 15.582944
_cell_angle_alpha 41.420449
_cell_angle_beta 18.609482
_cell_angle_gamma 39.373699
_cell_volume 727.724033
_symmetry_space_group_name_H-M "P -1"
_symmetry_group_IT_number 2
_symmetry_cell_setting 'triclinic'
loop_
_space_group_symop_operation_xyz
x,y,z
-x,-y,-z
loop_
_atom_site_type_symbol
_atom_site_label
_atom_site_fract_x
_atom_site_fract_y
_atom_site_fract_z
Si Si1 0.721313 0.121211 0.676017
Si Si2 0.441467 0.572982 0.413966
Si Si3 0.913206 0.582203 0.828786
Si Si4 0.985457 0.056743 0.070059
Si Si5 0.590479 0.916742 0.646385
Si Si6 0.237866 0.637544 0.992822
Si Si7 0.392218 0.118803 0.143284
Si Si8 0.203785 0.367807 0.449618
O O1 0.732396 0.262128 0.514693
O O2 0.544928 0.040932 0.844303
O O3 0.625005 0.170638 0.831558
O O4 0.000000 0.000000 0.500000
O O5 0.500000 0.500000 0.500000
O O6 0.238626 0.508970 0.594259
O O7 0.731158 0.567086 0.096055
O O8 0.821073 0.499802 0.897045
O O9 0.883692 0.748509 0.710975
O O10 0.839602 0.975593 0.333935
O O11 0.811693 0.226082 0.120087
O O12 0.000000 0.000000 0.000000
O O13 0.301927 0.030759 0.814686
O O14 0.582760 0.897246 0.768740
O O15 0.626702 0.759457 0.684529
O O16 0.999760 0.692088 0.254352
O O17 0.554898 0.587132 0.761091
O O18 0.000000 0.500000 0.500000
#
# Coordination Sequence:
#
# PCOD8016457 Si02
#       8
#     2   2   2   2   2   2   2   2
#     4  10  21  44  71  92 139 175 215 277 348 395
#     4  11  24  43  70  98 136 176 220 276 340 410
#     4  11  24  44  66  98 137 174 218 281 334 400
#     4  12  24  45  66  92 136 181 220 278 344 389
#     4  12  25  42  70 100 130 173 235 280 323 414
#     4  12  25  43  68  92 137 179 221 266 351 402
#     4  10  24  41  67 103 129 175 225 279 337 395
#     4  12  24  42  67  97 130 176 221 282 329 397
#
# _framework density 21.986356000000001
#
# number of rings (size 3 to 8) (size 9 to 14) (size 15 to 20)
#    0.000    0.750    3.750    3.375    1.750    3.000 
#    0.000    0.000    0.000    0.000    0.000    0.000 
#    0.000    0.000    0.000    0.000    0.000    0.000 
#
# Total GULP energy -198266.583259 kJ/mol
# GULP energy per Si atom -12391.661454 kJ/mol
# Density = 2.193631 g / cm^3
# Si number density = 21.986356 Si / 1000 Ang^3
#
#
#
# Elastic Constant Matrix: (Units=GPa)
#
#
# Indices 1 2 3 4 5 6 
#
# 1 128.4556 43.5739 43.5544 -3.7290 12.7437 -18.4877
# 2 43.5739 113.6919 23.0771 -4.7392 3.4335 -15.2656
# 3 43.5544 23.0771 97.7719 -1.0920 -6.6523 -13.8656
# 4 -3.7290 -4.7392 -1.0920 32.5645 -7.0334 -5.1947
# 5 12.7437 3.4335 -6.6523 -7.0334 40.6867 2.5564
# 6 -18.4877 -15.2656 -13.8656 -5.1947 2.5564 34.9845
#
#
#
# Elastic Compliance Matrix: (Units=1/GPa)
#
#
# Indices 1 2 3 4 5 6 
#
# 1 0.010993 -0.002811 -0.004029 0.000381 -0.004008 0.003336
# 2 -0.002811 0.010510 -0.000782 0.001658 -0.000039 0.003040
# 3 -0.004029 -0.000782 0.012807 0.000996 0.003437 0.002502
# 4 0.000381 0.001658 0.000996 0.033095 0.005257 0.005850
# 5 -0.004008 -0.000039 0.003437 0.005257 0.027433 -0.001997
# 6 0.003336 0.003040 0.002502 0.005850 -0.001997 0.033680
#
#
# Mechanical properties :
#
#
# Convention : Reuss Voigt Hill
#
# Bulk Modulus (GPa) = 52.44547 62.25892 57.35220
# Shear Modulus (GPa) = 33.30744 36.96139 35.13442
#
# Velocity S-wave (km/s) = 3.89641 4.10458 4.00185
# Velocity P-wave (km/s) = 6.64441 7.13035 6.89166
#
# Compressibility (1/GPa) = 0.01906742
#
# Stress axis : x y z
#
# Youngs Moduli (GPa) = 90.96609 95.14712 78.08187
#
# Poissons Ratio (x) = 0.26742 0.31460
# Poissons Ratio (y) = 0.25567 0.06103
# Poissons Ratio (z) = 0.36652 0.07437
#
# Static dielectric constant tensor:
#      x y z
#    x 4.167620 -0.532440 -0.050810 
#    y -0.532440 4.096130 0.209340 
#    z -0.050810 0.209340 4.110520 
# 
# 
# High freq. dielectric constant tensor:
#      x y z
#    x 1.855360 -0.004120 -0.000170 
#    y -0.004120 1.874370 -0.001100 
#    z -0.000170 -0.001100 1.877410 
# 
# From -- ./inp_files/534218.got.cif
#   From: 2010.06.25/outbox.cif.g09.slc.cpg/sg2_268_cif.got.tgz:534218.got - 2010.06.27 13:26:56.
