data_PCOD8016893
_publ_section_title
;
Structure prediction by ZEFSAII (Michael W. Deem and Ramdas Pophale) SiO2 
 PCOD8016893
Probable space group: P -1
;
_chemical_formula_sum "Si O2"
_cell_formula_units_Z 16
_cell_length_a 11.170808
_cell_length_b 8.657583
_cell_length_c 15.762310
_cell_angle_alpha 69.463168
_cell_angle_beta 118.643314
_cell_angle_gamma 61.138745
_cell_volume 764.973939
_symmetry_space_group_name_H-M "P -1"
_symmetry_group_IT_number 2
_symmetry_cell_setting 'triclinic'
loop_
_space_group_symop_operation_xyz
x,y,z
-x,-y,-z
loop_
_atom_site_type_symbol
_atom_site_label
_atom_site_fract_x
_atom_site_fract_y
_atom_site_fract_z
Si Si1 0.573677 0.241982 0.259738
Si Si2 0.790794 0.751749 0.321803
Si Si3 0.775955 0.181660 0.940102
Si Si4 0.722965 0.965674 0.532123
Si Si5 0.028901 0.963593 0.642279
Si Si6 0.382869 0.403100 0.661334
Si Si7 0.377434 0.299181 0.493045
Si Si8 0.938395 0.869898 0.219553
O O1 0.327672 0.555595 0.100183
O O2 0.764084 0.202197 0.319054
O O3 0.623012 0.038452 0.256867
O O4 0.567029 0.196900 0.364023
O O5 0.669397 0.695319 0.271284
O O6 0.864692 0.767200 0.256896
O O7 0.000000 0.500000 0.500000
O O8 0.596272 0.293303 0.789343
O O9 0.816484 0.010970 0.061495
O O10 0.000000 0.000000 0.000000
O O11 0.754475 0.745405 0.561236
O O12 0.959147 0.837898 0.639627
O O13 0.605649 0.096699 0.557828
O O14 0.110251 0.932112 0.770954
O O15 0.827059 0.276563 0.485934
O O16 0.443363 0.255374 0.621810
O O17 0.205823 0.605996 0.346127
#
# Coordination Sequence:
#
# PCOD8016893 Si02
#       8
#     2   2   2   2   2   2   2   2
#     4  11  21  40  66  94 130 159 212 266 321 370
#     4  11  19  41  71  99 126 155 215 282 324 364
#     4  12  28  43  60  90 138 179 214 249 315 394
#     4  11  20  35  63 101 119 153 214 275 317 373
#     4  10  22  36  70  97 118 158 215 278 319 362
#     4  11  22  41  66  94 123 172 209 265 324 370
#     4  10  22  37  65  91 126 163 212 270 318 370
#     4  10  23  41  60  93 129 171 207 256 319 383
#
# _framework density 20.915745999999999
#
# number of rings (size 3 to 8) (size 9 to 14) (size 15 to 20)
#    0.000    1.250    6.250    1.125    1.750    3.500 
#    0.000    1.875    0.000    0.000    0.000    0.000 
#    0.000    0.000    0.000    0.000    0.000    0.000 
#
# Total GULP energy -198325.735056 kJ/mol
# GULP energy per Si atom -12395.358441 kJ/mol
# Density = 2.086814 g / cm^3
# Si number density = 20.915746 Si / 1000 Ang^3
#
#
#
# Elastic Constant Matrix: (Units=GPa)
#
#
# Indices 1 2 3 4 5 6 
#
# 1 97.8596 28.4585 28.1991 -8.2671 -2.7487 -6.0472
# 2 28.4585 82.7572 28.9517 -11.2552 -0.0788 -14.1432
# 3 28.1991 28.9517 83.9013 -8.6818 -6.0510 -19.7069
# 4 -8.2671 -11.2552 -8.6818 29.0839 -5.1481 0.8978
# 5 -2.7487 -0.0788 -6.0510 -5.1481 31.7831 4.8861
# 6 -6.0472 -14.1432 -19.7069 0.8978 4.8861 29.5352
#
#
#
# Elastic Compliance Matrix: (Units=1/GPa)
#
#
# Indices 1 2 3 4 5 6 
#
# 1 0.012076 -0.003085 -0.003064 0.001520 0.000891 -0.001243
# 2 -0.003085 0.015512 -0.002805 0.003981 -0.000878 0.004949
# 3 -0.003064 -0.002805 0.016380 0.003028 0.002025 0.008532
# 4 0.001520 0.003981 0.003028 0.038372 0.006630 0.001975
# 5 0.000891 -0.000878 0.002025 0.006630 0.033715 -0.004666
# 6 -0.001243 0.004949 0.008532 0.001975 -0.004666 0.042378
#
#
# Mechanical properties :
#
#
# Convention : Reuss Voigt Hill
#
# Bulk Modulus (GPa) = 38.37531 48.41521 43.39526
# Shear Modulus (GPa) = 27.02295 30.00768 28.51532
#
# Velocity S-wave (km/s) = 3.59833 3.79184 3.69635
# Velocity P-wave (km/s) = 5.97087 6.50913 6.24580
#
# Compressibility (1/GPa) = 0.02605842
#
# Stress axis : x y z
#
# Youngs Moduli (GPa) = 82.81150 64.46574 61.05045
#
# Poissons Ratio (x) = 0.19891 0.18709
# Poissons Ratio (y) = 0.25551 0.17123
# Poissons Ratio (z) = 0.25377 0.18081
#
# Static dielectric constant tensor:
#      x y z
#    x 3.986830 0.059650 -0.078070 
#    y 0.059650 4.003800 -0.030280 
#    z -0.078070 -0.030280 3.513530 
# 
# 
# High freq. dielectric constant tensor:
#      x y z
#    x 1.825480 -0.007090 -0.010470 
#    y -0.007090 1.833130 -0.003410 
#    z -0.010470 -0.003410 1.778570 
# 
# From -- ./inp_files/495133.got.cif
#   From: 2010.06.25/outbox.cif.g09.slc.cpg/sg2_248_cif.got.tgz:495133.got - 2010.06.27 13:26:56.
