data_PCOD8016051
_publ_section_title
;
Structure prediction by ZEFSAII (Michael W. Deem and Ramdas Pophale) SiO2 
 PCOD8016051
Probable space group: P -1
;
_chemical_formula_sum "Si O2"
_cell_formula_units_Z 14
_cell_length_a 11.738670
_cell_length_b 9.973862
_cell_length_c 8.744632
_cell_angle_alpha 46.058188
_cell_angle_beta 66.599600
_cell_angle_gamma 58.222572
_cell_volume 625.849169
_symmetry_space_group_name_H-M "P -1"
_symmetry_group_IT_number 2
_symmetry_cell_setting 'triclinic'
loop_
_space_group_symop_operation_xyz
x,y,z
-x,-y,-z
loop_
_atom_site_type_symbol
_atom_site_label
_atom_site_fract_x
_atom_site_fract_y
_atom_site_fract_z
Si Si1 0.202585 0.906030 0.037081
Si Si2 0.125610 0.476958 0.055324
Si Si3 0.379887 0.514196 0.753901
Si Si4 0.986764 0.310966 0.744215
Si Si5 0.423024 0.764309 0.790813
Si Si6 0.399449 0.818320 0.260518
Si Si7 0.643320 0.892587 0.684484
O O1 0.106232 0.784635 0.220214
O O2 0.269018 0.934307 0.136940
O O3 0.315172 0.768160 0.970593
O O4 0.130367 0.129657 0.829705
O O5 0.075506 0.625495 0.106361
O O6 0.201457 0.247062 0.255541
O O7 0.229763 0.537950 0.852996
O O8 0.000000 0.500000 0.000000
O O9 0.451981 0.573471 0.814360
O O10 0.365874 0.656939 0.505206
O O11 0.470437 0.287688 0.832224
O O12 0.000000 0.500000 0.500000
O O13 0.563316 0.746768 0.807729
O O14 0.360251 0.971133 0.566064
O O15 0.426848 0.974890 0.234882
#
# Coordination Sequence:
#
# PCOD8016051 Si02
#       7
#     2   2   2   2   2   2   2
#     4  11  23  43  69  94 133 183 222 280 337 401
#     4  12  25  41  64  96 133 176 220 273 334 410
#     4  10  23  43  66  97 134 173 220 272 342 394
#     4  11  26  44  64  99 135 178 230 274 336 406
#     4  10  21  43  69  95 129 170 228 280 332 400
#     4  10  23  43  66  99 132 173 221 282 336 395
#     4  10  23  41  67  99 130 172 222 281 336 396
#
# _framework density 22.369607999999999
#
# number of rings (size 3 to 8) (size 9 to 14) (size 15 to 20)
#    0.000    1.429    1.429    2.571    4.000    4.571 
#    2.571    2.143    0.000    0.000    0.000    0.000 
#    0.000    0.000    0.000    0.000    0.000    0.000 
#
# Total GULP energy -173646.241101 kJ/mol
# GULP energy per Si atom -12403.302936 kJ/mol
# Density = 2.231869 g / cm^3
# Si number density = 22.369608 Si / 1000 Ang^3
#
#
#
# Elastic Constant Matrix: (Units=GPa)
#
#
# Indices 1 2 3 4 5 6 
#
# 1 157.5875 45.5226 44.7990 0.4717 10.4574 1.7594
# 2 45.5226 98.2339 22.0565 3.7245 5.2557 -4.6070
# 3 44.7990 22.0565 84.4986 -7.7450 -10.5905 7.4502
# 4 0.4717 3.7245 -7.7450 41.3071 0.0154 0.0025
# 5 10.4574 5.2557 -10.5905 0.0154 35.0656 1.1181
# 6 1.7594 -4.6070 7.4502 0.0025 1.1181 31.5333
#
#
#
# Elastic Compliance Matrix: (Units=1/GPa)
#
#
# Indices 1 2 3 4 5 6 
#
# 1 0.008622 -0.002792 -0.004363 -0.000663 -0.003479 0.000265
# 2 -0.002792 0.012264 -0.002308 -0.001506 -0.001783 0.002556
# 3 -0.004363 -0.002308 0.016259 0.003304 0.006689 -0.004173
# 4 -0.000663 -0.001506 0.003304 0.024971 0.001443 -0.001017
# 5 -0.003479 -0.001783 0.006689 0.001443 0.031931 -0.002779
# 6 0.000265 0.002556 -0.004173 -0.001017 -0.002779 0.033156
#
#
# Mechanical properties :
#
#
# Convention : Reuss Voigt Hill
#
# Bulk Modulus (GPa) = 54.88470 62.78624 58.83547
# Shear Modulus (GPa) = 32.85091 36.77733 34.81412
#
# Velocity S-wave (km/s) = 3.83633 4.05912 3.94929
# Velocity P-wave (km/s) = 6.64920 7.07794 6.86691
#
# Compressibility (1/GPa) = 0.01822001
#
# Stress axis : x y z
#
# Youngs Moduli (GPa) = 115.97661 81.53669 61.50447
#
# Poissons Ratio (x) = 0.22769 0.26832
# Poissons Ratio (y) = 0.32386 0.14194
# Poissons Ratio (z) = 0.50596 0.18817
#
# Static dielectric constant tensor:
#      x y z
#    x 3.983610 0.057710 0.151220 
#    y 0.057710 4.152350 0.016450 
#    z 0.151220 0.016450 4.094690 
# 
# 
# High freq. dielectric constant tensor:
#      x y z
#    x 1.877550 0.003720 0.009360 
#    y 0.003720 1.892300 -0.002480 
#    z 0.009360 -0.002480 1.898410 
# 
# From -- ./inp_files/241934.got.cif
#   From: 2010.06.25/outbox.cif.g09.slc.cpg/sg2_121_cif.got.tgz:241934.got - 2010.06.27 13:26:56.
