data_PCOD8016599
_publ_section_title
;
Structure prediction by ZEFSAII (Michael W. Deem and Ramdas Pophale) SiO2 
 PCOD8016599
Probable space group: P -1
;
_chemical_formula_sum "Si O2"
_cell_formula_units_Z 16
_cell_length_a 5.156674
_cell_length_b 20.071984
_cell_length_c 8.457609
_cell_angle_alpha 63.481953
_cell_angle_beta 103.080005
_cell_angle_gamma 121.041309
_cell_volume 671.123065
_symmetry_space_group_name_H-M "P -1"
_symmetry_group_IT_number 2
_symmetry_cell_setting 'triclinic'
loop_
_space_group_symop_operation_xyz
x,y,z
-x,-y,-z
loop_
_atom_site_type_symbol
_atom_site_label
_atom_site_fract_x
_atom_site_fract_y
_atom_site_fract_z
Si Si1 0.618263 0.934448 0.120987
Si Si2 0.793501 0.375643 0.465740
Si Si3 0.164339 0.752865 0.199105
Si Si4 0.654505 0.765337 0.649850
Si Si5 0.542987 0.708737 0.049343
Si Si6 0.679171 0.460062 0.656773
Si Si7 0.232905 0.013499 0.247627
Si Si8 0.646656 0.126253 0.464118
O O1 0.379169 0.839105 0.227154
O O2 0.867063 0.962656 0.267703
O O3 0.500000 0.000000 0.000000
O O4 0.737082 0.931574 0.962629
O O5 0.944705 0.317741 0.602494
O O6 0.480020 0.318480 0.390811
O O7 0.743411 0.407506 0.591224
O O8 0.025017 0.459436 0.311618
O O9 0.314245 0.730296 0.093823
O O10 0.882821 0.765560 0.095723
O O11 0.482677 0.818828 0.523989
O O12 0.017288 0.817958 0.623215
O O13 0.538786 0.732302 0.843535
O O14 0.476226 0.609737 0.152910
O O15 0.500000 0.500000 0.500000
O O16 0.347863 0.941456 0.335027
O O17 0.403646 0.076415 0.346315
#
# Coordination Sequence:
#
# PCOD8016599 Si02
#       8
#     2   2   2   2   2   2   2   2
#     4  11  25  39  68  98 134 173 238 286 331 392
#     4  10  24  41  71  99 135 175 225 275 335 412
#     4  11  24  43  67  96 133 181 223 276 338 399
#     4  12  26  44  67 105 131 179 228 284 333 408
#     4  11  24  43  70  97 138 176 218 280 339 401
#     4  10  21  45  69 100 135 177 219 272 344 411
#     4  10  25  44  62  97 129 189 222 292 339 399
#     4  11  27  45  69  90 144 179 232 274 352 403
#
# _framework density 23.840634000000001
#
# number of rings (size 3 to 8) (size 9 to 14) (size 15 to 20)
#    0.000    1.250    1.250    3.000   12.250    1.500 
#    0.000    0.625    0.000    0.000    0.000    0.000 
#    0.000    0.000    0.000    0.000    0.000    0.000 
#
# Total GULP energy -198212.497026 kJ/mol
# GULP energy per Si atom -12388.281064 kJ/mol
# Density = 2.378637 g / cm^3
# Si number density = 23.840634 Si / 1000 Ang^3
#
#
#
# Elastic Constant Matrix: (Units=GPa)
#
#
# Indices 1 2 3 4 5 6 
#
# 1 80.8446 34.4640 12.9962 -3.0511 17.4923 19.0530
# 2 34.4640 171.2705 46.6465 1.6536 7.4460 21.8478
# 3 12.9962 46.6465 99.6777 -0.4549 6.2850 17.8732
# 4 -3.0511 1.6536 -0.4549 40.5135 7.7735 9.0182
# 5 17.4923 7.4460 6.2850 7.7735 33.2522 -2.7077
# 6 19.0530 21.8478 17.8732 9.0182 -2.7077 31.4296
#
#
#
# Elastic Compliance Matrix: (Units=1/GPa)
#
#
# Indices 1 2 3 4 5 6 
#
# 1 0.019529 -0.002077 0.001927 0.007369 -0.013095 -0.014733
# 2 -0.002077 0.007301 -0.002716 0.000075 -0.000235 -0.002313
# 3 0.001927 -0.002716 0.012703 0.002899 -0.004111 -0.007690
# 4 0.007369 0.000075 0.002899 0.031415 -0.013114 -0.016312
# 5 -0.013095 -0.000235 -0.004111 -0.013114 0.042310 0.017847
# 6 -0.014733 -0.002313 -0.007690 -0.016312 0.017847 0.052948
#
#
# Mechanical properties :
#
#
# Convention : Reuss Voigt Hill
#
# Bulk Modulus (GPa) = 29.58483 60.00070 44.79276
# Shear Modulus (GPa) = 27.29190 38.21812 32.75501
#
# Velocity S-wave (km/s) = 3.38711 4.00817 3.71066
# Velocity P-wave (km/s) = 5.26621 6.82954 6.09818
#
# Compressibility (1/GPa) = 0.03380111
#
# Stress axis : x y z
#
# Youngs Moduli (GPa) = 51.20680 136.96895 78.71890
#
# Poissons Ratio (x) = 0.28447 -0.15168
# Poissons Ratio (y) = 0.10635 0.21379
# Poissons Ratio (z) = -0.09867 0.37199
#
# Static dielectric constant tensor:
#      x y z
#    x 4.380490 0.617420 -0.671080 
#    y 0.617420 4.559700 -0.311980 
#    z -0.671080 -0.311980 5.162110 
# 
# 
# High freq. dielectric constant tensor:
#      x y z
#    x 1.938600 0.008420 0.005980 
#    y 0.008420 1.959920 -0.015560 
#    z 0.005980 -0.015560 1.952270 
# 
# From -- ./inp_files/122976.got.cif
#   From: 2010.06.25/outbox.cif.g09.slc.cpg/sg2_62_cif.got.tgz:122976.got - 2010.06.27 13:26:56.
