data_PCOD8016075
_publ_section_title
;
Structure prediction by ZEFSAII (Michael W. Deem and Ramdas Pophale) SiO2 
 PCOD8016075
Probable space group: P -1
;
_chemical_formula_sum "Si O2"
_cell_formula_units_Z 12
_cell_length_a 9.591222
_cell_length_b 11.298870
_cell_length_c 11.431669
_cell_angle_alpha 137.492924
_cell_angle_beta 37.742816
_cell_angle_gamma 117.662035
_cell_volume 490.831976
_symmetry_space_group_name_H-M "P -1"
_symmetry_group_IT_number 2
_symmetry_cell_setting 'triclinic'
loop_
_space_group_symop_operation_xyz
x,y,z
-x,-y,-z
loop_
_atom_site_type_symbol
_atom_site_label
_atom_site_fract_x
_atom_site_fract_y
_atom_site_fract_z
Si Si1 0.066344 0.957524 0.789025
Si Si2 0.885574 0.720206 0.157339
Si Si3 0.179941 0.103423 0.306229
Si Si4 0.570336 0.383370 0.630252
Si Si5 0.767705 0.231594 0.837273
Si Si6 0.266649 0.467129 0.575991
O O1 0.277837 0.767944 0.491915
O O2 0.838840 0.940019 0.851373
O O3 0.159471 0.117978 0.789138
O O4 0.000000 0.000000 0.000000
O O5 0.636417 0.692684 0.345062
O O6 0.028529 0.747763 0.194748
O O7 0.035814 0.531887 0.857655
O O8 0.308851 0.258938 0.356613
O O9 0.903797 0.160458 0.574808
O O10 0.332969 0.924603 0.147759
O O11 0.766889 0.404451 0.422355
O O12 0.443327 0.584328 0.915262
O O13 0.500000 0.500000 0.500000
#
# Coordination Sequence:
#
# PCOD8016075 Si02
#       6
#     2   2   2   2   2   2
#     4  11  25  46  68  99 141 186 224 275 341 404
#     4  11  22  45  69 100 139 173 232 282 333 407
#     4  10  24  44  67 103 142 171 231 283 331 410
#     4  12  23  40  73 101 132 188 222 272 347 400
#     4  10  21  43  70 100 135 175 223 289 337 391
#     4  12  23  41  74 103 135 178 225 286 342 396
#
# _framework density 24.448287000000001
#
# number of rings (size 3 to 8) (size 9 to 14) (size 15 to 20)
#    0.000    1.000    5.000    2.000    0.000    2.000 
#    0.000    3.333    0.000    0.000    0.000    0.000 
#    0.000    0.000    0.000    0.000    0.000    0.000 
#
# Total GULP energy -148717.224630 kJ/mol
# GULP energy per Si atom -12393.102052 kJ/mol
# Density = 2.439264 g / cm^3
# Si number density = 24.448287 Si / 1000 Ang^3
#
#
#
# Elastic Constant Matrix: (Units=GPa)
#
#
# Indices 1 2 3 4 5 6 
#
# 1 79.1545 42.3324 35.7078 8.4719 10.0124 -1.7584
# 2 42.3324 150.7036 20.9498 30.1687 -0.1051 8.0778
# 3 35.7078 20.9498 99.0493 22.1789 -5.9906 -11.1741
# 4 8.4719 30.1687 22.1789 47.7898 -10.0689 -2.7734
# 5 10.0124 -0.1051 -5.9906 -10.0689 41.0285 7.4367
# 6 -1.7584 8.0778 -11.1741 -2.7734 7.4367 40.0497
#
#
#
# Elastic Compliance Matrix: (Units=1/GPa)
#
#
# Indices 1 2 3 4 5 6 
#
# 1 0.018465 -0.004693 -0.006198 0.001524 -0.005250 0.001109
# 2 -0.004693 0.009025 0.000728 -0.005251 0.000396 -0.002261
# 3 -0.006198 0.000728 0.013759 -0.005220 0.001747 0.002734
# 4 0.001524 -0.005251 -0.005220 0.027588 0.005522 0.000555
# 5 -0.005250 0.000396 0.001747 0.005522 0.028111 -0.004660
# 6 0.001109 -0.002261 0.002734 0.000555 -0.004660 0.027140
#
#
# Mechanical properties :
#
#
# Convention : Reuss Voigt Hill
#
# Bulk Modulus (GPa) = 47.79458 58.54304 53.16881
# Shear Modulus (GPa) = 33.02744 41.10142 37.06443
#
# Velocity S-wave (km/s) = 3.67946 4.10464 3.89785
# Velocity P-wave (km/s) = 6.13538 6.81628 6.48478
#
# Compressibility (1/GPa) = 0.02092288
#
# Stress axis : x y z
#
# Youngs Moduli (GPa) = 54.15625 110.79890 72.67842
#
# Poissons Ratio (x) = 0.52002 0.45045
# Poissons Ratio (y) = 0.25418 -0.05289
# Poissons Ratio (z) = 0.33565 -0.08064
#
# Static dielectric constant tensor:
#      x y z
#    x 4.000600 -0.290570 0.157550 
#    y -0.290570 5.084230 0.137730 
#    z 0.157550 0.137730 4.623600 
# 
# 
# High freq. dielectric constant tensor:
#      x y z
#    x 1.934910 -0.014210 0.007120 
#    y -0.014210 2.002610 0.015350 
#    z 0.007120 0.015350 1.975460 
# 
# From -- ./inp_files/166841.got.cif
#   From: 2010.06.25/outbox.cif.g09.slc.cpg/sg2_84_cif.got.tgz:166841.got - 2010.06.27 13:26:56.
