data_PCOD8016573
_publ_section_title
;
Structure prediction by ZEFSAII (Michael W. Deem and Ramdas Pophale) SiO2 
 PCOD8016573
Probable space group: P -1
;
_chemical_formula_sum "Si O2"
_cell_formula_units_Z 12
_cell_length_a 9.745557
_cell_length_b 8.856306
_cell_length_c 10.114293
_cell_angle_alpha 67.145300
_cell_angle_beta 102.880225
_cell_angle_gamma 137.192774
_cell_volume 543.946806
_symmetry_space_group_name_H-M "P -1"
_symmetry_group_IT_number 2
_symmetry_cell_setting 'triclinic'
loop_
_space_group_symop_operation_xyz
x,y,z
-x,-y,-z
loop_
_atom_site_type_symbol
_atom_site_label
_atom_site_fract_x
_atom_site_fract_y
_atom_site_fract_z
Si Si1 0.461382 0.820323 0.151785
Si Si2 0.093870 0.510068 0.337356
Si Si3 0.866297 0.017940 0.539112
Si Si4 0.514532 0.156329 0.555824
Si Si5 0.976426 0.172933 0.797946
Si Si6 0.339679 0.277345 0.946111
O O1 0.217954 0.587940 0.199940
O O2 0.556051 0.949280 0.272089
O O3 0.547893 0.721709 0.149300
O O4 0.500000 0.000000 0.000000
O O5 0.908770 0.231969 0.411033
O O6 0.753117 0.401996 0.535685
O O7 0.009801 0.622141 0.287090
O O8 0.918459 0.037825 0.695188
O O9 0.621897 0.802481 0.537348
O O10 0.000000 0.000000 0.500000
O O11 0.500000 0.000000 0.500000
O O12 0.195405 0.297580 0.851094
O O13 0.796070 0.974160 0.926049
O O14 0.500000 0.500000 0.000000
#
# Coordination Sequence:
#
# PCOD8016573 Si02
#       6
#     2   2   2   2   2   2
#     4  10  21  45  67  98 135 174 224 273 326 407
#     4  10  24  43  67  96 134 174 225 267 335 396
#     4  12  25  42  67 100 135 173 226 282 334 393
#     4  10  22  41  69  97 134 174 222 270 338 389
#     4  11  24  43  66  96 135 174 228 274 325 409
#     4  11  25  44  67  98 136 180 220 276 340 392
#
# _framework density 22.060979
#
# number of rings (size 3 to 8) (size 9 to 14) (size 15 to 20)
#    1.000    0.333    3.333    1.500    2.333    4.667 
#    0.000    1.667    0.000    0.000    0.000    0.000 
#    0.000    0.000    0.000    0.000    0.000    0.000 
#
# Total GULP energy -148704.743000 kJ/mol
# GULP energy per Si atom -12392.061917 kJ/mol
# Density = 2.201077 g / cm^3
# Si number density = 22.060979 Si / 1000 Ang^3
#
#
#
# Elastic Constant Matrix: (Units=GPa)
#
#
# Indices 1 2 3 4 5 6 
#
# 1 157.9724 40.5811 34.6233 23.9524 -3.5368 2.6936
# 2 40.5811 59.4957 20.8309 16.7290 10.3241 1.4390
# 3 34.6233 20.8309 99.8740 31.1379 -12.5675 1.0876
# 4 23.9524 16.7290 31.1379 34.8193 -2.5857 -0.7875
# 5 -3.5368 10.3241 -12.5675 -2.5857 44.9827 13.4645
# 6 2.6936 1.4390 1.0876 -0.7875 13.4645 33.0610
#
#
#
# Elastic Compliance Matrix: (Units=1/GPa)
#
#
# Indices 1 2 3 4 5 6 
#
# 1 0.008198 -0.004890 -0.000824 -0.002450 0.001755 -0.001201
# 2 -0.004890 0.024078 -0.002211 -0.006740 -0.007625 0.002368
# 3 -0.000824 -0.002211 0.014949 -0.011446 0.004716 -0.002522
# 4 -0.002450 -0.006740 -0.011446 0.043931 0.000123 0.001866
# 5 0.001755 -0.007625 0.004716 0.000123 0.028963 -0.011759
# 6 -0.001201 0.002368 -0.002522 0.001866 -0.011759 0.035158
#
#
# Mechanical properties :
#
#
# Convention : Reuss Voigt Hill
#
# Bulk Modulus (GPa) = 31.87194 56.60140 44.23667
# Shear Modulus (GPa) = 27.53514 37.32638 32.43076
#
# Velocity S-wave (km/s) = 3.53673 4.11781 3.83828
# Velocity P-wave (km/s) = 5.58180 6.95133 6.30387
#
# Compressibility (1/GPa) = 0.03137556
#
# Stress axis : x y z
#
# Youngs Moduli (GPa) = 121.97613 41.53099 66.89448
#
# Poissons Ratio (x) = 0.20309 0.05515
# Poissons Ratio (y) = 0.59646 0.14788
# Poissons Ratio (z) = 0.10057 0.09181
#
# Static dielectric constant tensor:
#      x y z
#    x 4.181750 0.202710 -0.164450 
#    y 0.202710 3.853180 0.236190 
#    z -0.164450 0.236190 4.412070 
# 
# 
# High freq. dielectric constant tensor:
#      x y z
#    x 1.888720 0.012180 -0.014620 
#    y 0.012180 1.844030 0.003830 
#    z -0.014620 0.003830 1.877090 
# 
# From -- ./inp_files/158039.got.cif
#   From: 2010.06.25/outbox.cif.g09.slc.cpg/sg2_80_cif.got.tgz:158039.got - 2010.06.27 13:26:56.
