data_PCOD8016934
_publ_section_title
;
Structure prediction by ZEFSAII (Michael W. Deem and Ramdas Pophale) SiO2 
 PCOD8016934
Probable space group: P -1
;
_chemical_formula_sum "Si O2"
_cell_formula_units_Z 10
_cell_length_a 14.589294
_cell_length_b 11.577343
_cell_length_c 11.418065
_cell_angle_alpha 36.510401
_cell_angle_beta 28.397918
_cell_angle_gamma 31.717150
_cell_volume 470.192276
_symmetry_space_group_name_H-M "P -1"
_symmetry_group_IT_number 2
_symmetry_cell_setting 'triclinic'
loop_
_space_group_symop_operation_xyz
x,y,z
-x,-y,-z
loop_
_atom_site_type_symbol
_atom_site_label
_atom_site_fract_x
_atom_site_fract_y
_atom_site_fract_z
Si Si1 0.349250 0.436650 0.144473
Si Si2 0.267868 0.804460 0.250717
Si Si3 0.021702 0.942587 0.827225
Si Si4 0.856505 0.832028 0.318282
Si Si5 0.952697 0.297980 0.220832
O O1 0.313718 0.257465 0.404546
O O2 0.114281 0.647306 0.202733
O O3 0.500000 0.500000 0.000000
O O4 0.473094 0.324045 0.973773
O O5 0.230039 0.657676 0.510313
O O6 0.182492 0.059832 0.186093
O O7 0.121024 0.832640 0.275421
O O8 0.842877 0.921862 0.128948
O O9 0.139353 0.726116 0.783876
O O10 0.200563 0.970098 0.682640
O O11 0.000000 0.500000 0.000000
#
# Coordination Sequence:
#
# PCOD8016934 Si02
#       5
#     2   2   2   2   2
#     4  11  21  37  60  91 118 159 198 240 302 362
#     4   9  20  38  61  88 116 157 208 233 297 359
#     4   9  19  40  56  87 123 154 196 249 295 349
#     4  10  22  37  60  89 127 149 190 259 298 344
#     4   9  19  37  65  85 115 164 200 244 292 352
#
# _framework density 21.267896
#
# number of rings (size 3 to 8) (size 9 to 14) (size 15 to 20)
#    1.200    1.200    2.000    0.000    2.800    0.800 
#    7.200    2.000    0.000    0.000    0.000    0.000 
#    0.000    0.000    0.000    0.000    0.000    0.000 
#
# Total GULP energy -123881.050562 kJ/mol
# GULP energy per Si atom -12388.105056 kJ/mol
# Density = 2.121949 g / cm^3
# Si number density = 21.267896 Si / 1000 Ang^3
#
#
#
# Elastic Constant Matrix: (Units=GPa)
#
#
# Indices 1 2 3 4 5 6 
#
# 1 107.9376 19.0803 65.4926 -11.5215 25.6202 24.8918
# 2 19.0803 65.9046 55.9365 -11.5428 2.6222 21.0947
# 3 65.4926 55.9365 177.9681 -24.2670 20.4872 23.4909
# 4 -11.5215 -11.5428 -24.2670 43.3449 0.0015 -0.4248
# 5 25.6202 2.6222 20.4872 0.0015 38.8251 1.0090
# 6 24.8918 21.0947 23.4909 -0.4248 1.0090 20.4687
#
#
#
# Elastic Compliance Matrix: (Units=1/GPa)
#
#
# Indices 1 2 3 4 5 6 
#
# 1 0.019455 0.007482 -0.004286 0.004511 -0.010410 -0.025844
# 2 0.007482 0.030316 -0.006961 0.005850 -0.002478 -0.032110
# 3 -0.004286 -0.006961 0.009766 0.002488 -0.001889 0.001323
# 4 0.004511 0.005850 0.002488 0.027088 -0.004332 -0.013595
# 5 -0.010410 -0.002478 -0.001889 -0.004332 0.033384 0.015646
# 6 -0.025844 -0.032110 0.001323 -0.013595 0.015646 0.110805
#
#
# Mechanical properties :
#
#
# Convention : Reuss Voigt Hill
#
# Bulk Modulus (GPa) = 19.22794 70.31436 44.77115
# Shear Modulus (GPa) = 19.55570 34.61448 27.08509
#
# Velocity S-wave (km/s) = 3.03561 4.03866 3.57251
# Velocity P-wave (km/s) = 4.62028 7.40816 6.17364
#
# Compressibility (1/GPa) = 0.05200766
#
# Stress axis : x y z
#
# Youngs Moduli (GPa) = 51.39966 32.98571 102.39304
#
# Poissons Ratio (x) = -0.24680 0.43890
# Poissons Ratio (y) = -0.38457 0.71272
# Poissons Ratio (z) = 0.22032 0.22960
#
# Static dielectric constant tensor:
#      x y z
#    x 3.726400 0.214280 0.394660 
#    y 0.214280 3.863830 -0.030400 
#    z 0.394660 -0.030400 3.783230 
# 
# 
# High freq. dielectric constant tensor:
#      x y z
#    x 1.818450 0.016020 0.032490 
#    y 0.016020 1.825070 -0.010210 
#    z 0.032490 -0.010210 1.822710 
# 
# From -- ./inp_files/58191.got.cif
#   From: 2010.06.25/outbox.cif.g09.slc.cpg/sg2_30_cif.got.tgz:58191.got - 2010.06.27 13:26:56.
