data_PCOD8016820
_publ_section_title
;
Structure prediction by ZEFSAII (Michael W. Deem and Ramdas Pophale) SiO2 
 PCOD8016820
Probable space group: P -1
;
_chemical_formula_sum "Si O2"
_cell_formula_units_Z 14
_cell_length_a 16.806708
_cell_length_b 14.594519
_cell_length_c 16.714314
_cell_angle_alpha 136.340972
_cell_angle_beta 16.902750
_cell_angle_gamma 143.871555
_cell_volume 673.058323
_symmetry_space_group_name_H-M "P -1"
_symmetry_group_IT_number 2
_symmetry_cell_setting 'triclinic'
loop_
_space_group_symop_operation_xyz
x,y,z
-x,-y,-z
loop_
_atom_site_type_symbol
_atom_site_label
_atom_site_fract_x
_atom_site_fract_y
_atom_site_fract_z
Si Si1 0.744319 0.488594 0.500049
Si Si2 0.632357 0.685518 0.504899
Si Si3 0.901598 0.856019 0.112739
Si Si4 0.006252 0.176775 0.178304
Si Si5 0.150015 0.755109 0.941663
Si Si6 0.234671 0.612705 0.415779
Si Si7 0.668755 0.417512 0.111368
O O1 0.481065 0.301935 0.606311
O O2 0.886449 0.494247 0.454208
O O3 0.559309 0.579166 0.736027
O O4 0.051681 0.592940 0.207823
O O5 0.500000 0.500000 0.500000
O O6 0.474507 0.754648 0.642053
O O7 0.565147 0.717827 0.681344
O O8 0.024793 0.788167 0.167158
O O9 0.034799 0.847998 0.893013
O O10 0.889543 0.011222 0.230450
O O11 0.174642 0.875842 0.926178
O O12 0.772146 0.230440 0.467421
O O13 0.385938 0.320533 0.926704
O O14 0.848128 0.580103 0.092156
O O15 0.000000 0.500000 0.500000
#
# Coordination Sequence:
#
# PCOD8016820 Si02
#       7
#     2   2   2   2   2   2   2
#     4  10  19  30  49  70  97 132 158 200 240 288
#     4  10  18  26  39  63  96 135 163 190 232 284
#     4   9  20  34  50  76 103 133 171 195 246 300
#     4  10  22  35  54  73 100 135 165 207 242 295
#     4  10  17  26  42  63  97 133 160 194 232 287
#     4  11  22  37  53  74 100 129 167 208 252 288
#     4  10  17  28  42  65  96 129 167 189 231 291
#
# _framework density 20.800576
#
# number of rings (size 3 to 8) (size 9 to 14) (size 15 to 20)
#    0.000    2.000    0.000    8.143    0.000    9.714 
#    0.000    0.000    0.000    0.000    0.000    0.000 
#    0.000   22.857    0.000    0.000    0.000    0.714 
#
# Total GULP energy -173448.107543 kJ/mol
# GULP energy per Si atom -12389.150539 kJ/mol
# Density = 2.075323 g / cm^3
# Si number density = 20.800576 Si / 1000 Ang^3
#
#
#
# Elastic Constant Matrix: (Units=GPa)
#
#
# Indices 1 2 3 4 5 6 
#
# 1 95.6119 24.0694 11.2490 2.9514 -12.5002 -13.1336
# 2 24.0694 30.6945 2.2181 9.6238 -8.6039 -7.6010
# 3 11.2490 2.2181 73.0891 18.3340 -3.1215 -7.0556
# 4 2.9514 9.6238 18.3340 20.5153 -8.2270 -5.6767
# 5 -12.5002 -8.6039 -3.1215 -8.2270 25.4962 9.1096
# 6 -13.1336 -7.6010 -7.0556 -5.6767 9.1096 21.8360
#
#
#
# Elastic Compliance Matrix: (Units=1/GPa)
#
#
# Indices 1 2 3 4 5 6 
#
# 1 0.014815 -0.012180 -0.003802 0.009897 0.004386 0.004186
# 2 -0.012180 0.051985 0.007760 -0.027364 0.001750 0.005433
# 3 -0.003802 0.007760 0.019569 -0.021703 -0.004987 0.003176
# 4 0.009897 -0.027364 -0.021703 0.088760 0.020142 0.004087
# 5 0.004386 0.001750 -0.004987 0.020142 0.053348 -0.015384
# 6 0.004186 0.005433 0.003176 0.004087 -0.015384 0.058712
#
#
# Mechanical properties :
#
#
# Convention : Reuss Voigt Hill
#
# Bulk Modulus (GPa) = 14.30065 30.49650 22.39858
# Shear Modulus (GPa) = 15.29330 24.36010 19.82670
#
# Velocity S-wave (km/s) = 2.71446 3.42588 3.09071
# Velocity P-wave (km/s) = 4.08833 5.50837 4.85060
#
# Compressibility (1/GPa) = 0.06992688
#
# Stress axis : x y z
#
# Youngs Moduli (GPa) = 67.49769 19.23634 51.10050
#
# Poissons Ratio (x) = 0.23430 0.19427
# Poissons Ratio (y) = 0.82212 -0.39656
# Poissons Ratio (z) = 0.25661 -0.14928
#
# Static dielectric constant tensor:
#      x y z
#    x 4.382870 -0.592500 0.122450 
#    y -0.592500 3.226600 0.180570 
#    z 0.122450 0.180570 3.901250 
# 
# 
# High freq. dielectric constant tensor:
#      x y z
#    x 1.820620 -0.044060 0.007620 
#    y -0.044060 1.730020 0.030140 
#    z 0.007620 0.030140 1.827030 
# 
# From -- ./inp_files/531186.got.cif
#   From: 2010.06.25/outbox.cif.g09.slc.cpg/sg2_266_cif.got.tgz:531186.got - 2010.06.27 13:26:56.
