data_PCOD8016343
_publ_section_title
;
Structure prediction by ZEFSAII (Michael W. Deem and Ramdas Pophale) SiO2 
 PCOD8016343
Probable space group: P -1
;
_chemical_formula_sum "Si O2"
_cell_formula_units_Z 16
_cell_length_a 17.787323
_cell_length_b 11.734909
_cell_length_c 9.316848
_cell_angle_alpha 129.333726
_cell_angle_beta 149.597615
_cell_angle_gamma 51.502248
_cell_volume 746.811163
_symmetry_space_group_name_H-M "P -1"
_symmetry_group_IT_number 2
_symmetry_cell_setting 'triclinic'
loop_
_space_group_symop_operation_xyz
x,y,z
-x,-y,-z
loop_
_atom_site_type_symbol
_atom_site_label
_atom_site_fract_x
_atom_site_fract_y
_atom_site_fract_z
Si Si1 0.336508 0.693351 0.302663
Si Si2 0.177060 0.981380 0.780406
Si Si3 0.352999 0.442420 0.654718
Si Si4 0.322069 0.422725 0.251304
Si Si5 0.199188 0.704458 0.774565
Si Si6 0.343181 0.104801 0.375650
Si Si7 0.176099 0.011472 0.299845
Si Si8 0.149724 0.184447 0.659390
O O1 0.271618 0.571195 0.191294
O O2 0.515336 0.669318 0.600670
O O3 0.263371 0.852731 0.377219
O O4 0.303945 0.682545 0.070536
O O5 0.256527 0.819474 0.846435
O O6 0.219020 0.023894 0.722196
O O7 0.000000 0.000000 0.500000
O O8 0.226146 0.115214 0.060206
O O9 0.322671 0.464779 0.453404
O O10 0.211564 0.545069 0.586774
O O11 0.368078 0.269830 0.588566
O O12 0.500000 0.500000 0.000000
O O13 0.203305 0.321605 0.932385
O O14 0.031538 0.775631 0.603359
O O15 0.256777 0.032441 0.300008
O O16 0.500000 0.000000 0.500000
O O17 0.198790 0.151411 0.549014
O O18 0.000000 0.000000 0.000000
#
# Coordination Sequence:
#
# PCOD8016343 Si02
#       8
#     2   2   2   2   2   2   2   2
#     4  11  24  46  68  96 145 182 233 297 355 426
#     4  10  21  44  67  97 144 178 229 299 350 411
#     4  12  25  44  72 101 139 191 240 292 371 426
#     4  11  26  45  65 101 142 179 234 306 352 416
#     4  11  23  44  69  98 140 190 231 292 356 431
#     4  12  25  46  76 103 137 189 249 296 352 437
#     4  12  25  46  75 105 140 195 239 289 373 433
#     4  11  25  43  67 103 140 178 238 295 349 425
#
# _framework density 21.424426
#
# number of rings (size 3 to 8) (size 9 to 14) (size 15 to 20)
#    0.000    0.750    5.000    2.250    3.500    2.500 
#    0.000    0.000    0.000    0.000    0.000    0.000 
#    0.000    0.000    0.000    0.000    0.000    0.000 
#
# Total GULP energy -198273.364661 kJ/mol
# GULP energy per Si atom -12392.085291 kJ/mol
# Density = 2.137566 g / cm^3
# Si number density = 21.424426 Si / 1000 Ang^3
#
#
#
# Elastic Constant Matrix: (Units=GPa)
#
#
# Indices 1 2 3 4 5 6 
#
# 1 99.7677 35.5000 18.3574 -3.3806 -1.6854 -6.7797
# 2 35.5000 132.5314 23.6993 3.5237 0.1233 -4.1498
# 3 18.3574 23.6993 101.9172 10.5660 -4.7798 -3.1246
# 4 -3.3806 3.5237 10.5660 32.2195 1.1015 -9.2369
# 5 -1.6854 0.1233 -4.7798 1.1015 31.3682 7.8875
# 6 -6.7797 -4.1498 -3.1246 -9.2369 7.8875 40.5865
#
#
#
# Elastic Compliance Matrix: (Units=1/GPa)
#
#
# Indices 1 2 3 4 5 6 
#
# 1 0.011561 -0.002804 -0.001655 0.002697 -0.000263 0.002182
# 2 -0.002804 0.008578 -0.001432 -0.000682 -0.000436 0.000228
# 3 -0.001655 -0.001432 0.010912 -0.003904 0.001929 -0.000846
# 4 0.002697 -0.000682 -0.003904 0.035358 -0.003924 0.008890
# 5 -0.000263 -0.000436 0.001929 -0.003924 0.034178 -0.007475
# 6 0.002182 0.000228 -0.000846 0.008890 -0.007475 0.028437
#
#
# Mechanical properties :
#
#
# Convention : Reuss Voigt Hill
#
# Bulk Modulus (GPa) = 51.89909 54.36995 53.13452
# Shear Modulus (GPa) = 33.96023 37.94547 35.95285
#
# Velocity S-wave (km/s) = 3.98567 4.21305 4.10094
# Velocity P-wave (km/s) = 6.74223 7.00707 6.87592
#
# Compressibility (1/GPa) = 0.01926816
#
# Stress axis : x y z
#
# Youngs Moduli (GPa) = 86.49942 116.57405 91.63837
#
# Poissons Ratio (x) = 0.32685 0.15170
# Poissons Ratio (y) = 0.24253 0.13127
# Poissons Ratio (z) = 0.14319 0.16699
#
# Static dielectric constant tensor:
#      x y z
#    x 4.013110 0.170000 -0.137280 
#    y 0.170000 4.180620 -0.056480 
#    z -0.137280 -0.056480 3.948390 
# 
# 
# High freq. dielectric constant tensor:
#      x y z
#    x 1.839570 0.006760 -0.007100 
#    y 0.006760 1.847370 -0.000180 
#    z -0.007100 -0.000180 1.850710 
# 
# From -- ./inp_files/315168.got.cif
#   From: 2010.06.25/outbox.cif.g09.slc.cpg/sg2_158_cif.got.tgz:315168.got - 2010.06.27 13:26:56.
