data_PCOD8016358
_publ_section_title
;
Structure prediction by ZEFSAII (Michael W. Deem and Ramdas Pophale) SiO2 
 PCOD8016358
Probable space group: P -1
;
_chemical_formula_sum "Si O2"
_cell_formula_units_Z 16
_cell_length_a 5.335335
_cell_length_b 12.419292
_cell_length_c 14.921562
_cell_angle_alpha 91.146774
_cell_angle_beta 130.998030
_cell_angle_gamma 105.116468
_cell_volume 695.178962
_symmetry_space_group_name_H-M "P -1"
_symmetry_group_IT_number 2
_symmetry_cell_setting 'triclinic'
loop_
_space_group_symop_operation_xyz
x,y,z
-x,-y,-z
loop_
_atom_site_type_symbol
_atom_site_label
_atom_site_fract_x
_atom_site_fract_y
_atom_site_fract_z
Si Si1 0.214979 0.057098 0.462025
Si Si2 0.732213 0.677969 0.719330
Si Si3 0.583502 0.679784 0.491093
Si Si4 0.552256 0.340408 0.059102
Si Si5 0.414594 0.542471 0.107742
Si Si6 0.232715 0.087923 0.986611
Si Si7 0.963554 0.070967 0.212756
Si Si8 0.215963 0.434967 0.634321
O O1 0.410868 0.192915 0.529780
O O2 0.948111 0.041165 0.314244
O O3 0.500000 0.000000 0.500000
O O4 0.000000 0.000000 0.500000
O O5 0.822524 0.679651 0.634188
O O6 0.361060 0.573669 0.652058
O O7 0.046735 0.658955 0.849582
O O8 0.710648 0.806503 0.732834
O O9 0.745873 0.631512 0.446763
O O10 0.180454 0.600005 0.421058
O O11 0.543924 0.433919 0.131170
O O12 0.249069 0.217425 0.010296
O O13 0.422579 0.367882 0.932435
O O14 0.546925 0.599318 0.235976
O O15 0.000000 0.500000 0.000000
O O16 0.630817 0.094492 0.093755
O O17 0.042988 0.042264 0.845033
O O18 0.000000 0.000000 0.000000
#
# Coordination Sequence:
#
# PCOD8016358 Si02
#       8
#     2   2   2   2   2   2   2   2
#     4  11  25  47  71  96 139 184 222 275 344 406
#     4  10  21  44  68  92 136 171 219 278 343 399
#     4  11  26  44  67 106 131 173 230 278 330 401
#     4  10  23  42  64  95 131 178 221 278 338 406
#     4  11  24  42  63  92 135 178 219 268 345 408
#     4  10  22  40  68  98 128 169 236 286 335 393
#     4   9  23  43  63  99 130 175 226 281 343 401
#     4  12  24  43  69  99 135 175 222 277 335 399
#
# _framework density 23.015657000000001
#
# number of rings (size 3 to 8) (size 9 to 14) (size 15 to 20)
#    0.000    1.500    1.250    2.250    5.250    4.000 
#    4.500    0.000    0.000    0.000    0.000    0.000 
#    0.000    0.000    0.000    0.000    0.000    0.000 
#
# Total GULP energy -198259.084710 kJ/mol
# GULP energy per Si atom -12391.192794 kJ/mol
# Density = 2.296327 g / cm^3
# Si number density = 23.015657 Si / 1000 Ang^3
#
#
#
# Elastic Constant Matrix: (Units=GPa)
#
#
# Indices 1 2 3 4 5 6 
#
# 1 68.2969 29.9385 10.9356 1.0683 -11.1980 12.9118
# 2 29.9385 159.2110 40.2189 10.6188 -5.2555 22.1750
# 3 10.9356 40.2189 113.2503 -4.3882 -28.9341 0.8757
# 4 1.0683 10.6188 -4.3882 31.5013 7.4966 6.6131
# 5 -11.1980 -5.2555 -28.9341 7.4966 29.2013 -4.1765
# 6 12.9118 22.1750 0.8757 6.6131 -4.1765 30.4236
#
#
#
# Elastic Compliance Matrix: (Units=1/GPa)
#
#
# Indices 1 2 3 4 5 6 
#
# 1 0.017624 -0.002690 0.000975 -0.000166 0.006625 -0.004602
# 2 -0.002690 0.008379 -0.003620 -0.001348 -0.003486 -0.005047
# 3 0.000975 -0.003620 0.013516 -0.001091 0.013966 0.003990
# 4 -0.000166 -0.001348 -0.001091 0.036711 -0.012035 -0.008547
# 5 0.006625 -0.003486 0.013966 -0.012035 0.054432 0.009415
# 6 -0.004602 -0.005047 0.003990 -0.008547 0.009415 0.041536
#
#
# Mechanical properties :
#
#
# Convention : Reuss Voigt Hill
#
# Bulk Modulus (GPa) = 34.66157 55.88271 45.27214
# Shear Modulus (GPa) = 25.97618 35.53625 30.75622
#
# Velocity S-wave (km/s) = 3.36316 3.93364 3.65953
# Velocity P-wave (km/s) = 5.49307 6.70555 6.12936
#
# Compressibility (1/GPa) = 0.02885039
#
# Stress axis : x y z
#
# Youngs Moduli (GPa) = 56.74211 119.34674 73.98480
#
# Poissons Ratio (x) = 0.32100 -0.07215
# Poissons Ratio (y) = 0.15262 0.26780
# Poissons Ratio (z) = -0.05533 0.43200
#
# Static dielectric constant tensor:
#      x y z
#    x 1.918320 0.525910 0.336240 
#    y 0.525910 4.462110 -0.236750 
#    z 0.336240 -0.236750 4.273420 
# 
# 
# High freq. dielectric constant tensor:
#      x y z
#    x 1.885880 0.010350 -0.014550 
#    y 0.010350 1.922190 0.000030 
#    z -0.014550 0.000030 1.925400 
# 
# From -- ./inp_files/482856.got.cif
#   From: 2010.06.25/outbox.cif.g09.slc.cpg/sg2_242_cif.got.tgz:482856.got - 2010.06.27 13:26:56.
