data_PCOD8016470
_publ_section_title
;
Structure prediction by ZEFSAII (Michael W. Deem and Ramdas Pophale) SiO2 
 PCOD8016470
Probable space group: P -1
;
_chemical_formula_sum "Si O2"
_cell_formula_units_Z 16
_cell_length_a 8.213053
_cell_length_b 16.066356
_cell_length_c 12.065714
_cell_angle_alpha 36.263104
_cell_angle_beta 127.744113
_cell_angle_gamma 130.172556
_cell_volume 704.515935
_symmetry_space_group_name_H-M "P -1"
_symmetry_group_IT_number 2
_symmetry_cell_setting 'triclinic'
loop_
_space_group_symop_operation_xyz
x,y,z
-x,-y,-z
loop_
_atom_site_type_symbol
_atom_site_label
_atom_site_fract_x
_atom_site_fract_y
_atom_site_fract_z
Si Si1 0.731036 0.040241 0.107214
Si Si2 0.508728 0.559879 0.815586
Si Si3 0.932951 0.640128 0.784661
Si Si4 0.353103 0.825851 0.449245
Si Si5 0.883367 0.764465 0.408282
Si Si6 0.792569 0.055098 0.363792
Si Si7 0.731849 0.568635 0.355685
Si Si8 0.187669 0.717264 0.279481
O O1 0.718171 0.082337 0.182503
O O2 0.873930 0.195948 0.942134
O O3 0.823878 0.904575 0.277708
O O4 0.500000 0.000000 0.000000
O O5 0.754568 0.656062 0.781616
O O6 0.352053 0.658758 0.650071
O O7 0.425603 0.438847 0.809237
O O8 0.500000 0.500000 0.000000
O O9 0.846518 0.636915 0.625474
O O10 0.142914 0.787896 0.715378
O O11 0.000000 0.500000 0.000000
O O12 0.138510 0.838987 0.403970
O O13 0.341248 0.841672 0.293635
O O14 0.581239 0.944565 0.458577
O O15 0.723411 0.684411 0.325624
O O16 0.000000 0.000000 0.500000
O O17 0.689885 0.403522 0.569393
O O18 0.975311 0.628536 0.351403
#
# Coordination Sequence:
#
# PCOD8016470 Si02
#       8
#     2   2   2   2   2   2   2   2
#     4  12  25  43  71 100 139 189 230 288 349 420
#     4  11  23  43  70 100 136 188 234 282 350 419
#     4  12  28  46  67 104 141 179 239 291 350 423
#     4  10  21  44  71  97 139 178 235 286 340 423
#     4  11  25  46  69 106 142 177 237 297 341 415
#     4  12  24  47  70  99 140 192 229 284 363 411
#     4   9  22  40  70  98 133 180 224 288 345 398
#     4   9  20  41  66  99 131 177 228 273 344 416
#
# _framework density 22.710628
#
# number of rings (size 3 to 8) (size 9 to 14) (size 15 to 20)
#    0.000    1.250    3.750    1.500    5.250    4.000 
#    2.250    0.000    0.000    0.000    0.000    0.000 
#    0.000    0.000    0.000    0.000    0.000    0.000 
#
# Total GULP energy -198259.150330 kJ/mol
# GULP energy per Si atom -12391.196896 kJ/mol
# Density = 2.265894 g / cm^3
# Si number density = 22.710628 Si / 1000 Ang^3
#
#
#
# Elastic Constant Matrix: (Units=GPa)
#
#
# Indices 1 2 3 4 5 6 
#
# 1 66.1919 22.2232 20.1549 6.2313 -0.2742 0.7571
# 2 22.2232 106.9253 29.6543 8.8511 -13.7506 0.9380
# 3 20.1549 29.6543 123.9495 11.2109 -13.9313 -7.3028
# 4 6.2313 8.8511 11.2109 37.6736 -5.9956 -2.3583
# 5 -0.2742 -13.7506 -13.9313 -5.9956 38.2190 5.6107
# 6 0.7571 0.9380 -7.3028 -2.3583 5.6107 31.1230
#
#
#
# Elastic Compliance Matrix: (Units=1/GPa)
#
#
# Indices 1 2 3 4 5 6 
#
# 1 0.016938 -0.003026 -0.002120 -0.001806 -0.001934 -0.000606
# 2 -0.003026 0.010997 -0.001744 -0.001120 0.003322 -0.001351
# 3 -0.002120 -0.001744 0.009327 -0.001546 0.002255 0.001769
# 4 -0.001806 -0.001120 -0.001546 0.028162 0.003253 0.001262
# 5 -0.001934 0.003322 0.002255 0.003253 0.029349 -0.004568
# 6 -0.000606 -0.001351 0.001769 0.001262 -0.004568 0.033520
#
#
# Mechanical properties :
#
#
# Convention : Reuss Voigt Hill
#
# Bulk Modulus (GPa) = 42.58644 49.01463 45.80054
# Shear Modulus (GPa) = 33.35529 36.40542 34.88035
#
# Velocity S-wave (km/s) = 3.83653 4.00811 3.92326
# Velocity P-wave (km/s) = 6.19821 6.56117 6.38227
#
# Compressibility (1/GPa) = 0.02348165
#
# Stress axis : x y z
#
# Youngs Moduli (GPa) = 59.03852 90.93672 107.21346
#
# Poissons Ratio (x) = 0.27521 0.22729
# Poissons Ratio (y) = 0.17868 0.18695
# Poissons Ratio (z) = 0.12516 0.15857
#
# Static dielectric constant tensor:
#      x y z
#    x 4.040140 0.073900 -0.019850 
#    y 0.073900 4.660730 -0.281240 
#    z -0.019850 -0.281240 8.008410 
# 
# 
# High freq. dielectric constant tensor:
#      x y z
#    x 1.890870 0.010630 -0.010750 
#    y 0.010630 1.899660 0.008310 
#    z -0.010750 0.008310 1.892810 
# 
# From -- ./inp_files/272706.got.cif
#   From: 2010.06.25/outbox.cif.g09.slc.cpg/sg2_137_cif.got.tgz:272706.got - 2010.06.27 13:26:56.
