data_PCOD8016516
_publ_section_title
;
Structure prediction by ZEFSAII (Michael W. Deem and Ramdas Pophale) SiO2 
 PCOD8016516
Probable space group: P -1
;
_chemical_formula_sum "Si O2"
_cell_formula_units_Z 12
_cell_length_a 12.610604
_cell_length_b 19.032985
_cell_length_c 11.843935
_cell_angle_alpha 156.478420
_cell_angle_beta 32.486146
_cell_angle_gamma 158.588618
_cell_volume 413.174402
_symmetry_space_group_name_H-M "P -1"
_symmetry_group_IT_number 2
_symmetry_cell_setting 'triclinic'
loop_
_space_group_symop_operation_xyz
x,y,z
-x,-y,-z
loop_
_atom_site_type_symbol
_atom_site_label
_atom_site_fract_x
_atom_site_fract_y
_atom_site_fract_z
Si Si1 0.531159 0.042505 0.690069
Si Si2 0.136013 0.236712 0.800515
Si Si3 0.945007 0.014304 0.289339
Si Si4 0.247092 0.730351 0.698693
Si Si5 0.576895 0.470870 0.242336
Si Si6 0.922940 0.700828 0.668369
O O1 0.773599 0.064290 0.458661
O O2 0.502914 0.971560 0.744404
O O3 0.643657 0.316655 0.992647
O O4 0.243892 0.820477 0.541231
O O5 0.376589 0.491083 0.880697
O O6 0.257056 0.220245 0.780867
O O7 0.000000 0.000000 0.500000
O O8 0.870700 0.195138 0.004417
O O9 0.242949 0.275674 0.468992
O O10 0.020169 0.908826 0.979494
O O11 0.318834 0.603608 0.523464
O O12 0.000000 0.500000 0.500000
O O13 0.229074 0.304007 0.312723
#
# Coordination Sequence:
#
# PCOD8016516 Si02
#       6
#     2   2   2   2   2   2
#     4  11  24  46  73 106 142 190 237 297 361 420
#     4  10  22  46  71 107 142 189 242 293 352 433
#     4  11  24  48  73 102 146 192 235 294 362 426
#     4  10  21  44  75 102 141 194 238 289 360 430
#     4  11  26  46  71 109 145 183 242 302 353 422
#     4  11  25  47  74 104 144 191 240 292 357 432
#
# _framework density 29.043424999999999
#
# number of rings (size 3 to 8) (size 9 to 14) (size 15 to 20)
#    0.000    1.333    3.333    2.000    4.667    2.667 
#    9.000    5.000    0.000    0.000    0.000    0.000 
#    0.000    0.000    0.000    0.000    0.000    0.000 
#
# Total GULP energy -148730.442909 kJ/mol
# GULP energy per Si atom -12394.203576 kJ/mol
# Density = 2.897732 g / cm^3
# Si number density = 29.043425 Si / 1000 Ang^3
#
#
#
# Elastic Constant Matrix: (Units=GPa)
#
#
# Indices 1 2 3 4 5 6 
#
# 1 147.7440 17.4807 37.4964 6.7406 -33.4169 9.5169
# 2 17.4807 101.3719 15.5078 -2.9312 -19.0522 19.7589
# 3 37.4964 15.5078 142.6770 0.3675 -34.5288 4.3991
# 4 6.7406 -2.9312 0.3675 44.9619 -0.5707 -15.8647
# 5 -33.4169 -19.0522 -34.5288 -0.5707 62.5332 2.6693
# 6 9.5169 19.7589 4.3991 -15.8647 2.6693 35.7089
#
#
#
# Elastic Compliance Matrix: (Units=1/GPa)
#
#
# Indices 1 2 3 4 5 6 
#
# 1 0.008269 0.000099 -0.001111 -0.002404 0.003962 -0.003486
# 2 0.000099 0.012093 -0.000129 -0.001950 0.003984 -0.007866
# 3 -0.001111 -0.000129 0.008317 -0.000233 0.004002 -0.001060
# 4 -0.002404 -0.001950 -0.000233 0.027425 -0.002359 0.014109
# 5 0.003962 0.003984 0.004002 -0.002359 0.021786 -0.006430
# 6 -0.003486 -0.007866 -0.001060 0.014109 -0.006430 0.040165
#
#
# Mechanical properties :
#
#
# Convention : Reuss Voigt Hill
#
# Bulk Modulus (GPa) = 37.88416 59.19584 48.54000
# Shear Modulus (GPa) = 38.71893 50.06135 44.39014
#
# Velocity S-wave (km/s) = 3.65518 4.15622 3.91372
# Velocity P-wave (km/s) = 5.55752 6.59229 6.09690
#
# Compressibility (1/GPa) = 0.02639626
#
# Stress axis : x y z
#
# Youngs Moduli (GPa) = 120.93030 82.69280 120.23928
#
# Poissons Ratio (x) = -0.00816 0.13363
# Poissons Ratio (y) = -0.01193 0.01546
# Poissons Ratio (z) = 0.13440 0.01063
#
# Static dielectric constant tensor:
#      x y z
#    x 7.406860 -1.968110 -0.661990 
#    y -1.968110 6.618280 -0.099290 
#    z -0.661990 -0.099290 5.432170 
# 
# 
# High freq. dielectric constant tensor:
#      x y z
#    x 2.205830 -0.031180 -0.026570 
#    y -0.031180 2.187030 -0.007190 
#    z -0.026570 -0.007190 2.187650 
# 
# From -- ./inp_files/530453.got.cif
#   From: 2010.06.25/outbox.cif.g09.slc.cpg/sg2_266_cif.got.tgz:530453.got - 2010.06.27 13:26:56.
