data_PCOD8016426
_publ_section_title
;
Structure prediction by ZEFSAII (Michael W. Deem and Ramdas Pophale) SiO2 
 PCOD8016426
Probable space group: P -1
;
_chemical_formula_sum "Si O2"
_cell_formula_units_Z 16
_cell_length_a 11.612990
_cell_length_b 14.902871
_cell_length_c 8.668554
_cell_angle_alpha 92.412320
_cell_angle_beta 79.145314
_cell_angle_gamma 33.059363
_cell_volume 745.691086
_symmetry_space_group_name_H-M "P -1"
_symmetry_group_IT_number 2
_symmetry_cell_setting 'triclinic'
loop_
_space_group_symop_operation_xyz
x,y,z
-x,-y,-z
loop_
_atom_site_type_symbol
_atom_site_label
_atom_site_fract_x
_atom_site_fract_y
_atom_site_fract_z
Si Si1 0.606625 0.071950 0.903189
Si Si2 0.672859 0.612332 0.224809
Si Si3 0.023210 0.340876 0.876489
Si Si4 0.522829 0.941296 0.779504
Si Si5 0.034300 0.873649 0.954902
Si Si6 0.803770 0.654371 0.440845
Si Si7 0.527303 0.505422 0.319265
Si Si8 0.250386 0.639420 0.142764
O O1 0.496200 0.219676 0.831752
O O2 0.650055 0.952049 0.784517
O O3 0.843479 0.955689 0.899605
O O4 0.439646 0.154347 0.095687
O O5 0.681540 0.647238 0.398604
O O6 0.589244 0.566198 0.265763
O O7 0.926249 0.446680 0.068301
O O8 0.090001 0.370438 0.738185
O O9 0.810280 0.425309 0.863073
O O10 0.247825 0.134894 0.847614
O O11 0.619183 0.839260 0.587081
O O12 0.280617 0.690439 0.804061
O O13 0.039709 0.829240 0.123542
O O14 0.000000 0.000000 0.000000
O O15 0.000000 0.500000 0.500000
O O16 0.500000 0.500000 0.500000
O O17 0.275837 0.649251 0.316372
O O18 0.500000 0.500000 0.000000
#
# Coordination Sequence:
#
# PCOD8016426 Si02
#       8
#     2   2   2   2   2   2   2   2
#     4  11  24  42  75  96 143 181 232 279 348 420
#     4  12  25  46  68  98 138 185 231 280 349 416
#     4  12  23  46  74  97 139 184 231 279 350 412
#     4  11  25  46  67 108 141 180 228 287 345 409
#     4  11  23  43  72  98 127 179 233 279 340 412
#     4  12  29  42  68 105 143 181 231 283 346 408
#     4  11  26  46  67 100 137 179 231 292 344 401
#     4  10  21  44  70  95 130 179 230 275 335 412
#
# _framework density 21.456605
#
# number of rings (size 3 to 8) (size 9 to 14) (size 15 to 20)
#    0.000    0.750    5.000    2.250    8.750    1.000 
#    0.000    1.250    0.000    0.000    0.000    0.000 
#    0.000    0.000    0.000    0.000    0.000    0.000 
#
# Total GULP energy -198296.576601 kJ/mol
# GULP energy per Si atom -12393.536038 kJ/mol
# Density = 2.140777 g / cm^3
# Si number density = 21.456605 Si / 1000 Ang^3
#
#
#
# Elastic Constant Matrix: (Units=GPa)
#
#
# Indices 1 2 3 4 5 6 
#
# 1 122.9944 41.4208 47.7586 7.1132 31.8138 -7.2847
# 2 41.4208 130.7809 54.6820 -12.9661 19.5118 -6.8359
# 3 47.7586 54.6820 128.9998 -8.1899 27.3634 5.7905
# 4 7.1132 -12.9661 -8.1899 37.7776 2.3939 4.7564
# 5 31.8138 19.5118 27.3634 2.3939 37.5866 -8.4401
# 6 -7.2847 -6.8359 5.7905 4.7564 -8.4401 44.6609
#
#
#
# Elastic Compliance Matrix: (Units=1/GPa)
#
#
# Indices 1 2 3 4 5 6 
#
# 1 0.011671 -0.001987 -0.002276 -0.003061 -0.006784 0.000938
# 2 -0.001987 0.010144 -0.003149 0.003118 -0.001250 0.001069
# 3 -0.002276 -0.003149 0.011502 0.002680 -0.005820 -0.003730
# 4 -0.003061 0.003118 0.002680 0.029471 -0.003804 -0.004227
# 5 -0.006784 -0.001250 -0.005820 -0.003804 0.039104 0.007252
# 6 0.000938 0.001069 -0.003730 -0.004227 0.007252 0.025012
#
#
# Mechanical properties :
#
#
# Convention : Reuss Voigt Hill
#
# Bulk Modulus (GPa) = 54.07719 74.49978 64.28849
# Shear Modulus (GPa) = 33.80844 39.93260 36.87052
#
# Velocity S-wave (km/s) = 3.97377 4.31871 4.14983
# Velocity P-wave (km/s) = 6.80531 7.72430 7.27932
#
# Compressibility (1/GPa) = 0.01849208
#
# Stress axis : x y z
#
# Youngs Moduli (GPa) = 85.68399 98.58163 86.94451
#
# Poissons Ratio (x) = 0.19589 0.19788
# Poissons Ratio (y) = 0.17026 0.27380
# Poissons Ratio (z) = 0.19501 0.31045
#
# Static dielectric constant tensor:
#      x y z
#    x 3.702040 0.164940 0.328100 
#    y 0.164940 4.009470 -0.597670 
#    z 0.328100 -0.597670 4.506930 
# 
# 
# High freq. dielectric constant tensor:
#      x y z
#    x 1.858700 -0.001660 0.014080 
#    y -0.001660 1.849360 -0.021940 
#    z 0.014080 -0.021940 1.831840 
# 
# From -- ./inp_files/273118.got.cif
#   From: 2010.06.25/outbox.cif.g09.slc.cpg/sg2_137_cif.got.tgz:273118.got - 2010.06.27 13:26:56.
