data_PCOD8016618
_publ_section_title
;
Structure prediction by ZEFSAII (Michael W. Deem and Ramdas Pophale) SiO2 
 PCOD8016618
Probable space group: P -1
;
_chemical_formula_sum "Si O2"
_cell_formula_units_Z 16
_cell_length_a 13.877834
_cell_length_b 6.449179
_cell_length_c 9.183936
_cell_angle_alpha 63.753420
_cell_angle_beta 73.713591
_cell_angle_gamma 83.975414
_cell_volume 707.465575
_symmetry_space_group_name_H-M "P -1"
_symmetry_group_IT_number 2
_symmetry_cell_setting 'triclinic'
loop_
_space_group_symop_operation_xyz
x,y,z
-x,-y,-z
loop_
_atom_site_type_symbol
_atom_site_label
_atom_site_fract_x
_atom_site_fract_y
_atom_site_fract_z
Si Si1 0.448957 0.628144 0.115263
Si Si2 0.813924 0.960714 0.780302
Si Si3 0.554183 0.939302 0.189360
Si Si4 0.735918 0.874587 0.343892
Si Si5 0.888874 0.098739 0.007801
Si Si6 0.853960 0.452973 0.488011
Si Si7 0.646747 0.832718 0.691129
Si Si8 0.939570 0.585336 0.714181
O O1 0.526698 0.703642 0.186266
O O2 0.368691 0.438038 0.267672
O O3 0.500000 0.500000 0.000000
O O4 0.400501 0.865109 0.002383
O O5 0.711051 0.830457 0.814504
O O6 0.910837 0.824030 0.727649
O O7 0.808088 0.208497 0.630061
O O8 0.824036 0.977275 0.944121
O O9 0.635219 0.884727 0.291114
O O10 0.455942 0.035435 0.281295
O O11 0.770394 0.610104 0.401603
O O12 0.709515 0.951490 0.496139
O O13 0.825692 0.046246 0.197305
O O14 0.895644 0.372548 0.894127
O O15 0.000000 0.000000 0.000000
O O16 0.896794 0.588502 0.568256
O O17 0.940466 0.424022 0.339859
#
# Coordination Sequence:
#
# PCOD8016618 Si02
#       8
#     2   2   2   2   2   2   2   2
#     4   9  22  45  72  96 138 181 236 280 345 414
#     4  11  25  42  73  98 133 190 232 274 354 421
#     4  10  24  44  72 101 144 181 231 289 344 407
#     4  12  25  44  68 105 143 181 228 298 347 403
#     4  11  26  46  68 103 145 176 233 294 350 407
#     4  10  22  42  67  99 133 178 235 284 345 413
#     4  11  25  45  69 105 137 188 236 278 343 425
#     4  10  21  45  70  91 136 184 227 288 344 416
#
# _framework density 22.615943000000001
#
# number of rings (size 3 to 8) (size 9 to 14) (size 15 to 20)
#    0.000    1.500    2.500    0.750    8.750    2.000 
#    6.750    0.000    0.000    0.000    0.000    0.000 
#    0.000    0.000    0.000    0.000    0.000    0.000 
#
# Total GULP energy -198409.474201 kJ/mol
# GULP energy per Si atom -12400.592138 kJ/mol
# Density = 2.256447 g / cm^3
# Si number density = 22.615943 Si / 1000 Ang^3
#
#
#
# Elastic Constant Matrix: (Units=GPa)
#
#
# Indices 1 2 3 4 5 6 
#
# 1 127.3049 20.6772 38.1509 -1.5757 12.1803 -9.1247
# 2 20.6772 72.9118 12.1820 -5.2077 2.4628 -0.6269
# 3 38.1509 12.1820 106.1293 -6.1276 -10.4883 -2.4661
# 4 -1.5757 -5.2077 -6.1276 24.5544 -1.9587 1.8974
# 5 12.1803 2.4628 -10.4883 -1.9587 38.3836 -0.5418
# 6 -9.1247 -0.6269 -2.4661 1.8974 -0.5418 42.0064
#
#
#
# Elastic Compliance Matrix: (Units=1/GPa)
#
#
# Indices 1 2 3 4 5 6 
#
# 1 0.009814 -0.002097 -0.003711 -0.001208 -0.004029 0.001885
# 2 -0.002097 0.014653 -0.000813 0.002773 -0.000361 -0.000415
# 3 -0.003711 -0.000813 0.011453 0.002823 0.004500 -0.000215
# 4 -0.001208 0.002773 0.002823 0.042338 0.003110 -0.001928
# 5 -0.004029 -0.000361 0.004500 0.003110 0.028737 -0.000386
# 6 0.001885 -0.000415 -0.000215 -0.001928 -0.000386 0.024279
#
#
# Mechanical properties :
#
#
# Convention : Reuss Voigt Hill
#
# Bulk Modulus (GPa) = 44.09972 49.81848 46.95910
# Shear Modulus (GPa) = 32.87873 36.67795 34.77834
#
# Velocity S-wave (km/s) = 3.81699 4.03149 3.92571
# Velocity P-wave (km/s) = 6.24240 6.61411 6.43094
#
# Compressibility (1/GPa) = 0.02267588
#
# Stress axis : x y z
#
# Youngs Moduli (GPa) = 101.90014 68.24771 87.31641
#
# Poissons Ratio (x) = 0.14312 0.32404
# Poissons Ratio (y) = 0.21368 0.07101
# Poissons Ratio (z) = 0.37816 0.05550
#
# Static dielectric constant tensor:
#      x y z
#    x 4.053170 0.051550 -0.138710 
#    y 0.051550 4.244320 -0.184500 
#    z -0.138710 -0.184500 4.320330 
# 
# 
# High freq. dielectric constant tensor:
#      x y z
#    x 1.894420 -0.007100 -0.005830 
#    y -0.007100 1.889970 -0.000440 
#    z -0.005830 -0.000440 1.892480 
# 
# From -- ./inp_files/288463.got.cif
#   From: 2010.06.25/outbox.cif.g09.slc.cpg/sg2_145_cif.got.tgz:288463.got - 2010.06.27 13:26:56.
