data_PCOD8016632
_publ_section_title
;
Structure prediction by ZEFSAII (Michael W. Deem and Ramdas Pophale) SiO2 
 PCOD8016632
Probable space group: P -1
;
_chemical_formula_sum "Si O2"
_cell_formula_units_Z 16
_cell_length_a 15.271052
_cell_length_b 8.486978
_cell_length_c 12.170064
_cell_angle_alpha 89.176541
_cell_angle_beta 149.112455
_cell_angle_gamma 102.415926
_cell_volume 743.848242
_symmetry_space_group_name_H-M "P -1"
_symmetry_group_IT_number 2
_symmetry_cell_setting 'triclinic'
loop_
_space_group_symop_operation_xyz
x,y,z
-x,-y,-z
loop_
_atom_site_type_symbol
_atom_site_label
_atom_site_fract_x
_atom_site_fract_y
_atom_site_fract_z
Si Si1 0.454148 0.775630 0.851352
Si Si2 0.180150 0.138539 0.638499
Si Si3 0.040478 0.621249 0.939746
Si Si4 0.350735 0.054322 0.623373
Si Si5 0.676126 0.126114 0.624044
Si Si6 0.632884 0.436612 0.455543
Si Si7 0.654505 0.412473 0.887517
Si Si8 0.195229 0.490874 0.721876
O O1 0.428910 0.640324 0.729801
O O2 0.344481 0.670027 0.838434
O O3 0.386333 0.920866 0.741844
O O4 0.663069 0.873735 0.113701
O O5 0.202694 0.102651 0.533444
O O6 0.186998 0.329357 0.644160
O O7 0.000000 0.000000 0.500000
O O8 0.840792 0.589329 0.670634
O O9 0.150243 0.813685 0.104229
O O10 0.173175 0.574305 0.001572
O O11 0.000000 0.500000 0.000000
O O12 0.539631 0.216606 0.801342
O O13 0.269243 0.962207 0.420457
O O14 0.627772 0.288322 0.535484
O O15 0.500000 0.000000 0.500000
O O16 0.483089 0.517010 0.326174
O O17 0.748582 0.529888 0.092732
O O18 0.000000 0.500000 0.500000
#
# Coordination Sequence:
#
# PCOD8016632 Si02
#       8
#     2   2   2   2   2   2   2   2
#     4  11  22  45  64  97 143 180 220 285 343 414
#     4  12  25  41  66 103 139 179 232 281 346 422
#     4  10  23  43  72  96 132 175 237 287 351 412
#     4  11  24  41  70  96 139 182 228 281 352 409
#     4  10  21  45  71  97 134 180 226 295 352 404
#     4  10  23  43  70  99 135 179 233 281 354 418
#     4  12  23  43  71 101 136 185 233 288 348 417
#     4  12  25  42  71  99 139 187 235 276 348 421
#
# _framework density 21.509765000000002
#
# number of rings (size 3 to 8) (size 9 to 14) (size 15 to 20)
#    0.000    1.000    3.750    3.000    1.750    4.000 
#    0.000    0.625    0.000    0.000    0.000    0.000 
#    0.000    0.000    0.000    0.000    0.000    0.000 
#
# Total GULP energy -198353.650050 kJ/mol
# GULP energy per Si atom -12397.103128 kJ/mol
# Density = 2.146081 g / cm^3
# Si number density = 21.509765 Si / 1000 Ang^3
#
#
#
# Elastic Constant Matrix: (Units=GPa)
#
#
# Indices 1 2 3 4 5 6 
#
# 1 143.8669 56.4878 64.8430 6.6209 6.9827 -3.2677
# 2 56.4878 101.2684 35.3979 12.9583 1.1725 -8.4096
# 3 64.8430 35.3979 136.3459 20.0994 9.0562 -10.3862
# 4 6.6209 12.9583 20.0994 34.1980 -0.5271 6.4700
# 5 6.9827 1.1725 9.0562 -0.5271 36.7401 8.0174
# 6 -3.2677 -8.4096 -10.3862 6.4700 8.0174 40.5214
#
#
#
# Elastic Compliance Matrix: (Units=1/GPa)
#
#
# Indices 1 2 3 4 5 6 
#
# 1 0.010675 -0.004920 -0.004275 0.002603 -0.000435 -0.001586
# 2 -0.004920 0.013561 -0.000246 -0.004636 -0.000187 0.003132
# 3 -0.004275 -0.000246 0.010836 -0.006234 -0.002798 0.003930
# 4 0.002603 -0.004636 -0.006234 0.035878 0.003624 -0.008796
# 5 -0.000435 -0.000187 -0.002798 0.003624 0.029626 -0.007231
# 6 -0.001586 0.003132 0.003930 -0.008796 -0.007231 0.029043
#
#
# Mechanical properties :
#
#
# Convention : Reuss Voigt Hill
#
# Bulk Modulus (GPa) = 61.77264 77.21540 69.49402
# Shear Modulus (GPa) = 32.48920 37.27540 34.88230
#
# Velocity S-wave (km/s) = 3.89065 4.16739 4.03140
# Velocity P-wave (km/s) = 6.99741 7.68973 7.35172
#
# Compressibility (1/GPa) = 0.01618840
#
# Stress axis : x y z
#
# Youngs Moduli (GPa) = 93.67950 73.74270 92.28833
#
# Poissons Ratio (x) = 0.36280 0.39454
# Poissons Ratio (y) = 0.46089 0.02274
# Poissons Ratio (z) = 0.40049 0.01817
#
# Static dielectric constant tensor:
#      x y z
#    x 3.842440 -0.075920 0.028300 
#    y -0.075920 3.957850 0.252290 
#    z 0.028300 0.252290 4.147810 
# 
# 
# High freq. dielectric constant tensor:
#      x y z
#    x 1.853580 -0.000930 -0.007660 
#    y -0.000930 1.844410 0.015670 
#    z -0.007660 0.015670 1.849320 
# 
# From -- ./inp_files/223369.got.cif
#   From: 2010.06.25/outbox.cif.g09.slc.cpg/sg2_112_cif.got.tgz:223369.got - 2010.06.27 13:26:56.
