data_PCOD8016049
_publ_section_title
;
Structure prediction by ZEFSAII (Michael W. Deem and Ramdas Pophale) SiO2 
 PCOD8016049
Probable space group: P -1
;
_chemical_formula_sum "Si O2"
_cell_formula_units_Z 12
_cell_length_a 8.807631
_cell_length_b 7.368372
_cell_length_c 9.723951
_cell_angle_alpha 71.664750
_cell_angle_beta 107.464644
_cell_angle_gamma 126.530466
_cell_volume 476.042951
_symmetry_space_group_name_H-M "P -1"
_symmetry_group_IT_number 2
_symmetry_cell_setting 'triclinic'
loop_
_space_group_symop_operation_xyz
x,y,z
-x,-y,-z
loop_
_atom_site_type_symbol
_atom_site_label
_atom_site_fract_x
_atom_site_fract_y
_atom_site_fract_z
Si Si1 0.554658 0.574793 0.720226
Si Si2 0.694549 0.294757 0.237364
Si Si3 0.503130 0.208180 0.599412
Si Si4 0.115930 0.696531 0.280931
Si Si5 0.816807 0.247061 0.018126
Si Si6 0.950942 0.935089 0.844388
O O1 0.392583 0.559202 0.777739
O O2 0.495807 0.324173 0.712587
O O3 0.593705 0.733613 0.560410
O O4 0.750733 0.689388 0.831289
O O5 0.655415 0.234963 0.076105
O O6 0.924590 0.444322 0.282619
O O7 0.606013 0.065010 0.356254
O O8 0.724402 0.311724 0.586639
O O9 0.059886 0.868603 0.284638
O O10 0.236951 0.817200 0.141649
O O11 0.878176 0.090494 0.152058
O O12 0.000000 0.500000 0.000000
O O13 0.000000 0.000000 0.000000
#
# Coordination Sequence:
#
# PCOD8016049 Si02
#       6
#     2   2   2   2   2   2
#     4  11  24  45  68 100 134 176 229 274 330 397
#     4  11  23  41  71  99 129 184 222 271 335 399
#     4  11  25  46  67  98 140 174 221 283 326 398
#     4  10  22  43  65  97 138 173 217 279 334 391
#     4   9  20  40  62  95 133 168 216 272 324 385
#     4  10  21  43  69  94 136 179 214 279 337 384
#
# _framework density 25.207808
#
# number of rings (size 3 to 8) (size 9 to 14) (size 15 to 20)
#    0.000    1.667    1.667    2.500    2.333    1.333 
#    0.000   10.833    0.000    0.000    0.000    0.000 
#    0.000    0.000    0.000    0.000    0.000    0.000 
#
# Total GULP energy -148700.691829 kJ/mol
# GULP energy per Si atom -12391.724319 kJ/mol
# Density = 2.515043 g / cm^3
# Si number density = 25.207808 Si / 1000 Ang^3
#
#
#
# Elastic Constant Matrix: (Units=GPa)
#
#
# Indices 1 2 3 4 5 6 
#
# 1 134.4532 34.0937 19.5310 6.1392 4.1010 -18.6281
# 2 34.0937 77.9342 11.0929 7.1713 6.0702 -7.6075
# 3 19.5310 11.0929 47.2656 17.9514 12.1447 3.0837
# 4 6.1392 7.1713 17.9514 31.3435 -4.5540 3.6109
# 5 4.1010 6.0702 12.1447 -4.5540 33.1044 -3.1811
# 6 -18.6281 -7.6075 3.0837 3.6109 -3.1811 48.5789
#
#
#
# Elastic Compliance Matrix: (Units=1/GPa)
#
#
# Indices 1 2 3 4 5 6 
#
# 1 0.009234 -0.003358 -0.004017 0.001087 0.001410 0.003282
# 2 -0.003358 0.014941 -0.000411 -0.003017 -0.002478 0.001140
# 3 -0.004017 -0.000411 0.035146 -0.021128 -0.015542 -0.003283
# 4 0.001087 -0.003017 -0.021128 0.046729 0.014479 -0.001240
# 5 0.001410 -0.002478 -0.015542 0.014479 0.038429 0.002580
# 6 0.003282 0.001140 -0.003283 -0.001240 0.002580 0.022492
#
#
# Mechanical properties :
#
#
# Convention : Reuss Voigt Hill
#
# Bulk Modulus (GPa) = 22.85743 43.23203 33.04473
# Shear Modulus (GPa) = 25.36469 35.60106 30.48288
#
# Velocity S-wave (km/s) = 3.17554 3.76214 3.48122
# Velocity P-wave (km/s) = 4.74686 6.00492 5.41257
#
# Compressibility (1/GPa) = 0.04374946
#
# Stress axis : x y z
#
# Youngs Moduli (GPa) = 108.28958 66.93189 28.45303
#
# Poissons Ratio (x) = 0.22472 0.11430
# Poissons Ratio (y) = 0.36358 0.01169
# Poissons Ratio (z) = 0.43503 0.02750
#
# Static dielectric constant tensor:
#      x y z
#    x 5.230460 -0.686040 0.055370 
#    y -0.686040 4.516640 0.078680 
#    z 0.055370 0.078680 4.852560 
# 
# 
# High freq. dielectric constant tensor:
#      x y z
#    x 2.010320 -0.028210 0.011240 
#    y -0.028210 2.000060 0.015750 
#    z 0.011240 0.015750 1.986430 
# 
# From -- ./inp_files/303693.got.cif
#   From: 2010.06.25/outbox.cif.g09.slc.cpg/sg2_152_cif.got.tgz:303693.got - 2010.06.27 13:26:56.
