data_PCOD8016057
_publ_section_title
;
Structure prediction by ZEFSAII (Michael W. Deem and Ramdas Pophale) SiO2 
 PCOD8016057
Probable space group: P -1
;
_chemical_formula_sum "Si O2"
_cell_formula_units_Z 16
_cell_length_a 11.175694
_cell_length_b 18.563060
_cell_length_c 9.655933
_cell_angle_alpha 44.693863
_cell_angle_beta 107.481799
_cell_angle_gamma 141.755325
_cell_volume 702.635773
_symmetry_space_group_name_H-M "P -1"
_symmetry_group_IT_number 2
_symmetry_cell_setting 'triclinic'
loop_
_space_group_symop_operation_xyz
x,y,z
-x,-y,-z
loop_
_atom_site_type_symbol
_atom_site_label
_atom_site_fract_x
_atom_site_fract_y
_atom_site_fract_z
Si Si1 0.975060 0.064666 0.286421
Si Si2 0.525303 0.243978 0.370767
Si Si3 0.795649 0.015491 0.898537
Si Si4 0.203837 0.180689 0.682381
Si Si5 0.035680 0.541010 0.244392
Si Si6 0.544159 0.139383 0.247834
Si Si7 0.375530 0.497192 0.792226
Si Si8 0.002779 0.665871 0.301183
O O1 0.731913 0.963996 0.362709
O O2 0.979602 0.013476 0.209389
O O3 0.000000 0.000000 0.500000
O O4 0.216592 0.296534 0.069559
O O5 0.519201 0.212721 0.249920
O O6 0.556857 0.387896 0.206870
O O7 0.750785 0.346468 0.381737
O O8 0.062494 0.170214 0.728814
O O9 0.828237 0.120412 0.891127
O O10 0.645053 0.967385 0.792697
O O11 0.675959 0.824613 0.170089
O O12 0.385529 0.369344 0.389135
O O13 0.074380 0.451490 0.429156
O O14 0.129262 0.681383 0.208167
O O15 0.188286 0.673383 0.979349
O O16 0.500000 0.000000 0.500000
O O17 0.240081 0.466779 0.670584
#
# Coordination Sequence:
#
# PCOD8016057 Si02
#       8
#     2   2   2   2   2   2   2   2
#     4  11  23  45  67  98 135 173 223 278 338 404
#     4  10  24  42  66  95 134 172 222 272 331 403
#     4  11  23  43  66 101 138 177 221 282 336 400
#     4  10  23  43  68 102 136 174 229 273 338 406
#     4  10  23  44  66  99 129 176 232 275 332 404
#     4  12  26  42  66  99 142 180 221 284 341 397
#     4  10  22  43  70  96 131 178 220 279 332 402
#     4  10  21  43  69  96 129 175 226 278 334 391
#
# _framework density 22.7714
#
# number of rings (size 3 to 8) (size 9 to 14) (size 15 to 20)
#    0.000    1.500    1.250    2.625    3.500    4.000 
#    9.000    0.000    0.000    0.000    0.000    0.000 
#    0.000    0.000    0.000    0.000    0.000    0.000 
#
# Total GULP energy -198273.911356 kJ/mol
# GULP energy per Si atom -12392.119460 kJ/mol
# Density = 2.271957 g / cm^3
# Si number density = 22.771400 Si / 1000 Ang^3
#
#
#
# Elastic Constant Matrix: (Units=GPa)
#
#
# Indices 1 2 3 4 5 6 
#
# 1 84.9662 34.7600 49.2872 -2.6138 -2.8641 -1.5961
# 2 34.7600 97.2493 28.2151 -1.7644 -5.8438 -13.4412
# 3 49.2872 28.2151 154.7799 -8.7435 0.1315 -4.6720
# 4 -2.6138 -1.7644 -8.7435 34.6158 -0.2596 4.2586
# 5 -2.8641 -5.8438 0.1315 -0.2596 27.7104 13.7845
# 6 -1.5961 -13.4412 -4.6720 4.2586 13.7845 35.4211
#
#
#
# Elastic Compliance Matrix: (Units=1/GPa)
#
#
# Indices 1 2 3 4 5 6 
#
# 1 0.016285 -0.004766 -0.004381 0.000192 0.001902 -0.002416
# 2 -0.004766 0.012819 -0.000705 -0.000458 -0.000104 0.004652
# 3 -0.004381 -0.000705 0.008098 0.001571 -0.001031 0.000816
# 4 0.000192 -0.000458 0.001571 0.029847 0.002430 -0.004492
# 5 0.001902 -0.000104 -0.001031 0.002430 0.045237 -0.017987
# 6 -0.002416 0.004652 0.000816 -0.004492 -0.017987 0.037536
#
#
# Mechanical properties :
#
#
# Convention : Reuss Voigt Hill
#
# Bulk Modulus (GPa) = 57.14150 62.39111 59.76630
# Shear Modulus (GPa) = 28.51305 34.53166 31.52235
#
# Velocity S-wave (km/s) = 3.54240 3.89838 3.72465
# Velocity P-wave (km/s) = 6.47144 6.90808 6.69332
#
# Compressibility (1/GPa) = 0.01750041
#
# Stress axis : x y z
#
# Youngs Moduli (GPa) = 61.40670 78.00801 123.48159
#
# Poissons Ratio (x) = 0.37178 0.54092
# Poissons Ratio (y) = 0.29266 0.08700
# Poissons Ratio (z) = 0.26900 0.05496
#
# Static dielectric constant tensor:
#      x y z
#    x 4.194950 -0.500470 -0.562430 
#    y -0.500470 13.059180 8.242790 
#    z -0.562430 8.242790 12.003730 
# 
# 
# High freq. dielectric constant tensor:
#      x y z
#    x 1.896050 0.000210 -0.002360 
#    y 0.000210 1.906690 0.008360 
#    z -0.002360 0.008360 1.893030 
# 
# From -- ./inp_files/279075.got.cif
#   From: 2010.06.25/outbox.cif.g09.slc.cpg/sg2_140_cif.got.tgz:279075.got - 2010.06.27 13:26:56.
