data_PCOD8016539
_publ_section_title
;
Structure prediction by ZEFSAII (Michael W. Deem and Ramdas Pophale) SiO2 
 PCOD8016539
Probable space group: P -1
;
_chemical_formula_sum "Si O2"
_cell_formula_units_Z 16
_cell_length_a 21.153452
_cell_length_b 7.082656
_cell_length_c 9.241991
_cell_angle_alpha 110.215314
_cell_angle_beta 130.416585
_cell_angle_gamma 44.277857
_cell_volume 717.418301
_symmetry_space_group_name_H-M "P -1"
_symmetry_group_IT_number 2
_symmetry_cell_setting 'triclinic'
loop_
_space_group_symop_operation_xyz
x,y,z
-x,-y,-z
loop_
_atom_site_type_symbol
_atom_site_label
_atom_site_fract_x
_atom_site_fract_y
_atom_site_fract_z
Si Si1 0.267507 0.976062 0.162865
Si Si2 0.098895 0.573951 0.955977
Si Si3 0.585904 0.806160 0.787489
Si Si4 0.696178 0.227492 0.345563
Si Si5 0.779918 0.675666 0.195104
Si Si6 0.153773 0.923906 0.221992
Si Si7 0.691126 0.435322 0.094982
Si Si8 0.477592 0.319018 0.600749
O O1 0.399879 0.824960 0.319492
O O2 0.239507 0.923554 0.260900
O O3 0.245746 0.852808 0.968893
O O4 0.178387 0.304819 0.102888
O O5 0.102991 0.501200 0.770691
O O6 0.969481 0.764084 0.866797
O O7 0.141523 0.732040 0.074081
O O8 0.604279 0.608366 0.636251
O O9 0.480364 0.121741 0.663799
O O10 0.691739 0.786328 0.957019
O O11 0.578828 0.697176 0.902633
O O12 0.657358 0.418912 0.198681
O O13 0.581984 0.402054 0.322837
O O14 0.744590 0.927999 0.300620
O O15 0.793265 0.186880 0.567223
O O16 0.777793 0.482929 0.245533
#
# Coordination Sequence:
#
# PCOD8016539 Si02
#       8
#     2   2   2   2   2   2   2   2
#     4  12  22  44  72  97 130 179 222 272 334 395
#     4  11  22  48  73  96 130 176 217 287 334 384
#     4   9  21  43  63  96 133 187 210 272 326 394
#     4  12  25  43  64 105 135 175 221 271 321 408
#     4  10  21  45  65  94 140 174 213 268 339 388
#     4  11  27  43  73 101 129 166 238 276 325 393
#     4  10  22  42  64  91 140 176 213 262 334 395
#     4  11  23  40  71  99 135 172 229 271 321 393
#
# _framework density 22.30219
#
# number of rings (size 3 to 8) (size 9 to 14) (size 15 to 20)
#    0.750    0.500    3.750    1.875    1.750    6.000 
#    2.250    0.625    0.000    0.000    0.000    0.000 
#    0.000    0.000    0.000    0.000    0.000    0.000 
#
# Total GULP energy -198227.118790 kJ/mol
# GULP energy per Si atom -12389.194924 kJ/mol
# Density = 2.225143 g / cm^3
# Si number density = 22.302190 Si / 1000 Ang^3
#
#
#
# Elastic Constant Matrix: (Units=GPa)
#
#
# Indices 1 2 3 4 5 6 
#
# 1 94.9602 50.4743 39.7924 2.4798 -8.4013 -6.2364
# 2 50.4743 135.8269 40.6344 19.2228 0.5472 -14.4406
# 3 39.7924 40.6344 90.0259 6.9205 -15.2012 -10.2595
# 4 2.4798 19.2228 6.9205 38.6910 -0.5569 -2.3122
# 5 -8.4013 0.5472 -15.2012 -0.5569 18.9629 -0.6195
# 6 -6.2364 -14.4406 -10.2595 -2.3122 -0.6195 26.6931
#
#
#
# Elastic Compliance Matrix: (Units=1/GPa)
#
#
# Indices 1 2 3 4 5 6 
#
# 1 0.014980 -0.004690 -0.004113 0.002136 0.003526 -0.000351
# 2 -0.004690 0.010999 -0.002995 -0.004506 -0.004824 0.003201
# 3 -0.004113 -0.002995 0.016808 -0.000841 0.011846 0.004081
# 4 0.002136 -0.004506 -0.000841 0.028128 0.001235 0.000203
# 5 0.003526 -0.004824 0.011846 0.001235 0.064111 0.004362
# 6 -0.000351 0.003201 0.004081 0.000203 0.004362 0.040800
#
#
# Mechanical properties :
#
#
# Convention : Reuss Voigt Hill
#
# Bulk Modulus (GPa) = 52.10886 64.73504 58.42195
# Shear Modulus (GPa) = 24.29324 29.53018 26.91171
#
# Velocity S-wave (km/s) = 3.30400 3.64276 3.47751
# Velocity P-wave (km/s) = 6.16205 6.83975 6.50973
#
# Compressibility (1/GPa) = 0.01919059
#
# Stress axis : x y z
#
# Youngs Moduli (GPa) = 66.75359 90.92109 59.49657
#
# Poissons Ratio (x) = 0.42643 0.24474
# Poissons Ratio (y) = 0.31308 0.17816
# Poissons Ratio (z) = 0.27459 0.27227
#
# Static dielectric constant tensor:
#      x y z
#    x 3.896560 0.108980 -0.085230 
#    y 0.108980 4.138270 0.088350 
#    z -0.085230 0.088350 3.822530 
# 
# 
# High freq. dielectric constant tensor:
#      x y z
#    x 1.867730 0.011920 -0.014620 
#    y 0.011920 1.889320 0.009750 
#    z -0.014620 0.009750 1.860290 
# 
# From -- ./inp_files/356499.got.cif
#   From: 2010.06.25/outbox.cif.g09.slc.cpg/sg2_179_cif.got.tgz:356499.got - 2010.06.27 13:26:56.
