data_PCOD8016994
_publ_section_title
;
Structure prediction by ZEFSAII (Michael W. Deem and Ramdas Pophale) SiO2 
 PCOD8016994
Probable space group: P -1
;
_chemical_formula_sum "Si O2"
_cell_formula_units_Z 16
_cell_length_a 14.209111
_cell_length_b 11.920029
_cell_length_c 8.846644
_cell_angle_alpha 70.488013
_cell_angle_beta 96.214317
_cell_angle_gamma 146.787845
_cell_volume 729.824642
_symmetry_space_group_name_H-M "P -1"
_symmetry_group_IT_number 2
_symmetry_cell_setting 'triclinic'
loop_
_space_group_symop_operation_xyz
x,y,z
-x,-y,-z
loop_
_atom_site_type_symbol
_atom_site_label
_atom_site_fract_x
_atom_site_fract_y
_atom_site_fract_z
Si Si1 0.588941 0.932218 0.631718
Si Si2 0.970269 0.268584 0.433362
Si Si3 0.911622 0.778671 0.072563
Si Si4 0.542348 0.407933 0.024965
Si Si5 0.116894 0.936291 0.777844
Si Si6 0.357188 0.758183 0.390881
Si Si7 0.478907 0.676492 0.286003
Si Si8 0.126462 0.218790 0.606093
O O1 0.575493 0.798445 0.787914
O O2 0.425376 0.770036 0.554832
O O3 0.583192 0.040602 0.692447
O O4 0.786569 0.142537 0.493063
O O5 0.139509 0.515003 0.433746
O O6 0.964578 0.122559 0.546713
O O7 0.986125 0.271505 0.251859
O O8 0.750615 0.604821 0.003039
O O9 0.843548 0.678073 0.274806
O O10 0.060133 0.850517 0.983488
O O11 0.000000 0.000000 0.000000
O O12 0.500000 0.500000 0.000000
O O13 0.503838 0.331723 0.882317
O O14 0.331322 0.159817 0.681621
O O15 0.058640 0.010827 0.698457
O O16 0.453805 0.791223 0.255619
O O17 0.315202 0.430736 0.450649
#
# Coordination Sequence:
#
# PCOD8016994 Si02
#       8
#     2   2   2   2   2   2   2   2
#     4  11  25  44  71  98 134 179 226 284 332 397
#     4  11  22  38  70  97 128 174 226 279 341 396
#     4  10  22  39  58  91 136 176 216 273 327 400
#     4  12  26  40  65 100 140 176 221 274 344 403
#     4  11  22  37  62  95 137 175 221 277 337 400
#     4  10  23  48  69  97 131 178 235 280 328 395
#     4  11  23  41  64  94 134 179 223 276 326 403
#     4  10  22  37  63  93 134 178 223 271 337 403
#
# _framework density 21.923075000000001
#
# number of rings (size 3 to 8) (size 9 to 14) (size 15 to 20)
#    0.000    1.250    1.250    5.625    7.000    0.500 
#    0.000    0.000    0.000    1.500    0.000    0.000 
#    0.000    0.000    0.000    0.000    0.000    0.000 
#
# Total GULP energy -198222.290021 kJ/mol
# GULP energy per Si atom -12388.893126 kJ/mol
# Density = 2.187318 g / cm^3
# Si number density = 21.923075 Si / 1000 Ang^3
#
#
#
# Elastic Constant Matrix: (Units=GPa)
#
#
# Indices 1 2 3 4 5 6 
#
# 1 90.2774 27.6600 36.2345 3.6200 -19.0410 -19.4672
# 2 27.6600 118.0369 39.2351 18.0709 -13.0494 -6.1943
# 3 36.2345 39.2351 98.2859 14.5732 -14.4996 -9.9570
# 4 3.6200 18.0709 14.5732 31.0089 -2.4297 -6.4455
# 5 -19.0410 -13.0494 -14.4996 -2.4297 33.0134 -0.0358
# 6 -19.4672 -6.1943 -9.9570 -6.4455 -0.0358 39.7974
#
#
#
# Elastic Compliance Matrix: (Units=1/GPa)
#
#
# Indices 1 2 3 4 5 6 
#
# 1 0.016101 -0.001780 -0.003906 0.003029 0.007098 0.007118
# 2 -0.001780 0.010667 -0.002724 -0.004736 0.001644 -0.000658
# 3 -0.003906 -0.002724 0.013709 -0.004123 0.002389 0.000430
# 4 0.003029 -0.004736 -0.004123 0.037876 0.000858 0.005848
# 5 0.007098 0.001644 0.002389 0.000858 0.036152 0.004497
# 6 0.007118 -0.000658 0.000430 0.005848 0.004497 0.029566
#
#
# Mechanical properties :
#
#
# Convention : Reuss Voigt Hill
#
# Bulk Modulus (GPa) = 42.27120 56.98439 49.62779
# Shear Modulus (GPa) = 29.62529 34.32865 31.97697
#
# Velocity S-wave (km/s) = 3.68003 3.96140 3.82330
# Velocity P-wave (km/s) = 6.11394 6.85368 6.49435
#
# Compressibility (1/GPa) = 0.02365677
#
# Stress axis : x y z
#
# Youngs Moduli (GPa) = 62.10883 93.74941 72.94515
#
# Poissons Ratio (x) = 0.16688 0.28493
# Poissons Ratio (y) = 0.11056 0.19868
# Poissons Ratio (z) = 0.24260 0.25534
#
# Static dielectric constant tensor:
#      x y z
#    x 4.002070 0.035640 -0.284640 
#    y 0.035640 4.089380 0.375320 
#    z -0.284640 0.375320 4.313190 
# 
# 
# High freq. dielectric constant tensor:
#      x y z
#    x 1.856250 0.006400 -0.027290 
#    y 0.006400 1.875010 0.020870 
#    z -0.027290 0.020870 1.847680 
# 
# From -- ./inp_files/307368.got.cif
#   From: 2010.06.25/outbox.cif.g09.slc.cpg/sg2_154_cif.got.tgz:307368.got - 2010.06.27 13:26:56.
