data_PCOD8016796
_publ_section_title
;
Structure prediction by ZEFSAII (Michael W. Deem and Ramdas Pophale) SiO2 
 PCOD8016796
Probable space group: P -1
;
_chemical_formula_sum "Si O2"
_cell_formula_units_Z 14
_cell_length_a 16.863913
_cell_length_b 10.035895
_cell_length_c 5.231294
_cell_angle_alpha 65.198673
_cell_angle_beta 82.632854
_cell_angle_gamma 119.499626
_cell_volume 633.611894
_symmetry_space_group_name_H-M "P -1"
_symmetry_group_IT_number 2
_symmetry_cell_setting 'triclinic'
loop_
_space_group_symop_operation_xyz
x,y,z
-x,-y,-z
loop_
_atom_site_type_symbol
_atom_site_label
_atom_site_fract_x
_atom_site_fract_y
_atom_site_fract_z
Si Si1 0.353201 0.069865 0.218872
Si Si2 0.836091 0.158653 0.226904
Si Si3 0.190454 0.706868 0.382438
Si Si4 0.064161 0.041730 0.689248
Si Si5 0.767402 0.566652 0.519167
Si Si6 0.375771 0.401887 0.727515
Si Si7 0.565745 0.387913 0.955442
O O1 0.281506 0.017692 0.538772
O O2 0.309237 0.881016 0.233141
O O3 0.343548 0.197638 0.930116
O O4 0.468676 0.172291 0.175649
O O5 0.872135 0.293034 0.353869
O O6 0.902733 0.089644 0.221851
O O7 0.851346 0.275494 0.878108
O O8 0.178152 0.517895 0.539428
O O9 0.159071 0.256439 0.476685
O O10 0.000000 0.000000 0.500000
O O11 0.000000 0.000000 0.000000
O O12 0.728137 0.621856 0.253539
O O13 0.669396 0.411894 0.856949
O O14 0.448010 0.514601 0.360093
O O15 0.431369 0.513468 0.871534
#
# Coordination Sequence:
#
# PCOD8016796 Si02
#       7
#     2   2   2   2   2   2   2
#     4  10  22  38  66  94 135 176 215 256 320 382
#     4  10  24  43  66  97 133 170 214 260 323 390
#     4  10  24  40  68  92 143 176 205 258 330 378
#     4  12  27  46  75  98 121 165 221 276 333 384
#     4  10  26  43  66  98 136 166 221 271 317 386
#     4  10  22  35  63  88 132 167 226 262 312 358
#     4  10  23  34  66  95 134 169 223 259 315 367
#
# _framework density 22.095541999999998
#
# number of rings (size 3 to 8) (size 9 to 14) (size 15 to 20)
#    1.714    0.000    0.000    3.429   10.000    0.571 
#    0.000    5.714    0.000    0.000    0.000    0.000 
#    0.000    0.000    0.000    0.000    0.000    0.000 
#
# Total GULP energy -173503.194714 kJ/mol
# GULP energy per Si atom -12393.085337 kJ/mol
# Density = 2.204525 g / cm^3
# Si number density = 22.095542 Si / 1000 Ang^3
#
#
#
# Elastic Constant Matrix: (Units=GPa)
#
#
# Indices 1 2 3 4 5 6 
#
# 1 108.0881 55.3566 41.6222 10.6298 -0.1116 -3.0346
# 2 55.3566 101.0650 29.1420 26.0884 21.6890 -9.3491
# 3 41.6222 29.1420 86.0387 38.0498 4.6565 5.2958
# 4 10.6298 26.0884 38.0498 35.2405 -1.5241 3.6285
# 5 -0.1116 21.6890 4.6565 -1.5241 31.0104 12.2368
# 6 -3.0346 -9.3491 5.2958 3.6285 12.2368 40.7093
#
#
#
# Elastic Compliance Matrix: (Units=1/GPa)
#
#
# Indices 1 2 3 4 5 6 
#
# 1 0.025014 -0.023010 -0.019460 0.032763 0.025209 -0.011386
# 2 -0.023010 0.040466 0.019829 -0.048536 -0.042464 0.022089
# 3 -0.019460 0.019829 0.038248 -0.052361 -0.026501 0.010761
# 4 0.032763 -0.048536 -0.052361 0.116646 0.059576 -0.030198
# 5 0.025209 -0.042464 -0.026501 0.059576 0.082582 -0.034559
# 6 -0.011386 0.022089 0.010761 -0.030198 -0.034559 0.040468
#
#
# Mechanical properties :
#
#
# Convention : Reuss Voigt Hill
#
# Bulk Modulus (GPa) = 17.10985 60.82593 38.96789
# Shear Modulus (GPa) = 12.24923 32.66343 22.45633
#
# Velocity S-wave (km/s) = 2.35707 3.84901 3.19145
# Velocity P-wave (km/s) = 3.89463 6.88052 5.59060
#
# Compressibility (1/GPa) = 0.05844585
#
# Stress axis : x y z
#
# Youngs Moduli (GPa) = 39.97761 24.71229 26.14487
#
# Poissons Ratio (x) = 0.56864 0.50877
# Poissons Ratio (y) = 0.91989 -0.51842
# Poissons Ratio (z) = 0.77795 -0.49001
#
# Static dielectric constant tensor:
#      x y z
#    x 3.890250 0.102470 -0.068360 
#    y 0.102470 3.812250 0.059780 
#    z -0.068360 0.059780 3.830570 
# 
# 
# High freq. dielectric constant tensor:
#      x y z
#    x 1.862680 0.006970 -0.002960 
#    y 0.006970 1.863740 0.012980 
#    z -0.002960 0.012980 1.863520 
# 
# From -- ./inp_files/104936.got.cif
#   From: 2010.06.25/outbox.cif.g09.slc.cpg/sg2_53_cif.got.tgz:104936.got - 2010.06.27 13:26:56.
