data_PCOD8016650
_publ_section_title
;
Structure prediction by ZEFSAII (Michael W. Deem and Ramdas Pophale) SiO2 
 PCOD8016650
Probable space group: P -1
;
_chemical_formula_sum "Si O2"
_cell_formula_units_Z 14
_cell_length_a 10.965256
_cell_length_b 11.752777
_cell_length_c 17.137708
_cell_angle_alpha 148.806162
_cell_angle_beta 139.706621
_cell_angle_gamma 61.142107
_cell_volume 637.624160
_symmetry_space_group_name_H-M "P -1"
_symmetry_group_IT_number 2
_symmetry_cell_setting 'triclinic'
loop_
_space_group_symop_operation_xyz
x,y,z
-x,-y,-z
loop_
_atom_site_type_symbol
_atom_site_label
_atom_site_fract_x
_atom_site_fract_y
_atom_site_fract_z
Si Si1 0.796935 0.882977 0.890508
Si Si2 0.767090 0.957358 0.383015
Si Si3 0.632703 0.748115 0.034749
Si Si4 0.185382 0.659622 0.746711
Si Si5 0.618939 0.343797 0.553516
Si Si6 0.535537 0.776641 0.416559
Si Si7 0.884787 0.822824 0.512026
O O1 0.772764 0.645919 0.790443
O O2 0.573527 0.788480 0.680280
O O3 0.836577 0.104714 0.099180
O O4 0.000000 0.000000 0.000000
O O5 0.773750 0.224586 0.548254
O O6 0.600952 0.778917 0.130019
O O7 0.723234 0.836469 0.376759
O O8 0.000000 0.000000 0.500000
O O9 0.435605 0.756365 0.896971
O O10 0.626930 0.483646 0.861972
O O11 0.861795 0.970213 0.245282
O O12 0.138597 0.454150 0.671963
O O13 0.000000 0.500000 0.500000
O O14 0.508263 0.278521 0.545881
O O15 0.785121 0.847287 0.560674
O O16 0.500000 0.000000 0.500000
#
# Coordination Sequence:
#
# PCOD8016650 Si02
#       7
#     2   2   2   2   2   2   2
#     4  11  28  46  72 102 142 194 241 296 357 424
#     4  10  21  45  73 104 138 184 239 292 360 433
#     4  10  24  44  70  99 142 187 232 304 353 423
#     4  11  26  45  68 103 136 188 245 289 354 436
#     4  11  25  49  71 104 147 186 239 300 363 423
#     4  11  24  43  67 106 141 181 235 291 363 433
#     4  10  24  44  71 104 139 189 239 290 371 425
#
# _framework density 21.956507999999999
#
# number of rings (size 3 to 8) (size 9 to 14) (size 15 to 20)
#    0.000    1.429    2.857    0.000   10.000    4.571 
#    2.571    0.000    0.000    0.000    0.000    0.000 
#    0.000    0.000    0.000    0.000    0.000    0.000 
#
# Total GULP energy -173499.696691 kJ/mol
# GULP energy per Si atom -12392.835478 kJ/mol
# Density = 2.190653 g / cm^3
# Si number density = 21.956508 Si / 1000 Ang^3
#
#
#
# Elastic Constant Matrix: (Units=GPa)
#
#
# Indices 1 2 3 4 5 6 
#
# 1 129.6403 55.1999 64.9923 9.9197 -0.0792 -1.1492
# 2 55.1999 148.9284 65.6454 24.1152 -12.1473 -3.4083
# 3 64.9923 65.6454 150.1881 17.7906 -5.1044 -8.2291
# 4 9.9197 24.1152 17.7906 46.8518 -7.3551 -2.0970
# 5 -0.0792 -12.1473 -5.1044 -7.3551 52.0459 3.7996
# 6 -1.1492 -3.4083 -8.2291 -2.0970 3.7996 36.2272
#
#
#
# Elastic Compliance Matrix: (Units=1/GPa)
#
#
# Indices 1 2 3 4 5 6 
#
# 1 0.010522 -0.002443 -0.003574 0.000230 -0.000828 -0.000608
# 2 -0.002443 0.009406 -0.002644 -0.003090 0.001505 -0.000130
# 3 -0.003574 -0.002644 0.009629 -0.001463 -0.000012 0.001742
# 4 0.000230 -0.003090 -0.001463 0.023851 0.002470 0.000506
# 5 -0.000828 0.001505 -0.000012 0.002470 0.020046 -0.001847
# 6 -0.000608 -0.000130 0.001742 0.000506 -0.001847 0.028191
#
#
# Mechanical properties :
#
#
# Convention : Reuss Voigt Hill
#
# Bulk Modulus (GPa) = 81.73689 88.93692 85.33690
# Shear Modulus (GPa) = 40.63529 43.21959 41.92744
#
# Velocity S-wave (km/s) = 4.30666 4.44150 4.37460
# Velocity P-wave (km/s) = 7.87638 8.17902 8.02913
#
# Compressibility (1/GPa) = 0.01223438
#
# Stress axis : x y z
#
# Youngs Moduli (GPa) = 95.03598 106.31933 103.85468
#
# Poissons Ratio (x) = 0.25977 0.37119
# Poissons Ratio (y) = 0.23220 0.27457
# Poissons Ratio (z) = 0.33967 0.28108
#
# Static dielectric constant tensor:
#      x y z
#    x 4.350380 0.341670 -0.208700 
#    y 0.341670 4.769900 -0.107900 
#    z -0.208700 -0.107900 4.177150 
# 
# 
# High freq. dielectric constant tensor:
#      x y z
#    x 1.865850 -0.005420 -0.000750 
#    y -0.005420 1.873820 0.008180 
#    z -0.000750 0.008180 1.869560 
# 
# From -- ./inp_files/277949.got.cif
#   From: 2010.06.25/outbox.cif.g09.slc.cpg/sg2_139_cif.got.tgz:277949.got - 2010.06.27 13:26:56.
