data_PCOD8016745
_publ_section_title
;
Structure prediction by ZEFSAII (Michael W. Deem and Ramdas Pophale) SiO2 
 PCOD8016745
Probable space group: P -1
;
_chemical_formula_sum "Si O2"
_cell_formula_units_Z 12
_cell_length_a 5.293519
_cell_length_b 18.063335
_cell_length_c 10.787935
_cell_angle_alpha 150.365408
_cell_angle_beta 92.353951
_cell_angle_gamma 96.363917
_cell_volume 486.690680
_symmetry_space_group_name_H-M "P -1"
_symmetry_group_IT_number 2
_symmetry_cell_setting 'triclinic'
loop_
_space_group_symop_operation_xyz
x,y,z
-x,-y,-z
loop_
_atom_site_type_symbol
_atom_site_label
_atom_site_fract_x
_atom_site_fract_y
_atom_site_fract_z
Si Si1 0.244380 0.475407 0.543106
Si Si2 0.590442 0.401149 0.020900
Si Si3 0.729349 0.946619 0.492025
Si Si4 0.278882 0.638900 0.294086
Si Si5 0.024317 0.784277 0.677560
Si Si6 0.693481 0.960616 0.786001
O O1 0.500000 0.500000 0.500000
O O2 0.298069 0.598872 0.838742
O O3 0.000000 0.500000 0.500000
O O4 0.177839 0.298302 0.337277
O O5 0.476880 0.547942 0.214621
O O6 0.353011 0.241375 0.765817
O O7 0.801113 0.404754 0.915838
O O8 0.775516 0.024647 0.742284
O O9 0.500000 0.000000 0.500000
O O10 0.000000 0.000000 0.500000
O O11 0.044729 0.628517 0.373139
O O12 0.411493 0.828628 0.585961
O O13 0.920435 0.890139 0.736850
O O14 0.293430 0.890855 0.907339
#
# Coordination Sequence:
#
# PCOD8016745 Si02
#       6
#     2   2   2   2   2   2
#     4  12  28  47  70 107 147 194 238 296 369 430
#     4  10  24  47  75 105 145 186 249 301 365 441
#     4  11  28  48  73 107 148 195 242 301 372 432
#     4  10  21  47  74 107 138 187 247 308 362 425
#     4  11  24  44  76 101 149 187 249 297 366 431
#     4  10  24  45  70 109 139 194 243 302 356 441
#
# _framework density 24.656320999999998
#
# number of rings (size 3 to 8) (size 9 to 14) (size 15 to 20)
#    0.000    1.333    1.667    1.500    9.333    2.000 
#    3.000    0.000    0.000    0.000    0.000    0.000 
#    0.000    0.000    0.000    0.000    0.000    0.000 
#
# Total GULP energy -148748.688814 kJ/mol
# GULP energy per Si atom -12395.724068 kJ/mol
# Density = 2.460020 g / cm^3
# Si number density = 24.656321 Si / 1000 Ang^3
#
#
#
# Elastic Constant Matrix: (Units=GPa)
#
#
# Indices 1 2 3 4 5 6 
#
# 1 102.7131 56.1594 16.6142 -27.5312 -20.5964 -4.9043
# 2 56.1594 154.3207 49.1509 -33.5785 -8.7976 -1.3582
# 3 16.6142 49.1509 151.7335 -40.1902 -7.5447 -7.7985
# 4 -27.5312 -33.5785 -40.1902 53.8856 -1.9922 10.1964
# 5 -20.5964 -8.7976 -7.5447 -1.9922 31.5052 -9.5768
# 6 -4.9043 -1.3582 -7.7985 10.1964 -9.5768 36.5987
#
#
#
# Elastic Compliance Matrix: (Units=1/GPa)
#
#
# Indices 1 2 3 4 5 6 
#
# 1 0.016048 -0.004375 0.002227 0.006889 0.011303 0.003501
# 2 -0.004375 0.009116 -0.002033 0.002188 -0.001147 -0.001591
# 3 0.002227 -0.002033 0.008975 0.006452 0.003855 0.001346
# 4 0.006889 0.002188 0.006452 0.029253 0.007339 -0.003850
# 5 0.011303 -0.001147 0.003855 0.007339 0.043752 0.011697
# 6 0.003501 -0.001591 0.001346 -0.003850 0.011697 0.032154
#
#
# Mechanical properties :
#
#
# Convention : Reuss Voigt Hill
#
# Bulk Modulus (GPa) = 38.79559 72.51292 55.65425
# Shear Modulus (GPa) = 31.99900 43.52076 37.75988
#
# Velocity S-wave (km/s) = 3.60641 4.20586 3.91762
# Velocity P-wave (km/s) = 5.75415 7.28416 6.56389
#
# Compressibility (1/GPa) = 0.02577612
#
# Stress axis : x y z
#
# Youngs Moduli (GPa) = 62.31315 109.69218 111.41681
#
# Poissons Ratio (x) = 0.47992 -0.24809
# Poissons Ratio (y) = 0.27263 0.22655
# Poissons Ratio (z) = -0.13875 0.22304
#
# Static dielectric constant tensor:
#      x y z
#    x 3.947710 0.341480 0.196220 
#    y 0.341480 4.689540 -0.257710 
#    z 0.196220 -0.257710 4.998350 
# 
# 
# High freq. dielectric constant tensor:
#      x y z
#    x 1.960380 0.017480 0.016830 
#    y 0.017480 1.995500 -0.013620 
#    z 0.016830 -0.013620 2.009580 
# 
# From -- ./inp_files/67767.got.cif
#   From: 2010.06.25/outbox.cif.g09.slc.cpg/sg2_34_cif.got.tgz:67767.got - 2010.06.27 13:26:56.
