data_PCOD8016507
_publ_section_title
;
Structure prediction by ZEFSAII (Michael W. Deem and Ramdas Pophale) SiO2 
 PCOD8016507
Probable space group: P -1
;
_chemical_formula_sum "Si O2"
_cell_formula_units_Z 16
_cell_length_a 14.808213
_cell_length_b 15.139961
_cell_length_c 9.090371
_cell_angle_alpha 35.365364
_cell_angle_beta 121.431796
_cell_angle_gamma 141.319949
_cell_volume 698.876719
_symmetry_space_group_name_H-M "P -1"
_symmetry_group_IT_number 2
_symmetry_cell_setting 'triclinic'
loop_
_space_group_symop_operation_xyz
x,y,z
-x,-y,-z
loop_
_atom_site_type_symbol
_atom_site_label
_atom_site_fract_x
_atom_site_fract_y
_atom_site_fract_z
Si Si1 0.846610 0.310854 0.428885
Si Si2 0.454948 0.602340 0.914747
Si Si3 0.753295 0.585273 0.467407
Si Si4 0.179933 0.434475 0.768919
Si Si5 0.480921 0.255265 0.893243
Si Si6 0.614432 0.069936 0.302368
Si Si7 0.882274 0.418276 0.887240
Si Si8 0.844107 0.011601 0.995280
O O1 0.807770 0.371481 0.455337
O O2 0.731000 0.239659 0.299356
O O3 0.027217 0.531880 0.251673
O O4 0.832213 0.114081 0.707209
O O5 0.272614 0.435439 0.970098
O O6 0.529783 0.826409 0.594112
O O7 0.500000 0.500000 0.000000
O O8 0.499396 0.637305 0.077479
O O9 0.736214 0.501086 0.403286
O O10 0.593214 0.439832 0.614091
O O11 0.853526 0.570695 0.665782
O O12 0.842825 0.835529 0.182737
O O13 0.004063 0.201817 0.954480
O O14 0.311658 0.113869 0.876256
O O15 0.498059 0.090949 0.157232
O O16 0.719794 0.163045 0.117563
O O17 0.000000 0.500000 0.000000
#
# Coordination Sequence:
#
# PCOD8016507 Si02
#       8
#     2   2   2   2   2   2   2   2
#     4  11  21  42  69 100 135 182 234 275 340 408
#     4  12  25  44  72 104 135 177 234 285 335 410
#     4  11  25  45  66 103 141 181 228 282 345 410
#     4  12  26  42  67 108 137 172 235 290 329 407
#     4  11  23  48  72  96 137 194 230 267 343 426
#     4  10  21  44  73  92 134 188 234 268 342 411
#     4   9  21  39  69  97 130 179 231 274 327 417
#     4  12  24  41  72  95 144 185 217 281 364 393
#
# _framework density 22.893879999999999
#
# number of rings (size 3 to 8) (size 9 to 14) (size 15 to 20)
#    0.000    1.000    3.750    3.000    0.000    1.000 
#    4.500    2.500    0.000    0.000    0.000    0.000 
#    0.000    0.000    0.000    0.000    0.000    0.000 
#
# Total GULP energy -198247.401786 kJ/mol
# GULP energy per Si atom -12390.462612 kJ/mol
# Density = 2.284177 g / cm^3
# Si number density = 22.893880 Si / 1000 Ang^3
#
#
#
# Elastic Constant Matrix: (Units=GPa)
#
#
# Indices 1 2 3 4 5 6 
#
# 1 133.4114 60.7512 51.1768 -15.8266 -9.7564 2.7333
# 2 60.7512 94.4804 37.4463 -12.0642 -3.9695 23.0975
# 3 51.1768 37.4463 101.9303 -16.1748 -0.4327 -10.5073
# 4 -15.8266 -12.0642 -16.1748 21.3528 4.0912 4.9799
# 5 -9.7564 -3.9695 -0.4327 4.0912 32.8846 -0.7265
# 6 2.7333 23.0975 -10.5073 4.9799 -0.7265 43.6838
#
#
#
# Elastic Compliance Matrix: (Units=1/GPa)
#
#
# Indices 1 2 3 4 5 6 
#
# 1 0.012092 -0.006622 -0.003133 0.001937 0.002546 0.001813
# 2 -0.006622 0.020308 -0.004407 0.006164 -0.000605 -0.012096
# 3 -0.003133 -0.004407 0.014368 0.005165 -0.001797 0.005363
# 4 0.001937 0.006164 0.005165 0.058929 -0.006143 -0.008958
# 5 0.002546 -0.000605 -0.001797 -0.006143 0.031853 0.000959
# 6 0.001813 -0.012096 0.005363 -0.008958 0.000959 0.031501
#
#
# Mechanical properties :
#
#
# Convention : Reuss Voigt Hill
#
# Bulk Modulus (GPa) = 54.22276 69.84117 62.03197
# Shear Modulus (GPa) = 24.56730 31.61409 28.09070
#
# Velocity S-wave (km/s) = 3.27937 3.72007 3.50665
# Velocity P-wave (km/s) = 6.17048 7.00176 6.59922
#
# Compressibility (1/GPa) = 0.01844244
#
# Stress axis : x y z
#
# Youngs Moduli (GPa) = 82.70027 49.24260 69.60151
#
# Poissons Ratio (x) = 0.32609 0.21808
# Poissons Ratio (y) = 0.54765 0.30673
# Poissons Ratio (z) = 0.25912 0.21701
#
# Static dielectric constant tensor:
#      x y z
#    x 4.858700 0.444490 -0.290830 
#    y 0.444490 4.043970 -0.022600 
#    z -0.290830 -0.022600 4.357900 
# 
# 
# High freq. dielectric constant tensor:
#      x y z
#    x 1.923890 0.030440 0.003630 
#    y 0.030440 1.886080 -0.001870 
#    z 0.003630 -0.001870 1.901180 
# 
# From -- ./inp_files/312409.got.cif
#   From: 2010.06.25/outbox.cif.g09.slc.cpg/sg2_157_cif.got.tgz:312409.got - 2010.06.27 13:26:56.
