data_PCOD8016762
_publ_section_title
;
Structure prediction by ZEFSAII (Michael W. Deem and Ramdas Pophale) SiO2 
 PCOD8016762
Probable space group: P -1
;
_chemical_formula_sum "Si O2"
_cell_formula_units_Z 14
_cell_length_a 5.176075
_cell_length_b 16.529455
_cell_length_c 10.107212
_cell_angle_alpha 126.724078
_cell_angle_beta 78.180551
_cell_angle_gamma 103.524719
_cell_volume 671.550089
_symmetry_space_group_name_H-M "P -1"
_symmetry_group_IT_number 2
_symmetry_cell_setting 'triclinic'
loop_
_space_group_symop_operation_xyz
x,y,z
-x,-y,-z
loop_
_atom_site_type_symbol
_atom_site_label
_atom_site_fract_x
_atom_site_fract_y
_atom_site_fract_z
Si Si1 0.397370 0.392461 0.971857
Si Si2 0.753030 0.921604 0.994317
Si Si3 0.175471 0.608381 0.852434
Si Si4 0.572154 0.113009 0.264036
Si Si5 0.995927 0.255722 0.208255
Si Si6 0.537173 0.291203 0.607211
Si Si7 0.127391 0.382312 0.557112
O O1 0.084848 0.387880 0.026896
O O2 0.556933 0.376594 0.073738
O O3 0.500000 0.500000 0.000000
O O4 0.440002 0.302580 0.778138
O O5 0.609329 0.878670 0.834965
O O6 0.823056 0.819482 0.961182
O O7 0.587017 0.992210 0.172874
O O8 0.000000 0.000000 0.000000
O O9 0.194963 0.700654 0.834997
O O10 0.149530 0.503904 0.672196
O O11 0.848634 0.181381 0.262286
O O12 0.473804 0.169997 0.458761
O O13 0.157561 0.347689 0.367025
O O14 0.374668 0.353669 0.586135
O O15 0.848589 0.335436 0.607367
#
# Coordination Sequence:
#
# PCOD8016762 Si02
#       7
#     2   2   2   2   2   2   2
#     4  12  23  40  57  78 114 162 205 231 263 325
#     4   9  17  35  58  86 111 143 180 231 300 343
#     4  12  24  37  58  83 120 159 189 233 280 332
#     4   9  19  35  59  87 111 144 184 239 290 338
#     4  10  22  34  56  88 121 145 184 232 299 346
#     4  11  21  36  60  81 114 148 201 235 269 325
#     4  11  20  36  56  85 116 153 182 239 281 334
#
# _framework density 20.847293000000001
#
# number of rings (size 3 to 8) (size 9 to 14) (size 15 to 20)
#    0.000    1.429    4.286    1.714    2.000    0.000 
#    0.000    3.571    0.000    1.714    0.000    0.000 
#    0.000    0.000    0.000    0.000    0.000    0.000 
#
# Total GULP energy -173472.466742 kJ/mol
# GULP energy per Si atom -12390.890482 kJ/mol
# Density = 2.079984 g / cm^3
# Si number density = 20.847293 Si / 1000 Ang^3
#
#
#
# Elastic Constant Matrix: (Units=GPa)
#
#
# Indices 1 2 3 4 5 6 
#
# 1 49.3925 4.2348 7.1520 10.6256 2.5294 -15.1262
# 2 4.2348 72.9056 55.8603 18.5773 -2.5725 -32.0078
# 3 7.1520 55.8603 149.4891 40.2980 -1.3665 -21.2483
# 4 10.6256 18.5773 40.2980 33.9275 -5.9584 -5.0463
# 5 2.5294 -2.5725 -1.3665 -5.9584 30.3086 -2.3774
# 6 -15.1262 -32.0078 -21.2483 -5.0463 -2.3774 31.3798
#
#
#
# Elastic Compliance Matrix: (Units=1/GPa)
#
#
# Indices 1 2 3 4 5 6 
#
# 1 0.029729 0.011327 0.001646 -0.014226 -0.002318 0.024536
# 2 0.011327 0.037094 -0.006238 -0.010355 0.002837 0.037622
# 3 0.001646 -0.006238 0.012230 -0.011961 -0.002419 0.000605
# 4 -0.014226 -0.010355 -0.011961 0.052940 0.008896 -0.016332
# 5 -0.002318 0.002837 -0.002419 0.008896 0.035401 0.004251
# 6 0.024536 0.037622 0.000605 -0.016332 0.004251 0.080175
#
#
# Mechanical properties :
#
#
# Convention : Reuss Voigt Hill
#
# Bulk Modulus (GPa) = 10.80805 45.14238 27.97521
# Shear Modulus (GPa) = 18.87212 32.75918 25.81565
#
# Velocity S-wave (km/s) = 3.01201 3.96837 3.52280
# Velocity P-wave (km/s) = 4.15836 6.53438 5.47677
#
# Compressibility (1/GPa) = 0.09252362
#
# Stress axis : x y z
#
# Youngs Moduli (GPa) = 33.63666 26.95863 81.76617
#
# Poissons Ratio (x) = -0.30535 -0.13462
# Poissons Ratio (y) = -0.38100 0.51006
# Poissons Ratio (z) = -0.05538 0.16817
#
# Static dielectric constant tensor:
#      x y z
#    x 3.886210 -0.460470 -0.297910 
#    y -0.460470 3.679090 0.631070 
#    z -0.297910 0.631070 4.420020 
# 
# 
# High freq. dielectric constant tensor:
#      x y z
#    x 1.828130 -0.024010 0.004050 
#    y -0.024010 1.778460 0.039600 
#    z 0.004050 0.039600 1.822490 
# 
# From -- ./inp_files/32517.got.cif
#   From: 2010.06.25/outbox.cif.g09.slc.cpg/sg2_17_cif.got.tgz:32517.got - 2010.06.27 13:26:56.
