data_PCOD8016766
_publ_section_title
;
Structure prediction by ZEFSAII (Michael W. Deem and Ramdas Pophale) SiO2 
 PCOD8016766
Probable space group: P -1
;
_chemical_formula_sum "Si O2"
_cell_formula_units_Z 16
_cell_length_a 11.533852
_cell_length_b 11.623055
_cell_length_c 11.563367
_cell_angle_alpha 138.354397
_cell_angle_beta 134.099564
_cell_angle_gamma 55.799748
_cell_volume 736.883291
_symmetry_space_group_name_H-M "P -1"
_symmetry_group_IT_number 2
_symmetry_cell_setting 'triclinic'
loop_
_space_group_symop_operation_xyz
x,y,z
-x,-y,-z
loop_
_atom_site_type_symbol
_atom_site_label
_atom_site_fract_x
_atom_site_fract_y
_atom_site_fract_z
Si Si1 0.926514 0.228752 0.695177
Si Si2 0.542788 0.698157 0.082198
Si Si3 0.426568 0.003338 0.078052
Si Si4 0.116132 0.897260 0.670081
Si Si5 0.354641 0.379699 0.321453
Si Si6 0.247522 0.489861 0.745483
Si Si7 0.220519 0.441424 0.039041
Si Si8 0.088205 0.523172 0.421004
O O1 0.826069 0.157635 0.463202
O O2 0.818185 0.358042 0.799918
O O3 0.989438 0.066334 0.697263
O O4 0.066505 0.338725 0.817347
O O5 0.534582 0.884794 0.155199
O O6 0.647291 0.683668 0.262623
O O7 0.361914 0.647201 0.940160
O O8 0.643069 0.557243 0.963178
O O9 0.415896 0.191968 0.274407
O O10 0.252569 0.935168 0.884991
O O11 0.500000 0.000000 0.000000
O O12 0.043930 0.731286 0.553446
O O13 0.500000 0.500000 0.500000
O O14 0.294249 0.332549 0.117272
O O15 0.200547 0.472126 0.350818
O O16 0.187123 0.446960 0.543683
O O17 0.089325 0.550553 0.761319
#
# Coordination Sequence:
#
# PCOD8016766 Si02
#       8
#     2   2   2   2   2   2   2   2
#     4  10  22  34  59 102 131 162 200 272 338 390
#     4  11  22  42  67  94 130 177 219 265 321 393
#     4  12  23  39  64 100 134 166 210 269 344 394
#     4  11  20  37  61  91 134 165 210 262 327 393
#     4  12  24  40  67 101 135 167 209 275 343 392
#     4  10  24  42  68  87 127 184 230 256 310 388
#     4  11  21  38  63  96 133 163 211 269 342 388
#     4  11  22  43  68  92 123 178 228 264 316 389
#
# _framework density 21.713072
#
# number of rings (size 3 to 8) (size 9 to 14) (size 15 to 20)
#    0.000    1.000    5.000    2.250    1.750    1.000 
#    0.000    1.250   11.000    0.000    0.000    0.000 
#    0.000    0.000    0.000    0.000    0.000    0.000 
#
# Total GULP energy -198297.460949 kJ/mol
# GULP energy per Si atom -12393.591309 kJ/mol
# Density = 2.166365 g / cm^3
# Si number density = 21.713072 Si / 1000 Ang^3
#
#
#
# Elastic Constant Matrix: (Units=GPa)
#
#
# Indices 1 2 3 4 5 6 
#
# 1 110.1255 23.2785 27.0333 10.5015 22.5981 -7.2035
# 2 23.2785 164.6347 39.7343 10.0773 1.4373 2.3886
# 3 27.0333 39.7343 79.2883 6.6969 9.1189 -8.8479
# 4 10.5015 10.0773 6.6969 40.1951 -7.3485 -3.7557
# 5 22.5981 1.4373 9.1189 -7.3485 21.0941 -1.2274
# 6 -7.2035 2.3886 -8.8479 -3.7557 -1.2274 29.0165
#
#
#
# Elastic Compliance Matrix: (Units=1/GPa)
#
#
# Indices 1 2 3 4 5 6 
#
# 1 0.013567 -0.001058 -0.001638 -0.005724 -0.015657 0.001553
# 2 -0.001058 0.007149 -0.003585 -0.000771 0.001814 -0.001967
# 3 -0.001638 -0.003585 0.016247 -0.001971 -0.005458 0.004357
# 4 -0.005724 -0.000771 -0.001971 0.030402 0.017787 0.002729
# 5 -0.015657 0.001814 -0.005458 0.017787 0.072594 -0.000328
# 6 0.001553 -0.001967 0.004357 0.002729 -0.000328 0.036678
#
#
# Mechanical properties :
#
#
# Convention : Reuss Voigt Hill
#
# Bulk Modulus (GPa) = 40.98153 59.34897 50.16525
# Shear Modulus (GPa) = 25.33793 35.66129 30.49961
#
# Velocity S-wave (km/s) = 3.41976 4.05704 3.75195
# Velocity P-wave (km/s) = 5.87436 7.02415 6.47483
#
# Compressibility (1/GPa) = 0.02440124
#
# Stress axis : x y z
#
# Youngs Moduli (GPa) = 73.71025 139.88464 61.54847
#
# Poissons Ratio (x) = 0.14807 0.10079
# Poissons Ratio (y) = 0.07802 0.22063
# Poissons Ratio (z) = 0.12071 0.50143
#
# Static dielectric constant tensor:
#      x y z
#    x 3.820320 -0.021760 0.206440 
#    y -0.021760 4.309080 -0.188440 
#    z 0.206440 -0.188440 3.949570 
# 
# 
# High freq. dielectric constant tensor:
#      x y z
#    x 1.831320 -0.000260 0.016510 
#    y -0.000260 1.876460 -0.016730 
#    z 0.016510 -0.016730 1.834920 
# 
# From -- ./inp_files/427059.got.cif
#   From: 2010.06.25/outbox.cif.g09.slc.cpg/sg2_214_cif.got.tgz:427059.got - 2010.06.27 13:26:56.
