data_PCOD8016951
_publ_section_title
;
Structure prediction by ZEFSAII (Michael W. Deem and Ramdas Pophale) SiO2 
 PCOD8016951
Probable space group: P -1
;
_chemical_formula_sum "Si O2"
_cell_formula_units_Z 16
_cell_length_a 10.679589
_cell_length_b 13.939662
_cell_length_c 13.468509
_cell_angle_alpha 55.620514
_cell_angle_beta 147.148672
_cell_angle_gamma 135.689432
_cell_volume 756.259727
_symmetry_space_group_name_H-M "P -1"
_symmetry_group_IT_number 2
_symmetry_cell_setting 'triclinic'
loop_
_space_group_symop_operation_xyz
x,y,z
-x,-y,-z
loop_
_atom_site_type_symbol
_atom_site_label
_atom_site_fract_x
_atom_site_fract_y
_atom_site_fract_z
Si Si1 0.367490 0.702379 0.183600
Si Si2 0.463161 0.952516 0.223307
Si Si3 0.962251 0.410094 0.169195
Si Si4 0.778709 0.508628 0.165303
Si Si5 0.208089 0.108792 0.999475
Si Si6 0.183995 0.802701 0.318201
Si Si7 0.024384 0.212407 0.459683
Si Si8 0.731504 0.284529 0.373492
O O1 0.332252 0.813663 0.154013
O O2 0.689077 0.772476 0.341523
O O3 0.230776 0.558428 0.235528
O O4 0.219582 0.673196 0.997221
O O5 0.405689 0.920781 0.322741
O O6 0.318440 0.035273 0.043774
O O7 0.790331 0.054151 0.367275
O O8 0.768155 0.427602 0.105935
O O9 0.063676 0.317257 0.337622
O O10 0.849051 0.447956 0.345221
O O11 0.023380 0.666179 0.224297
O O12 0.500000 0.500000 0.000000
O O13 0.458916 0.226489 0.160665
O O14 0.037431 0.166421 0.799343
O O15 0.000000 0.000000 0.000000
O O16 0.336175 0.776957 0.524579
O O17 0.941996 0.251185 0.484863
#
# Coordination Sequence:
#
# PCOD8016951 Si02
#       8
#     2   2   2   2   2   2   2   2
#     4  11  22  44  67  87 124 169 213 257 314 363
#     4  10  22  41  64  95 127 167 211 258 309 378
#     4  10  24  43  65  93 123 164 211 262 311 372
#     4  11  21  39  66  93 128 159 204 263 317 371
#     4   9  20  37  57  84 127 159 198 253 305 361
#     4  11  21  40  63  91 133 164 200 261 317 373
#     4  10  23  40  63  91 128 162 210 261 309 366
#     4  10  22  37  60  97 122 165 207 248 318 381
#
# _framework density 21.156752999999998
#
# number of rings (size 3 to 8) (size 9 to 14) (size 15 to 20)
#    0.000    1.750    2.500    1.125    1.750    5.000 
#    0.000    7.500    0.000    0.000    0.000    0.000 
#    0.000    0.000    0.000    0.000    0.000    0.000 
#
# Total GULP energy -198294.259229 kJ/mol
# GULP energy per Si atom -12393.391202 kJ/mol
# Density = 2.110860 g / cm^3
# Si number density = 21.156753 Si / 1000 Ang^3
#
#
#
# Elastic Constant Matrix: (Units=GPa)
#
#
# Indices 1 2 3 4 5 6 
#
# 1 74.5127 23.8699 34.4962 1.9875 -1.5161 -2.5361
# 2 23.8699 104.5824 31.2903 4.2509 -3.0455 -3.5268
# 3 34.4962 31.2903 69.6419 1.8953 3.8789 -3.3662
# 4 1.9875 4.2509 1.8953 29.7652 9.5480 2.5707
# 5 -1.5161 -3.0455 3.8789 9.5480 30.6424 -1.4502
# 6 -2.5361 -3.5268 -3.3662 2.5707 -1.4502 29.7099
#
#
#
# Elastic Compliance Matrix: (Units=1/GPa)
#
#
# Indices 1 2 3 4 5 6 
#
# 1 0.017790 -0.001470 -0.008210 -0.001208 0.002179 0.000625
# 2 -0.001470 0.011406 -0.004420 -0.002081 0.002317 0.001021
# 3 -0.008210 -0.004420 0.020633 0.000987 -0.003725 0.000845
# 4 -0.001208 -0.002081 0.000987 0.038286 -0.012518 -0.004162
# 5 0.002179 0.002317 -0.003725 -0.012518 0.037484 0.002952
# 6 0.000625 0.001021 0.000845 -0.004162 0.002952 0.034433
#
#
# Mechanical properties :
#
#
# Convention : Reuss Voigt Hill
#
# Bulk Modulus (GPa) = 46.23255 47.56109 46.89682
# Shear Modulus (GPa) = 25.58291 28.62888 27.10590
#
# Velocity S-wave (km/s) = 3.48114 3.68255 3.58326
# Velocity P-wave (km/s) = 6.16908 6.37265 6.27169
#
# Compressibility (1/GPa) = 0.02162978
#
# Stress axis : x y z
#
# Youngs Moduli (GPa) = 56.21070 87.67137 48.46619
#
# Poissons Ratio (x) = 0.12892 0.39790
# Poissons Ratio (y) = 0.08266 0.21420
# Poissons Ratio (z) = 0.46148 0.38747
#
# Static dielectric constant tensor:
#      x y z
#    x 3.757430 -0.025670 0.310270 
#    y -0.025670 4.183880 -0.113180 
#    z 0.310270 -0.113180 3.914350 
# 
# 
# High freq. dielectric constant tensor:
#      x y z
#    x 1.813130 0.007590 0.010140 
#    y 0.007590 1.858650 -0.005020 
#    z 0.010140 -0.005020 1.812570 
# 
# From -- ./inp_files/521578.got.cif
#   From: 2010.06.25/outbox.cif.g09.slc.cpg/sg2_261_cif.got.tgz:521578.got - 2010.06.27 13:26:56.
