data_PCOD8016005
_publ_section_title
;
Structure prediction by ZEFSAII (Michael W. Deem and Ramdas Pophale) SiO2 
 PCOD8016005
Probable space group: P -1
;
_chemical_formula_sum "Si O2"
_cell_formula_units_Z 16
_cell_length_a 11.698248
_cell_length_b 18.895619
_cell_length_c 9.033705
_cell_angle_alpha 151.905645
_cell_angle_beta 55.352277
_cell_angle_gamma 124.386548
_cell_volume 763.235287
_symmetry_space_group_name_H-M "P -1"
_symmetry_group_IT_number 2
_symmetry_cell_setting 'triclinic'
loop_
_space_group_symop_operation_xyz
x,y,z
-x,-y,-z
loop_
_atom_site_type_symbol
_atom_site_label
_atom_site_fract_x
_atom_site_fract_y
_atom_site_fract_z
Si Si1 0.072810 0.889433 0.642234
Si Si2 0.103979 0.091982 0.477915
Si Si3 0.556221 0.347193 0.192923
Si Si4 0.620953 0.948451 0.223879
Si Si5 0.425925 0.662816 0.505742
Si Si6 0.210749 0.652489 0.229200
Si Si7 0.723177 0.589124 0.063815
Si Si8 0.325561 0.902891 0.836787
O O1 0.072736 0.715720 0.383115
O O2 0.992727 0.869235 0.511746
O O3 0.233220 0.974354 0.669077
O O4 0.000000 0.000000 0.000000
O O5 0.184177 0.255574 0.780190
O O6 0.000000 0.000000 0.500000
O O7 0.214133 0.983463 0.154737
O O8 0.500000 0.500000 0.500000
O O9 0.624040 0.333376 0.280129
O O10 0.408237 0.232687 0.072422
O O11 0.669191 0.324427 0.942567
O O12 0.500000 0.000000 0.500000
O O13 0.597185 0.980089 0.125306
O O14 0.583151 0.627019 0.314670
O O15 0.427186 0.831911 0.745382
O O16 0.317645 0.528387 0.257714
O O17 0.251391 0.759113 0.535600
O O18 0.189495 0.483084 0.002793
#
# Coordination Sequence:
#
# PCOD8016005 Si02
#       8
#     2   2   2   2   2   2   2   2
#     4  11  23  44  71  96 137 182 226 276 350 401
#     4  12  27  44  66  99 136 185 235 273 335 423
#     4  12  23  37  66 108 135 165 229 284 339 408
#     4  11  22  41  71 102 133 174 229 289 335 400
#     4  10  23  41  70  97 136 178 220 282 358 386
#     4  10  21  43  68  96 136 172 225 288 338 405
#     4  10  23  46  65  95 137 177 223 284 342 405
#     4  10  22  43  66  95 139 173 228 284 337 405
#
# _framework density 20.963393
#
# number of rings (size 3 to 8) (size 9 to 14) (size 15 to 20)
#    0.000    1.250    6.250    0.750    1.750    4.500 
#    0.000    2.500    0.000    0.000    0.000    0.000 
#    0.000    0.000    0.000    0.000    0.000    0.000 
#
# Total GULP energy -198220.805040 kJ/mol
# GULP energy per Si atom -12388.800315 kJ/mol
# Density = 2.091568 g / cm^3
# Si number density = 20.963393 Si / 1000 Ang^3
#
#
#
# Elastic Constant Matrix: (Units=GPa)
#
#
# Indices 1 2 3 4 5 6 
#
# 1 74.9586 4.9544 24.0031 13.4352 -20.3393 -2.9614
# 2 4.9544 99.9423 44.5975 17.4148 -8.4129 5.6404
# 3 24.0031 44.5975 100.5436 16.3233 -26.3974 5.4120
# 4 13.4352 17.4148 16.3233 31.9147 -0.4824 -8.0962
# 5 -20.3393 -8.4129 -26.3974 -0.4824 40.0577 8.9346
# 6 -2.9614 5.6404 5.4120 -8.0962 8.9346 29.9380
#
#
#
# Elastic Compliance Matrix: (Units=1/GPa)
#
#
# Indices 1 2 3 4 5 6 
#
# 1 0.017500 0.002119 -0.001042 -0.008773 0.009351 -0.003643
# 2 0.002119 0.013572 -0.004836 -0.006752 0.001493 -0.003745
# 3 -0.001042 -0.004836 0.016859 -0.007290 0.011159 -0.007541
# 4 -0.008773 -0.006752 -0.007290 0.046963 -0.014278 0.018683
# 5 0.009351 0.001493 0.011159 -0.014278 0.041111 -0.017504
# 6 -0.003643 -0.003745 -0.007541 0.018683 -0.017504 0.045387
#
#
# Mechanical properties :
#
#
# Convention : Reuss Voigt Hill
#
# Bulk Modulus (GPa) = 24.74491 46.95050 35.84770
# Shear Modulus (GPa) = 24.70552 33.84137 29.27345
#
# Velocity S-wave (km/s) = 3.43666 4.02220 3.74091
# Velocity P-wave (km/s) = 5.25138 6.63445 5.98301
#
# Compressibility (1/GPa) = 0.04041235
#
# Stress axis : x y z
#
# Youngs Moduli (GPa) = 57.14226 73.67906 59.31466
#
# Poissons Ratio (x) = -0.15613 0.06183
# Poissons Ratio (y) = -0.12109 0.28686
# Poissons Ratio (z) = 0.05957 0.35633
#
# Static dielectric constant tensor:
#      x y z
#    x 3.036960 -0.034510 -0.555560 
#    y -0.034510 2.708810 0.562930 
#    z -0.555560 0.562930 4.035400 
# 
# 
# High freq. dielectric constant tensor:
#      x y z
#    x 1.815590 -0.019190 -0.003700 
#    y -0.019190 1.811370 0.011660 
#    z -0.003700 0.011660 1.846230 
# 
# From -- ./inp_files/272709.got.cif
#   From: 2010.06.25/outbox.cif.g09.slc.cpg/sg2_137_cif.got.tgz:272709.got - 2010.06.27 13:26:56.
