data_PCOD8016840
_publ_section_title
;
Structure prediction by ZEFSAII (Michael W. Deem and Ramdas Pophale) SiO2 
 PCOD8016840
Probable space group: P -1
;
_chemical_formula_sum "Si O2"
_cell_formula_units_Z 14
_cell_length_a 11.649392
_cell_length_b 12.772560
_cell_length_c 10.908800
_cell_angle_alpha 102.729213
_cell_angle_beta 119.514157
_cell_angle_gamma 127.889904
_cell_volume 722.710513
_symmetry_space_group_name_H-M "P -1"
_symmetry_group_IT_number 2
_symmetry_cell_setting 'triclinic'
loop_
_space_group_symop_operation_xyz
x,y,z
-x,-y,-z
loop_
_atom_site_type_symbol
_atom_site_label
_atom_site_fract_x
_atom_site_fract_y
_atom_site_fract_z
Si Si1 0.296275 0.595720 0.114823
Si Si2 0.782385 0.407639 0.438192
Si Si3 0.850256 0.919113 0.524502
Si Si4 0.006654 0.590000 0.851930
Si Si5 0.340975 0.977659 0.979647
Si Si6 0.915107 0.732756 0.524653
Si Si7 0.216909 0.341379 0.837142
O O1 0.595589 0.808240 0.341099
O O2 0.172480 0.495038 0.156045
O O3 0.211419 0.646857 0.020523
O O4 0.210511 0.438095 0.945911
O O5 0.774532 0.530947 0.450595
O O6 0.000000 0.500000 0.500000
O O7 0.833439 0.417049 0.610093
O O8 0.511795 0.178856 0.195639
O O9 0.783419 0.754661 0.502362
O O10 0.000000 0.000000 0.500000
O O11 0.047891 0.130465 0.759185
O O12 0.151776 0.793712 0.929418
O O13 0.192908 0.934785 0.781448
O O14 0.500000 0.000000 0.000000
O O15 0.923973 0.725739 0.380791
O O16 0.500000 0.500000 0.000000
#
# Coordination Sequence:
#
# PCOD8016840 Si02
#       7
#     2   2   2   2   2   2   2
#     4  11  23  42  63  92 138 157 203 260 313 379
#     4  11  21  39  63  89 121 167 211 256 302 367
#     4  10  22  37  61  93 121 164 208 256 303 364
#     4  10  25  41  62  97 126 169 199 256 323 365
#     4  11  23  37  62  89 124 161 213 260 294 371
#     4  10  22  36  60  97 117 155 214 256 309 347
#     4  11  22  36  64  96 123 164 207 256 310 367
#
# _framework density 19.371517999999998
#
# number of rings (size 3 to 8) (size 9 to 14) (size 15 to 20)
#    0.000    1.429    5.714    0.857    6.000    1.143 
#    0.000    5.714    0.000    5.143    0.000    0.000 
#    0.000    0.000    0.000    0.000    0.000    0.000 
#
# Total GULP energy -173520.777282 kJ/mol
# GULP energy per Si atom -12394.341234 kJ/mol
# Density = 1.932743 g / cm^3
# Si number density = 19.371518 Si / 1000 Ang^3
#
#
#
# Elastic Constant Matrix: (Units=GPa)
#
#
# Indices 1 2 3 4 5 6 
#
# 1 100.6574 41.7404 59.7432 0.4866 4.7117 6.3310
# 2 41.7404 88.7194 57.1683 4.8584 -0.6882 -4.6736
# 3 59.7432 57.1683 171.1610 10.6954 -3.5637 2.2603
# 4 0.4866 4.8584 10.6954 39.3530 -5.2279 -8.0428
# 5 4.7117 -0.6882 -3.5637 -5.2279 30.9787 -2.0412
# 6 6.3310 -4.6736 2.2603 -8.0428 -2.0412 29.2548
#
#
#
# Elastic Compliance Matrix: (Units=1/GPa)
#
#
# Indices 1 2 3 4 5 6 
#
# 1 0.014311 -0.004752 -0.003431 0.000194 -0.002891 -0.003740
# 2 -0.004752 0.016152 -0.003771 0.000022 0.000913 0.003970
# 3 -0.003431 -0.003771 0.008449 -0.001844 0.001036 -0.000947
# 4 0.000194 0.000022 -0.001844 0.028262 0.005070 0.008228
# 5 -0.002891 0.000913 0.001036 0.005070 0.034009 0.004458
# 6 -0.003740 0.003970 -0.000947 0.008228 0.004458 0.038272
#
#
# Mechanical properties :
#
#
# Convention : Reuss Voigt Hill
#
# Bulk Modulus (GPa) = 66.64900 75.31572 70.98236
# Shear Modulus (GPa) = 29.69730 33.37638 31.53684
#
# Velocity S-wave (km/s) = 3.91965 4.15536 4.03923
# Velocity P-wave (km/s) = 7.41386 7.87316 7.64696
#
# Compressibility (1/GPa) = 0.01500398
#
# Stress axis : x y z
#
# Youngs Moduli (GPa) = 69.87469 61.91087 118.35962
#
# Poissons Ratio (x) = 0.29423 0.40608
# Poissons Ratio (y) = 0.33207 0.44632
# Poissons Ratio (z) = 0.23973 0.23346
#
# Static dielectric constant tensor:
#      x y z
#    x 3.618660 -0.341080 -0.089620 
#    y -0.341080 4.169970 0.225920 
#    z -0.089620 0.225920 4.130740 
# 
# 
# High freq. dielectric constant tensor:
#      x y z
#    x 1.737560 -0.023150 -0.002960 
#    y -0.023150 1.749480 0.002440 
#    z -0.002960 0.002440 1.772270 
# 
# From -- ./inp_files/427615.got.cif
#   From: 2010.06.25/outbox.cif.g09.slc.cpg/sg2_214_cif.got.tgz:427615.got - 2010.06.27 13:26:56.
