data_PCOD8016040
_publ_section_title
;
Structure prediction by ZEFSAII (Michael W. Deem and Ramdas Pophale) SiO2 
 PCOD8016040
Probable space group: P -1
;
_chemical_formula_sum "Si O2"
_cell_formula_units_Z 16
_cell_length_a 17.672534
_cell_length_b 9.242085
_cell_length_c 12.657046
_cell_angle_alpha 53.711931
_cell_angle_beta 133.265722
_cell_angle_gamma 149.388428
_cell_volume 766.543591
_symmetry_space_group_name_H-M "P -1"
_symmetry_group_IT_number 2
_symmetry_cell_setting 'triclinic'
loop_
_space_group_symop_operation_xyz
x,y,z
-x,-y,-z
loop_
_atom_site_type_symbol
_atom_site_label
_atom_site_fract_x
_atom_site_fract_y
_atom_site_fract_z
Si Si1 0.360159 0.192938 0.112838
Si Si2 0.065090 0.289009 0.808197
Si Si3 0.284365 0.171659 0.824476
Si Si4 0.238789 0.270727 0.140362
Si Si5 0.140763 0.348015 0.621559
Si Si6 0.522968 0.044394 0.378893
Si Si7 0.159144 0.818569 0.660088
Si Si8 0.522606 0.718602 0.371133
O O1 0.522030 0.532078 0.121677
O O2 0.256572 0.123152 0.143675
O O3 0.406823 0.047726 0.226260
O O4 0.247922 0.062346 0.956953
O O5 0.146961 0.331397 0.760642
O O6 0.064056 0.503301 0.712053
O O7 0.169062 0.351109 0.978528
O O8 0.880895 0.963502 0.781043
O O9 0.174832 0.195672 0.674070
O O10 0.242186 0.960255 0.792178
O O11 0.406052 0.565625 0.223809
O O12 0.285694 0.672123 0.583686
O O13 0.968952 0.195596 0.482995
O O14 0.500000 0.000000 0.500000
O O15 0.467772 0.792216 0.373143
O O16 0.293267 0.998479 0.616926
O O17 0.500000 0.500000 0.500000
#
# Coordination Sequence:
#
# PCOD8016040 Si02
#       8
#     2   2   2   2   2   2   2   2
#     4  10  21  43  69  91 134 171 217 274 329 388
#     4  11  25  44  68  99 133 178 214 277 340 382
#     4  10  22  41  66  98 127 174 220 271 330 387
#     4  11  24  46  69  96 137 173 222 274 328 394
#     4  11  23  44  64  96 137 174 218 271 334 396
#     4  11  26  42  67  98 132 176 217 271 334 392
#     4  12  25  41  71  97 132 176 226 272 326 393
#     4  12  26  43  69 100 131 171 229 273 321 397
#
# _framework density 20.872917000000001
#
# number of rings (size 3 to 8) (size 9 to 14) (size 15 to 20)
#    0.000    1.000    3.750    2.250    7.000    0.500 
#    2.250    0.625    0.000    0.000    0.000    0.000 
#    0.000    0.000    0.000    0.000    0.000    0.000 
#
# Total GULP energy -198438.785375 kJ/mol
# GULP energy per Si atom -12402.424086 kJ/mol
# Density = 2.082541 g / cm^3
# Si number density = 20.872917 Si / 1000 Ang^3
#
#
#
# Elastic Constant Matrix: (Units=GPa)
#
#
# Indices 1 2 3 4 5 6 
#
# 1 99.8320 30.5020 26.2441 -1.1507 -13.8396 -0.5208
# 2 30.5020 74.5277 35.2176 -17.1387 -3.2502 4.2578
# 3 26.2441 35.2176 95.3715 -0.1449 -3.5206 4.5446
# 4 -1.1507 -17.1387 -0.1449 22.3972 4.0159 -3.7502
# 5 -13.8396 -3.2502 -3.5206 4.0159 43.5961 -0.5483
# 6 -0.5208 4.2578 4.5446 -3.7502 -0.5483 41.8608
#
#
#
# Elastic Compliance Matrix: (Units=1/GPa)
#
#
# Indices 1 2 3 4 5 6 
#
# 1 0.012465 -0.005216 -0.001394 -0.003957 0.003827 0.000533
# 2 -0.005216 0.022819 -0.007039 0.017518 -0.002138 -0.000080
# 3 -0.001394 -0.007039 0.013544 -0.005698 0.000635 -0.001274
# 4 -0.003957 0.017518 -0.005698 0.059538 -0.005844 0.004045
# 5 0.003827 -0.002138 0.000635 -0.005844 0.024583 -0.000005
# 6 0.000533 -0.000080 -0.001274 0.004045 -0.000005 0.024404
#
#
# Mechanical properties :
#
#
# Convention : Reuss Voigt Hill
#
# Bulk Modulus (GPa) = 46.45060 50.40649 48.42855
# Shear Modulus (GPa) = 26.06508 33.42200 29.74354
#
# Velocity S-wave (km/s) = 3.53760 4.00586 3.77899
# Velocity P-wave (km/s) = 6.24408 6.75259 6.50331
#
# Compressibility (1/GPa) = 0.02152824
#
# Stress axis : x y z
#
# Youngs Moduli (GPa) = 80.22678 43.82333 73.83456
#
# Poissons Ratio (x) = 0.22859 0.10292
# Poissons Ratio (y) = 0.41849 0.51975
# Poissons Ratio (z) = 0.11183 0.30849
#
# Static dielectric constant tensor:
#      x y z
#    x 3.927080 0.028400 -0.074420 
#    y 0.028400 3.678560 -0.037670 
#    z -0.074420 -0.037670 3.821410 
# 
# 
# High freq. dielectric constant tensor:
#      x y z
#    x 1.831950 -0.000040 -0.001800 
#    y -0.000040 1.802870 -0.004840 
#    z -0.001800 -0.004840 1.827800 
# 
# From -- ./inp_files/379021.got.cif
#   From: 2010.06.25/outbox.cif.g09.slc.cpg/sg2_190_cif.got.tgz:379021.got - 2010.06.27 13:26:56.
