data_PCOD8016128
_publ_section_title
;
Structure prediction by ZEFSAII (Michael W. Deem and Ramdas Pophale) SiO2 
 PCOD8016128
Probable space group: P -1
;
_chemical_formula_sum "Si O2"
_cell_formula_units_Z 16
_cell_length_a 12.708153
_cell_length_b 16.897888
_cell_length_c 9.629928
_cell_angle_alpha 80.080312
_cell_angle_beta 36.259509
_cell_angle_gamma 52.755031
_cell_volume 722.221095
_symmetry_space_group_name_H-M "P -1"
_symmetry_group_IT_number 2
_symmetry_cell_setting 'triclinic'
loop_
_space_group_symop_operation_xyz
x,y,z
-x,-y,-z
loop_
_atom_site_type_symbol
_atom_site_label
_atom_site_fract_x
_atom_site_fract_y
_atom_site_fract_z
Si Si1 0.485118 0.981901 0.178702
Si Si2 0.512412 0.362734 0.736905
Si Si3 0.181435 0.367550 0.264774
Si Si4 0.929190 0.636034 0.137270
Si Si5 0.968227 0.330065 0.272490
Si Si6 0.440997 0.167227 0.284703
Si Si7 0.338338 0.787344 0.626949
Si Si8 0.007590 0.058415 0.798328
O O1 0.531742 0.042464 0.206317
O O2 0.158589 0.063726 0.527661
O O3 0.500000 0.000000 0.000000
O O4 0.728641 0.828214 0.000424
O O5 0.713152 0.255969 0.429967
O O6 0.687709 0.376826 0.604192
O O7 0.474073 0.306542 0.910121
O O8 0.181008 0.503239 0.000017
O O9 0.988548 0.398178 0.335541
O O10 0.266924 0.264454 0.307484
O O11 0.000000 0.500000 0.500000
O O12 0.753710 0.759276 0.390286
O O13 0.688304 0.657728 0.333422
O O14 0.081786 0.623943 0.846936
O O15 0.743561 0.107085 0.991027
O O16 0.258530 0.907441 0.634109
O O17 0.127198 0.838794 0.963884
#
# Coordination Sequence:
#
# PCOD8016128 Si02
#       8
#     2   2   2   2   2   2   2   2
#     4  12  25  44  69  99 144 178 223 287 337 412
#     4  12  25  43  72 101 136 186 227 283 344 404
#     4  12  26  49  69  99 146 183 226 285 337 415
#     4  11  23  47  69 102 141 175 235 284 334 412
#     4  12  27  45  71 104 136 182 234 281 345 408
#     4  11  26  44  71 105 135 184 229 276 350 402
#     4  10  21  43  71 101 135 181 228 285 347 397
#     4  10  23  43  68 102 138 176 231 284 341 409
#
# _framework density 22.153880000000001
#
# number of rings (size 3 to 8) (size 9 to 14) (size 15 to 20)
#    0.000    0.750    5.000    1.500    3.500    1.500 
#    2.250    0.000    0.000    0.000    0.000    0.000 
#    0.000    0.000    0.000    0.000    0.000    0.000 
#
# Total GULP energy -198439.833625 kJ/mol
# GULP energy per Si atom -12402.489602 kJ/mol
# Density = 2.210346 g / cm^3
# Si number density = 22.153880 Si / 1000 Ang^3
#
#
#
# Elastic Constant Matrix: (Units=GPa)
#
#
# Indices 1 2 3 4 5 6 
#
# 1 121.7895 23.7350 57.9694 -12.6327 13.7964 19.3906
# 2 23.7350 42.9001 23.4523 -4.7819 -2.0790 8.3601
# 3 57.9694 23.4523 121.7759 -18.5283 -3.2010 12.7751
# 4 -12.6327 -4.7819 -18.5283 43.0923 2.5032 1.3384
# 5 13.7964 -2.0790 -3.2010 2.5032 30.6227 4.8848
# 6 19.3906 8.3601 12.7751 1.3384 4.8848 36.2468
#
#
#
# Elastic Compliance Matrix: (Units=1/GPa)
#
#
# Indices 1 2 3 4 5 6 
#
# 1 0.012661 -0.003796 -0.004841 0.001667 -0.006056 -0.003437
# 2 -0.003796 0.028068 -0.002990 0.000613 0.003881 -0.003935
# 3 -0.004841 -0.002990 0.011811 0.003187 0.003180 -0.001429
# 4 0.001667 0.000613 0.003187 0.025337 -0.001997 -0.002823
# 5 -0.006056 0.003881 0.003180 -0.001997 0.036726 -0.003652
# 6 -0.003437 -0.003935 -0.001429 -0.002823 -0.003652 0.031435
#
#
# Mechanical properties :
#
#
# Convention : Reuss Voigt Hill
#
# Bulk Modulus (GPa) = 34.14760 55.19765 44.67262
# Shear Modulus (GPa) = 27.92453 34.07960 31.00206
#
# Velocity S-wave (km/s) = 3.55418 3.92639 3.74491
# Velocity P-wave (km/s) = 5.68244 6.74722 6.23760
#
# Compressibility (1/GPa) = 0.02928463
#
# Stress axis : x y z
#
# Youngs Moduli (GPa) = 78.98196 35.62745 84.66986
#
# Poissons Ratio (x) = 0.13526 0.40988
# Poissons Ratio (y) = 0.29985 0.25319
# Poissons Ratio (z) = 0.38235 0.10654
#
# Static dielectric constant tensor:
#      x y z
#    x 4.100190 0.022770 0.182020 
#    y 0.022770 3.118620 0.089290 
#    z 0.182020 0.089290 4.055850 
# 
# 
# High freq. dielectric constant tensor:
#      x y z
#    x 1.875090 -0.001010 0.011090 
#    y -0.001010 1.865870 -0.000970 
#    z 0.011090 -0.000970 1.880260 
# 
# From -- ./inp_files/279353.got.cif
#   From: 2010.06.25/outbox.cif.g09.slc.cpg/sg2_140_cif.got.tgz:279353.got - 2010.06.27 13:26:56.
