data_PCOD8016067
_publ_section_title
;
Structure prediction by ZEFSAII (Michael W. Deem and Ramdas Pophale) SiO2 
 PCOD8016067
Probable space group: P -1
;
_chemical_formula_sum "Si O2"
_cell_formula_units_Z 16
_cell_length_a 14.740683
_cell_length_b 19.159542
_cell_length_c 8.602644
_cell_angle_alpha 63.434802
_cell_angle_beta 104.677682
_cell_angle_gamma 158.695609
_cell_volume 682.644625
_symmetry_space_group_name_H-M "P -1"
_symmetry_group_IT_number 2
_symmetry_cell_setting 'triclinic'
loop_
_space_group_symop_operation_xyz
x,y,z
-x,-y,-z
loop_
_atom_site_type_symbol
_atom_site_label
_atom_site_fract_x
_atom_site_fract_y
_atom_site_fract_z
Si Si1 0.493394 0.771916 0.974027
Si Si2 0.316045 0.603021 0.408427
Si Si3 0.442497 0.322837 0.328485
Si Si4 0.417745 0.029998 0.793625
Si Si5 0.002793 0.908139 0.297943
Si Si6 0.694973 0.095577 0.782908
Si Si7 0.458730 0.509806 0.280811
Si Si8 0.184321 0.409567 0.039510
O O1 0.392926 0.653782 0.210288
O O2 0.267327 0.565479 0.951359
O O3 0.489106 0.862021 0.878083
O O4 0.808636 0.988916 0.848832
O O5 0.550391 0.735500 0.472257
O O6 0.991242 0.323266 0.589549
O O7 0.335561 0.711034 0.345612
O O8 0.415806 0.388281 0.317886
O O9 0.758071 0.564223 0.142241
O O10 0.183240 0.100032 0.314168
O O11 0.141225 0.858733 0.773624
O O12 0.533138 0.049831 0.718452
O O13 0.275313 0.884862 0.036676
O O14 0.767813 0.773475 0.230826
O O15 0.801961 0.684280 0.516307
O O16 0.420219 0.541822 0.097326
#
# Coordination Sequence:
#
# PCOD8016067 Si02
#       8
#     2   2   2   2   2   2   2   2
#     4  10  25  41  68  99 138 177 217 283 336 399
#     4  11  22  42  71 100 133 179 221 275 340 400
#     4  11  23  43  67  97 136 182 226 275 333 407
#     4  10  22  41  70 100 131 173 224 281 327 410
#     4  10  24  43  63  98 133 179 223 283 329 397
#     4  10  21  43  69  98 133 174 225 271 343 401
#     4  11  24  42  70  94 138 178 230 280 333 398
#     4  11  24  44  64 101 135 178 224 278 336 398
#
# _framework density 23.438257
#
# number of rings (size 3 to 8) (size 9 to 14) (size 15 to 20)
#    0.000    1.500    1.250    2.625    7.000    2.500 
#    4.500    0.625    0.000    0.000    0.000    0.000 
#    0.000    0.000    0.000    0.000    0.000    0.000 
#
# Total GULP energy -198267.231526 kJ/mol
# GULP energy per Si atom -12391.701970 kJ/mol
# Density = 2.338491 g / cm^3
# Si number density = 23.438257 Si / 1000 Ang^3
#
#
#
# Elastic Constant Matrix: (Units=GPa)
#
#
# Indices 1 2 3 4 5 6 
#
# 1 91.1201 11.3587 33.7179 0.5645 -3.5594 -3.5029
# 2 11.3587 53.1938 11.2504 -8.2480 -5.3117 4.4931
# 3 33.7179 11.2504 92.7554 -10.1529 -12.6724 -4.3320
# 4 0.5645 -8.2480 -10.1529 31.1196 2.6450 0.3354
# 5 -3.5594 -5.3117 -12.6724 2.6450 33.9475 -2.3427
# 6 -3.5029 4.4931 -4.3320 0.3354 -2.3427 24.3362
#
#
#
# Elastic Compliance Matrix: (Units=1/GPa)
#
#
# Indices 1 2 3 4 5 6 
#
# 1 0.013065 -0.002329 -0.004723 -0.002371 -0.000472 0.001457
# 2 -0.002329 0.020866 -0.001060 0.005108 0.001933 -0.004261
# 3 -0.004723 -0.001060 0.013753 0.003899 0.004330 0.002327
# 4 -0.002371 0.005108 0.003899 0.034883 -0.000791 -0.001147
# 5 -0.000472 0.001933 0.004330 -0.000791 0.031623 0.003401
# 6 0.001457 -0.004261 0.002327 -0.001147 0.003401 0.042845
#
#
# Mechanical properties :
#
#
# Convention : Reuss Voigt Hill
#
# Bulk Modulus (GPa) = 31.78568 38.85815 35.32191
# Shear Modulus (GPa) = 27.21183 29.93015 28.57099
#
# Velocity S-wave (km/s) = 3.41104 3.57736 3.49519
# Velocity P-wave (km/s) = 5.39486 5.80330 5.60280
#
# Compressibility (1/GPa) = 0.03146071
#
# Stress axis : x y z
#
# Youngs Moduli (GPa) = 76.54248 47.92581 72.70949
#
# Poissons Ratio (x) = 0.11161 0.34338
# Poissons Ratio (y) = 0.17825 0.07708
# Poissons Ratio (z) = 0.36149 0.05080
#
# Static dielectric constant tensor:
#      x y z
#    x 4.200840 -0.018410 -0.109060 
#    y -0.018410 4.127520 -0.074500 
#    z -0.109060 -0.074500 4.339000 
# 
# 
# High freq. dielectric constant tensor:
#      x y z
#    x 1.930090 -0.005760 -0.006410 
#    y -0.005760 1.912730 -0.013150 
#    z -0.006410 -0.013150 1.936330 
# 
# From -- ./inp_files/319311.got.cif
#   From: 2010.06.25/outbox.cif.g09.slc.cpg/sg2_160_cif.got.tgz:319311.got - 2010.06.27 13:26:56.
