data_PCOD8016462
_publ_section_title
;
Structure prediction by ZEFSAII (Michael W. Deem and Ramdas Pophale) SiO2 
 PCOD8016462
Probable space group: P -1
;
_chemical_formula_sum "Si O2"
_cell_formula_units_Z 16
_cell_length_a 15.136697
_cell_length_b 13.463413
_cell_length_c 14.439377
_cell_angle_alpha 148.356564
_cell_angle_beta 29.755330
_cell_angle_gamma 127.216127
_cell_volume 656.464099
_symmetry_space_group_name_H-M "P -1"
_symmetry_group_IT_number 2
_symmetry_cell_setting 'triclinic'
loop_
_space_group_symop_operation_xyz
x,y,z
-x,-y,-z
loop_
_atom_site_type_symbol
_atom_site_label
_atom_site_fract_x
_atom_site_fract_y
_atom_site_fract_z
Si Si1 0.487808 0.372893 0.320877
Si Si2 0.036354 0.808033 0.581148
Si Si3 0.633818 0.697106 0.142834
Si Si4 0.961468 0.506333 0.148203
Si Si5 0.657678 0.408612 0.563703
Si Si6 0.895128 0.937690 0.621865
Si Si7 0.114813 0.135084 0.852549
Si Si8 0.771124 0.674828 0.807954
O O1 0.500000 0.500000 0.500000
O O2 0.276568 0.381753 0.525716
O O3 0.489029 0.484760 0.309381
O O4 0.651903 0.111849 0.968512
O O5 0.961415 0.968125 0.687692
O O6 0.817839 0.854710 0.862938
O O7 0.179373 0.555316 0.220287
O O8 0.167298 0.885367 0.585813
O O9 0.601974 0.764506 0.116306
O O10 0.432611 0.717621 0.393006
O O11 0.703510 0.863855 0.253082
O O12 0.000069 0.676460 0.303802
O O13 0.000000 0.500000 0.000000
O O14 0.097500 0.263750 0.875192
O O15 0.668744 0.593482 0.760824
O O16 0.895625 0.239190 0.187225
O O17 0.000000 0.000000 0.500000
O O18 0.000000 0.500000 0.500000
#
# Coordination Sequence:
#
# PCOD8016462 Si02
#       8
#     2   2   2   2   2   2   2   2
#     4  11  24  39  63 101 132 175 223 269 333 405
#     4  11  22  43  68  95 139 178 222 273 337 402
#     4  11  23  44  71  97 132 177 226 278 339 396
#     4  11  23  40  62  91 136 176 226 274 329 402
#     4  11  22  44  69  97 138 172 224 281 330 403
#     4  12  22  40  64  97 134 181 219 271 339 399
#     4  11  23  43  65  97 136 176 216 281 333 394
#     4  10  21  44  71  94 130 180 221 281 346 388
#
# _framework density 24.373003000000001
#
# number of rings (size 3 to 8) (size 9 to 14) (size 15 to 20)
#    0.000    1.000    3.750    5.250    1.750    0.500 
#    2.250    0.625    0.000    0.000    0.000    0.000 
#    0.000    0.000    0.000    0.000    0.000    0.000 
#
# Total GULP energy -198220.511781 kJ/mol
# GULP energy per Si atom -12388.781986 kJ/mol
# Density = 2.431753 g / cm^3
# Si number density = 24.373003 Si / 1000 Ang^3
#
#
#
# Elastic Constant Matrix: (Units=GPa)
#
#
# Indices 1 2 3 4 5 6 
#
# 1 139.3756 46.5161 0.4210 -6.5127 33.2892 4.3119
# 2 46.5161 151.7891 5.4195 -16.0281 30.9244 8.2747
# 3 0.4210 5.4195 21.6455 -0.9750 16.6343 -6.2637
# 4 -6.5127 -16.0281 -0.9750 37.6040 0.7139 17.5970
# 5 33.2892 30.9244 16.6343 0.7139 29.1110 -4.5517
# 6 4.3119 8.2747 -6.2637 17.5970 -4.5517 49.7343
#
#
#
# Elastic Compliance Matrix: (Units=1/GPa)
#
#
# Indices 1 2 3 4 5 6 
#
# 1 0.015175 0.002686 0.025464 0.007141 -0.035610 -0.004341
# 2 0.002686 0.011612 0.015124 0.008969 -0.025166 -0.005737
# 3 0.025464 0.015124 0.137118 0.019490 -0.124917 -0.005783
# 4 0.007141 0.008969 0.019490 0.040754 -0.032495 -0.017050
# 5 -0.035610 -0.025166 -0.124917 -0.032495 0.176989 0.019237
# 6 -0.004341 -0.005737 -0.005783 -0.017050 0.019237 0.028503
#
#
# Mechanical properties :
#
#
# Convention : Reuss Voigt Hill
#
# Bulk Modulus (GPa) = 3.99278 46.39150 25.19214
# Shear Modulus (GPa) = 12.28238 40.65342 26.46790
#
# Velocity S-wave (km/s) = 2.24728 4.08851 3.29895
# Velocity P-wave (km/s) = 2.89404 6.43142 4.98691
#
# Compressibility (1/GPa) = 0.25045234
#
# Stress axis : x y z
#
# Youngs Moduli (GPa) = 65.89877 86.11956 7.29297
#
# Poissons Ratio (x) = -0.23133 -0.18571
# Poissons Ratio (y) = -0.17702 -0.11030
# Poissons Ratio (z) = -1.67803 -1.30245
#
# Static dielectric constant tensor:
#      x y z
#    x 4.460370 -0.008020 0.458620 
#    y -0.008020 4.621720 -0.428900 
#    z 0.458620 -0.428900 4.219430 
# 
# 
# High freq. dielectric constant tensor:
#      x y z
#    x 1.981330 -0.004990 0.012350 
#    y -0.004990 1.983670 -0.008420 
#    z 0.012350 -0.008420 1.958630 
# 
# From -- ./inp_files/534497.got.cif
#   From: 2010.06.25/outbox.cif.g09.slc.cpg/sg2_268_cif.got.tgz:534497.got - 2010.06.27 13:26:56.
