data_PCOD8016262
_publ_section_title
;
Structure prediction by ZEFSAII (Michael W. Deem and Ramdas Pophale) SiO2 
 PCOD8016262
Probable space group: P -1
;
_chemical_formula_sum "Si O2"
_cell_formula_units_Z 14
_cell_length_a 14.205895
_cell_length_b 10.271618
_cell_length_c 10.559748
_cell_angle_alpha 39.147976
_cell_angle_beta 99.171299
_cell_angle_gamma 123.404253
_cell_volume 699.642843
_symmetry_space_group_name_H-M "P -1"
_symmetry_group_IT_number 2
_symmetry_cell_setting 'triclinic'
loop_
_space_group_symop_operation_xyz
x,y,z
-x,-y,-z
loop_
_atom_site_type_symbol
_atom_site_label
_atom_site_fract_x
_atom_site_fract_y
_atom_site_fract_z
Si Si1 0.940565 0.589605 0.834368
Si Si2 0.139016 0.106160 0.303352
Si Si3 0.224893 0.859636 0.068805
Si Si4 0.117307 0.046613 0.050332
Si Si5 0.560624 0.510028 0.877239
Si Si6 0.613387 0.530546 0.322563
Si Si7 0.436944 0.931707 0.174429
O O1 0.881572 0.680852 0.840857
O O2 0.823213 0.319116 0.933162
O O3 0.047841 0.837317 0.576338
O O4 0.000000 0.500000 0.000000
O O5 0.099379 0.997331 0.233410
O O6 0.284055 0.251562 0.259820
O O7 0.112135 0.812408 0.159544
O O8 0.287520 0.784668 0.233887
O O9 0.338256 0.192311 0.801216
O O10 0.260933 0.361740 0.815551
O O11 0.000000 0.000000 0.000000
O O12 0.510814 0.592979 0.696396
O O13 0.500000 0.500000 0.000000
O O14 0.515930 0.210153 0.067257
O O15 0.564574 0.288741 0.591334
O O16 0.500000 0.000000 0.000000
#
# Coordination Sequence:
#
# PCOD8016262 Si02
#       7
#     2   2   2   2   2   2   2
#     4  11  25  42  62  98 127 169 211 255 324 376
#     4  11  24  42  66  92 134 166 204 269 311 376
#     4   9  22  42  62  93 126 155 219 256 309 373
#     4  10  21  44  65  91 125 165 209 263 314 364
#     4  11  22  46  62  97 131 162 216 256 316 378
#     4   9  23  42  66  91 127 160 213 264 303 375
#     4  11  23  40  67  92 124 171 206 254 320 369
#
# _framework density 20.010209
#
# number of rings (size 3 to 8) (size 9 to 14) (size 15 to 20)
#    0.857    0.857    1.429    1.714    2.000    8.000 
#    7.714    0.000    0.000    0.000    0.000    0.000 
#    0.000    0.000    0.000    0.000    0.000    0.000 
#
# Total GULP energy -173556.982815 kJ/mol
# GULP energy per Si atom -12396.927344 kJ/mol
# Density = 1.996466 g / cm^3
# Si number density = 20.010209 Si / 1000 Ang^3
#
#
#
# Elastic Constant Matrix: (Units=GPa)
#
#
# Indices 1 2 3 4 5 6 
#
# 1 129.3825 29.2250 48.0320 4.8801 14.6315 16.6883
# 2 29.2250 107.0712 37.8174 1.7622 15.5755 -0.8142
# 3 48.0320 37.8174 109.9723 11.0566 24.4946 -1.2606
# 4 4.8801 1.7622 11.0566 19.1657 -0.5838 -1.8305
# 5 14.6315 15.5755 24.4946 -0.5838 37.4112 4.9998
# 6 16.6883 -0.8142 -1.2606 -1.8305 4.9998 48.6271
#
#
#
# Elastic Compliance Matrix: (Units=1/GPa)
#
#
# Indices 1 2 3 4 5 6 
#
# 1 0.009956 -0.001341 -0.003780 -0.000579 -0.000399 -0.003518
# 2 -0.001341 0.011014 -0.002762 0.000932 -0.002352 0.000850
# 3 -0.003780 -0.002762 0.013937 -0.006836 -0.006879 0.002062
# 4 -0.000579 0.000932 -0.006836 0.056491 0.004975 0.001652
# 5 -0.000399 -0.002352 -0.006879 0.004975 0.032885 -0.003275
# 6 -0.003518 0.000850 0.002062 0.001652 -0.003275 0.022239
#
#
# Mechanical properties :
#
#
# Convention : Reuss Voigt Hill
#
# Bulk Modulus (GPa) = 52.24537 64.06387 58.15462
# Shear Modulus (GPa) = 29.64362 36.46425 33.05393
#
# Velocity S-wave (km/s) = 3.85310 4.27345 4.06871
# Velocity P-wave (km/s) = 6.77947 7.51232 7.15528
#
# Compressibility (1/GPa) = 0.01914045
#
# Stress axis : x y z
#
# Youngs Moduli (GPa) = 100.43954 90.78978 71.74970
#
# Poissons Ratio (x) = 0.12179 0.27125
# Poissons Ratio (y) = 0.13474 0.19816
# Poissons Ratio (z) = 0.37971 0.25075
#
# Static dielectric constant tensor:
#      x y z
#    x 3.867570 0.163680 0.039130 
#    y 0.163680 4.674030 -0.123240 
#    z 0.039130 -0.123240 3.396730 
# 
# 
# High freq. dielectric constant tensor:
#      x y z
#    x 1.801950 0.002420 0.003650 
#    y 0.002420 1.787750 0.004840 
#    z 0.003650 0.004840 1.763670 
# 
# From -- ./inp_files/294135.got.cif
#   From: 2010.06.25/outbox.cif.g09.slc.cpg/sg2_148_cif.got.tgz:294135.got - 2010.06.27 13:26:56.
