data_PCOD8016394
_publ_section_title
;
Structure prediction by ZEFSAII (Michael W. Deem and Ramdas Pophale) SiO2 
 PCOD8016394
Probable space group: P -1
;
_chemical_formula_sum "Si O2"
_cell_formula_units_Z 16
_cell_length_a 6.938312
_cell_length_b 8.921702
_cell_length_c 16.563649
_cell_angle_alpha 113.382949
_cell_angle_beta 71.622092
_cell_angle_gamma 127.438347
_cell_volume 743.384165
_symmetry_space_group_name_H-M "P -1"
_symmetry_group_IT_number 2
_symmetry_cell_setting 'triclinic'
loop_
_space_group_symop_operation_xyz
x,y,z
-x,-y,-z
loop_
_atom_site_type_symbol
_atom_site_label
_atom_site_fract_x
_atom_site_fract_y
_atom_site_fract_z
Si Si1 0.055844 0.434600 0.799194
Si Si2 0.710103 0.791921 0.972789
Si Si3 0.720936 0.615871 0.095138
Si Si4 0.170064 0.864126 0.871306
Si Si5 0.494517 0.835501 0.236531
Si Si6 0.130243 0.387062 0.470620
Si Si7 0.679839 0.972263 0.418244
Si Si8 0.341054 0.396255 0.614018
O O1 0.063104 0.346567 0.866332
O O2 0.117739 0.652185 0.850384
O O3 0.262140 0.454560 0.717557
O O4 0.792805 0.274754 0.764057
O O5 0.441602 0.618620 0.946780
O O6 0.909004 0.841277 0.887166
O O7 0.811116 0.727451 0.021950
O O8 0.701675 0.980118 0.037712
O O9 0.558293 0.679195 0.173665
O O10 0.344297 0.962353 0.791805
O O11 0.546429 0.892817 0.334284
O O12 0.203570 0.413964 0.560312
O O13 0.366502 0.464019 0.400571
O O14 0.000000 0.500000 0.500000
O O15 0.945342 0.167871 0.417795
O O16 0.731963 0.824595 0.422187
O O17 0.500000 0.000000 0.500000
#
# Coordination Sequence:
#
# PCOD8016394 Si02
#       8
#     2   2   2   2   2   2   2   2
#     4  12  25  42  67  99 137 175 219 281 332 395
#     4   9  20  45  69  95 133 174 227 272 336 404
#     4  10  21  44  69  93 134 177 218 280 334 398
#     4  10  23  42  67  98 132 176 216 281 329 395
#     4  11  25  44  63 100 135 176 224 268 342 395
#     4  11  25  45  71 101 134 177 223 283 334 398
#     4  12  24  44  73  94 135 184 219 278 333 394
#     4  11  26  44  67 104 134 174 233 270 339 404
#
# _framework density 21.523192000000002
#
# number of rings (size 3 to 8) (size 9 to 14) (size 15 to 20)
#    0.000    1.250    3.750    1.125    1.750    3.000 
#    6.750    0.000    0.000    0.000    0.000    0.000 
#    0.000    0.000    0.000    0.000    0.000    0.000 
#
# Total GULP energy -198364.555550 kJ/mol
# GULP energy per Si atom -12397.784722 kJ/mol
# Density = 2.147420 g / cm^3
# Si number density = 21.523192 Si / 1000 Ang^3
#
#
#
# Elastic Constant Matrix: (Units=GPa)
#
#
# Indices 1 2 3 4 5 6 
#
# 1 117.5665 47.4689 34.8708 -4.3303 7.7211 4.4358
# 2 47.4689 114.4264 28.2204 5.1889 0.8539 17.1911
# 3 34.8708 28.2204 90.2945 -1.7804 -9.0639 3.0967
# 4 -4.3303 5.1889 -1.7804 34.1053 -0.2731 0.4736
# 5 7.7211 0.8539 -9.0639 -0.2731 34.8383 4.8715
# 6 4.4358 17.1911 3.0967 0.4736 4.8715 34.8460
#
#
#
# Elastic Compliance Matrix: (Units=1/GPa)
#
#
# Indices 1 2 3 4 5 6 
#
# 1 0.011470 -0.004161 -0.003494 0.001860 -0.003526 0.001371
# 2 -0.004161 0.011809 -0.001865 -0.002343 0.000859 -0.005219
# 3 -0.003494 -0.001865 0.013475 0.000585 0.004394 -0.000455
# 4 0.001860 -0.002343 0.000585 0.029937 -0.000033 0.000465
# 5 -0.003526 0.000859 0.004394 -0.000033 0.031270 -0.004736
# 6 0.001371 -0.005219 -0.000455 0.000465 -0.004736 0.031794
#
#
# Mechanical properties :
#
#
# Convention : Reuss Voigt Hill
#
# Bulk Modulus (GPa) = 56.44622 60.37862 58.41242
# Shear Modulus (GPa) = 32.32061 34.87307 33.59684
#
# Velocity S-wave (km/s) = 3.87934 4.02961 3.95518
# Velocity P-wave (km/s) = 6.80796 7.05436 6.93226
#
# Compressibility (1/GPa) = 0.01771598
#
# Stress axis : x y z
#
# Youngs Moduli (GPa) = 87.18111 84.68028 74.21049
#
# Poissons Ratio (x) = 0.35233 0.25927
# Poissons Ratio (y) = 0.36274 0.13840
# Poissons Ratio (z) = 0.30458 0.15793
#
# Static dielectric constant tensor:
#      x y z
#    x 3.816980 0.057240 -0.014380 
#    y 0.057240 4.135780 0.040540 
#    z -0.014380 0.040540 4.015610 
# 
# 
# High freq. dielectric constant tensor:
#      x y z
#    x 1.837280 0.006500 -0.007590 
#    y 0.006500 1.860710 0.004480 
#    z -0.007590 0.004480 1.849920 
# 
# From -- ./inp_files/548289.got.cif
#   From: 2010.06.25/outbox.cif.g09.slc.cpg/sg2_275_cif.got.tgz:548289.got - 2010.06.27 13:26:56.
