data_PCOD8016138
_publ_section_title
;
Structure prediction by ZEFSAII (Michael W. Deem and Ramdas Pophale) SiO2 
 PCOD8016138
Probable space group: P -1
;
_chemical_formula_sum "Si O2"
_cell_formula_units_Z 16
_cell_length_a 8.778935
_cell_length_b 15.011411
_cell_length_c 8.544195
_cell_angle_alpha 50.444021
_cell_angle_beta 71.105109
_cell_angle_gamma 99.051332
_cell_volume 712.086043
_symmetry_space_group_name_H-M "P -1"
_symmetry_group_IT_number 2
_symmetry_cell_setting 'triclinic'
loop_
_space_group_symop_operation_xyz
x,y,z
-x,-y,-z
loop_
_atom_site_type_symbol
_atom_site_label
_atom_site_fract_x
_atom_site_fract_y
_atom_site_fract_z
Si Si1 0.665048 0.723979 0.232692
Si Si2 0.028383 0.300220 0.999872
Si Si3 0.887183 0.228031 0.465345
Si Si4 0.246348 0.346737 0.386185
Si Si5 0.390374 0.616935 0.890564
Si Si6 0.408125 0.054958 0.087265
Si Si7 0.732169 0.412279 0.386388
Si Si8 0.628323 0.143900 0.219841
O O1 0.744442 0.696024 0.393929
O O2 0.445055 0.617194 0.412957
O O3 0.793272 0.720902 0.053619
O O4 0.677519 0.867560 0.064629
O O5 0.986117 0.304191 0.190780
O O6 0.848178 0.188695 0.089109
O O7 0.094253 0.452479 0.754114
O O8 0.770172 0.289195 0.517965
O O9 0.039832 0.240024 0.523500
O O10 0.759375 0.074456 0.631426
O O11 0.391400 0.334229 0.238101
O O12 0.283736 0.498328 0.185415
O O13 0.307495 0.564371 0.805202
O O14 0.372993 0.744381 0.795670
O O15 0.554737 0.147037 0.067908
O O16 0.500000 0.000000 0.000000
O O17 0.500000 0.000000 0.500000
#
# Coordination Sequence:
#
# PCOD8016138 Si02
#       8
#     2   2   2   2   2   2   2   2
#     4  11  28  45  69 106 148 184 230 297 352 417
#     4  12  25  43  73 113 138 176 239 293 347 417
#     4  12  23  45  75 101 138 190 238 282 351 425
#     4  10  24  42  71 105 140 182 233 286 353 412
#     4  10  21  43  71 103 141 185 230 285 348 419
#     4  12  28  50  70  95 143 194 232 286 361 418
#     4  11  21  46  75 104 147 186 224 292 357 419
#     4  12  26  45  72 103 140 184 241 287 346 418
#
# _framework density 22.469194000000002
#
# number of rings (size 3 to 8) (size 9 to 14) (size 15 to 20)
#    0.000    0.750    5.000    1.500    5.250    3.000 
#    0.000    1.875    0.000    0.000    0.000    0.000 
#    0.000    0.000    0.000    0.000    0.000    0.000 
#
# Total GULP energy -198377.796588 kJ/mol
# GULP energy per Si atom -12398.612287 kJ/mol
# Density = 2.241805 g / cm^3
# Si number density = 22.469194 Si / 1000 Ang^3
#
#
#
# Elastic Constant Matrix: (Units=GPa)
#
#
# Indices 1 2 3 4 5 6 
#
# 1 115.8263 32.4546 47.2122 -6.6321 -13.6181 6.4994
# 2 32.4546 77.0404 35.1282 -13.5103 -13.9309 -8.8670
# 3 47.2122 35.1282 107.0489 -25.9434 -11.9940 -4.2892
# 4 -6.6321 -13.5103 -25.9434 36.7620 -3.6791 -4.7094
# 5 -13.6181 -13.9309 -11.9940 -3.6791 42.6148 -6.9518
# 6 6.4994 -8.8670 -4.2892 -4.7094 -6.9518 38.3692
#
#
#
# Elastic Compliance Matrix: (Units=1/GPa)
#
#
# Indices 1 2 3 4 5 6 
#
# 1 0.011681 -0.003625 -0.004814 -0.003059 0.000330 -0.003670
# 2 -0.003625 0.018279 -0.002029 0.006034 0.005811 0.006405
# 3 -0.004814 -0.002029 0.015074 0.009874 0.003527 0.003882
# 4 -0.003059 0.006034 0.009874 0.037871 0.008546 0.009213
# 5 0.000330 0.005811 0.003527 0.008546 0.028489 0.007892
# 6 -0.003670 0.006405 0.003882 0.009213 0.007892 0.031159
#
#
# Mechanical properties :
#
#
# Convention : Reuss Voigt Hill
#
# Bulk Modulus (GPa) = 41.49772 58.83394 50.16583
# Shear Modulus (GPa) = 29.15069 35.89059 32.52064
#
# Velocity S-wave (km/s) = 3.60580 4.00099 3.80852
# Velocity P-wave (km/s) = 5.98703 6.89819 6.45870
#
# Compressibility (1/GPa) = 0.02409771
#
# Stress axis : x y z
#
# Youngs Moduli (GPa) = 85.60862 54.70809 66.33881
#
# Poissons Ratio (x) = 0.19833 0.31933
# Poissons Ratio (y) = 0.31035 0.13463
# Poissons Ratio (z) = 0.41208 0.11103
#
# Static dielectric constant tensor:
#      x y z
#    x 4.399740 0.039800 -0.226240 
#    y 0.039800 3.857760 -0.154200 
#    z -0.226240 -0.154200 4.232450 
# 
# 
# High freq. dielectric constant tensor:
#      x y z
#    x 1.894940 -0.004800 -0.009320 
#    y -0.004800 1.865780 -0.005560 
#    z -0.009320 -0.005560 1.897180 
# 
# From -- ./inp_files/205530.got.cif
#   From: 2010.06.25/outbox.cif.g09.slc.cpg/sg2_103_cif.got.tgz:205530.got - 2010.06.27 13:26:56.
