data_PCOD8016186
_publ_section_title
;
Structure prediction by ZEFSAII (Michael W. Deem and Ramdas Pophale) SiO2 
 PCOD8016186
Probable space group: P -1
;
_chemical_formula_sum "Si O2"
_cell_formula_units_Z 14
_cell_length_a 9.099846
_cell_length_b 9.567898
_cell_length_c 26.241481
_cell_angle_alpha 144.871298
_cell_angle_beta 154.665956
_cell_angle_gamma 43.273354
_cell_volume 561.971560
_symmetry_space_group_name_H-M "P -1"
_symmetry_group_IT_number 2
_symmetry_cell_setting 'triclinic'
loop_
_space_group_symop_operation_xyz
x,y,z
-x,-y,-z
loop_
_atom_site_type_symbol
_atom_site_label
_atom_site_fract_x
_atom_site_fract_y
_atom_site_fract_z
Si Si1 0.117497 0.928296 0.459470
Si Si2 0.812113 0.418530 0.986715
Si Si3 0.432254 0.947846 0.755733
Si Si4 0.675522 0.271564 0.696386
Si Si5 0.147622 0.661283 0.669399
Si Si6 0.370553 0.543204 0.365947
Si Si7 0.465839 0.267671 0.088507
O O1 0.143029 0.634759 0.370384
O O2 0.511477 0.031068 0.600920
O O3 0.000000 0.000000 0.500000
O O4 0.845972 0.051578 0.375591
O O5 0.521811 0.533852 0.894209
O O6 0.637066 0.206516 0.903276
O O7 0.984537 0.634419 0.139004
O O8 0.094591 0.285777 0.002999
O O9 0.248122 0.904506 0.740344
O O10 0.694396 0.735227 0.757119
O O11 0.381599 0.463589 0.659980
O O12 0.750078 0.257557 0.655046
O O13 0.225013 0.683977 0.760394
O O14 0.763804 0.572659 0.513456
O O15 0.500000 0.000000 0.000000
#
# Coordination Sequence:
#
# PCOD8016186 Si02
#       7
#     2   2   2   2   2   2   2
#     4  12  27  40  70 103 139 174 231 291 340 405
#     4  10  25  43  68  98 140 180 216 291 342 394
#     4  11  24  45  68 104 137 172 238 284 335 408
#     4  10  21  46  71  97 138 180 232 275 347 412
#     4  10  21  43  72  98 131 183 231 279 335 408
#     4  11  23  44  73  99 133 185 229 282 346 402
#     4  10  24  42  67  95 137 187 224 264 349 417
#
# _framework density 24.912295
#
# number of rings (size 3 to 8) (size 9 to 14) (size 15 to 20)
#    0.000    1.429    2.857    1.286    8.000    6.857 
#    0.000    1.429    0.000    0.000    0.000    0.000 
#    0.000    0.000    0.000    0.000    0.000    0.000 
#
# Total GULP energy -173501.791350 kJ/mol
# GULP energy per Si atom -12392.985096 kJ/mol
# Density = 2.485559 g / cm^3
# Si number density = 24.912295 Si / 1000 Ang^3
#
#
#
# Elastic Constant Matrix: (Units=GPa)
#
#
# Indices 1 2 3 4 5 6 
#
# 1 57.1512 -0.0671 27.9807 -3.0818 -21.5059 13.8764
# 2 -0.0671 71.7386 28.0760 -2.1923 -14.8644 26.5768
# 3 27.9807 28.0760 109.3396 -11.9700 -10.4576 12.4802
# 4 -3.0818 -2.1923 -11.9700 37.1104 13.7692 -14.0367
# 5 -21.5059 -14.8644 -10.4576 13.7692 35.0555 7.0535
# 6 13.8764 26.5768 12.4802 -14.0367 7.0535 21.7532
#
#
#
# Elastic Compliance Matrix: (Units=1/GPa)
#
#
# Indices 1 2 3 4 5 6 
#
# 1 0.004716 -0.014488 -0.000823 0.017635 -0.016863 0.032011
# 2 -0.014488 -0.000883 0.000527 0.017872 -0.021889 0.028647
# 3 -0.000823 0.000527 0.010607 -0.002385 0.005754 -0.009610
# 4 0.017635 0.017872 -0.002385 0.008315 0.021098 -0.033191
# 5 -0.016863 -0.021889 0.005754 0.021098 -0.007800 0.050342
# 6 0.032011 0.028647 -0.009610 -0.033191 0.050342 -0.041677
#
#
# Mechanical properties :
#
#
# Convention : Reuss Voigt Hill
#
# Bulk Modulus (GPa) = -66.11130 38.91206 -13.59962
# Shear Modulus (GPa) = -2276.24711 30.93316 -1122.65698
#
# Velocity S-wave (km/s) = -30.26034 3.52757 -21.25140
# Velocity P-wave (km/s) = 35.32014 5.67849 24.65022
#
# Compressibility (1/GPa) = -0.01512601
#
# Stress axis : x y z
#
# Youngs Moduli (GPa) = 212.03541 -1133.07434 94.27767
#
# Poissons Ratio (x) = -16.41582 0.07757
# Poissons Ratio (y) = 3.07194 -0.04972
# Poissons Ratio (z) = 0.17446 0.59751
#
# Static dielectric constant tensor:
#      x y z
#    x 4.693320 0.093950 -0.364070 
#    y 0.093950 4.912280 -0.054390 
#    z -0.364070 -0.054390 4.839170 
# 
# 
# High freq. dielectric constant tensor:
#      x y z
#    x 1.983940 -0.008030 -0.014230 
#    y -0.008030 2.007180 -0.001600 
#    z -0.014230 -0.001600 1.986280 
# 
# From -- ./inp_files/606900.got.cif
#   From: 2010.06.25/outbox.cif.g09.slc.cpg/sg2_304_cif.got.tgz:606900.got - 2010.06.27 13:26:56.
