data_PCOD8016393
_publ_section_title
;
Structure prediction by ZEFSAII (Michael W. Deem and Ramdas Pophale) SiO2 
 PCOD8016393
Probable space group: P -1
;
_chemical_formula_sum "Si O2"
_cell_formula_units_Z 14
_cell_length_a 10.768318
_cell_length_b 11.336342
_cell_length_c 12.952995
_cell_angle_alpha 142.761839
_cell_angle_beta 104.999270
_cell_angle_gamma 102.842273
_cell_volume 628.926766
_symmetry_space_group_name_H-M "P -1"
_symmetry_group_IT_number 2
_symmetry_cell_setting 'triclinic'
loop_
_space_group_symop_operation_xyz
x,y,z
-x,-y,-z
loop_
_atom_site_type_symbol
_atom_site_label
_atom_site_fract_x
_atom_site_fract_y
_atom_site_fract_z
Si Si1 0.661871 0.630891 0.346312
Si Si2 0.807412 0.786009 0.868503
Si Si3 0.245769 0.274886 0.960400
Si Si4 0.766358 0.188511 0.135179
Si Si5 0.979525 0.260964 0.792860
Si Si6 0.971035 0.683888 0.392271
Si Si7 0.633191 0.361212 0.355981
O O1 0.773422 0.583917 0.278025
O O2 0.614625 0.510225 0.368645
O O3 0.802052 0.972113 0.614698
O O4 0.468404 0.475401 0.137796
O O5 0.664241 0.508060 0.572206
O O6 0.806404 0.689357 0.913965
O O7 0.765036 0.963360 0.009962
O O8 0.000000 0.000000 0.000000
O O9 0.174331 0.358213 0.921916
O O10 0.125230 0.945367 0.685114
O O11 0.918321 0.408852 0.231826
O O12 0.794132 0.380405 0.368496
O O13 0.551765 0.977581 0.901140
O O14 0.937950 0.217731 0.632043
O O15 0.000000 0.500000 0.000000
#
# Coordination Sequence:
#
# PCOD8016393 Si02
#       7
#     2   2   2   2   2   2   2
#     4  10  21  44  69  92 130 171 221 267 325 390
#     4  12  24  38  66  99 136 173 213 274 326 392
#     4  11  24  43  67  98 124 175 225 265 329 388
#     4  10  22  42  65  96 132 173 215 257 336 394
#     4  11  26  44  65  94 131 171 218 276 331 384
#     4  10  24  43  67  93 131 173 213 276 324 387
#     4  10  22  42  65  97 135 175 210 268 328 394
#
# _framework density 22.260141999999998
#
# number of rings (size 3 to 8) (size 9 to 14) (size 15 to 20)
#    0.000    1.429    1.429    4.714    4.000    5.143 
#    0.000    0.000    0.000    0.000    0.000    0.000 
#    0.000    0.000    0.000    0.000    0.000    0.000 
#
# Total GULP energy -173492.670240 kJ/mol
# GULP energy per Si atom -12392.333589 kJ/mol
# Density = 2.220948 g / cm^3
# Si number density = 22.260142 Si / 1000 Ang^3
#
#
#
# Elastic Constant Matrix: (Units=GPa)
#
#
# Indices 1 2 3 4 5 6 
#
# 1 62.5894 0.0483 39.2438 -0.1374 1.5369 7.2572
# 2 0.0483 91.7195 50.8984 0.2871 -17.8506 13.0101
# 3 39.2438 50.8984 128.6188 -2.0788 -14.7157 5.9123
# 4 -0.1374 0.2871 -2.0788 41.2711 2.0406 -4.8227
# 5 1.5369 -17.8506 -14.7157 2.0406 41.5994 6.3869
# 6 7.2572 13.0101 5.9123 -4.8227 6.3869 22.7266
#
#
#
# Elastic Compliance Matrix: (Units=1/GPa)
#
#
# Indices 1 2 3 4 5 6 
#
# 1 0.022616 0.006239 -0.008979 -0.001452 0.000086 -0.008790
# 2 0.006239 0.018478 -0.007852 -0.002371 0.007035 -0.013008
# 3 -0.008979 -0.007852 0.013599 0.001089 0.001147 0.003733
# 4 -0.001452 -0.002371 0.001089 0.025353 -0.003014 0.007765
# 5 0.000086 0.007035 0.001147 -0.003014 0.029654 -0.013326
# 6 -0.008790 -0.013008 0.003733 0.007765 -0.013326 0.058676
#
#
# Mechanical properties :
#
#
# Convention : Reuss Voigt Hill
#
# Bulk Modulus (GPa) = 29.84182 51.47873 40.66027
# Shear Modulus (GPa) = 24.90915 33.96860 29.43887
#
# Velocity S-wave (km/s) = 3.34878 3.91062 3.64055
# Velocity P-wave (km/s) = 5.32799 6.60051 5.99809
#
# Compressibility (1/GPa) = 0.03351002
#
# Stress axis : x y z
#
# Youngs Moduli (GPa) = 44.21616 54.11759 73.53543
#
# Poissons Ratio (x) = -0.33764 0.66028
# Poissons Ratio (y) = -0.27587 0.57737
# Poissons Ratio (z) = 0.39702 0.42491
#
# Static dielectric constant tensor:
#      x y z
#    x 5.651060 1.024900 -2.204490 
#    y 1.024900 4.641910 -0.805750 
#    z -2.204490 -0.805750 4.896400 
# 
# 
# High freq. dielectric constant tensor:
#      x y z
#    x 1.869730 0.004920 -0.000540 
#    y 0.004920 1.870640 0.010620 
#    z -0.000540 0.010620 1.879040 
# 
# From -- ./inp_files/428585.got.cif
#   From: 2010.06.25/outbox.cif.g09.slc.cpg/sg2_215_cif.got.tgz:428585.got - 2010.06.27 13:26:56.
