data_PCOD8016319
_publ_section_title
;
Structure prediction by ZEFSAII (Michael W. Deem and Ramdas Pophale) SiO2 
 PCOD8016319
Probable space group: P -1
;
_chemical_formula_sum "Si O2"
_cell_formula_units_Z 16
_cell_length_a 15.267594
_cell_length_b 9.145563
_cell_length_c 9.169258
_cell_angle_alpha 64.107083
_cell_angle_beta 79.548609
_cell_angle_gamma 40.399720
_cell_volume 720.966350
_symmetry_space_group_name_H-M "P -1"
_symmetry_group_IT_number 2
_symmetry_cell_setting 'triclinic'
loop_
_space_group_symop_operation_xyz
x,y,z
-x,-y,-z
loop_
_atom_site_type_symbol
_atom_site_label
_atom_site_fract_x
_atom_site_fract_y
_atom_site_fract_z
Si Si1 0.373515 0.886518 0.872611
Si Si2 0.349674 0.605299 0.859699
Si Si3 0.030145 0.673872 0.791485
Si Si4 0.054127 0.944466 0.845971
Si Si5 0.625142 0.797913 0.438699
Si Si6 0.516735 0.656183 0.364198
Si Si7 0.768695 0.853572 0.906581
Si Si8 0.937161 0.411216 0.524853
O O1 0.320512 0.841730 0.778981
O O2 0.377646 0.068653 0.749558
O O3 0.531250 0.614283 0.970578
O O4 0.274185 0.996072 0.995417
O O5 0.218976 0.685540 0.917332
O O6 0.382127 0.507369 0.730394
O O7 0.992006 0.903747 0.767004
O O8 0.060899 0.632433 0.628445
O O9 0.889385 0.771235 0.816245
O O10 0.165746 0.413255 0.951631
O O11 0.029934 0.157983 0.699094
O O12 0.000000 0.000000 0.000000
O O13 0.604041 0.645200 0.452932
O O14 0.778324 0.608230 0.546961
O O15 0.500000 0.000000 0.500000
O O16 0.500000 0.500000 0.500000
O O17 0.370377 0.952921 0.237416
O O18 0.000000 0.500000 0.500000
#
# Coordination Sequence:
#
# PCOD8016319 Si02
#       8
#     2   2   2   2   2   2   2   2
#     4  10  21  44  66  98 135 172 230 287 352 427
#     4  10  23  41  68  95 135 177 219 292 352 415
#     4  11  25  46  74 100 146 187 245 294 368 426
#     4  12  28  43  73 106 143 185 248 293 363 433
#     4  12  27  43  71 101 139 184 239 288 358 429
#     4  11  26  43  69 102 142 180 237 292 369 424
#     4  10  24  42  75 100 138 184 237 296 364 431
#     4  12  29  49  74 104 151 194 245 300 365 431
#
# _framework density 22.192437999999999
#
# number of rings (size 3 to 8) (size 9 to 14) (size 15 to 20)
#    0.000    1.000    1.250    3.375   12.250    1.000 
#    0.000    0.000    0.000    0.000    0.000    0.000 
#    0.000    0.000    0.000    0.000    0.000    0.000 
#
# Total GULP energy -198334.508489 kJ/mol
# GULP energy per Si atom -12395.906781 kJ/mol
# Density = 2.214193 g / cm^3
# Si number density = 22.192438 Si / 1000 Ang^3
#
#
#
# Elastic Constant Matrix: (Units=GPa)
#
#
# Indices 1 2 3 4 5 6 
#
# 1 119.9283 49.7146 33.2624 7.2327 4.7162 10.3097
# 2 49.7146 109.1160 36.3801 11.9357 4.1620 -16.1788
# 3 33.2624 36.3801 90.9206 2.7570 -7.6520 -1.5365
# 4 7.2327 11.9357 2.7570 41.1580 4.4320 -5.4512
# 5 4.7162 4.1620 -7.6520 4.4320 29.4476 2.3160
# 6 10.3097 -16.1788 -1.5365 -5.4512 2.3160 52.9259
#
#
#
# Elastic Compliance Matrix: (Units=1/GPa)
#
#
# Indices 1 2 3 4 5 6 
#
# 1 0.011437 -0.004833 -0.002404 -0.000805 -0.001353 -0.003799
# 2 -0.004833 0.013636 -0.003732 -0.001969 -0.002212 0.004896
# 3 -0.002404 -0.003732 0.013742 0.000036 0.004515 -0.000467
# 4 -0.000805 -0.001969 0.000036 0.025711 -0.003639 0.002363
# 5 -0.001353 -0.002212 0.004515 -0.003639 0.036386 -0.002248
# 6 -0.003799 0.004896 -0.000467 0.002363 -0.002248 0.021459
#
#
# Mechanical properties :
#
#
# Convention : Reuss Voigt Hill
#
# Bulk Modulus (GPa) = 59.24924 62.07545 60.66234
# Shear Modulus (GPa) = 33.34779 38.08013 35.71396
#
# Velocity S-wave (km/s) = 3.88063 4.14684 4.01594
# Velocity P-wave (km/s) = 6.84360 7.13867 6.99269
#
# Compressibility (1/GPa) = 0.01687785
#
# Stress axis : x y z
#
# Youngs Moduli (GPa) = 87.43756 73.33371 72.76792
#
# Poissons Ratio (x) = 0.35441 0.17493
# Poissons Ratio (y) = 0.42257 0.27157
# Poissons Ratio (z) = 0.21020 0.27368
#
# Static dielectric constant tensor:
#      x y z
#    x 4.053980 -0.008300 -0.054150 
#    y -0.008300 4.450690 -0.100690 
#    z -0.054150 -0.100690 3.898140 
# 
# 
# High freq. dielectric constant tensor:
#      x y z
#    x 1.879670 -0.006910 -0.004150 
#    y -0.006910 1.895730 0.001320 
#    z -0.004150 0.001320 1.865400 
# 
# From -- ./inp_files/279128.got.cif
#   From: 2010.06.25/outbox.cif.g09.slc.cpg/sg2_140_cif.got.tgz:279128.got - 2010.06.27 13:26:56.
