data_PCOD8016624
_publ_section_title
;
Structure prediction by ZEFSAII (Michael W. Deem and Ramdas Pophale) SiO2 
 PCOD8016624
Probable space group: P -1
;
_chemical_formula_sum "Si O2"
_cell_formula_units_Z 16
_cell_length_a 12.056952
_cell_length_b 7.808473
_cell_length_c 8.393051
_cell_angle_alpha 52.912739
_cell_angle_beta 98.726347
_cell_angle_gamma 87.722967
_cell_volume 614.352091
_symmetry_space_group_name_H-M "P -1"
_symmetry_group_IT_number 2
_symmetry_cell_setting 'triclinic'
loop_
_space_group_symop_operation_xyz
x,y,z
-x,-y,-z
loop_
_atom_site_type_symbol
_atom_site_label
_atom_site_fract_x
_atom_site_fract_y
_atom_site_fract_z
Si Si1 0.557931 0.354784 0.735376
Si Si2 0.347196 0.403205 0.849813
Si Si3 0.910309 0.394069 0.855228
Si Si4 0.694827 0.671985 0.762107
Si Si5 0.121216 0.297471 0.768736
Si Si6 0.922422 0.021611 0.315395
Si Si7 0.284889 0.885391 0.574157
Si Si8 0.777119 0.119704 0.785670
O O1 0.500000 0.500000 0.500000
O O2 0.458680 0.269554 0.863901
O O3 0.626197 0.490392 0.790199
O O4 0.644563 0.152792 0.794549
O O5 0.233590 0.410453 0.711400
O O6 0.369779 0.654157 0.729442
O O7 0.326486 0.290943 0.074954
O O8 0.832071 0.601564 0.804734
O O9 0.832923 0.325182 0.735099
O O10 0.021688 0.455604 0.755347
O O11 0.952953 0.204944 0.099385
O O12 0.651413 0.903375 0.534192
O O13 0.074771 0.214603 0.637532
O O14 0.152445 0.084459 0.000422
O O15 0.792409 0.106917 0.290811
O O16 0.000000 0.000000 0.500000
O O17 0.208563 0.904843 0.386402
#
# Coordination Sequence:
#
# PCOD8016624 Si02
#       8
#     2   2   2   2   2   2   2   2
#     4  11  25  47  75 104 143 186 241 296 350 426
#     4  12  26  47  71 104 146 188 241 288 358 420
#     4  10  22  45  72 100 149 190 230 289 361 422
#     4  11  26  48  73 104 146 187 235 298 354 414
#     4  11  24  44  72 106 147 191 231 289 364 421
#     4  11  23  40  70 109 143 184 241 290 346 430
#     4  12  24  43  70 105 140 180 242 293 343 418
#     4  10  21  45  71 102 142 186 231 296 349 423
#
# _framework density 26.043699
#
# number of rings (size 3 to 8) (size 9 to 14) (size 15 to 20)
#    0.000    1.000    3.750    3.375    1.750    2.500 
#    0.000    1.875    0.000    0.000    0.000    0.000 
#    0.000    0.000    0.000    0.000    0.000    0.000 
#
# Total GULP energy -198379.038266 kJ/mol
# GULP energy per Si atom -12398.689892 kJ/mol
# Density = 2.598442 g / cm^3
# Si number density = 26.043699 Si / 1000 Ang^3
#
#
#
# Elastic Constant Matrix: (Units=GPa)
#
#
# Indices 1 2 3 4 5 6 
#
# 1 150.7042 41.0258 10.2051 15.7025 -13.7980 -30.5729
# 2 41.0258 78.1202 16.9261 19.7057 -14.8600 -15.6212
# 3 10.2051 16.9261 48.2803 10.2793 3.1493 -9.3786
# 4 15.7025 19.7057 10.2793 46.9141 2.5200 -2.8494
# 5 -13.7980 -14.8600 3.1493 2.5200 30.3402 5.2463
# 6 -30.5729 -15.6212 -9.3786 -2.8494 5.2463 42.7986
#
#
#
# Elastic Compliance Matrix: (Units=1/GPa)
#
#
# Indices 1 2 3 4 5 6 
#
# 1 0.008738 -0.002953 0.000361 -0.001559 0.001768 0.004923
# 2 -0.002953 0.019095 -0.004842 -0.006294 0.008633 0.002322
# 3 0.000361 -0.004842 0.024095 -0.002831 -0.005203 0.004220
# 4 -0.001559 -0.006294 -0.002831 0.025283 -0.005304 -0.001698
# 5 0.001768 0.008633 -0.005203 -0.005304 0.039301 -0.001897
# 6 0.004923 0.002322 0.004220 -0.001698 -0.001897 0.028773
#
#
# Mechanical properties :
#
#
# Convention : Reuss Voigt Hill
#
# Bulk Modulus (GPa) = 26.98310 45.93540 36.45925
# Shear Modulus (GPa) = 28.98434 37.94042 33.46238
#
# Velocity S-wave (km/s) = 3.33965 3.82094 3.58838
# Velocity P-wave (km/s) = 5.02536 6.09444 5.58554
#
# Compressibility (1/GPa) = 0.03706023
#
# Stress axis : x y z
#
# Youngs Moduli (GPa) = 114.44305 52.37021 41.50157
#
# Poissons Ratio (x) = 0.15465 -0.01499
# Poissons Ratio (y) = 0.33796 0.20096
# Poissons Ratio (z) = -0.04134 0.25359
#
# Static dielectric constant tensor:
#      x y z
#    x 5.182960 -0.191060 -0.142100 
#    y -0.191060 5.201180 0.260980 
#    z -0.142100 0.260980 4.547800 
# 
# 
# High freq. dielectric constant tensor:
#      x y z
#    x 2.034430 -0.013030 -0.005600 
#    y -0.013030 2.048490 0.009910 
#    z -0.005600 0.009910 2.039830 
# 
# From -- ./inp_files/242081.got.cif
#   From: 2010.06.25/outbox.cif.g09.slc.cpg/sg2_122_cif.got.tgz:242081.got - 2010.06.27 13:26:56.
