data_PCOD8016634
_publ_section_title
;
Structure prediction by ZEFSAII (Michael W. Deem and Ramdas Pophale) SiO2 
 PCOD8016634
Probable space group: P -1
;
_chemical_formula_sum "Si O2"
_cell_formula_units_Z 14
_cell_length_a 7.491642
_cell_length_b 19.914557
_cell_length_c 5.128768
_cell_angle_alpha 119.222058
_cell_angle_beta 117.468905
_cell_angle_gamma 76.775977
_cell_volume 592.501745
_symmetry_space_group_name_H-M "P -1"
_symmetry_group_IT_number 2
_symmetry_cell_setting 'triclinic'
loop_
_space_group_symop_operation_xyz
x,y,z
-x,-y,-z
loop_
_atom_site_type_symbol
_atom_site_label
_atom_site_fract_x
_atom_site_fract_y
_atom_site_fract_z
Si Si1 0.454200 0.776121 0.757671
Si Si2 0.888106 0.579703 0.038603
Si Si3 0.718327 0.017885 0.782070
Si Si4 0.753565 0.644684 0.569275
Si Si5 0.176600 0.147399 0.593677
Si Si6 0.047900 0.725924 0.609165
Si Si7 0.785948 0.113386 0.514961
O O1 0.560777 0.697384 0.597985
O O2 0.272250 0.760752 0.814535
O O3 0.371739 0.817104 0.516368
O O4 0.603220 0.836073 0.111640
O O5 0.046316 0.650694 0.277111
O O6 0.725073 0.595675 0.190524
O O7 0.000000 0.500000 0.000000
O O8 0.773947 0.581542 0.690404
O O9 0.793067 0.083262 0.757120
O O10 0.500000 0.000000 0.500000
O O11 0.841365 0.937824 0.706635
O O12 0.732936 0.046853 0.143437
O O13 0.959368 0.696821 0.775778
O O14 0.122651 0.212536 0.472490
O O15 0.007717 0.148944 0.706894
#
# Coordination Sequence:
#
# PCOD8016634 Si02
#       7
#     2   2   2   2   2   2   2
#     4  11  22  45  69 100 136 177 231 274 332 406
#     4  10  21  45  71  98 138 175 213 271 333 395
#     4  12  25  44  65  94 130 177 226 281 335 389
#     4  10  22  42  68  98 134 174 217 272 332 389
#     4  11  23  44  68  92 136 176 223 278 337 393
#     4   9  24  42  67 103 132 179 220 278 330 399
#     4  11  27  44  66  95 130 176 226 282 334 386
#
# _framework density 23.628620999999999
#
# number of rings (size 3 to 8) (size 9 to 14) (size 15 to 20)
#    0.857    0.571    2.857    1.714    2.000    3.429 
#    5.143    1.429    0.000    0.000    0.000    0.000 
#    0.000    0.000    0.000    0.000    0.000    0.000 
#
# Total GULP energy -173460.637680 kJ/mol
# GULP energy per Si atom -12390.045549 kJ/mol
# Density = 2.357484 g / cm^3
# Si number density = 23.628621 Si / 1000 Ang^3
#
#
#
# Elastic Constant Matrix: (Units=GPa)
#
#
# Indices 1 2 3 4 5 6 
#
# 1 77.1921 33.8312 17.7908 -23.1483 7.8380 -9.7195
# 2 33.8312 192.9937 15.9316 -8.4366 -14.7714 -14.1216
# 3 17.7908 15.9316 52.6776 -4.4551 -2.2363 6.2016
# 4 -23.1483 -8.4366 -4.4551 23.0200 2.3791 -6.8524
# 5 7.8380 -14.7714 -2.2363 2.3791 34.8522 -5.9263
# 6 -9.7195 -14.1216 6.2016 -6.8524 -5.9263 32.0682
#
#
#
# Elastic Compliance Matrix: (Units=1/GPa)
#
#
# Indices 1 2 3 4 5 6 
#
# 1 0.027243 -0.002374 -0.007890 0.029853 -0.007337 0.013761
# 2 -0.002374 0.006196 -0.001255 0.000148 0.003570 0.002943
# 3 -0.007890 -0.001255 0.022523 -0.006717 0.001715 -0.008418
# 4 0.029853 0.000148 -0.006717 0.080850 -0.008149 0.026182
# 5 -0.007337 0.003570 0.001715 -0.008149 0.033099 0.003392
# 6 0.013761 0.002943 -0.008418 0.026182 0.003392 0.044500
#
#
# Mechanical properties :
#
#
# Convention : Reuss Voigt Hill
#
# Bulk Modulus (GPa) = 30.37099 50.88562 40.62830
# Shear Modulus (GPa) = 20.12695 35.00874 27.56784
#
# Velocity S-wave (km/s) = 2.92173 3.85336 3.41943
# Velocity P-wave (km/s) = 4.92579 6.43275 5.72903
#
# Compressibility (1/GPa) = 0.03292616
#
# Stress axis : x y z
#
# Youngs Moduli (GPa) = 36.70609 161.38669 44.39882
#
# Poissons Ratio (x) = 0.38315 0.35029
# Poissons Ratio (y) = 0.08714 0.05570
# Poissons Ratio (z) = 0.28960 0.20247
#
# Static dielectric constant tensor:
#      x y z
#    x 4.371570 0.341260 -0.158320 
#    y 0.341260 5.531540 -0.424780 
#    z -0.158320 -0.424780 4.150460 
# 
# 
# High freq. dielectric constant tensor:
#      x y z
#    x 1.930700 -0.005840 -0.008660 
#    y -0.005840 1.946630 -0.001790 
#    z -0.008660 -0.001790 1.919400 
# 
# From -- ./inp_files/53871.got.cif
#   From: 2010.06.25/outbox.cif.g09.slc.cpg/sg2_27_cif.got.tgz:53871.got - 2010.06.27 13:26:56.
