data_PCOD8016276
_publ_section_title
;
Structure prediction by ZEFSAII (Michael W. Deem and Ramdas Pophale) SiO2 
 PCOD8016276
Probable space group: P -1
;
_chemical_formula_sum "Si O2"
_cell_formula_units_Z 14
_cell_length_a 6.340850
_cell_length_b 5.986401
_cell_length_c 20.399577
_cell_angle_alpha 63.365772
_cell_angle_beta 123.804949
_cell_angle_gamma 108.857133
_cell_volume 572.309111
_symmetry_space_group_name_H-M "P -1"
_symmetry_group_IT_number 2
_symmetry_cell_setting 'triclinic'
loop_
_space_group_symop_operation_xyz
x,y,z
-x,-y,-z
loop_
_atom_site_type_symbol
_atom_site_label
_atom_site_fract_x
_atom_site_fract_y
_atom_site_fract_z
Si Si1 0.539197 0.282012 0.447233
Si Si2 0.714108 0.386461 0.966683
Si Si3 0.748514 0.423256 0.826225
Si Si4 0.276453 0.708263 0.878945
Si Si5 0.692914 0.872246 0.273624
Si Si6 0.817440 0.361963 0.610561
Si Si7 0.499465 0.876863 0.675606
O O1 0.744395 0.423744 0.514018
O O2 0.275046 0.417153 0.388774
O O3 0.631141 0.287574 0.386353
O O4 0.500000 0.000000 0.500000
O O5 0.666229 0.274904 0.899864
O O6 0.538532 0.610907 0.915457
O O7 0.689811 0.201093 0.050257
O O8 0.000000 0.500000 0.000000
O O9 0.602685 0.245746 0.769449
O O10 0.647676 0.699179 0.771822
O O11 0.053515 0.473843 0.863030
O O12 0.214808 0.936823 0.793161
O O13 0.878263 0.649353 0.331409
O O14 0.710781 0.004585 0.330893
O O15 0.690322 0.091716 0.647430
#
# Coordination Sequence:
#
# PCOD8016276 Si02
#       7
#     2   2   2   2   2   2   2
#     4   9  21  42  70  95 138 181 224 283 341 403
#     4   9  20  41  69  94 136 181 226 278 337 398
#     4  11  23  40  65 101 135 178 226 280 337 405
#     4  10  21  44  65  96 140 178 223 288 332 397
#     4  12  25  39  72 104 132 184 231 274 348 404
#     4  10  22  44  67  99 136 180 229 282 339 405
#     4  11  22  42  63 101 140 174 227 285 334 407
#
# _framework density 24.462304
#
# number of rings (size 3 to 8) (size 9 to 14) (size 15 to 20)
#    0.000    1.714    2.857    0.857    0.000    5.714 
#    0.000   16.429    0.000    0.000    0.000    0.000 
#    0.000    0.000    0.000    0.000    0.000    0.000 
#
# Total GULP energy -173460.994103 kJ/mol
# GULP energy per Si atom -12390.071007 kJ/mol
# Density = 2.440663 g / cm^3
# Si number density = 24.462304 Si / 1000 Ang^3
#
#
#
# Elastic Constant Matrix: (Units=GPa)
#
#
# Indices 1 2 3 4 5 6 
#
# 1 117.8663 41.8588 74.5535 1.2096 0.1047 -18.9629
# 2 41.8588 72.7473 38.9550 6.4122 -6.7382 -20.0772
# 3 74.5535 38.9550 137.4263 7.8283 -10.6998 -20.2399
# 4 1.2096 6.4122 7.8283 30.4867 -5.0049 -2.8769
# 5 0.1047 -6.7382 -10.6998 -5.0049 44.1495 -0.2327
# 6 -18.9629 -20.0772 -20.2399 -2.8769 -0.2327 41.9491
#
#
#
# Elastic Compliance Matrix: (Units=1/GPa)
#
#
# Indices 1 2 3 4 5 6 
#
# 1 0.014585 -0.004886 -0.006632 0.001907 -0.002165 0.001174
# 2 -0.004886 0.019603 -0.001665 -0.002531 0.002346 0.006210
# 3 -0.006632 -0.001665 0.011914 -0.001871 0.002447 0.001839
# 4 0.001907 -0.002531 -0.001871 0.034346 0.003055 0.001121
# 5 -0.002165 0.002346 0.002447 0.003055 0.023962 0.001667
# 6 0.001174 0.006210 0.001839 0.001121 0.001667 0.028315
#
#
# Mechanical properties :
#
#
# Convention : Reuss Voigt Hill
#
# Bulk Modulus (GPa) = 50.66453 70.97493 60.81973
# Shear Modulus (GPa) = 30.18066 34.82856 32.50461
#
# Velocity S-wave (km/s) = 3.51631 3.77737 3.64918
# Velocity P-wave (km/s) = 6.10263 6.93554 6.53237
#
# Compressibility (1/GPa) = 0.01973767
#
# Stress axis : x y z
#
# Youngs Moduli (GPa) = 68.56157 51.01211 83.93293
#
# Poissons Ratio (x) = 0.24924 0.55664
# Poissons Ratio (y) = 0.33498 0.13973
# Poissons Ratio (z) = 0.45470 0.08492
#
# Static dielectric constant tensor:
#      x y z
#    x 4.406760 -0.227800 -0.533290 
#    y -0.227800 4.073210 0.269380 
#    z -0.533290 0.269380 5.441320 
# 
# 
# High freq. dielectric constant tensor:
#      x y z
#    x 1.966110 -0.004160 -0.015910 
#    y -0.004160 1.941010 -0.002640 
#    z -0.015910 -0.002640 1.996460 
# 
# From -- ./inp_files/10288.got.cif
#   From: 2010.06.25/outbox.cif.g09.slc.cpg/sg2_6_cif.got.tgz:10288.got - 2010.06.27 13:26:56.
