data_PCOD8016666
_publ_section_title
;
Structure prediction by ZEFSAII (Michael W. Deem and Ramdas Pophale) SiO2 
 PCOD8016666
Probable space group: P -1
;
_chemical_formula_sum "Si O2"
_cell_formula_units_Z 16
_cell_length_a 16.830017
_cell_length_b 6.629283
_cell_length_c 12.540655
_cell_angle_alpha 102.170755
_cell_angle_beta 33.751785
_cell_angle_gamma 114.928275
_cell_volume 677.344593
_symmetry_space_group_name_H-M "P -1"
_symmetry_group_IT_number 2
_symmetry_cell_setting 'triclinic'
loop_
_space_group_symop_operation_xyz
x,y,z
-x,-y,-z
loop_
_atom_site_type_symbol
_atom_site_label
_atom_site_fract_x
_atom_site_fract_y
_atom_site_fract_z
Si Si1 0.936488 0.136288 0.817744
Si Si2 0.699641 0.712613 0.904723
Si Si3 0.891215 0.546237 0.538321
Si Si4 0.838437 0.466751 0.056586
Si Si5 0.643143 0.607143 0.432970
Si Si6 0.083769 0.953193 0.802711
Si Si7 0.556028 0.129529 0.842357
Si Si8 0.565263 0.342808 0.175631
O O1 0.010473 0.327122 0.662808
O O2 0.056449 0.055232 0.731399
O O3 0.785577 0.914707 0.916239
O O4 0.869408 0.242588 0.998891
O O5 0.824261 0.722356 0.675920
O O6 0.542216 0.723023 0.039741
O O7 0.640971 0.458280 0.992115
O O8 0.745854 0.298057 0.641818
O O9 0.000000 0.500000 0.500000
O O10 0.773220 0.509917 0.250091
O O11 0.706105 0.435359 0.114412
O O12 0.010209 0.676063 0.850391
O O13 0.500000 0.500000 0.500000
O O14 0.727847 0.890726 0.363558
O O15 0.563458 0.561366 0.634933
O O16 0.000000 0.000000 0.000000
O O17 0.514213 0.935346 0.775615
O O18 0.500000 0.000000 0.000000
#
# Coordination Sequence:
#
# PCOD8016666 Si02
#       8
#     2   2   2   2   2   2   2   2
#     4  12  25  42  74 100 139 186 234 289 354 427
#     4  12  25  47  70 102 142 189 234 294 356 425
#     4  12  28  47  70 106 144 190 242 297 352 423
#     4  10  21  46  65  99 137 178 233 286 352 413
#     4   9  22  40  68  96 132 178 227 285 339 415
#     4  10  23  42  68  97 136 182 226 290 350 411
#     4  12  26  45  71 101 143 187 234 294 355 424
#     4  11  22  43  71  98 139 181 232 285 361 414
#
# _framework density 23.621655000000001
#
# number of rings (size 3 to 8) (size 9 to 14) (size 15 to 20)
#    0.000    1.000    3.750    2.250    3.500    2.000 
#    0.000    3.125    0.000    0.000    0.000    0.000 
#    0.000    0.000    0.000    0.000    0.000    0.000 
#
# Total GULP energy -198210.998493 kJ/mol
# GULP energy per Si atom -12388.187406 kJ/mol
# Density = 2.356789 g / cm^3
# Si number density = 23.621655 Si / 1000 Ang^3
#
#
#
# Elastic Constant Matrix: (Units=GPa)
#
#
# Indices 1 2 3 4 5 6 
#
# 1 66.2209 9.8313 15.8448 -11.1367 -14.8492 0.8337
# 2 9.8313 113.9534 33.7342 -2.1625 -13.2375 23.6660
# 3 15.8448 33.7342 90.6301 -0.4822 -10.1661 10.2576
# 4 -11.1367 -2.1625 -0.4822 50.0101 13.1169 -5.1948
# 5 -14.8492 -13.2375 -10.1661 13.1169 40.3374 -7.5641
# 6 0.8337 23.6660 10.2576 -5.1948 -7.5641 37.7214
#
#
#
# Elastic Compliance Matrix: (Units=1/GPa)
#
#
# Indices 1 2 3 4 5 6 
#
# 1 0.017341 -0.000541 -0.002474 0.002690 0.005086 0.002019
# 2 -0.000541 0.011187 -0.003206 -0.000752 0.001807 -0.005876
# 3 -0.002474 -0.003206 0.012961 -0.001070 0.001403 -0.001325
# 4 0.002690 -0.000752 -0.001070 0.022484 -0.006364 0.002523
# 5 0.005086 0.001807 0.001403 -0.006364 0.030351 0.003582
# 6 0.002019 -0.005876 -0.001325 0.002523 0.003582 0.031578
#
#
# Mechanical properties :
#
#
# Convention : Reuss Voigt Hill
#
# Bulk Modulus (GPa) = 34.42623 43.29165 38.85894
# Shear Modulus (GPa) = 33.77771 39.70672 36.74222
#
# Velocity S-wave (km/s) = 3.78557 4.10438 3.94819
# Velocity P-wave (km/s) = 5.80629 6.38969 6.10496
#
# Compressibility (1/GPa) = 0.02904762
#
# Stress axis : x y z
#
# Youngs Moduli (GPa) = 57.66751 89.38758 77.15301
#
# Poissons Ratio (x) = 0.04837 0.19087
# Poissons Ratio (y) = 0.03121 0.24733
# Poissons Ratio (z) = 0.14267 0.28655
#
# Static dielectric constant tensor:
#      x y z
#    x 4.340420 0.847790 -0.592080 
#    y 0.847790 5.469000 -1.152020 
#    z -0.592080 -1.152020 6.262090 
# 
# 
# High freq. dielectric constant tensor:
#      x y z
#    x 1.927800 0.035630 -0.001910 
#    y 0.035630 1.940920 -0.005660 
#    z -0.001910 -0.005660 1.944090 
# 
# From -- ./inp_files/459668.got.cif
#   From: 2010.06.25/outbox.cif.g09.slc.cpg/sg2_230_cif.got.tgz:459668.got - 2010.06.27 13:26:56.
