data_PCOD8016844
_publ_section_title
;
Structure prediction by ZEFSAII (Michael W. Deem and Ramdas Pophale) SiO2 
 PCOD8016844
Probable space group: P -1
;
_chemical_formula_sum "Si O2"
_cell_formula_units_Z 12
_cell_length_a 27.094051
_cell_length_b 7.841922
_cell_length_c 22.286855
_cell_angle_alpha 141.343225
_cell_angle_beta 12.259193
_cell_angle_gamma 142.569432
_cell_volume 610.675428
_symmetry_space_group_name_H-M "P -1"
_symmetry_group_IT_number 2
_symmetry_cell_setting 'triclinic'
loop_
_space_group_symop_operation_xyz
x,y,z
-x,-y,-z
loop_
_atom_site_type_symbol
_atom_site_label
_atom_site_fract_x
_atom_site_fract_y
_atom_site_fract_z
Si Si1 0.149667 0.765631 0.620001
Si Si2 0.693729 0.011888 0.036512
Si Si3 0.916212 0.200452 0.701096
Si Si4 0.099664 0.372810 0.997350
Si Si5 0.639459 0.071833 0.415814
Si Si6 0.250642 0.302501 0.007363
O O1 0.042012 0.772231 0.815409
O O2 0.143815 0.438194 0.519980
O O3 0.975615 0.876773 0.810478
O O4 0.409409 0.962268 0.358218
O O5 0.788958 0.014322 0.856559
O O6 0.796784 0.298835 0.028799
O O7 0.776831 0.767933 0.908312
O O8 0.731065 0.364501 0.934444
O O9 0.000000 0.000000 0.500000
O O10 0.899804 0.294185 0.160269
O O11 0.318122 0.219523 0.686669
O O12 0.500000 0.000000 0.500000
O O13 0.490318 0.215471 0.678448
#
# Coordination Sequence:
#
# PCOD8016844 Si02
#       6
#     2   2   2   2   2   2
#     4   9  20  41  58  90 125 152 204 250 286 368
#     4  11  21  41  64  85 126 164 191 252 309 347
#     4   9  22  43  63  91 121 152 202 257 303 356
#     4  10  22  36  61  87 126 163 196 250 291 347
#     4  11  19  38  61  87 125 161 204 248 287 354
#     4  10  22  38  63  89 122 161 204 242 302 365
#
# _framework density 19.650372000000001
#
# number of rings (size 3 to 8) (size 9 to 14) (size 15 to 20)
#    1.000    1.000    3.333    0.000    0.000    4.667 
#    0.000    2.500    0.000    0.000    0.000    0.000 
#    0.000    0.000    0.000    0.000    0.000    0.000 
#
# Total GULP energy -148666.398748 kJ/mol
# GULP energy per Si atom -12388.866562 kJ/mol
# Density = 1.960565 g / cm^3
# Si number density = 19.650372 Si / 1000 Ang^3
#
#
#
# Elastic Constant Matrix: (Units=GPa)
#
#
# Indices 1 2 3 4 5 6 
#
# 1 100.0059 42.6694 55.8704 8.8259 -10.9497 -22.2156
# 2 42.6694 73.4904 46.1554 9.2574 7.7515 -1.3876
# 3 55.8704 46.1554 97.6580 5.1002 -9.3876 -1.3647
# 4 8.8259 9.2574 5.1002 37.3644 9.6464 0.5155
# 5 -10.9497 7.7515 -9.3876 9.6464 38.2803 -2.9207
# 6 -22.2156 -1.3876 -1.3647 0.5155 -2.9207 34.5949
#
#
#
# Elastic Compliance Matrix: (Units=1/GPa)
#
#
# Indices 1 2 3 4 5 6 
#
# 1 0.022300 -0.008191 -0.007636 -0.004569 0.008420 0.014469
# 2 -0.008191 0.024134 -0.007673 -0.000497 -0.009397 -0.005380
# 3 -0.007636 -0.007673 0.018495 0.000334 0.003501 -0.004191
# 4 -0.004569 -0.000497 0.000334 0.030323 -0.009083 -0.004160
# 5 0.008420 -0.009397 0.003501 -0.009083 0.034207 0.008191
# 6 0.014469 -0.005380 -0.004191 -0.004160 0.008191 0.038570
#
#
# Mechanical properties :
#
#
# Convention : Reuss Voigt Hill
#
# Bulk Modulus (GPa) = 55.77486 62.28275 59.02881
# Shear Modulus (GPa) = 22.62391 30.47852 26.55122
#
# Velocity S-wave (km/s) = 3.39680 3.94260 3.67983
# Velocity P-wave (km/s) = 6.62039 7.24498 6.93971
#
# Compressibility (1/GPa) = 0.01792922
#
# Stress axis : x y z
#
# Youngs Moduli (GPa) = 44.84336 41.43538 54.06728
#
# Poissons Ratio (x) = 0.33939 0.41288
# Poissons Ratio (y) = 0.36731 0.41485
# Poissons Ratio (z) = 0.34244 0.31792
#
# Static dielectric constant tensor:
#      x y z
#    x 3.690850 0.004960 -0.167710 
#    y 0.004960 3.420790 -0.084750 
#    z -0.167710 -0.084750 3.464920 
# 
# 
# High freq. dielectric constant tensor:
#      x y z
#    x 1.769720 0.005690 -0.012920 
#    y 0.005690 1.747490 -0.000690 
#    z -0.012920 -0.000690 1.753460 
# 
# From -- ./inp_files/29846.got.cif
#   From: 2010.06.25/outbox.cif.g09.slc.cpg/sg2_15_cif.got.tgz:29846.got - 2010.06.27 13:26:56.
