data_PCOD8016836
_publ_section_title
;
Structure prediction by ZEFSAII (Michael W. Deem and Ramdas Pophale) SiO2 
 PCOD8016836
Probable space group: P -1
;
_chemical_formula_sum "Si O2"
_cell_formula_units_Z 16
_cell_length_a 5.170194
_cell_length_b 12.223430
_cell_length_c 14.273773
_cell_angle_alpha 115.995280
_cell_angle_beta 108.856105
_cell_angle_gamma 86.680226
_cell_volume 763.563659
_symmetry_space_group_name_H-M "P -1"
_symmetry_group_IT_number 2
_symmetry_cell_setting 'triclinic'
loop_
_space_group_symop_operation_xyz
x,y,z
-x,-y,-z
loop_
_atom_site_type_symbol
_atom_site_label
_atom_site_fract_x
_atom_site_fract_y
_atom_site_fract_z
Si Si1 0.995859 0.914100 0.327678
Si Si2 0.183972 0.230273 0.017897
Si Si3 0.110989 0.848211 0.677823
Si Si4 0.751082 0.858258 0.478895
Si Si5 0.614612 0.252276 0.744999
Si Si6 0.421186 0.867201 0.118233
Si Si7 0.700593 0.857665 0.796153
Si Si8 0.694169 0.507152 0.935891
O O1 0.086836 0.800890 0.234149
O O2 0.881554 0.869654 0.396303
O O3 0.271298 0.010153 0.423402
O O4 0.818051 0.002705 0.276094
O O5 0.221365 0.188159 0.111638
O O6 0.326595 0.368019 0.075546
O O7 0.353195 0.144732 0.939870
O O8 0.856709 0.226877 0.958888
O O9 0.401782 0.793938 0.704920
O O10 0.947015 0.787324 0.545154
O O11 0.930265 0.820190 0.738099
O O12 0.471515 0.777497 0.385799
O O13 0.443402 0.175866 0.781777
O O14 0.610995 0.395486 0.813321
O O15 0.303974 0.997304 0.149515
O O16 0.500000 0.500000 0.000000
O O17 0.000000 0.500000 0.000000
#
# Coordination Sequence:
#
# PCOD8016836 Si02
#       8
#     2   2   2   2   2   2   2   2
#     4   9  20  34  57  96 131 151 201 250 323 371
#     4  12  25  44  58  88 125 163 213 260 290 368
#     4  10  22  36  60  91 128 154 197 246 314 373
#     4   9  21  34  58  97 130 154 197 258 316 383
#     4  12  22  35  67  85 131 162 205 244 331 349
#     4  12  23  38  64  90 124 158 209 256 309 372
#     4  12  23  39  63  89 122 171 199 249 319 361
#     4  12  26  45  62  89 123 169 212 260 297 359
#
# _framework density 20.954376
#
# number of rings (size 3 to 8) (size 9 to 14) (size 15 to 20)
#    0.750    0.250    3.750    3.375    5.250    0.000 
#    0.000    0.000    0.000    1.500    0.000    0.000 
#    0.000    0.000    0.000    0.000    0.000    0.000 
#
# Total GULP energy -198241.828074 kJ/mol
# GULP energy per Si atom -12390.114255 kJ/mol
# Density = 2.090668 g / cm^3
# Si number density = 20.954376 Si / 1000 Ang^3
#
#
#
# Elastic Constant Matrix: (Units=GPa)
#
#
# Indices 1 2 3 4 5 6 
#
# 1 99.9129 3.8327 18.9792 -9.0213 -6.2268 9.7197
# 2 3.8327 72.1259 43.3006 -4.5460 2.6623 10.3458
# 3 18.9792 43.3006 99.4116 -13.2161 -2.6520 2.2856
# 4 -9.0213 -4.5460 -13.2161 36.1624 1.6057 -8.2600
# 5 -6.2268 2.6623 -2.6520 1.6057 28.2691 -4.8296
# 6 9.7197 10.3458 2.2856 -8.2600 -4.8296 24.4587
#
#
#
# Elastic Compliance Matrix: (Units=1/GPa)
#
#
# Indices 1 2 3 4 5 6 
#
# 1 0.011004 0.001539 -0.002507 0.001007 0.001269 -0.004199
# 2 0.001539 0.021080 -0.009707 -0.002694 -0.004173 -0.010355
# 3 -0.002507 -0.009707 0.015362 0.004993 0.002519 0.005850
# 4 0.001007 -0.002694 0.004993 0.031915 0.001055 0.011259
# 5 0.001269 -0.004173 0.002519 0.001055 0.037732 0.008832
# 6 -0.004199 -0.010355 0.005850 0.011259 0.008832 0.051934
#
#
# Mechanical properties :
#
#
# Convention : Reuss Voigt Hill
#
# Bulk Modulus (GPa) = 38.31816 44.85281 41.58549
# Shear Modulus (GPa) = 25.11596 31.46724 28.29160
#
# Velocity S-wave (km/s) = 3.46584 3.87938 3.67843
# Velocity P-wave (km/s) = 5.86022 6.44342 6.15873
#
# Compressibility (1/GPa) = 0.02609728
#
# Stress axis : x y z
#
# Youngs Moduli (GPa) = 90.87238 47.43829 65.09394
#
# Poissons Ratio (x) = -0.07302 0.16320
# Poissons Ratio (y) = -0.13989 0.63187
# Poissons Ratio (z) = 0.22783 0.46048
#
# Static dielectric constant tensor:
#      x y z
#    x 4.102440 0.087830 0.445020 
#    y 0.087830 3.592510 -0.032310 
#    z 0.445020 -0.032310 4.404900 
# 
# 
# High freq. dielectric constant tensor:
#      x y z
#    x 1.841030 0.008080 0.013230 
#    y 0.008080 1.777920 -0.023160 
#    z 0.013230 -0.023160 1.827970 
# 
# From -- ./inp_files/482960.got.cif
#   From: 2010.06.25/outbox.cif.g09.slc.cpg/sg2_242_cif.got.tgz:482960.got - 2010.06.27 13:26:56.
