data_PCOD8016640
_publ_section_title
;
Structure prediction by ZEFSAII (Michael W. Deem and Ramdas Pophale) SiO2 
 PCOD8016640
Probable space group: P -1
;
_chemical_formula_sum "Si O2"
_cell_formula_units_Z 14
_cell_length_a 6.687071
_cell_length_b 28.870676
_cell_length_c 5.367694
_cell_angle_alpha 55.934028
_cell_angle_beta 103.466171
_cell_angle_gamma 138.238606
_cell_volume 538.672918
_symmetry_space_group_name_H-M "P -1"
_symmetry_group_IT_number 2
_symmetry_cell_setting 'triclinic'
loop_
_space_group_symop_operation_xyz
x,y,z
-x,-y,-z
loop_
_atom_site_type_symbol
_atom_site_label
_atom_site_fract_x
_atom_site_fract_y
_atom_site_fract_z
Si Si1 0.257465 0.033985 0.271781
Si Si2 0.005345 0.727685 0.708412
Si Si3 0.918572 0.154876 0.962601
Si Si4 0.622268 0.405035 0.819759
Si Si5 0.490948 0.735905 0.861438
Si Si6 0.539241 0.442482 0.175979
Si Si7 0.938257 0.897989 0.211312
O O1 0.160380 0.955627 0.343755
O O2 0.634775 0.105418 0.235225
O O3 0.000000 0.000000 0.500000
O O4 0.259640 0.086192 0.922880
O O5 0.130457 0.811532 0.379820
O O6 0.284929 0.747206 0.842832
O O7 0.815760 0.656770 0.641963
O O8 0.762648 0.684869 0.000377
O O9 0.869155 0.082530 0.038281
O O10 0.273454 0.231906 0.942438
O O11 0.719453 0.458132 0.433345
O O12 0.744020 0.365655 0.963646
O O13 0.738232 0.463706 0.921875
O O14 0.698165 0.796657 0.499185
O O15 0.500000 0.500000 0.000000
#
# Coordination Sequence:
#
# PCOD8016640 Si02
#       7
#     2   2   2   2   2   2   2
#     4  11  26  45  66 100 135 181 236 294 366 424
#     4  10  24  42  70 103 137 181 237 288 346 426
#     4  12  24  45  71  95 140 183 235 296 361 421
#     4  10  22  43  69 105 142 184 236 287 350 424
#     4  12  23  42  71 102 131 184 235 289 351 420
#     4  10  21  45  72 102 148 189 225 290 356 416
#     4  11  24  43  67  96 133 179 236 293 356 427
#
# _framework density 25.989801
#
# number of rings (size 3 to 8) (size 9 to 14) (size 15 to 20)
#    0.857    0.286    4.286    1.714    0.000    8.000 
#    0.000    1.429    0.000    0.000    0.000    0.000 
#    0.000    0.000    0.000    0.000    0.000    0.000 
#
# Total GULP energy -173446.960997 kJ/mol
# GULP energy per Si atom -12389.068643 kJ/mol
# Density = 2.593065 g / cm^3
# Si number density = 25.989801 Si / 1000 Ang^3
#
#
#
# Elastic Constant Matrix: (Units=GPa)
#
#
# Indices 1 2 3 4 5 6 
#
# 1 104.0534 18.2232 15.4120 12.1932 8.3290 -20.7815
# 2 18.2232 73.9617 11.4491 13.4480 8.3600 -30.4443
# 3 15.4120 11.4491 83.0861 16.3888 3.8922 -17.6712
# 4 12.1932 13.4480 16.3888 39.7120 -7.9603 4.9949
# 5 8.3290 8.3600 3.8922 -7.9603 46.9341 1.7363
# 6 -20.7815 -30.4443 -17.6712 4.9949 1.7363 44.3743
#
#
#
# Elastic Compliance Matrix: (Units=1/GPa)
#
#
# Indices 1 2 3 4 5 6 
#
# 1 0.011813 0.001807 0.000653 -0.006268 -0.003827 0.007888
# 2 0.001807 0.025169 0.004269 -0.015307 -0.008563 0.021872
# 3 0.000653 0.004269 0.015919 -0.010467 -0.004376 0.010924
# 4 -0.006268 -0.015307 -0.010467 0.042022 0.012679 -0.022832
# 5 -0.003827 -0.008563 -0.004376 0.012679 0.026463 -0.011873
# 6 0.007888 0.021872 0.010924 -0.022832 -0.011873 0.048620
#
#
# Mechanical properties :
#
#
# Convention : Reuss Voigt Hill
#
# Bulk Modulus (GPa) = 15.06942 39.02999 27.04971
# Shear Modulus (GPa) = 27.98476 40.60519 34.29497
#
# Velocity S-wave (km/s) = 3.28496 3.95695 3.63651
# Velocity P-wave (km/s) = 4.49430 5.99388 5.29742
#
# Compressibility (1/GPa) = 0.06635956
#
# Stress axis : x y z
#
# Youngs Moduli (GPa) = 84.64949 39.73205 62.81721
#
# Poissons Ratio (x) = -0.07181 -0.04101
# Poissons Ratio (y) = -0.15299 -0.26816
# Poissons Ratio (z) = -0.05527 -0.16961
#
# Static dielectric constant tensor:
#      x y z
#    x 4.741930 -0.119940 0.154520 
#    y -0.119940 4.343340 -0.152430 
#    z 0.154520 -0.152430 4.525950 
# 
# 
# High freq. dielectric constant tensor:
#      x y z
#    x 2.053470 -0.011540 0.012340 
#    y -0.011540 2.022360 -0.011950 
#    z 0.012340 -0.011950 2.037140 
# 
# From -- ./inp_files/14871.got.cif
#   From: 2010.06.25/outbox.cif.g09.slc.cpg/sg2_8_cif.got.tgz:14871.got - 2010.06.27 13:26:56.
