data_PCOD8016155
_publ_section_title
;
Structure prediction by ZEFSAII (Michael W. Deem and Ramdas Pophale) SiO2 
 PCOD8016155
Probable space group: P -1
;
_chemical_formula_sum "Si O2"
_cell_formula_units_Z 16
_cell_length_a 9.440218
_cell_length_b 24.379659
_cell_length_c 8.572389
_cell_angle_alpha 49.894024
_cell_angle_beta 103.297459
_cell_angle_gamma 143.116366
_cell_volume 709.596908
_symmetry_space_group_name_H-M "P -1"
_symmetry_group_IT_number 2
_symmetry_cell_setting 'triclinic'
loop_
_space_group_symop_operation_xyz
x,y,z
-x,-y,-z
loop_
_atom_site_type_symbol
_atom_site_label
_atom_site_fract_x
_atom_site_fract_y
_atom_site_fract_z
Si Si1 0.423225 0.451212 0.390961
Si Si2 0.697604 0.447336 0.944203
Si Si3 0.936444 0.608043 0.020003
Si Si4 0.811581 0.100990 0.839514
Si Si5 0.229351 0.606504 0.224067
Si Si6 0.077839 0.090551 0.120089
Si Si7 0.797573 0.126040 0.445287
Si Si8 0.098047 0.124077 0.409870
O O1 0.500000 0.500000 0.500000
O O2 0.434363 0.530909 0.159022
O O3 0.092037 0.273855 0.629020
O O4 0.661495 0.502388 0.266583
O O5 0.859959 0.522369 0.013532
O O6 0.882707 0.498586 0.745875
O O7 0.458300 0.278825 0.207848
O O8 0.064512 0.736305 0.747453
O O9 0.206279 0.680635 0.036600
O O10 0.752052 0.066162 0.706120
O O11 0.875487 0.050807 0.025464
O O12 0.500000 0.000000 0.000000
O O13 0.000000 0.500000 0.500000
O O14 0.571529 0.736828 0.126457
O O15 0.953182 0.046186 0.346322
O O16 0.020507 0.979829 0.290440
O O17 0.035535 0.180464 0.317413
O O18 0.500000 0.000000 0.500000
#
# Coordination Sequence:
#
# PCOD8016155 Si02
#       8
#     2   2   2   2   2   2   2   2
#     4  12  24  44  75 105 144 189 237 305 364 427
#     4  11  22  43  69 101 139 189 239 296 352 427
#     4  12  24  45  72 104 144 188 252 295 360 438
#     4  12  27  45  69 104 145 182 242 302 363 432
#     4  11  24  44  68 107 146 191 236 294 363 436
#     4  10  23  46  69 100 143 185 237 298 365 427
#     4  12  25  43  71 103 139 191 247 298 362 431
#     4  10  21  43  71  95 136 190 237 292 361 424
#
# _framework density 22.548012
#
# number of rings (size 3 to 8) (size 9 to 14) (size 15 to 20)
#    0.000    0.750    2.500    6.000    1.750    2.500 
#    4.500    0.000    0.000    0.000    0.000    0.000 
#    0.000    0.000    0.000    0.000    0.000    0.000 
#
# Total GULP energy -198266.779550 kJ/mol
# GULP energy per Si atom -12391.673722 kJ/mol
# Density = 2.249669 g / cm^3
# Si number density = 22.548012 Si / 1000 Ang^3
#
#
#
# Elastic Constant Matrix: (Units=GPa)
#
#
# Indices 1 2 3 4 5 6 
#
# 1 124.1554 40.6570 35.7787 10.5327 -0.8432 10.7213
# 2 40.6570 129.7223 51.3830 13.3319 -2.0102 6.1699
# 3 35.7787 51.3830 103.2683 6.1619 2.6150 5.2613
# 4 10.5327 13.3319 6.1619 35.9432 -0.2408 4.4613
# 5 -0.8432 -2.0102 2.6150 -0.2408 49.1211 8.1110
# 6 10.7213 6.1699 5.2613 4.4613 8.1110 46.6509
#
#
#
# Elastic Compliance Matrix: (Units=1/GPa)
#
#
# Indices 1 2 3 4 5 6 
#
# 1 0.009585 -0.001882 -0.002222 -0.001523 0.000469 -0.001639
# 2 -0.001882 0.010290 -0.004320 -0.002481 0.000659 -0.000319
# 3 -0.002222 -0.004320 0.012629 0.000108 -0.000853 -0.000204
# 4 -0.001523 -0.002481 0.000108 0.029447 0.000377 -0.002216
# 5 0.000469 0.000659 -0.000853 0.000377 0.021067 -0.003798
# 6 -0.001639 -0.000319 -0.000204 -0.002216 -0.003798 0.022750
#
#
# Mechanical properties :
#
#
# Convention : Reuss Voigt Hill
#
# Bulk Modulus (GPa) = 63.87780 68.08703 65.98242
# Shear Modulus (GPa) = 39.11278 41.63151 40.37214
#
# Velocity S-wave (km/s) = 4.16942 4.30158 4.23602
# Velocity P-wave (km/s) = 7.18122 7.41171 7.29738
#
# Compressibility (1/GPa) = 0.01565489
#
# Stress axis : x y z
#
# Youngs Moduli (GPa) = 104.32938 97.17845 79.18567
#
# Poissons Ratio (x) = 0.18292 0.17593
# Poissons Ratio (y) = 0.19638 0.34212
# Poissons Ratio (z) = 0.23180 0.41985
#
# Static dielectric constant tensor:
#      x y z
#    x 4.442830 -0.061940 0.083290 
#    y -0.061940 4.193460 0.171300 
#    z 0.083290 0.171300 4.070860 
# 
# 
# High freq. dielectric constant tensor:
#      x y z
#    x 1.904950 -0.000810 0.005450 
#    y -0.000810 1.882970 0.010180 
#    z 0.005450 0.010180 1.891640 
# 
# From -- ./inp_files/226165.got.cif
#   From: 2010.06.25/outbox.cif.g09.slc.cpg/sg2_114_cif.got.tgz:226165.got - 2010.06.27 13:26:56.
