data_PCOD8016274
_publ_section_title
;
Structure prediction by ZEFSAII (Michael W. Deem and Ramdas Pophale) SiO2 
 PCOD8016274
Probable space group: P -1
;
_chemical_formula_sum "Si O2"
_cell_formula_units_Z 16
_cell_length_a 13.558582
_cell_length_b 8.026447
_cell_length_c 19.733917
_cell_angle_alpha 129.323780
_cell_angle_beta 144.472366
_cell_angle_gamma 75.797178
_cell_volume 771.244843
_symmetry_space_group_name_H-M "P -1"
_symmetry_group_IT_number 2
_symmetry_cell_setting 'triclinic'
loop_
_space_group_symop_operation_xyz
x,y,z
-x,-y,-z
loop_
_atom_site_type_symbol
_atom_site_label
_atom_site_fract_x
_atom_site_fract_y
_atom_site_fract_z
Si Si1 0.171412 0.774890 0.301742
Si Si2 0.113347 0.274728 0.593908
Si Si3 0.990369 0.056732 0.323178
Si Si4 0.583813 0.829614 0.568706
Si Si5 0.797637 0.263239 0.019035
Si Si6 0.050211 0.443998 0.345194
Si Si7 0.518985 0.714892 0.652618
Si Si8 0.441740 0.481864 0.040174
O O1 0.393290 0.852512 0.470662
O O2 0.984374 0.453367 0.117192
O O3 0.208150 0.901224 0.279481
O O4 0.107424 0.915246 0.354344
O O5 0.032696 0.434405 0.621009
O O6 0.364697 0.435244 0.781997
O O7 0.056988 0.237898 0.473813
O O8 0.000000 0.000000 0.500000
O O9 0.049647 0.224468 0.331012
O O10 0.739218 0.827395 0.123032
O O11 0.637649 0.811808 0.671337
O O12 0.515752 0.563163 0.419858
O O13 0.896387 0.311226 0.160764
O O14 0.627429 0.325422 0.936033
O O15 0.677600 0.949027 0.854474
O O16 0.291757 0.664885 0.511899
O O17 0.500000 0.500000 0.000000
#
# Coordination Sequence:
#
# PCOD8016274 Si02
#       8
#     2   2   2   2   2   2   2   2
#     4  10  21  44  65  96 130 167 218 275 320 379
#     4  12  23  40  70  92 127 176 213 260 326 384
#     4  11  25  41  66  95 132 172 213 269 321 385
#     4  10  22  43  69  93 130 168 220 273 323 392
#     4  11  24  41  69  94 133 175 211 272 325 382
#     4  12  24  44  62  98 140 164 217 271 318 390
#     4  11  24  42  69  97 127 176 214 268 336 382
#     4  11  22  42  62  95 128 167 221 261 314 391
#
# _framework density 20.745683
#
# number of rings (size 3 to 8) (size 9 to 14) (size 15 to 20)
#    0.000    1.000    5.000    1.875    1.750    2.500 
#    0.000    1.250    0.000    0.000    0.000    0.000 
#    0.000    0.000    0.000    0.000    0.000    0.000 
#
# Total GULP energy -198416.316911 kJ/mol
# GULP energy per Si atom -12401.019807 kJ/mol
# Density = 2.069847 g / cm^3
# Si number density = 20.745683 Si / 1000 Ang^3
#
#
#
# Elastic Constant Matrix: (Units=GPa)
#
#
# Indices 1 2 3 4 5 6 
#
# 1 96.3902 28.2143 55.9121 1.0273 6.4167 1.2687
# 2 28.2143 75.5343 36.1116 0.6335 -3.7982 0.6441
# 3 55.9121 36.1116 127.8761 0.6937 -9.2168 -4.0985
# 4 1.0273 0.6335 0.6937 24.7882 -0.1986 6.6475
# 5 6.4167 -3.7982 -9.2168 -0.1986 32.0373 2.5224
# 6 1.2687 0.6441 -4.0985 6.6475 2.5224 36.3846
#
#
#
# Elastic Compliance Matrix: (Units=1/GPa)
#
#
# Indices 1 2 3 4 5 6 
#
# 1 0.015189 -0.002959 -0.006198 -0.000212 -0.005116 -0.000782
# 2 -0.002959 0.015916 -0.003103 -0.000013 0.001637 -0.000639
# 3 -0.006198 -0.003103 0.011751 -0.000326 0.004145 0.001367
# 4 -0.000212 -0.000013 -0.000326 0.042471 0.000828 -0.007846
# 5 -0.005116 0.001637 0.004145 0.000828 0.033778 -0.001877
# 6 -0.000782 -0.000639 0.001367 -0.007846 -0.001877 0.029240
#
#
# Mechanical properties :
#
#
# Convention : Reuss Voigt Hill
#
# Bulk Modulus (GPa) = 54.54149 60.03074 57.28611
# Shear Modulus (GPa) = 27.93657 30.61285 29.27471
#
# Velocity S-wave (km/s) = 3.67361 3.84555 3.76057
# Velocity P-wave (km/s) = 6.65894 6.97976 6.82124
#
# Compressibility (1/GPa) = 0.01833467
#
# Stress axis : x y z
#
# Youngs Moduli (GPa) = 65.83645 62.83083 85.10065
#
# Poissons Ratio (x) = 0.18592 0.52748
# Poissons Ratio (y) = 0.19482 0.26408
# Poissons Ratio (z) = 0.40807 0.19497
#
# Static dielectric constant tensor:
#      x y z
#    x 3.976120 -0.081610 0.299670 
#    y -0.081610 3.848470 0.041350 
#    z 0.299670 0.041350 3.846220 
# 
# 
# High freq. dielectric constant tensor:
#      x y z
#    x 1.824810 -0.007410 0.016140 
#    y -0.007410 1.815720 0.005860 
#    z 0.016140 0.005860 1.801090 
# 
# From -- ./inp_files/528595.got.cif
#   From: 2010.06.25/outbox.cif.g09.slc.cpg/sg2_265_cif.got.tgz:528595.got - 2010.06.27 13:26:56.
