data_PCOD8016478
_publ_section_title
;
Structure prediction by ZEFSAII (Michael W. Deem and Ramdas Pophale) SiO2 
 PCOD8016478
Probable space group: P -1
;
_chemical_formula_sum "Si O2"
_cell_formula_units_Z 14
_cell_length_a 10.853518
_cell_length_b 8.830073
_cell_length_c 10.986220
_cell_angle_alpha 111.082077
_cell_angle_beta 88.419017
_cell_angle_gamma 139.364290
_cell_volume 585.312769
_symmetry_space_group_name_H-M "P -1"
_symmetry_group_IT_number 2
_symmetry_cell_setting 'triclinic'
loop_
_space_group_symop_operation_xyz
x,y,z
-x,-y,-z
loop_
_atom_site_type_symbol
_atom_site_label
_atom_site_fract_x
_atom_site_fract_y
_atom_site_fract_z
Si Si1 0.713070 0.045006 0.186244
Si Si2 0.121019 0.126741 0.907082
Si Si3 0.962633 0.397237 0.767249
Si Si4 0.674514 0.366424 0.060700
Si Si5 0.179462 0.102261 0.361010
Si Si6 0.488210 0.989839 0.354416
Si Si7 0.399327 0.576509 0.653855
O O1 0.924685 0.372414 0.270082
O O2 0.742662 0.890678 0.107693
O O3 0.609344 0.957532 0.296445
O O4 0.542752 0.943812 0.066445
O O5 0.271313 0.440846 0.987315
O O6 0.973383 0.971123 0.748917
O O7 0.000000 0.000000 0.000000
O O8 0.746567 0.257109 0.765160
O O9 0.131276 0.555849 0.918649
O O10 0.912868 0.161645 0.654828
O O11 0.648660 0.429827 0.208479
O O12 0.225848 0.268298 0.521152
O O13 0.378703 0.273262 0.322324
O O14 0.500000 0.000000 0.500000
O O15 0.613042 0.276578 0.385860
#
# Coordination Sequence:
#
# PCOD8016478 Si02
#       7
#     2   2   2   2   2   2   2
#     4  12  26  45  73 103 148 182 233 300 352 413
#     4  11  26  44  69 106 140 188 235 290 362 416
#     4  10  24  45  70 106 130 191 233 286 355 411
#     4  11  24  46  71  99 137 188 245 283 346 427
#     4   9  22  43  71  98 142 183 239 292 340 425
#     4  11  27  44  68 110 148 182 230 292 364 416
#     4  10  21  44  71  99 137 188 241 286 346 418
#
# _framework density 23.918835000000001
#
# number of rings (size 3 to 8) (size 9 to 14) (size 15 to 20)
#    0.000    1.429    1.429    1.714    4.000    8.000 
#    0.000    0.000    0.000    0.000    0.000    0.000 
#    0.000    0.000    0.000    0.000    0.000    0.000 
#
# Total GULP energy -173558.282171 kJ/mol
# GULP energy per Si atom -12397.020155 kJ/mol
# Density = 2.386439 g / cm^3
# Si number density = 23.918835 Si / 1000 Ang^3
#
#
#
# Elastic Constant Matrix: (Units=GPa)
#
#
# Indices 1 2 3 4 5 6 
#
# 1 111.0361 16.8506 0.7129 -4.7883 -4.9705 13.3465
# 2 16.8506 111.8375 24.5354 -0.0301 -7.6569 4.3715
# 3 0.7129 24.5354 65.3758 0.9774 -2.8105 4.0672
# 4 -4.7883 -0.0301 0.9774 45.7125 9.7191 6.1742
# 5 -4.9705 -7.6569 -2.8105 9.7191 31.8579 -4.3944
# 6 13.3465 4.3715 4.0672 6.1742 -4.3944 22.5505
#
#
#
# Elastic Compliance Matrix: (Units=1/GPa)
#
#
# Indices 1 2 3 4 5 6 
#
# 1 0.010064 -0.001453 0.000796 0.001937 -0.000180 -0.006384
# 2 -0.001453 0.010105 -0.003688 -0.000517 0.002049 0.000107
# 3 0.000796 -0.003688 0.016856 0.000017 0.000343 -0.002734
# 4 0.001937 -0.000517 0.000017 0.025273 -0.008868 -0.009697
# 5 -0.000180 0.002049 0.000343 -0.008868 0.035839 0.009060
# 6 -0.006384 0.000107 -0.002734 -0.009697 0.009060 0.053016
#
#
# Mechanical properties :
#
#
# Convention : Reuss Voigt Hill
#
# Bulk Modulus (GPa) = 35.29043 41.38303 38.33673
# Shear Modulus (GPa) = 29.53522 36.43422 32.98472
#
# Velocity S-wave (km/s) = 3.51780 3.90711 3.71755
# Velocity P-wave (km/s) = 5.59340 6.13946 5.87278
#
# Compressibility (1/GPa) = 0.02833629
#
# Stress axis : x y z
#
# Youngs Moduli (GPa) = 99.36103 98.95623 59.32602
#
# Poissons Ratio (x) = 0.14382 -0.04723
# Poissons Ratio (y) = 0.14441 0.21877
# Poissons Ratio (z) = -0.07911 0.36491
#
# Static dielectric constant tensor:
#      x y z
#    x 4.552280 0.173790 0.160810 
#    y 0.173790 4.621350 0.248980 
#    z 0.160810 0.248980 4.136010 
# 
# 
# High freq. dielectric constant tensor:
#      x y z
#    x 1.958440 0.012140 0.001100 
#    y 0.012140 1.960720 0.015810 
#    z 0.001100 0.015810 1.933120 
# 
# From -- ./inp_files/316067.got.cif
#   From: 2010.06.25/outbox.cif.g09.slc.cpg/sg2_159_cif.got.tgz:316067.got - 2010.06.27 13:26:56.
