data_PCOD8016387
_publ_section_title
;
Structure prediction by ZEFSAII (Michael W. Deem and Ramdas Pophale) SiO2 
 PCOD8016387
Probable space group: P -1
;
_chemical_formula_sum "Si O2"
_cell_formula_units_Z 12
_cell_length_a 14.952880
_cell_length_b 5.258162
_cell_length_c 6.301406
_cell_angle_alpha 102.890331
_cell_angle_beta 74.434421
_cell_angle_gamma 115.577474
_cell_volume 427.212186
_symmetry_space_group_name_H-M "P -1"
_symmetry_group_IT_number 2
_symmetry_cell_setting 'triclinic'
loop_
_space_group_symop_operation_xyz
x,y,z
-x,-y,-z
loop_
_atom_site_type_symbol
_atom_site_label
_atom_site_fract_x
_atom_site_fract_y
_atom_site_fract_z
Si Si1 0.460411 0.919571 0.280569
Si Si2 0.575693 0.534559 0.157487
Si Si3 0.277550 0.029866 0.528622
Si Si4 0.760179 0.634785 0.770173
Si Si5 0.105575 0.902668 0.935327
Si Si6 0.068641 0.478543 0.266426
O O1 0.499083 0.671760 0.144437
O O2 0.500000 0.000000 0.500000
O O3 0.336683 0.830812 0.363117
O O4 0.486587 0.802155 0.841379
O O5 0.633369 0.696198 0.361901
O O6 0.650297 0.515634 0.920222
O O7 0.233560 0.158983 0.391318
O O8 0.192019 0.864962 0.722475
O O9 0.823178 0.436954 0.655462
O O10 0.840304 0.784555 0.942453
O O11 0.002193 0.834491 0.852086
O O12 0.085620 0.698027 0.109721
O O13 0.000000 0.500000 0.500000
#
# Coordination Sequence:
#
# PCOD8016387 Si02
#       6
#     2   2   2   2   2   2
#     4  10  21  44  69 103 143 195 231 287 355 420
#     4  10  24  44  70 101 150 188 235 290 354 418
#     4  10  22  42  69 101 135 183 232 288 347 427
#     4  11  25  43  68 103 134 182 235 291 352 422
#     4  10  24  46  67  98 138 181 221 297 352 429
#     4  11  25  45  70  99 134 179 232 291 361 428
#
# _framework density 28.089089000000001
#
# number of rings (size 3 to 8) (size 9 to 14) (size 15 to 20)
#    0.000    1.667    0.000    3.500    7.000    9.333 
#   12.000    0.000    0.000    0.000    0.000    0.000 
#    0.000    0.000    0.000    0.000    0.000    0.000 
#
# Total GULP energy -148686.282786 kJ/mol
# GULP energy per Si atom -12390.523565 kJ/mol
# Density = 2.802516 g / cm^3
# Si number density = 28.089089 Si / 1000 Ang^3
#
#
#
# Elastic Constant Matrix: (Units=GPa)
#
#
# Indices 1 2 3 4 5 6 
#
# 1 277.5373 55.3690 83.9460 -18.9669 -6.0246 8.1674
# 2 55.3690 70.4901 52.5630 -35.1535 -15.3030 -10.0157
# 3 83.9460 52.5630 173.0254 -25.1861 -14.4343 -7.9298
# 4 -18.9669 -35.1535 -25.1861 53.1365 11.3580 -0.1934
# 5 -6.0246 -15.3030 -14.4343 11.3580 51.3441 -3.0109
# 6 8.1674 -10.0157 -7.9298 -0.1934 -3.0109 61.7690
#
#
#
# Elastic Compliance Matrix: (Units=1/GPa)
#
#
# Indices 1 2 3 4 5 6 
#
# 1 0.004711 -0.003551 -0.001514 -0.001231 -0.000743 -0.001433
# 2 -0.003551 0.029494 -0.004449 0.015293 0.004029 0.004925
# 3 -0.001514 -0.004449 0.007972 0.000139 0.000738 0.000539
# 4 -0.001231 0.015293 0.000139 0.028957 -0.001797 0.002663
# 5 -0.000743 0.004029 0.000738 -0.001797 0.021305 0.001879
# 6 -0.001433 0.004925 0.000539 0.002663 0.001879 0.017347
#
#
# Mechanical properties :
#
#
# Convention : Reuss Voigt Hill
#
# Bulk Modulus (GPa) = 43.19745 100.53431 71.86588
# Shear Modulus (GPa) = 36.62170 55.19491 45.90831
#
# Velocity S-wave (km/s) = 3.61469 4.43763 4.04714
# Velocity P-wave (km/s) = 5.73005 7.88199 6.89054
#
# Compressibility (1/GPa) = 0.02314952
#
# Stress axis : x y z
#
# Youngs Moduli (GPa) = 212.25478 33.90497 125.43571
#
# Poissons Ratio (x) = 0.12039 0.18991
# Poissons Ratio (y) = 0.75365 0.55812
# Poissons Ratio (z) = 0.32135 0.15086
#
# Static dielectric constant tensor:
#      x y z
#    x 5.625850 2.164900 -0.195810 
#    y 2.164900 2.023970 1.693890 
#    z -0.195810 1.693890 5.635370 
# 
# 
# High freq. dielectric constant tensor:
#      x y z
#    x 2.197370 0.035660 0.012090 
#    y 0.035660 2.141760 0.042390 
#    z 0.012090 0.042390 2.193850 
# 
# From -- ./inp_files/3657.got.cif
#   From: 2010.06.25/outbox.cif.g09.slc.cpg/sg2_2_cif.got.tgz:3657.got - 2010.06.27 13:26:56.
