data_PCOD8016254
_publ_section_title
;
Structure prediction by ZEFSAII (Michael W. Deem and Ramdas Pophale) SiO2 
 PCOD8016254
Probable space group: P -1
;
_chemical_formula_sum "Si O2"
_cell_formula_units_Z 16
_cell_length_a 9.806929
_cell_length_b 14.491250
_cell_length_c 9.718546
_cell_angle_alpha 71.639575
_cell_angle_beta 107.315602
_cell_angle_gamma 53.051271
_cell_volume 803.160031
_symmetry_space_group_name_H-M "P -1"
_symmetry_group_IT_number 2
_symmetry_cell_setting 'triclinic'
loop_
_space_group_symop_operation_xyz
x,y,z
-x,-y,-z
loop_
_atom_site_type_symbol
_atom_site_label
_atom_site_fract_x
_atom_site_fract_y
_atom_site_fract_z
Si Si1 0.468117 0.943360 0.141319
Si Si2 0.431311 0.625128 0.111741
Si Si3 0.459332 0.643914 0.807718
Si Si4 0.224902 0.386944 0.710919
Si Si5 0.972710 0.919101 0.942248
Si Si6 0.540909 0.037681 0.359737
Si Si7 0.798586 0.618503 0.983325
Si Si8 0.168830 0.952177 0.464866
O O1 0.593164 0.779051 0.222524
O O2 0.210153 0.056181 0.052914
O O3 0.589424 0.933170 0.307567
O O4 0.500000 0.000000 0.000000
O O5 0.522908 0.467913 0.210288
O O6 0.637023 0.583575 0.250000
O O7 0.336687 0.700830 0.893932
O O8 0.214633 0.741313 0.090901
O O9 0.691268 0.568532 0.959222
O O10 0.358982 0.770478 0.606334
O O11 0.000000 0.500000 0.500000
O O12 0.142618 0.395707 0.832313
O O13 0.901803 0.992307 0.736780
O O14 0.000000 0.000000 0.000000
O O15 0.340619 0.214940 0.181734
O O16 0.762267 0.983308 0.473951
O O17 0.500000 0.000000 0.500000
O O18 0.000000 0.500000 0.000000
O O19 0.000000 0.000000 0.500000
#
# Coordination Sequence:
#
# PCOD8016254 Si02
#       8
#     2   2   2   2   2   2   2   2
#     4  12  26  46  68  99 140 180 226 279 347 403
#     4  10  21  44  64  99 130 174 225 270 337 394
#     4   9  21  39  68  94 130 166 220 280 322 392
#     4  11  25  44  65  95 138 182 220 280 339 404
#     4  12  25  43  72  97 139 179 220 283 339 403
#     4  11  24  42  66 100 130 172 228 276 326 405
#     4  10  23  41  65  94 132 170 219 278 337 394
#     4  11  23  41  67 101 132 170 226 275 331 397
#
# _framework density 19.921310999999999
#
# number of rings (size 3 to 8) (size 9 to 14) (size 15 to 20)
#    0.000    1.250    5.000    0.000    5.250    1.000 
#    0.000    0.625    0.000    0.000    0.000    0.000 
#    0.000    0.000    0.000    0.000    0.000    0.000 
#
# Total GULP energy -198227.418618 kJ/mol
# GULP energy per Si atom -12389.213664 kJ/mol
# Density = 1.987597 g / cm^3
# Si number density = 19.921311 Si / 1000 Ang^3
#
#
#
# Elastic Constant Matrix: (Units=GPa)
#
#
# Indices 1 2 3 4 5 6 
#
# 1 149.3435 66.7565 57.1340 14.3850 1.0883 0.6487
# 2 66.7565 135.3915 37.1807 21.2469 13.4974 3.8309
# 3 57.1340 37.1807 109.0642 22.3073 5.1536 -0.3539
# 4 14.3850 21.2469 22.3073 27.2814 -1.2037 1.0529
# 5 1.0883 13.4974 5.1536 -1.2037 31.6072 4.8266
# 6 0.6487 3.8309 -0.3539 1.0529 4.8266 51.0499
#
#
#
# Elastic Compliance Matrix: (Units=1/GPa)
#
#
# Indices 1 2 3 4 5 6 
#
# 1 0.010057 -0.004263 -0.004247 0.001592 0.002240 -0.000082
# 2 -0.004263 0.010983 0.000055 -0.006554 -0.004774 -0.000183
# 3 -0.004247 0.000055 0.013294 -0.008804 -0.002465 0.000557
# 4 0.001592 -0.006554 -0.008804 0.048437 0.006203 -0.001175
# 5 0.002240 -0.004774 -0.002465 0.006203 0.034711 -0.003097
# 6 -0.000082 -0.000183 0.000557 -0.001175 -0.003097 0.019924
#
#
# Mechanical properties :
#
#
# Convention : Reuss Voigt Hill
#
# Bulk Modulus (GPa) = 57.39584 79.54909 68.47247
# Shear Modulus (GPa) = 31.22574 37.50289 34.36432
#
# Velocity S-wave (km/s) = 3.96340 4.34355 4.15782
# Velocity P-wave (km/s) = 7.05823 8.07301 7.58262
#
# Compressibility (1/GPa) = 0.01742286
#
# Stress axis : x y z
#
# Youngs Moduli (GPa) = 99.43270 91.05339 75.22259
#
# Poissons Ratio (x) = 0.38819 0.31945
# Poissons Ratio (y) = 0.42391 -0.00412
# Poissons Ratio (z) = 0.42227 -0.00499
#
# Static dielectric constant tensor:
#      x y z
#    x 3.578030 0.140240 0.441400 
#    y 0.140240 3.637420 0.107770 
#    z 0.441400 0.107770 3.096520 
# 
# 
# High freq. dielectric constant tensor:
#      x y z
#    x 1.794540 0.005660 0.001010 
#    y 0.005660 1.786580 0.010910 
#    z 0.001010 0.010910 1.768820 
# 
# From -- ./inp_files/206400.got.cif
#   From: 2010.06.25/outbox.cif.g09.slc.cpg/sg2_104_cif.got.tgz:206400.got - 2010.06.27 13:26:56.
