data_PCOD8016668
_publ_section_title
;
Structure prediction by ZEFSAII (Michael W. Deem and Ramdas Pophale) SiO2 
 PCOD8016668
Probable space group: P -1
;
_chemical_formula_sum "Si O2"
_cell_formula_units_Z 14
_cell_length_a 8.976030
_cell_length_b 12.503922
_cell_length_c 12.405736
_cell_angle_alpha 116.796388
_cell_angle_beta 33.311457
_cell_angle_gamma 115.547882
_cell_volume 678.324177
_symmetry_space_group_name_H-M "P -1"
_symmetry_group_IT_number 2
_symmetry_cell_setting 'triclinic'
loop_
_space_group_symop_operation_xyz
x,y,z
-x,-y,-z
loop_
_atom_site_type_symbol
_atom_site_label
_atom_site_fract_x
_atom_site_fract_y
_atom_site_fract_z
Si Si1 0.413019 0.116902 0.916790
Si Si2 0.413323 0.847549 0.810499
Si Si3 0.956911 0.260957 0.191439
Si Si4 0.992266 0.209849 0.568912
Si Si5 0.293898 0.710244 0.028659
Si Si6 0.867547 0.364087 0.522829
Si Si7 0.636377 0.543025 0.049213
O O1 0.443978 0.206139 0.042431
O O2 0.708414 0.122845 0.679504
O O3 0.323484 0.980172 0.945524
O O4 0.179956 0.164894 0.005945
O O5 0.741460 0.859750 0.623115
O O6 0.314576 0.797773 0.730822
O O7 0.258546 0.756232 0.949787
O O8 0.884907 0.288389 0.369717
O O9 0.069589 0.384874 0.119403
O O10 0.968389 0.274890 0.729725
O O11 0.028404 0.306900 0.495888
O O12 0.341765 0.569980 0.936384
O O13 0.547873 0.363974 0.742120
O O14 0.000000 0.500000 0.500000
O O15 0.500000 0.500000 0.000000
#
# Coordination Sequence:
#
# PCOD8016668 Si02
#       7
#     2   2   2   2   2   2   2
#     4  10  21  46  66  87 125 174 216 244 299 389
#     4  12  25  41  62  98 133 158 205 266 323 356
#     4  12  25  40  65  98 127 163 204 268 316 362
#     4  10  22  40  64  93 120 164 219 246 304 373
#     4  10  22  40  71  89 123 167 214 252 310 370
#     4  12  21  38  72  89 122 167 220 249 300 387
#     4  12  19  43  67  94 119 164 220 253 298 382
#
# _framework density 20.639099999999999
#
# number of rings (size 3 to 8) (size 9 to 14) (size 15 to 20)
#    0.857    0.000    5.714    3.000    0.000    1.714 
#    0.000    5.714    0.000    0.000    0.000    0.000 
#    0.000    0.000    0.000    0.000    0.000    0.000 
#
# Total GULP energy -173553.025827 kJ/mol
# GULP energy per Si atom -12396.644702 kJ/mol
# Density = 2.059212 g / cm^3
# Si number density = 20.639100 Si / 1000 Ang^3
#
#
#
# Elastic Constant Matrix: (Units=GPa)
#
#
# Indices 1 2 3 4 5 6 
#
# 1 82.2148 49.4812 39.5200 0.1554 8.5576 -14.5164
# 2 49.4812 111.4807 38.1611 13.5282 -8.6042 -24.6861
# 3 39.5200 38.1611 96.9152 -2.5778 8.2395 -8.1438
# 4 0.1554 13.5282 -2.5778 28.3269 -4.0332 -1.5239
# 5 8.5576 -8.6042 8.2395 -4.0332 19.7789 -1.4865
# 6 -14.5164 -24.6861 -8.1438 -1.5239 -1.4865 28.0335
#
#
#
# Elastic Compliance Matrix: (Units=1/GPa)
#
#
# Indices 1 2 3 4 5 6 
#
# 1 0.020512 -0.008457 -0.003963 0.002179 -0.010338 0.001593
# 2 -0.008457 0.018350 -0.004129 -0.006682 0.012818 0.010897
# 3 -0.003963 -0.004129 0.013943 0.002377 -0.005541 -0.001802
# 4 0.002179 -0.006682 0.002377 0.039026 0.002984 -0.001785
# 5 -0.010338 0.012818 -0.005541 0.002984 0.064117 0.007887
# 6 0.001593 0.010897 -0.001802 -0.001785 0.007887 0.045890
#
#
# Mechanical properties :
#
#
# Convention : Reuss Voigt Hill
#
# Bulk Modulus (GPa) = 50.74479 60.54837 55.64658
# Shear Modulus (GPa) = 20.70342 26.12444 23.41393
#
# Velocity S-wave (km/s) = 3.17064 3.56163 3.37181
# Velocity P-wave (km/s) = 6.16798 6.80544 6.49454
#
# Compressibility (1/GPa) = 0.01970646
#
# Stress axis : x y z
#
# Youngs Moduli (GPa) = 48.75292 54.49475 71.72036
#
# Poissons Ratio (x) = 0.46087 0.28426
# Poissons Ratio (y) = 0.41231 0.29612
# Poissons Ratio (z) = 0.19323 0.22500
#
# Static dielectric constant tensor:
#      x y z
#    x 3.457910 -0.190840 -0.050720 
#    y -0.190840 3.741420 -0.039790 
#    z -0.050720 -0.039790 3.857600 
# 
# 
# High freq. dielectric constant tensor:
#      x y z
#    x 1.781050 -0.019620 -0.003320 
#    y -0.019620 1.809220 -0.000880 
#    z -0.003320 -0.000880 1.805040 
# 
# From -- ./inp_files/390869.got.cif
#   From: 2010.06.25/outbox.cif.g09.slc.cpg/sg2_196_cif.got.tgz:390869.got - 2010.06.27 13:26:56.
