data_PCOD8016871
_publ_section_title
;
Structure prediction by ZEFSAII (Michael W. Deem and Ramdas Pophale) SiO2 
 PCOD8016871
Probable space group: P -1
;
_chemical_formula_sum "Si O2"
_cell_formula_units_Z 12
_cell_length_a 7.592908
_cell_length_b 16.111801
_cell_length_c 5.349293
_cell_angle_alpha 116.339461
_cell_angle_beta 120.855476
_cell_angle_gamma 79.031516
_cell_volume 502.869891
_symmetry_space_group_name_H-M "P -1"
_symmetry_group_IT_number 2
_symmetry_cell_setting 'triclinic'
loop_
_space_group_symop_operation_xyz
x,y,z
-x,-y,-z
loop_
_atom_site_type_symbol
_atom_site_label
_atom_site_fract_x
_atom_site_fract_y
_atom_site_fract_z
Si Si1 0.235509 0.731217 0.283307
Si Si2 0.052892 0.446247 0.216592
Si Si3 0.372711 0.223876 0.632503
Si Si4 0.802812 0.062084 0.417964
Si Si5 0.755360 0.987368 0.784027
Si Si6 0.629260 0.683000 0.737172
O O1 0.380309 0.754983 0.179553
O O2 0.140718 0.828108 0.430486
O O3 0.381325 0.687273 0.545345
O O4 0.059051 0.655448 0.989855
O O5 0.000000 0.500000 0.500000
O O6 0.294594 0.422960 0.355912
O O7 0.000000 0.500000 0.000000
O O8 0.310554 0.117334 0.451556
O O9 0.268282 0.264357 0.360219
O O10 0.289339 0.270524 0.884061
O O11 0.673569 0.044356 0.558922
O O12 0.000000 0.000000 0.500000
O O13 0.666874 0.028177 0.033107
O O14 0.000000 0.000000 0.000000
#
# Coordination Sequence:
#
# PCOD8016871 Si02
#       6
#     2   2   2   2   2   2
#     4  10  28  45  76  99 150 184 236 292 357 410
#     4  12  29  49  77 108 134 181 239 298 366 429
#     4  10  23  44  67 103 142 192 226 289 342 415
#     4  10  23  39  64 102 139 190 229 279 333 409
#     4  10  22  36  63  98 143 182 238 273 329 401
#     4  10  25  47  72 100 141 181 237 284 360 417
#
# _framework density 23.863032
#
# number of rings (size 3 to 8) (size 9 to 14) (size 15 to 20)
#    1.000    0.667    0.000    2.000   14.000    2.667 
#    0.000    0.000    0.000    0.000    0.000    0.000 
#    0.000    0.000    0.000    0.000    0.000    0.000 
#
# Total GULP energy -148665.657367 kJ/mol
# GULP energy per Si atom -12388.804781 kJ/mol
# Density = 2.380872 g / cm^3
# Si number density = 23.863032 Si / 1000 Ang^3
#
#
#
# Elastic Constant Matrix: (Units=GPa)
#
#
# Indices 1 2 3 4 5 6 
#
# 1 62.6917 48.3596 47.7801 -3.7800 -23.0341 -10.1631
# 2 48.3596 125.7578 51.5957 -0.5171 -13.7983 -30.5570
# 3 47.7801 51.5957 153.4426 -6.0879 -56.2556 -0.7708
# 4 -3.7800 -0.5171 -6.0879 47.6961 5.1316 -9.2101
# 5 -23.0341 -13.7983 -56.2556 5.1316 47.1938 -2.3673
# 6 -10.1631 -30.5570 -0.7708 -9.2101 -2.3673 47.7556
#
#
#
# Elastic Compliance Matrix: (Units=1/GPa)
#
#
# Indices 1 2 3 4 5 6 
#
# 1 0.027627 -0.008280 -0.003085 0.001133 0.007319 0.001113
# 2 -0.008280 0.013811 -0.003381 0.000818 -0.003772 0.006991
# 3 -0.003085 -0.003381 0.013594 -0.000401 0.013654 -0.002001
# 4 0.001133 0.000818 -0.000401 0.022167 -0.001849 0.004941
# 5 0.007319 -0.003772 0.013654 -0.001849 0.040185 0.001000
# 6 0.001113 0.006991 -0.002001 0.004941 0.001000 0.026621
#
#
# Mechanical properties :
#
#
# Convention : Reuss Voigt Hill
#
# Bulk Modulus (GPa) = 39.15279 70.81813 54.98546
# Shear Modulus (GPa) = 27.47092 41.47289 34.47191
#
# Velocity S-wave (km/s) = 3.39660 4.17340 3.80488
# Velocity P-wave (km/s) = 5.64141 7.27766 6.51114
#
# Compressibility (1/GPa) = 0.02554096
#
# Stress axis : x y z
#
# Youngs Moduli (GPa) = 36.19638 72.40403 73.56010
#
# Poissons Ratio (x) = 0.59952 0.22691
# Poissons Ratio (y) = 0.29971 0.24871
# Poissons Ratio (z) = 0.11166 0.24480
#
# Static dielectric constant tensor:
#      x y z
#    x 4.909240 0.347210 -1.143860 
#    y 0.347210 3.901790 0.048270 
#    z -1.143860 0.048270 4.476750 
# 
# 
# High freq. dielectric constant tensor:
#      x y z
#    x 1.944010 -0.008040 -0.014000 
#    y -0.008040 1.949590 -0.013100 
#    z -0.014000 -0.013100 1.946910 
# 
# From -- ./inp_files/45883.got.cif
#   From: 2010.06.25/outbox.cif.g09.slc.cpg/sg2_23_cif.got.tgz:45883.got - 2010.06.27 13:26:56.
