data_PCOD8016022
_publ_section_title
;
Structure prediction by ZEFSAII (Michael W. Deem and Ramdas Pophale) SiO2 
 PCOD8016022
Probable space group: P -1
;
_chemical_formula_sum "Si O2"
_cell_formula_units_Z 16
_cell_length_a 12.015641
_cell_length_b 8.741544
_cell_length_c 11.754821
_cell_angle_alpha 129.933900
_cell_angle_beta 90.788761
_cell_angle_gamma 58.617882
_cell_volume 704.736378
_symmetry_space_group_name_H-M "P -1"
_symmetry_group_IT_number 2
_symmetry_cell_setting 'triclinic'
loop_
_space_group_symop_operation_xyz
x,y,z
-x,-y,-z
loop_
_atom_site_type_symbol
_atom_site_label
_atom_site_fract_x
_atom_site_fract_y
_atom_site_fract_z
Si Si1 0.903335 0.400235 0.680620
Si Si2 0.578261 0.614961 0.537143
Si Si3 0.386800 0.106555 0.148591
Si Si4 0.197147 0.659826 0.117258
Si Si5 0.913928 0.228522 0.346776
Si Si6 0.625142 0.787321 0.267023
Si Si7 0.374271 0.841384 0.221896
Si Si8 0.157776 0.347902 0.604144
O O1 0.779876 0.721467 0.819225
O O2 0.852019 0.321841 0.745552
O O3 0.923973 0.253259 0.494035
O O4 0.058730 0.326897 0.675610
O O5 0.500000 0.500000 0.500000
O O6 0.608949 0.685510 0.689793
O O7 0.744841 0.368579 0.371868
O O8 0.472703 0.892891 0.596060
O O9 0.426451 0.871942 0.116105
O O10 0.500000 0.000000 0.000000
O O11 0.333578 0.658586 0.120483
O O12 0.262081 0.388582 0.922325
O O13 0.046866 0.912542 0.169588
O O14 0.948675 0.376601 0.337459
O O15 0.514744 0.726590 0.251828
O O16 0.717566 0.690982 0.338073
O O17 0.229126 0.128431 0.401504
#
# Coordination Sequence:
#
# PCOD8016022 Si02
#       8
#     2   2   2   2   2   2   2   2
#     4  11  22  40  70 100 131 185 230 282 329 410
#     4  10  23  44  69  95 136 180 225 277 336 414
#     4  10  21  43  69 101 133 174 234 278 341 398
#     4  12  26  43  70 105 143 173 232 286 349 395
#     4  11  23  44  66 102 131 182 237 273 338 412
#     4  11  26  45  66 106 137 182 222 287 350 398
#     4  11  22  45  71  97 138 184 228 280 333 419
#     4  12  23  43  73  95 142 181 235 277 335 415
#
# _framework density 22.703524999999999
#
# number of rings (size 3 to 8) (size 9 to 14) (size 15 to 20)
#    0.000    1.000    5.000    3.750    1.750    2.000 
#    4.500    0.000    0.000    0.000    0.000    0.000 
#    0.000    0.000    0.000    0.000    0.000    0.000 
#
# Total GULP energy -198239.993229 kJ/mol
# GULP energy per Si atom -12389.999577 kJ/mol
# Density = 2.265185 g / cm^3
# Si number density = 22.703525 Si / 1000 Ang^3
#
#
#
# Elastic Constant Matrix: (Units=GPa)
#
#
# Indices 1 2 3 4 5 6 
#
# 1 131.7608 34.9445 31.2513 1.4026 -9.0428 13.8973
# 2 34.9445 83.7604 34.1947 3.0379 7.1387 -3.8086
# 3 31.2513 34.1947 68.0848 6.9195 -11.4097 4.4009
# 4 1.4026 3.0379 6.9195 36.2054 3.1215 -14.2646
# 5 -9.0428 7.1387 -11.4097 3.1215 28.3930 0.5198
# 6 13.8973 -3.8086 4.4009 -14.2646 0.5198 37.8439
#
#
#
# Elastic Compliance Matrix: (Units=1/GPa)
#
#
# Indices 1 2 3 4 5 6 
#
# 1 0.009733 -0.003991 -0.001320 -0.001938 0.003870 -0.004606
# 2 -0.003991 0.018807 -0.010184 0.003860 -0.010629 0.006143
# 3 -0.001320 -0.010184 0.023627 -0.007109 0.012529 -0.006140
# 4 -0.001938 0.003860 -0.007109 0.035562 -0.008637 0.015450
# 5 0.003870 -0.010629 0.012529 -0.008637 0.045252 -0.007825
# 6 -0.004606 0.006143 -0.006140 0.015450 -0.007825 0.035379
#
#
# Mechanical properties :
#
#
# Convention : Reuss Voigt Hill
#
# Bulk Modulus (GPa) = 47.22049 53.82077 50.52063
# Shear Modulus (GPa) = 24.22379 32.70283 28.46331
#
# Velocity S-wave (km/s) = 3.26998 3.79942 3.54460
# Velocity P-wave (km/s) = 5.92460 6.55780 6.24923
#
# Compressibility (1/GPa) = 0.02117725
#
# Stress axis : x y z
#
# Youngs Moduli (GPa) = 102.74282 53.17295 42.32418
#
# Poissons Ratio (x) = 0.21220 0.05586
# Poissons Ratio (y) = 0.41002 0.43103
# Poissons Ratio (z) = 0.13561 0.54152
#
# Static dielectric constant tensor:
#      x y z
#    x 4.287250 -0.324530 -0.330640 
#    y -0.324530 3.714110 0.200350 
#    z -0.330640 0.200350 4.093160 
# 
# 
# High freq. dielectric constant tensor:
#      x y z
#    x 1.895030 -0.013030 -0.030490 
#    y -0.013030 1.894800 0.011940 
#    z -0.030490 0.011940 1.888010 
# 
# From -- ./inp_files/420018.got.cif
#   From: 2010.06.25/outbox.cif.g09.slc.cpg/sg2_211_cif.got.tgz:420018.got - 2010.06.27 13:26:56.
