data_PCOD8016447
_publ_section_title
;
Structure prediction by ZEFSAII (Michael W. Deem and Ramdas Pophale) SiO2 
 PCOD8016447
Probable space group: P -1
;
_chemical_formula_sum "Si O2"
_cell_formula_units_Z 14
_cell_length_a 7.238414
_cell_length_b 9.615586
_cell_length_c 11.728661
_cell_angle_alpha 126.480321
_cell_angle_beta 86.815745
_cell_angle_gamma 113.609540
_cell_volume 582.681818
_symmetry_space_group_name_H-M "P -1"
_symmetry_group_IT_number 2
_symmetry_cell_setting 'triclinic'
loop_
_space_group_symop_operation_xyz
x,y,z
-x,-y,-z
loop_
_atom_site_type_symbol
_atom_site_label
_atom_site_fract_x
_atom_site_fract_y
_atom_site_fract_z
Si Si1 0.518015 0.651213 0.166513
Si Si2 0.578345 0.163723 0.274785
Si Si3 0.789434 0.927801 0.116974
Si Si4 0.058916 0.577875 0.192862
Si Si5 0.835308 0.434309 0.574347
Si Si6 0.126367 0.822706 0.110609
Si Si7 0.579592 0.620104 0.774916
O O1 0.686074 0.857724 0.212744
O O2 0.293160 0.638632 0.177535
O O3 0.571409 0.584035 0.254681
O O4 0.500000 0.500000 0.000000
O O5 0.633604 0.244338 0.441293
O O6 0.560917 0.329050 0.280518
O O7 0.765365 0.124603 0.195186
O O8 0.369617 0.961179 0.183557
O O9 0.025377 0.956839 0.129911
O O10 0.680120 0.785336 0.947047
O O11 0.236549 0.402865 0.309119
O O12 0.058490 0.617535 0.346896
O O13 0.007642 0.722772 0.185584
O O14 0.905601 0.351760 0.059931
O O15 0.000000 0.500000 0.500000
#
# Coordination Sequence:
#
# PCOD8016447 Si02
#       7
#     2   2   2   2   2   2   2
#     4   9  16  38  67  98 127 176 228 278 340 402
#     4  12  27  42  70 108 143 176 235 291 350 405
#     4  11  22  43  71 108 136 174 237 301 338 400
#     4  10  21  44  71 101 139 188 229 286 344 423
#     4  11  26  48  68  98 147 196 225 275 359 429
#     4  11  23  41  75 105 136 175 243 288 343 399
#     4  10  23  45  69  97 141 191 230 284 337 426
#
# _framework density 24.026837
#
# number of rings (size 3 to 8) (size 9 to 14) (size 15 to 20)
#    0.000    1.429    5.714    0.857    2.000    4.571 
#    0.000    0.714    0.000    0.000    0.000    0.000 
#    0.000    0.000    0.000    0.000    0.000    0.000 
#
# Total GULP energy -173492.880165 kJ/mol
# GULP energy per Si atom -12392.348583 kJ/mol
# Density = 2.397215 g / cm^3
# Si number density = 24.026837 Si / 1000 Ang^3
#
#
#
# Elastic Constant Matrix: (Units=GPa)
#
#
# Indices 1 2 3 4 5 6 
#
# 1 81.8919 18.7031 33.2161 -7.2995 -5.4601 -19.7179
# 2 18.7031 66.7102 34.9360 -21.0538 4.0771 -1.9662
# 3 33.2161 34.9360 140.4246 -22.9559 14.9263 -7.4380
# 4 -7.2995 -21.0538 -22.9559 35.7485 2.5310 0.1244
# 5 -5.4601 4.0771 14.9263 2.5310 40.7456 -5.7208
# 6 -19.7179 -1.9662 -7.4380 0.1244 -5.7208 37.8677
#
#
#
# Elastic Compliance Matrix: (Units=1/GPa)
#
#
# Indices 1 2 3 4 5 6 
#
# 1 0.016648 -0.003303 -0.003381 -0.001106 0.005077 0.008604
# 2 -0.003303 0.020472 -0.002512 0.009945 -0.002406 -0.001546
# 3 -0.003381 -0.002512 0.009655 0.004322 -0.004095 -0.000627
# 4 -0.001106 0.009945 0.004322 0.036735 -0.005021 -0.000090
# 5 0.005077 -0.002406 -0.004095 -0.005021 0.028115 0.005978
# 6 0.008604 -0.001546 -0.000627 -0.000090 0.005978 0.031588
#
#
# Mechanical properties :
#
#
# Convention : Reuss Voigt Hill
#
# Bulk Modulus (GPa) = 35.23308 51.41526 43.32417
# Shear Modulus (GPa) = 29.22843 36.35045 32.78944
#
# Velocity S-wave (km/s) = 3.49161 3.89383 3.69819
# Velocity P-wave (km/s) = 5.56336 6.45457 6.02547
#
# Compressibility (1/GPa) = 0.02838242
#
# Stress axis : x y z
#
# Youngs Moduli (GPa) = 60.06552 48.84741 103.57723
#
# Poissons Ratio (x) = 0.16133 0.35020
# Poissons Ratio (y) = 0.19838 0.26023
# Poissons Ratio (z) = 0.20309 0.12273
#
# Static dielectric constant tensor:
#      x y z
#    x 4.599890 -0.218230 0.159680 
#    y -0.218230 4.943130 -0.191210 
#    z 0.159680 -0.191210 4.429380 
# 
# 
# High freq. dielectric constant tensor:
#      x y z
#    x 1.961690 -0.009310 0.008450 
#    y -0.009310 1.954210 -0.017200 
#    z 0.008450 -0.017200 1.927650 
# 
# From -- ./inp_files/392846.got.cif
#   From: 2010.06.25/outbox.cif.g09.slc.cpg/sg2_197_cif.got.tgz:392846.got - 2010.06.27 13:26:56.
