data_PCOD8016020
_publ_section_title
;
Structure prediction by ZEFSAII (Michael W. Deem and Ramdas Pophale) SiO2 
 PCOD8016020
Probable space group: P -1
;
_chemical_formula_sum "Si O2"
_cell_formula_units_Z 16
_cell_length_a 9.190513
_cell_length_b 12.217363
_cell_length_c 11.261337
_cell_angle_alpha 88.703993
_cell_angle_beta 50.623900
_cell_angle_gamma 57.460290
_cell_volume 718.781492
_symmetry_space_group_name_H-M "P -1"
_symmetry_group_IT_number 2
_symmetry_cell_setting 'triclinic'
loop_
_space_group_symop_operation_xyz
x,y,z
-x,-y,-z
loop_
_atom_site_type_symbol
_atom_site_label
_atom_site_fract_x
_atom_site_fract_y
_atom_site_fract_z
Si Si1 0.879901 0.113532 0.668588
Si Si2 0.601138 0.387065 0.344048
Si Si3 0.882223 0.657204 0.160906
Si Si4 0.280375 0.338684 0.381787
Si Si5 0.602696 0.591528 0.194519
Si Si6 0.174448 0.173711 0.044694
Si Si7 0.747155 0.853014 0.438299
Si Si8 0.475461 0.852572 0.957485
O O1 0.662424 0.279650 0.731717
O O2 0.098211 0.100017 0.612456
O O3 0.755375 0.088020 0.835740
O O4 0.000000 0.000000 0.500000
O O5 0.500000 0.500000 0.500000
O O6 0.427404 0.350828 0.405783
O O7 0.594691 0.467271 0.231193
O O8 0.893845 0.237568 0.222320
O O9 0.658065 0.651995 0.276169
O O10 0.895264 0.717533 0.273615
O O11 0.825594 0.761621 0.079749
O O12 0.154539 0.486887 0.016515
O O13 0.283208 0.211319 0.428050
O O14 0.439923 0.274913 0.176595
O O15 0.000000 0.500000 0.500000
O O16 0.271363 0.215349 0.098137
O O17 0.371295 0.996437 0.932639
O O18 0.500000 0.000000 0.500000
#
# Coordination Sequence:
#
# PCOD8016020 Si02
#       8
#     2   2   2   2   2   2   2   2
#     4  12  28  44  70 101 138 186 234 282 347 415
#     4  11  24  41  71  99 138 181 232 284 343 415
#     4  10  21  43  69 100 136 177 223 288 343 411
#     4  12  28  47  71 106 144 184 233 286 353 410
#     4  10  22  41  68  96 133 176 233 271 345 410
#     4  10  23  43  71  99 136 183 232 280 352 409
#     4  12  28  45  72 101 146 178 236 290 347 409
#     4  11  26  44  73  99 143 181 230 288 346 416
#
# _framework density 22.259893999999999
#
# number of rings (size 3 to 8) (size 9 to 14) (size 15 to 20)
#    0.000    1.000    1.250    3.750   12.250    1.000 
#    0.000    0.000    0.000    0.000    0.000    0.000 
#    0.000    0.000    0.000    0.000    0.000    0.000 
#
# Total GULP energy -198372.486659 kJ/mol
# GULP energy per Si atom -12398.280416 kJ/mol
# Density = 2.220923 g / cm^3
# Si number density = 22.259894 Si / 1000 Ang^3
#
#
#
# Elastic Constant Matrix: (Units=GPa)
#
#
# Indices 1 2 3 4 5 6 
#
# 1 155.4544 27.1234 53.3445 16.8670 -12.3541 8.3634
# 2 27.1234 93.7319 29.9322 6.7169 -9.8822 -10.4629
# 3 53.3445 29.9322 102.3158 12.6889 7.9821 -2.9615
# 4 16.8670 6.7169 12.6889 21.1251 3.9437 -1.0612
# 5 -12.3541 -9.8822 7.9821 3.9437 49.1124 7.3227
# 6 8.3634 -10.4629 -2.9615 -1.0612 7.3227 38.0852
#
#
#
# Elastic Compliance Matrix: (Units=1/GPa)
#
#
# Indices 1 2 3 4 5 6 
#
# 1 0.009091 -0.000896 -0.004209 -0.005314 0.003730 -0.003435
# 2 -0.000896 0.012643 -0.003128 -0.001754 0.002537 0.002890
# 3 -0.004209 -0.003128 0.013614 -0.002998 -0.003928 0.001795
# 4 -0.005314 -0.001754 -0.002998 0.055239 -0.006110 0.003166
# 5 0.003730 0.002537 -0.003928 -0.006110 0.023708 -0.005156
# 6 -0.003435 0.002890 0.001795 0.003166 -0.005156 0.029024
#
#
# Mechanical properties :
#
#
# Convention : Reuss Voigt Hill
#
# Bulk Modulus (GPa) = 52.96350 63.58914 58.27632
# Shear Modulus (GPa) = 30.10622 37.73802 33.92212
#
# Velocity S-wave (km/s) = 3.68161 4.12191 3.90797
# Velocity P-wave (km/s) = 6.47435 7.16116 6.82640
#
# Compressibility (1/GPa) = 0.01888093
#
# Stress axis : x y z
#
# Youngs Moduli (GPa) = 109.99564 79.09682 73.45638
#
# Poissons Ratio (x) = 0.07087 0.30919
# Poissons Ratio (y) = 0.09856 0.22979
# Poissons Ratio (z) = 0.46298 0.24743
#
# Static dielectric constant tensor:
#      x y z
#    x 4.200810 0.121110 -0.177700 
#    y 0.121110 4.196420 -0.048360 
#    z -0.177700 -0.048360 4.199520 
# 
# 
# High freq. dielectric constant tensor:
#      x y z
#    x 1.880890 -0.001680 -0.003840 
#    y -0.001680 1.888610 0.007570 
#    z -0.003840 0.007570 1.877050 
# 
# From -- ./inp_files/185114.got.cif
#   From: 2010.06.25/outbox.cif.g09.slc.cpg/sg2_93_cif.got.tgz:185114.got - 2010.06.27 13:26:56.
