data_PCOD8016461
_publ_section_title
;
Structure prediction by ZEFSAII (Michael W. Deem and Ramdas Pophale) SiO2 
 PCOD8016461
Probable space group: P -1
;
_chemical_formula_sum "Si O2"
_cell_formula_units_Z 16
_cell_length_a 9.293415
_cell_length_b 13.601971
_cell_length_c 11.252931
_cell_angle_alpha 92.471522
_cell_angle_beta 99.632751
_cell_angle_gamma 149.256683
_cell_volume 665.762472
_symmetry_space_group_name_H-M "P -1"
_symmetry_group_IT_number 2
_symmetry_cell_setting 'triclinic'
loop_
_space_group_symop_operation_xyz
x,y,z
-x,-y,-z
loop_
_atom_site_type_symbol
_atom_site_label
_atom_site_fract_x
_atom_site_fract_y
_atom_site_fract_z
Si Si1 0.971365 0.225626 0.151929
Si Si2 0.280225 0.825663 0.090518
Si Si3 0.233326 0.767579 0.486147
Si Si4 0.158215 0.333697 0.428099
Si Si5 0.129809 0.101523 0.152392
Si Si6 0.432823 0.811446 0.758972
Si Si7 0.835696 0.407465 0.754427
Si Si8 0.839573 0.942877 0.353434
O O1 0.103845 0.357612 0.296230
O O2 0.172503 0.245027 0.166147
O O3 0.606085 0.981992 0.089891
O O4 0.996934 0.316163 0.049401
O O5 0.148003 0.657617 0.137784
O O6 0.331175 0.958330 0.175889
O O7 0.332547 0.756484 0.606212
O O8 0.138495 0.641629 0.362006
O O9 0.928484 0.648053 0.474184
O O10 0.500000 0.000000 0.500000
O O11 0.500000 0.500000 0.500000
O O12 0.906681 0.098399 0.370172
O O13 0.439175 0.222239 0.206337
O O14 0.948709 0.961566 0.242632
O O15 0.000000 0.000000 0.000000
O O16 0.151319 0.658643 0.807360
O O17 0.527065 0.290563 0.702659
O O18 0.000000 0.000000 0.500000
#
# Coordination Sequence:
#
# PCOD8016461 Si02
#       8
#     2   2   2   2   2   2   2   2
#     4  10  21  44  71  93 139 187 223 287 356 411
#     4  11  21  46  73  94 138 187 226 285 349 419
#     4  12  22  44  68  98 139 184 233 283 354 415
#     4  11  24  41  69  99 131 184 236 282 355 425
#     4  11  23  43  69 103 137 184 233 293 358 419
#     4  12  25  41  72 105 135 186 237 287 353 420
#     4  12  25  43  69 107 137 182 241 291 345 431
#     4  11  24  43  64  97 145 180 230 299 354 412
#
# _framework density 24.032596000000002
#
# number of rings (size 3 to 8) (size 9 to 14) (size 15 to 20)
#    0.000    0.750    7.500    1.125    5.250    0.000 
#    0.000    7.500    2.750    0.000    0.000    0.000 
#    0.000    0.000    0.000    0.000    0.000    0.000 
#
# Total GULP energy -198274.024758 kJ/mol
# GULP energy per Si atom -12392.126547 kJ/mol
# Density = 2.397790 g / cm^3
# Si number density = 24.032596 Si / 1000 Ang^3
#
#
#
# Elastic Constant Matrix: (Units=GPa)
#
#
# Indices 1 2 3 4 5 6 
#
# 1 115.8450 23.9187 28.2694 -10.2428 23.4802 27.3155
# 2 23.9187 92.1116 40.2152 -8.6262 22.4428 13.5869
# 3 28.2694 40.2152 140.3093 -31.1824 27.5304 16.4145
# 4 -10.2428 -8.6262 -31.1824 34.9838 -0.5705 4.4259
# 5 23.4802 22.4428 27.5304 -0.5705 57.1641 -0.8630
# 6 27.3155 13.5869 16.4145 4.4259 -0.8630 40.0291
#
#
#
# Elastic Compliance Matrix: (Units=1/GPa)
#
#
# Indices 1 2 3 4 5 6 
#
# 1 0.012274 -0.000407 0.001043 0.005523 -0.005471 -0.009394
# 2 -0.000407 0.013647 -0.002199 0.001689 -0.004171 -0.003729
# 3 0.001043 -0.002199 0.011688 0.010865 -0.005177 -0.006071
# 4 0.005523 0.001689 0.010865 0.041893 -0.007951 -0.013601
# 5 -0.005471 -0.004171 -0.005177 -0.007951 0.023923 0.008667
# 6 -0.009394 -0.003729 -0.006071 -0.013601 0.008667 0.036838
#
#
# Mechanical properties :
#
#
# Convention : Reuss Voigt Hill
#
# Bulk Modulus (GPa) = 28.99979 59.23028 44.11504
# Shear Modulus (GPa) = 32.28243 43.49290 37.88766
#
# Velocity S-wave (km/s) = 3.66905 4.25873 3.97484
# Velocity P-wave (km/s) = 5.48109 6.99154 6.28188
#
# Compressibility (1/GPa) = 0.03448300
#
# Stress axis : x y z
#
# Youngs Moduli (GPa) = 81.47436 73.27737 85.55812
#
# Poissons Ratio (x) = 0.02982 -0.08928
# Poissons Ratio (y) = 0.03315 0.18817
# Poissons Ratio (z) = -0.08502 0.16116
#
# Static dielectric constant tensor:
#      x y z
#    x 4.898760 -0.343040 0.214360 
#    y -0.343040 4.780750 -0.391430 
#    z 0.214360 -0.391430 5.053550 
# 
# 
# High freq. dielectric constant tensor:
#      x y z
#    x 1.969960 -0.004360 0.008240 
#    y -0.004360 1.925390 -0.013970 
#    z 0.008240 -0.013970 1.979310 
# 
# From -- ./inp_files/399127.got.cif
#   From: 2010.06.25/outbox.cif.g09.slc.cpg/sg2_200_cif.got.tgz:399127.got - 2010.06.27 13:26:56.
