data_PCOD8016038
_publ_section_title
;
Structure prediction by ZEFSAII (Michael W. Deem and Ramdas Pophale) SiO2 
 PCOD8016038
Probable space group: P -1
;
_chemical_formula_sum "Si O2"
_cell_formula_units_Z 14
_cell_length_a 5.281341
_cell_length_b 11.007558
_cell_length_c 11.836903
_cell_angle_alpha 82.389164
_cell_angle_beta 106.469208
_cell_angle_gamma 67.785448
_cell_volume 588.245500
_symmetry_space_group_name_H-M "P -1"
_symmetry_group_IT_number 2
_symmetry_cell_setting 'triclinic'
loop_
_space_group_symop_operation_xyz
x,y,z
-x,-y,-z
loop_
_atom_site_type_symbol
_atom_site_label
_atom_site_fract_x
_atom_site_fract_y
_atom_site_fract_z
Si Si1 0.666108 0.108897 0.961255
Si Si2 0.728355 0.753163 0.306180
Si Si3 0.413123 0.148193 0.161399
Si Si4 0.391439 0.575455 0.359463
Si Si5 0.272155 0.027273 0.567834
Si Si6 0.189828 0.675162 0.967779
Si Si7 0.408092 0.434197 0.160672
O O1 0.475078 0.123232 0.820382
O O2 0.544420 0.072300 0.067746
O O3 0.601636 0.267266 0.951670
O O4 0.000000 0.000000 0.000000
O O5 0.551177 0.671192 0.339322
O O6 0.812185 0.821237 0.416163
O O7 0.038431 0.658019 0.300170
O O8 0.343665 0.306788 0.146207
O O9 0.075543 0.175621 0.114076
O O10 0.592546 0.075250 0.300389
O O11 0.500000 0.500000 0.500000
O O12 0.482937 0.452574 0.296232
O O13 0.500000 0.000000 0.500000
O O14 0.000000 0.000000 0.500000
O O15 0.309727 0.589854 0.878336
O O16 0.140779 0.575809 0.064745
#
# Coordination Sequence:
#
# PCOD8016038 Si02
#       7
#     2   2   2   2   2   2   2
#     4  11  25  43  75 111 149 191 251 317 387 440
#     4  12  28  51  78 110 153 192 257 317 375 440
#     4  11  26  43  76 106 147 201 246 307 379 450
#     4  12  28  48  76 110 150 205 249 310 369 449
#     4  12  31  52  77 105 151 202 255 304 365 448
#     4  10  21  43  69 109 144 189 240 307 379 446
#     4  10  23  40  72 104 151 183 247 296 380 435
#
# _framework density 23.799586999999999
#
# number of rings (size 3 to 8) (size 9 to 14) (size 15 to 20)
#    0.000    0.857    1.429    3.429   14.000    1.143 
#    0.000    0.000    0.000    0.000    0.000    0.000 
#    0.000    0.000    0.000    0.000    0.000    0.000 
#
# Total GULP energy -173458.095453 kJ/mol
# GULP energy per Si atom -12389.863961 kJ/mol
# Density = 2.374542 g / cm^3
# Si number density = 23.799587 Si / 1000 Ang^3
#
#
#
# Elastic Constant Matrix: (Units=GPa)
#
#
# Indices 1 2 3 4 5 6 
#
# 1 128.9309 32.5190 59.0213 0.3708 -5.4853 -15.1571
# 2 32.5190 93.0357 61.5624 19.2185 -1.6124 -12.4726
# 3 59.0213 61.5624 177.5767 9.5828 -9.6178 -14.4545
# 4 0.3708 19.2185 9.5828 56.9374 -1.5375 1.3806
# 5 -5.4853 -1.6124 -9.6178 -1.5375 40.2552 0.5226
# 6 -15.1571 -12.4726 -14.4545 1.3806 0.5226 41.8550
#
#
#
# Elastic Compliance Matrix: (Units=1/GPa)
#
#
# Indices 1 2 3 4 5 6 
#
# 1 0.009558 -0.001595 -0.002464 0.000858 0.000655 0.002099
# 2 -0.001595 0.015530 -0.004436 -0.004573 -0.000865 0.002680
# 3 -0.002464 -0.004436 0.008101 0.000175 0.001422 0.000560
# 4 0.000858 -0.004573 0.000175 0.019131 0.000727 -0.001632
# 5 0.000655 -0.000865 0.001422 0.000727 0.025262 0.000131
# 6 0.002099 0.002680 0.000560 -0.001632 0.000131 0.025696
#
#
# Mechanical properties :
#
#
# Convention : Reuss Voigt Hill
#
# Bulk Modulus (GPa) = 61.72627 78.41653 70.07140
# Shear Modulus (GPa) = 39.78704 44.23891 42.01298
#
# Velocity S-wave (km/s) = 4.09314 4.31607 4.20608
# Velocity P-wave (km/s) = 6.95202 7.60646 7.28659
#
# Compressibility (1/GPa) = 0.01620056
#
# Stress axis : x y z
#
# Youngs Moduli (GPa) = 104.61926 64.39012 123.43735
#
# Poissons Ratio (x) = 0.10270 0.30414
# Poissons Ratio (y) = 0.16687 0.54754
# Poissons Ratio (z) = 0.25778 0.28562
#
# Static dielectric constant tensor:
#      x y z
#    x 4.533120 0.197370 0.023560 
#    y 0.197370 5.153960 0.355000 
#    z 0.023560 0.355000 4.392630 
# 
# 
# High freq. dielectric constant tensor:
#      x y z
#    x 1.946210 0.011220 0.001000 
#    y 0.011220 1.975630 0.015700 
#    z 0.001000 0.015700 1.950560 
# 
# From -- ./inp_files/364853.got.cif
#   From: 2010.06.25/outbox.cif.g09.slc.cpg/sg2_183_cif.got.tgz:364853.got - 2010.06.27 13:26:56.
