data_PCOD8016794
_publ_section_title
;
Structure prediction by ZEFSAII (Michael W. Deem and Ramdas Pophale) SiO2 
 PCOD8016794
Probable space group: P -1
;
_chemical_formula_sum "Si O2"
_cell_formula_units_Z 16
_cell_length_a 5.456821
_cell_length_b 20.112491
_cell_length_c 9.601938
_cell_angle_alpha 129.113270
_cell_angle_beta 104.825159
_cell_angle_gamma 57.875927
_cell_volume 687.373154
_symmetry_space_group_name_H-M "P -1"
_symmetry_group_IT_number 2
_symmetry_cell_setting 'triclinic'
loop_
_space_group_symop_operation_xyz
x,y,z
-x,-y,-z
loop_
_atom_site_type_symbol
_atom_site_label
_atom_site_fract_x
_atom_site_fract_y
_atom_site_fract_z
Si Si1 0.857760 0.523327 0.851804
Si Si2 0.091759 0.022783 0.690246
Si Si3 0.992381 0.665977 0.945424
Si Si4 0.370770 0.608457 0.678767
Si Si5 0.402001 0.167761 0.525579
Si Si6 0.441498 0.126803 0.785306
Si Si7 0.536715 0.339561 0.805361
Si Si8 0.172524 0.669677 0.442940
O O1 0.084559 0.559043 0.887873
O O2 0.599699 0.604640 0.820154
O O3 0.942682 0.410955 0.681658
O O4 0.744947 0.557506 0.042204
O O5 0.250467 0.089153 0.793619
O O6 0.790746 0.071067 0.800417
O O7 0.343771 0.915911 0.645191
O O8 0.000000 0.000000 0.500000
O O9 0.065926 0.648217 0.768620
O O10 0.669248 0.759243 0.038381
O O11 0.187118 0.698796 0.106655
O O12 0.500000 0.500000 0.500000
O O13 0.314275 0.673117 0.615947
O O14 0.387097 0.115781 0.598371
O O15 0.467888 0.252464 0.691113
O O16 0.091724 0.219790 0.471277
O O17 0.587302 0.360975 0.682769
#
# Coordination Sequence:
#
# PCOD8016794 Si02
#       8
#     2   2   2   2   2   2   2   2
#     4  10  22  39  59  87 119 166 210 252 307 373
#     4  10  22  35  62  92 131 159 205 262 325 377
#     4  11  21  38  66  84 124 160 215 257 301 383
#     4   9  23  41  58  85 118 168 213 254 303 372
#     4  11  22  35  59  92 127 156 201 258 324 374
#     4  11  21  38  62  96 123 165 207 262 320 379
#     4  11  21  36  57  90 129 155 205 253 321 366
#     4  11  23  37  58  86 128 162 202 257 317 374
#
# _framework density 23.277021999999999
#
# number of rings (size 3 to 8) (size 9 to 14) (size 15 to 20)
#    0.000    1.500    2.500    3.375    3.500    8.000 
#    0.000    0.000    0.000    1.500    0.000    0.000 
#    0.000    0.000    0.000    0.000    0.000    0.000 
#
# Total GULP energy -198226.693850 kJ/mol
# GULP energy per Si atom -12389.168366 kJ/mol
# Density = 2.322404 g / cm^3
# Si number density = 23.277022 Si / 1000 Ang^3
#
#
#
# Elastic Constant Matrix: (Units=GPa)
#
#
# Indices 1 2 3 4 5 6 
#
# 1 101.2717 35.9227 21.0680 7.4055 -21.3354 -5.2242
# 2 35.9227 109.6363 29.4637 2.5303 -17.2908 -18.6289
# 3 21.0680 29.4637 62.6394 -11.3732 -29.0980 2.1100
# 4 7.4055 2.5303 -11.3732 47.1010 1.1634 -10.9088
# 5 -21.3354 -17.2908 -29.0980 1.1634 40.4409 14.7898
# 6 -5.2242 -18.6289 2.1100 -10.9088 14.7898 29.5065
#
#
#
# Elastic Compliance Matrix: (Units=1/GPa)
#
#
# Indices 1 2 3 4 5 6 
#
# 1 0.012660 -0.003969 0.000708 -0.002986 0.007465 -0.005160
# 2 -0.003969 0.013727 -0.008638 0.000846 -0.007000 0.012403
# 3 0.000708 -0.008638 0.034731 0.003049 0.029420 -0.021431
# 4 -0.002986 0.000846 0.003049 0.025008 -0.003726 0.010901
# 5 0.007465 -0.007000 0.029420 -0.003726 0.060432 -0.036870
# 6 -0.005160 0.012403 -0.021431 0.010901 -0.036870 0.064851
#
#
# Mechanical properties :
#
#
# Convention : Reuss Voigt Hill
#
# Bulk Modulus (GPa) = 26.79487 49.60627 38.20057
# Shear Modulus (GPa) = 20.19024 35.88255 28.03639
#
# Velocity S-wave (km/s) = 2.94834 3.93051 3.47431
# Velocity P-wave (km/s) = 4.80901 6.47735 5.70450
#
# Compressibility (1/GPa) = 0.03732058
#
# Stress axis : x y z
#
# Youngs Moduli (GPa) = 78.99085 72.85068 28.79278
#
# Poissons Ratio (x) = 0.28914 -0.02039
# Poissons Ratio (y) = 0.31351 0.24870
# Poissons Ratio (z) = -0.05594 0.62925
#
# Static dielectric constant tensor:
#      x y z
#    x 4.708770 -0.495150 -0.189180 
#    y -0.495150 5.099780 -0.331830 
#    z -0.189180 -0.331830 4.483440 
# 
# 
# High freq. dielectric constant tensor:
#      x y z
#    x 1.929750 -0.014820 -0.009360 
#    y -0.014820 1.920320 0.020620 
#    z -0.009360 0.020620 1.885760 
# 
# From -- ./inp_files/108887.got.cif
#   From: 2010.06.25/outbox.cif.g09.slc.cpg/sg2_55_cif.got.tgz:108887.got - 2010.06.27 13:26:56.
