data_PCOD8016515
_publ_section_title
;
Structure prediction by ZEFSAII (Michael W. Deem and Ramdas Pophale) SiO2 
 PCOD8016515
Probable space group: P -1
;
_chemical_formula_sum "Si O2"
_cell_formula_units_Z 16
_cell_length_a 17.017964
_cell_length_b 8.614715
_cell_length_c 9.013488
_cell_angle_alpha 130.398445
_cell_angle_beta 69.271095
_cell_angle_gamma 132.883513
_cell_volume 728.345613
_symmetry_space_group_name_H-M "P -1"
_symmetry_group_IT_number 2
_symmetry_cell_setting 'triclinic'
loop_
_space_group_symop_operation_xyz
x,y,z
-x,-y,-z
loop_
_atom_site_type_symbol
_atom_site_label
_atom_site_fract_x
_atom_site_fract_y
_atom_site_fract_z
Si Si1 0.325795 0.172458 0.847569
Si Si2 0.394417 0.989846 0.174808
Si Si3 0.499065 0.233659 0.966888
Si Si4 0.853659 0.116709 0.978939
Si Si5 0.206723 0.527951 0.857927
Si Si6 0.884026 0.930828 0.547408
Si Si7 0.060765 0.289090 0.073640
Si Si8 0.213820 0.856798 0.429416
O O1 0.389530 0.471349 0.942089
O O2 0.260242 0.968823 0.630521
O O3 0.411368 0.145502 0.843551
O O4 0.238799 0.105757 0.986981
O O5 0.317527 0.005038 0.340964
O O6 0.453190 0.220652 0.154494
O O7 0.478538 0.974611 0.197417
O O8 0.327659 0.718507 0.956714
O O9 0.862209 0.964294 0.749316
O O10 0.829048 0.297741 0.042380
O O11 0.968730 0.311310 0.105275
O O12 0.204090 0.379891 0.624465
O O13 0.124963 0.308790 0.898803
O O14 0.866735 0.090020 0.541493
O O15 0.000000 0.000000 0.500000
O O16 0.145720 0.539088 0.279482
O O17 0.000000 0.000000 0.000000
#
# Coordination Sequence:
#
# PCOD8016515 Si02
#       8
#     2   2   2   2   2   2   2   2
#     4  11  25  43  69 102 143 177 232 295 350 410
#     4  10  21  44  74  95 139 184 230 290 344 417
#     4  10  22  45  70  99 134 187 229 294 355 400
#     4  12  24  45  68 100 144 186 228 290 341 418
#     4  11  22  44  68  99 139 184 230 281 347 416
#     4  12  23  41  73 100 134 194 237 273 340 424
#     4  11  25  42  68 100 143 179 224 289 344 406
#     4  11  25  44  68 106 142 180 236 285 349 424
#
# _framework density 21.967593000000001
#
# number of rings (size 3 to 8) (size 9 to 14) (size 15 to 20)
#    0.000    1.000    5.000    1.875    5.250    2.500 
#    0.000    5.000    0.000    0.000    0.000    0.000 
#    0.000    0.000    0.000    0.000    0.000    0.000 
#
# Total GULP energy -198347.751769 kJ/mol
# GULP energy per Si atom -12396.734486 kJ/mol
# Density = 2.191759 g / cm^3
# Si number density = 21.967593 Si / 1000 Ang^3
#
#
#
# Elastic Constant Matrix: (Units=GPa)
#
#
# Indices 1 2 3 4 5 6 
#
# 1 96.3948 23.2566 43.3080 -1.8704 5.6982 -12.0865
# 2 23.2566 138.7220 60.5634 -10.0391 3.0692 0.4847
# 3 43.3080 60.5634 151.2373 -3.1085 5.0221 2.9563
# 4 -1.8704 -10.0391 -3.1085 18.2467 1.9450 7.3562
# 5 5.6982 3.0692 5.0221 1.9450 35.0095 2.3754
# 6 -12.0865 0.4847 2.9563 7.3562 2.3754 26.4739
#
#
#
# Elastic Compliance Matrix: (Units=1/GPa)
#
#
# Indices 1 2 3 4 5 6 
#
# 1 0.013149 -0.000804 -0.003572 -0.002427 -0.001915 0.007263
# 2 -0.000804 0.009160 -0.003292 0.005057 -0.000377 -0.001538
# 3 -0.003572 -0.003292 0.009024 0.000471 -0.000269 -0.002685
# 4 -0.002427 0.005057 0.000471 0.065425 -0.002447 -0.019213
# 5 -0.001915 -0.000377 -0.000269 -0.002447 0.029272 -0.002784
# 6 0.007263 -0.001538 -0.002685 -0.019213 -0.002784 0.047005
#
#
# Mechanical properties :
#
#
# Convention : Reuss Voigt Hill
#
# Bulk Modulus (GPa) = 62.50177 71.17891 66.84034
# Shear Modulus (GPa) = 25.81271 33.22778 29.52025
#
# Velocity S-wave (km/s) = 3.43160 3.89341 3.66978
# Velocity P-wave (km/s) = 6.64942 7.25835 6.96055
#
# Compressibility (1/GPa) = 0.01599955
#
# Stress axis : x y z
#
# Youngs Moduli (GPa) = 76.04859 109.16922 110.81377
#
# Poissons Ratio (x) = 0.08774 0.39581
# Poissons Ratio (y) = 0.06112 0.36475
# Poissons Ratio (z) = 0.27164 0.35933
#
# Static dielectric constant tensor:
#      x y z
#    x 4.285860 0.134320 0.208510 
#    y 0.134320 4.054470 -0.044110 
#    z 0.208510 -0.044110 4.022470 
# 
# 
# High freq. dielectric constant tensor:
#      x y z
#    x 1.886520 0.006710 0.005980 
#    y 0.006710 1.865740 -0.002090 
#    z 0.005980 -0.002090 1.847540 
# 
# From -- ./inp_files/328026.got.cif
#   From: 2010.06.25/outbox.cif.g09.slc.cpg/sg2_165_cif.got.tgz:328026.got - 2010.06.27 13:26:56.
