data_PCOD8016504
_publ_section_title
;
Structure prediction by ZEFSAII (Michael W. Deem and Ramdas Pophale) SiO2 
 PCOD8016504
Probable space group: P -1
;
_chemical_formula_sum "Si O2"
_cell_formula_units_Z 14
_cell_length_a 20.057308
_cell_length_b 6.037547
_cell_length_c 4.949470
_cell_angle_alpha 97.720261
_cell_angle_beta 90.319865
_cell_angle_gamma 99.377755
_cell_volume 585.763880
_symmetry_space_group_name_H-M "P -1"
_symmetry_group_IT_number 2
_symmetry_cell_setting 'triclinic'
loop_
_space_group_symop_operation_xyz
x,y,z
-x,-y,-z
loop_
_atom_site_type_symbol
_atom_site_label
_atom_site_fract_x
_atom_site_fract_y
_atom_site_fract_z
Si Si1 0.738838 0.309613 0.342372
Si Si2 0.584450 0.147978 0.284524
Si Si3 0.912081 0.695229 0.584975
Si Si4 0.786245 0.581005 0.873049
Si Si5 0.957381 0.324154 0.173591
Si Si6 0.516368 0.286701 0.799596
Si Si7 0.162504 0.006692 0.766107
O O1 0.663951 0.171048 0.329855
O O2 0.746222 0.525456 0.581032
O O3 0.793288 0.155552 0.413915
O O4 0.757283 0.387934 0.051911
O O5 0.554630 0.326071 0.515885
O O6 0.551776 0.887765 0.301902
O O7 0.567987 0.184533 0.978003
O O8 0.867253 0.603226 0.831707
O O9 0.918001 0.463400 0.396993
O O10 0.874380 0.861889 0.437076
O O11 0.987577 0.807170 0.697888
O O12 0.780746 0.828863 0.031604
O O13 0.896211 0.123664 0.050699
O O14 0.000000 0.500000 0.000000
O O15 0.500000 0.500000 0.000000
#
# Coordination Sequence:
#
# PCOD8016504 Si02
#       7
#     2   2   2   2   2   2   2
#     4  12  27  46  70 102 150 184 233 288 344 421
#     4  10  23  42  70 106 142 186 228 281 342 400
#     4  11  24  44  69 100 134 179 240 295 355 422
#     4  12  26  48  66 102 140 187 235 290 346 424
#     4  11  24  45  71 101 134 178 236 304 361 417
#     4  10  21  44  73 106 143 180 232 284 333 400
#     4  12  25  45  71  99 138 188 233 289 363 419
#
# _framework density 23.900417000000001
#
# number of rings (size 3 to 8) (size 9 to 14) (size 15 to 20)
#    0.000    0.857    2.857    3.429    2.000    6.857 
#    0.000    0.000    0.000    0.000    0.000    0.000 
#    0.000    0.000    0.000    0.000    0.000    0.000 
#
# Total GULP energy -173452.426767 kJ/mol
# GULP energy per Si atom -12389.459055 kJ/mol
# Density = 2.384602 g / cm^3
# Si number density = 23.900417 Si / 1000 Ang^3
#
#
#
# Elastic Constant Matrix: (Units=GPa)
#
#
# Indices 1 2 3 4 5 6 
#
# 1 154.3480 68.5039 35.7123 4.7970 5.0429 26.5635
# 2 68.5039 78.9099 27.1505 2.8526 -0.9369 24.4300
# 3 35.7123 27.1505 107.1741 3.8118 -7.3007 14.5239
# 4 4.7970 2.8526 3.8118 35.6422 6.9753 4.9053
# 5 5.0429 -0.9369 -7.3007 6.9753 37.0123 2.6311
# 6 26.5635 24.4300 14.5239 4.9053 2.6311 23.0924
#
#
#
# Elastic Compliance Matrix: (Units=1/GPa)
#
#
# Indices 1 2 3 4 5 6 
#
# 1 0.010981 -0.008191 -0.001306 0.000070 -0.001764 -0.002959
# 2 -0.008191 0.025588 -0.001264 0.001082 0.002546 -0.017373
# 3 -0.001306 -0.001264 0.010862 -0.000854 0.002743 -0.004124
# 4 0.000070 0.001082 -0.000854 0.029985 -0.005343 -0.006449
# 5 -0.001764 0.002546 0.002743 -0.005343 0.029196 -0.004581
# 6 -0.002959 -0.017373 -0.004124 -0.006449 -0.004581 0.069573
#
#
# Mechanical properties :
#
#
# Convention : Reuss Voigt Hill
#
# Bulk Modulus (GPa) = 38.59490 67.01837 52.80664
# Shear Modulus (GPa) = 24.23150 33.08707 28.65928
#
# Velocity S-wave (km/s) = 3.18756 3.72475 3.46658
# Velocity P-wave (km/s) = 5.45258 6.82641 6.17781
#
# Compressibility (1/GPa) = 0.02591016
#
# Stress axis : x y z
#
# Youngs Moduli (GPa) = 91.06528 39.08050 92.06546
#
# Poissons Ratio (x) = 0.32012 0.12021
# Poissons Ratio (y) = 0.74594 0.11633
# Poissons Ratio (z) = 0.11890 0.04938
#
# Static dielectric constant tensor:
#      x y z
#    x 4.243580 0.211300 -0.062870 
#    y 0.211300 4.302370 0.183200 
#    z -0.062870 0.183200 4.510800 
# 
# 
# High freq. dielectric constant tensor:
#      x y z
#    x 1.938290 0.016700 -0.006380 
#    y 0.016700 1.939880 0.011010 
#    z -0.006380 0.011010 1.957050 
# 
# From -- ./inp_files/114791.got.cif
#   From: 2010.06.25/outbox.cif.g09.slc.cpg/sg2_58_cif.got.tgz:114791.got - 2010.06.27 13:26:56.
