data_PCOD8016492
_publ_section_title
;
Structure prediction by ZEFSAII (Michael W. Deem and Ramdas Pophale) SiO2 
 PCOD8016492
Probable space group: P -1
;
_chemical_formula_sum "Si O2"
_cell_formula_units_Z 12
_cell_length_a 9.548401
_cell_length_b 12.762983
_cell_length_c 20.162436
_cell_angle_alpha 18.034769
_cell_angle_beta 43.057825
_cell_angle_gamma 45.948117
_cell_volume 519.361706
_symmetry_space_group_name_H-M "P -1"
_symmetry_group_IT_number 2
_symmetry_cell_setting 'triclinic'
loop_
_space_group_symop_operation_xyz
x,y,z
-x,-y,-z
loop_
_atom_site_type_symbol
_atom_site_label
_atom_site_fract_x
_atom_site_fract_y
_atom_site_fract_z
Si Si1 0.641993 0.199025 0.646764
Si Si2 0.808341 0.262165 0.227691
Si Si3 0.051637 0.195070 0.430995
Si Si4 0.673205 0.888831 0.956397
Si Si5 0.353179 0.741090 0.946707
Si Si6 0.908089 0.883068 0.294671
O O1 0.500000 0.500000 0.500000
O O2 0.842795 0.286847 0.483812
O O3 0.696741 0.176584 0.718853
O O4 0.515041 0.872336 0.865257
O O5 0.822993 0.047410 0.418324
O O6 0.628648 0.530615 0.149297
O O7 0.775056 0.006084 0.331513
O O8 0.000000 0.500000 0.000000
O O9 0.175972 0.535430 0.168874
O O10 0.000000 0.000000 0.500000
O O11 0.891169 0.876730 0.927094
O O12 0.500000 0.000000 0.000000
O O13 0.500000 0.500000 0.000000
O O14 0.243046 0.042278 0.760319
O O15 0.000000 0.500000 0.500000
#
# Coordination Sequence:
#
# PCOD8016492 Si02
#       6
#     2   2   2   2   2   2
#     4  12  27  47  72 108 152 190 250 309 374 446
#     4  10  21  44  72  96 143 196 241 296 369 439
#     4  12  24  45  79 104 148 199 238 311 380 433
#     4  11  25  46  73 102 145 198 245 304 371 439
#     4  12  27  46  77 113 147 194 256 304 376 455
#     4  11  24  47  74 104 150 191 244 311 369 443
#
# _framework density 23.105286
#
# number of rings (size 3 to 8) (size 9 to 14) (size 15 to 20)
#    0.000    0.667    5.000    4.000    4.667    3.333 
#    0.000    2.500    0.000    0.000    0.000    0.000 
#    0.000    0.000    0.000    0.000    0.000    0.000 
#
# Total GULP energy -148658.948754 kJ/mol
# GULP energy per Si atom -12388.245730 kJ/mol
# Density = 2.305270 g / cm^3
# Si number density = 23.105286 Si / 1000 Ang^3
#
#
#
# Elastic Constant Matrix: (Units=GPa)
#
#
# Indices 1 2 3 4 5 6 
#
# 1 70.4036 20.2090 20.1972 19.4480 8.1212 -9.6775
# 2 20.2090 193.7188 50.2461 4.6214 3.9387 -7.9152
# 3 20.1972 50.2461 123.5725 7.2185 10.7238 -7.0143
# 4 19.4480 4.6214 7.2185 49.4359 -5.4451 4.2256
# 5 8.1212 3.9387 10.7238 -5.4451 49.7197 -0.9832
# 6 -9.6775 -7.9152 -7.0143 4.2256 -0.9832 37.1243
#
#
#
# Elastic Compliance Matrix: (Units=1/GPa)
#
#
# Indices 1 2 3 4 5 6 
#
# 1 0.018099 -0.001041 -0.001524 -0.007587 -0.003277 0.004985
# 2 -0.001041 0.005858 -0.002208 0.000161 0.000211 0.000547
# 3 -0.001524 -0.002208 0.009492 -0.000850 -0.001697 0.000977
# 4 -0.007587 0.000161 -0.000850 0.024165 0.003962 -0.004750
# 5 -0.003277 0.000211 -0.001697 0.003962 0.021411 -0.001014
# 6 0.004985 0.000547 0.000977 -0.004750 -0.001014 0.029051
#
#
# Mechanical properties :
#
#
# Convention : Reuss Voigt Hill
#
# Bulk Modulus (GPa) = 41.83909 63.22217 52.53063
# Shear Modulus (GPa) = 39.81189 47.05882 43.43536
#
# Velocity S-wave (km/s) = 4.15548 4.51789 4.34047
# Velocity P-wave (km/s) = 6.41649 7.39170 6.92129
#
# Compressibility (1/GPa) = 0.02390109
#
# Stress axis : x y z
#
# Youngs Moduli (GPa) = 55.25114 170.71313 105.35360
#
# Poissons Ratio (x) = 0.17779 0.16057
# Poissons Ratio (y) = 0.05754 0.23265
# Poissons Ratio (z) = 0.08421 0.37698
#
# Static dielectric constant tensor:
#      x y z
#    x 4.233420 0.243440 -0.005230 
#    y 0.243440 4.708160 -0.333410 
#    z -0.005230 -0.333410 4.188820 
# 
# 
# High freq. dielectric constant tensor:
#      x y z
#    x 1.915290 0.004070 0.011730 
#    y 0.004070 1.926080 -0.011260 
#    z 0.011730 -0.011260 1.914660 
# 
# From -- ./inp_files/150579.got.cif
#   From: 2010.06.25/outbox.cif.g09.slc.cpg/sg2_76_cif.got.tgz:150579.got - 2010.06.27 13:26:56.
