data_PCOD8016099
_publ_section_title
;
Structure prediction by ZEFSAII (Michael W. Deem and Ramdas Pophale) SiO2 
 PCOD8016099
Probable space group: P -1
;
_chemical_formula_sum "Si O2"
_cell_formula_units_Z 16
_cell_length_a 13.570746
_cell_length_b 8.624140
_cell_length_c 13.978150
_cell_angle_alpha 102.010036
_cell_angle_beta 139.242894
_cell_angle_gamma 106.689264
_cell_volume 749.534700
_symmetry_space_group_name_H-M "P -1"
_symmetry_group_IT_number 2
_symmetry_cell_setting 'triclinic'
loop_
_space_group_symop_operation_xyz
x,y,z
-x,-y,-z
loop_
_atom_site_type_symbol
_atom_site_label
_atom_site_fract_x
_atom_site_fract_y
_atom_site_fract_z
Si Si1 0.148303 0.368666 0.271439
Si Si2 0.524753 0.178125 0.982398
Si Si3 0.495160 0.743921 0.712724
Si Si4 0.926815 0.017817 0.349758
Si Si5 0.820349 0.491988 0.387720
Si Si6 0.858166 0.544569 0.929643
Si Si7 0.284296 0.780238 0.069906
Si Si8 0.088052 0.103819 0.886435
O O1 0.360275 0.558656 0.509218
O O2 0.222631 0.430148 0.223092
O O3 0.068764 0.135288 0.209770
O O4 0.961534 0.359962 0.152533
O O5 0.305599 0.103248 0.811241
O O6 0.601989 0.199743 0.936697
O O7 0.692342 0.420008 0.185700
O O8 0.500000 0.000000 0.000000
O O9 0.340222 0.692054 0.675128
O O10 0.607705 0.980429 0.780944
O O11 0.670069 0.754924 0.887836
O O12 0.932815 0.911020 0.246539
O O13 0.000000 0.000000 0.500000
O O14 0.078668 0.274305 0.467790
O O15 0.000000 0.500000 0.500000
O O16 0.682691 0.333981 0.841240
O O17 0.974136 0.766070 0.105872
O O18 0.000000 0.500000 0.000000
#
# Coordination Sequence:
#
# PCOD8016099 Si02
#       8
#     2   2   2   2   2   2   2   2
#     4  10  21  43  70  94 123 172 226 266 329 393
#     4  12  21  41  67  96 134 177 222 264 316 400
#     4  11  21  39  68  97 126 173 222 267 320 394
#     4  12  27  42  62 104 140 175 216 270 338 395
#     4  12  22  38  68  96 131 181 223 259 316 400
#     4  10  24  45  67  93 128 171 216 284 341 376
#     4  10  22  40  65  97 137 167 215 277 325 384
#     4  11  23  45  67  93 133 173 219 271 327 400
#
# _framework density 21.346575999999999
#
# number of rings (size 3 to 8) (size 9 to 14) (size 15 to 20)
#    0.000    1.000    5.000    1.875    1.750    2.500 
#    2.250    0.000    0.000    0.000    0.000    0.000 
#    0.000    0.000    0.000    0.000    0.000    0.000 
#
# Total GULP energy -198335.824553 kJ/mol
# GULP energy per Si atom -12395.989035 kJ/mol
# Density = 2.129799 g / cm^3
# Si number density = 21.346576 Si / 1000 Ang^3
#
#
#
# Elastic Constant Matrix: (Units=GPa)
#
#
# Indices 1 2 3 4 5 6 
#
# 1 132.1292 67.6658 52.4312 -0.6564 -30.5686 9.3272
# 2 67.6658 122.5415 48.5097 -0.1999 -17.0172 14.3750
# 3 52.4312 48.5097 151.8360 2.8287 -18.2436 -1.5885
# 4 -0.6564 -0.1999 2.8287 29.8623 -0.7518 -5.2983
# 5 -30.5686 -17.0172 -18.2436 -0.7518 32.6592 2.9694
# 6 9.3272 14.3750 -1.5885 -5.2983 2.9694 40.5680
#
#
#
# Elastic Compliance Matrix: (Units=1/GPa)
#
#
# Indices 1 2 3 4 5 6 
#
# 1 0.013037 -0.005024 -0.001875 0.000315 0.008716 -0.001887
# 2 -0.005024 0.012284 -0.002120 -0.000409 0.000813 -0.003394
# 3 -0.001875 -0.002120 0.008120 -0.000552 0.001544 0.001315
# 4 0.000315 -0.000409 -0.000552 0.034350 0.000152 0.004526
# 5 0.008716 0.000813 0.001544 0.000152 0.040538 -0.005179
# 6 -0.001887 -0.003394 0.001315 0.004526 -0.005179 0.027308
#
#
# Mechanical properties :
#
#
# Convention : Reuss Voigt Hill
#
# Bulk Modulus (GPa) = 64.92169 82.63557 73.77863
# Shear Modulus (GPa) = 31.48417 36.47789 33.98103
#
# Velocity S-wave (km/s) = 3.84462 4.13830 3.99416
# Velocity P-wave (km/s) = 7.08430 7.85044 7.47719
#
# Compressibility (1/GPa) = 0.01540317
#
# Stress axis : x y z
#
# Youngs Moduli (GPa) = 76.70764 81.40445 123.14664
#
# Poissons Ratio (x) = 0.40899 0.23089
# Poissons Ratio (y) = 0.38539 0.26107
# Poissons Ratio (z) = 0.14382 0.17257
#
# Static dielectric constant tensor:
#      x y z
#    x 3.823920 0.105780 -0.075420 
#    y 0.105780 4.074800 0.206060 
#    z -0.075420 0.206060 3.970670 
# 
# 
# High freq. dielectric constant tensor:
#      x y z
#    x 1.847840 0.011840 -0.010180 
#    y 0.011840 1.834070 0.011440 
#    z -0.010180 0.011440 1.835470 
# 
# From -- ./inp_files/529926.got.cif
#   From: 2010.06.25/outbox.cif.g09.slc.cpg/sg2_265_cif.got.tgz:529926.got - 2010.06.27 13:26:56.
