data_PCOD8016593
_publ_section_title
;
Structure prediction by ZEFSAII (Michael W. Deem and Ramdas Pophale) SiO2 
 PCOD8016593
Probable space group: P -1
;
_chemical_formula_sum "Si O2"
_cell_formula_units_Z 16
_cell_length_a 11.846701
_cell_length_b 16.191930
_cell_length_c 20.783520
_cell_angle_alpha 28.146739
_cell_angle_beta 25.970924
_cell_angle_gamma 24.981477
_cell_volume 687.485357
_symmetry_space_group_name_H-M "P -1"
_symmetry_group_IT_number 2
_symmetry_cell_setting 'triclinic'
loop_
_space_group_symop_operation_xyz
x,y,z
-x,-y,-z
loop_
_atom_site_type_symbol
_atom_site_label
_atom_site_fract_x
_atom_site_fract_y
_atom_site_fract_z
Si Si1 0.150529 0.783592 0.865580
Si Si2 0.221550 0.116289 0.234604
Si Si3 0.684825 0.566667 0.079829
Si Si4 0.119214 0.897055 0.321905
Si Si5 0.609537 0.841782 0.669640
Si Si6 0.667003 0.834640 0.304617
Si Si7 0.478439 0.535056 0.642254
Si Si8 0.859346 0.407888 0.875779
O O1 0.290213 0.590317 0.878560
O O2 0.426569 0.804019 0.734974
O O3 0.985853 0.736690 0.040573
O O4 0.902426 0.994246 0.810117
O O5 0.879768 0.304110 0.301280
O O6 0.213448 0.998483 0.257607
O O7 0.369494 0.954650 0.328200
O O8 0.431887 0.209792 0.047078
O O9 0.458497 0.572096 0.246016
O O10 0.000000 0.500000 0.000000
O O11 0.381352 0.651159 0.353706
O O12 0.786022 0.939608 0.480797
O O13 0.867770 0.617238 0.724935
O O14 0.360926 0.004016 0.738124
O O15 0.665239 0.646166 0.468442
O O16 0.980292 0.737287 0.169541
O O17 0.500000 0.500000 0.000000
#
# Coordination Sequence:
#
# PCOD8016593 Si02
#       8
#     2   2   2   2   2   2   2   2
#     4  11  23  45  70  98 139 182 228 283 351 405
#     4  11  25  44  71 101 143 181 232 288 339 420
#     4  10  21  45  68  96 139 177 224 288 340 408
#     4  12  24  43  69 105 138 182 231 284 353 401
#     4  11  24  46  71  98 143 177 236 289 336 421
#     4  12  24  45  71 102 137 189 228 281 356 399
#     4  11  24  42  68 104 140 180 231 286 342 412
#     4  10  25  46  69 101 140 181 231 286 334 420
#
# _framework density 23.273222000000001
#
# number of rings (size 3 to 8) (size 9 to 14) (size 15 to 20)
#    0.000    1.000    5.000    1.500    1.750    6.000 
#    4.500    1.250    0.000    0.000    0.000    0.000 
#    0.000    0.000    0.000    0.000    0.000    0.000 
#
# Total GULP energy -198371.162672 kJ/mol
# GULP energy per Si atom -12398.197667 kJ/mol
# Density = 2.322025 g / cm^3
# Si number density = 23.273222 Si / 1000 Ang^3
#
#
#
# Elastic Constant Matrix: (Units=GPa)
#
#
# Indices 1 2 3 4 5 6 
#
# 1 104.1910 46.0634 42.8612 -8.2558 -5.6525 26.5812
# 2 46.0634 163.6163 38.2675 -4.0693 -4.8011 36.1420
# 3 42.8612 38.2675 106.8027 -10.5058 7.1697 25.7711
# 4 -8.2558 -4.0693 -10.5058 40.2529 3.3000 3.5780
# 5 -5.6525 -4.8011 7.1697 3.3000 27.7035 -2.1818
# 6 26.5812 36.1420 25.7711 3.5780 -2.1818 28.9684
#
#
#
# Elastic Compliance Matrix: (Units=1/GPa)
#
#
# Indices 1 2 3 4 5 6 
#
# 1 0.013904 -0.001135 -0.002945 0.002559 0.002400 -0.008857
# 2 -0.001135 0.008680 -0.000179 0.001436 0.000378 -0.009777
# 3 -0.002945 -0.000179 0.013935 0.004400 -0.005584 -0.010434
# 4 0.002559 0.001436 0.004400 0.028098 -0.004650 -0.011874
# 5 0.002400 0.000378 -0.005584 -0.004650 0.039109 0.005814
# 6 -0.008857 -0.009777 -0.010434 -0.011874 0.005814 0.066033
#
#
# Mechanical properties :
#
#
# Convention : Reuss Voigt Hill
#
# Bulk Modulus (GPa) = 35.71589 69.88823 52.80206
# Shear Modulus (GPa) = 26.65099 35.87950 31.26524
#
# Velocity S-wave (km/s) = 3.38766 3.93066 3.66922
# Velocity P-wave (km/s) = 5.53907 7.12003 6.37872
#
# Compressibility (1/GPa) = 0.02799874
#
# Stress axis : x y z
#
# Youngs Moduli (GPa) = 71.92341 115.20879 71.76272
#
# Poissons Ratio (x) = 0.13076 0.21137
# Poissons Ratio (y) = 0.08163 0.01288
# Poissons Ratio (z) = 0.21184 0.02068
#
# Static dielectric constant tensor:
#      x y z
#    x 4.177390 -0.041280 0.623530 
#    y -0.041280 4.288920 -0.416420 
#    z 0.623530 -0.416420 4.900160 
# 
# 
# High freq. dielectric constant tensor:
#      x y z
#    x 1.899930 0.017230 0.021170 
#    y 0.017230 1.923520 -0.019070 
#    z 0.021170 -0.019070 1.937640 
# 
# From -- ./inp_files/595447.got.cif
#   From: 2010.06.25/outbox.cif.g09.slc.cpg/sg2_298_cif.got.tgz:595447.got - 2010.06.27 13:26:56.
