data_PCOD8016208
_publ_section_title
;
Structure prediction by ZEFSAII (Michael W. Deem and Ramdas Pophale) SiO2 
 PCOD8016208
Probable space group: P -1
;
_chemical_formula_sum "Si O2"
_cell_formula_units_Z 14
_cell_length_a 6.042740
_cell_length_b 22.130542
_cell_length_c 4.934447
_cell_angle_alpha 122.773512
_cell_angle_beta 91.087479
_cell_angle_gamma 81.901521
_cell_volume 548.002489
_symmetry_space_group_name_H-M "P -1"
_symmetry_group_IT_number 2
_symmetry_cell_setting 'triclinic'
loop_
_space_group_symop_operation_xyz
x,y,z
-x,-y,-z
loop_
_atom_site_type_symbol
_atom_site_label
_atom_site_fract_x
_atom_site_fract_y
_atom_site_fract_z
Si Si1 0.359207 0.079631 0.166531
Si Si2 0.058205 0.079204 0.652085
Si Si3 0.308774 0.578732 0.980451
Si Si4 0.974273 0.274141 0.739048
Si Si5 0.351841 0.817260 0.286632
Si Si6 0.256819 0.271532 0.236149
Si Si7 0.603468 0.580536 0.492867
O O1 0.144054 0.086145 0.367734
O O2 0.518198 0.136320 0.396524
O O3 0.254592 0.096351 0.903366
O O4 0.500000 0.000000 0.000000
O O5 0.826221 0.134004 0.794185
O O6 0.000000 0.000000 0.500000
O O7 0.511258 0.594818 0.829723
O O8 0.244193 0.499165 0.720023
O O9 0.091230 0.639189 0.085593
O O10 0.387319 0.582518 0.300325
O O11 0.756322 0.234097 0.626019
O O12 0.174684 0.245994 0.464004
O O13 0.069592 0.251837 0.981600
O O14 0.503066 0.769322 0.950616
O O15 0.252157 0.358325 0.442431
#
# Coordination Sequence:
#
# PCOD8016208 Si02
#       7
#     2   2   2   2   2   2   2
#     4  12  28  53  83 115 147 197 251 311 384 456
#     4  12  28  53  83 115 147 197 251 311 384 456
#     4  10  21  43  74 104 146 200 251 311 373 436
#     4  12  28  48  74 112 152 202 256 305 383 453
#     4  12  30  52  77 112 166 196 250 326 379 454
#     4  12  28  48  74 112 152 202 256 305 383 453
#     4  10  21  43  74 104 146 200 251 311 373 436
#
# _framework density 25.547329000000001
#
# number of rings (size 3 to 8) (size 9 to 14) (size 15 to 20)
#    0.000    0.571    2.857    3.429    0.000    8.000 
#    0.000    0.000    0.000    0.000    0.000    0.000 
#    0.000    0.000    0.000    0.000    0.000    0.000 
#
# Total GULP energy -173665.656731 kJ/mol
# GULP energy per Si atom -12404.689767 kJ/mol
# Density = 2.548918 g / cm^3
# Si number density = 25.547329 Si / 1000 Ang^3
#
#
#
# Elastic Constant Matrix: (Units=GPa)
#
#
# Indices 1 2 3 4 5 6 
#
# 1 131.1545 52.0211 51.5298 23.1446 -8.3261 8.4231
# 2 52.0211 118.3798 44.0757 10.7389 -6.2477 -12.1608
# 3 51.5298 44.0757 112.6425 7.7131 0.7917 4.3580
# 4 23.1446 10.7389 7.7131 46.6437 -1.8492 3.6861
# 5 -8.3261 -6.2477 0.7917 -1.8492 42.4173 1.1917
# 6 8.4231 -12.1608 4.3580 3.6861 1.1917 59.1902
#
#
#
# Elastic Compliance Matrix: (Units=1/GPa)
#
#
# Indices 1 2 3 4 5 6 
#
# 1 0.011275 -0.003387 -0.003498 -0.004027 0.001655 -0.001826
# 2 -0.003387 0.011492 -0.003028 -0.000670 0.000968 0.003088
# 3 -0.003498 -0.003028 0.011674 0.000529 -0.001300 -0.000991
# 4 -0.004027 -0.000670 0.000529 0.023595 0.000160 -0.001076
# 5 0.001655 0.000968 -0.001300 0.000160 0.024086 -0.000436
# 6 -0.001826 0.003088 -0.000991 -0.001076 -0.000436 0.017938
#
#
# Mechanical properties :
#
#
# Convention : Reuss Voigt Hill
#
# Bulk Modulus (GPa) = 68.42014 73.04780 70.73397
# Shear Modulus (GPa) = 40.07741 43.95358 42.01550
#
# Velocity S-wave (km/s) = 3.96504 4.15236 4.05978
# Velocity P-wave (km/s) = 6.91390 7.18642 7.05148
#
# Compressibility (1/GPa) = 0.01461558
#
# Stress axis : x y z
#
# Youngs Moduli (GPa) = 88.68874 87.01420 85.66258
#
# Poissons Ratio (x) = 0.29475 0.29964
# Poissons Ratio (y) = 0.30043 0.25935
# Poissons Ratio (z) = 0.31022 0.26345
#
# Static dielectric constant tensor:
#      x y z
#    x 4.393910 -0.021290 -0.057110 
#    y -0.021290 4.777450 0.213010 
#    z -0.057110 0.213010 4.780610 
# 
# 
# High freq. dielectric constant tensor:
#      x y z
#    x 2.011310 0.003200 -0.003330 
#    y 0.003200 2.044530 0.010210 
#    z -0.003330 0.010210 2.030000 
# 
# From -- ./inp_files/14253.got.cif
#   From: 2010.06.25/outbox.cif.g09.slc.cpg/sg2_8_cif.got.tgz:14253.got - 2010.06.27 13:26:56.
