data_PCOD8016715
_publ_section_title
;
Structure prediction by ZEFSAII (Michael W. Deem and Ramdas Pophale) SiO2 
 PCOD8016715
Probable space group: P -1
;
_chemical_formula_sum "Si O2"
_cell_formula_units_Z 12
_cell_length_a 9.411992
_cell_length_b 5.207371
_cell_length_c 15.832203
_cell_angle_alpha 118.107042
_cell_angle_beta 113.986878
_cell_angle_gamma 42.992992
_cell_volume 464.254240
_symmetry_space_group_name_H-M "P -1"
_symmetry_group_IT_number 2
_symmetry_cell_setting 'triclinic'
loop_
_space_group_symop_operation_xyz
x,y,z
-x,-y,-z
loop_
_atom_site_type_symbol
_atom_site_label
_atom_site_fract_x
_atom_site_fract_y
_atom_site_fract_z
Si Si1 0.254508 0.510165 0.780133
Si Si2 0.592041 0.464473 0.764211
Si Si3 0.074227 0.727944 0.069129
Si Si4 0.682157 0.349735 0.584066
Si Si5 0.608537 0.666569 0.043414
Si Si6 0.109853 0.338842 0.362413
O O1 0.376447 0.597436 0.768539
O O2 0.387923 0.179604 0.837207
O O3 0.135581 0.425029 0.679241
O O4 0.098244 0.885059 0.860077
O O5 0.707660 0.551760 0.866100
O O6 0.573412 0.606234 0.684312
O O7 0.749895 0.987392 0.726563
O O8 0.157940 0.721542 0.994438
O O9 0.000000 0.500000 0.000000
O O10 0.500000 0.500000 0.500000
O O11 0.842534 0.378162 0.585121
O O12 0.822526 0.885564 0.565289
O O13 0.500000 0.500000 0.000000
O O14 0.500000 0.000000 0.000000
#
# Coordination Sequence:
#
# PCOD8016715 Si02
#       6
#     2   2   2   2   2   2
#     4  11  23  47  65  99 142 185 234 287 339 410
#     4   9  23  42  67 100 139 178 228 283 346 395
#     4  11  24  43  68  98 138 186 239 278 341 399
#     4  10  21  46  74 100 138 176 222 284 351 416
#     4  12  26  43  67  94 134 184 230 280 335 391
#     4   9  23  42  71 100 133 179 227 274 350 410
#
# _framework density 25.847906999999999
#
# number of rings (size 3 to 8) (size 9 to 14) (size 15 to 20)
#    1.000    0.667    1.667    2.000    2.333    2.667 
#    3.000    1.667    0.000    0.000    0.000    0.000 
#    0.000    0.000    0.000    0.000    0.000    0.000 
#
# Total GULP energy -148661.572850 kJ/mol
# GULP energy per Si atom -12388.464404 kJ/mol
# Density = 2.578908 g / cm^3
# Si number density = 25.847907 Si / 1000 Ang^3
#
#
#
# Elastic Constant Matrix: (Units=GPa)
#
#
# Indices 1 2 3 4 5 6 
#
# 1 199.8912 39.1527 52.6355 -24.8985 44.4157 28.8098
# 2 39.1527 51.9172 16.2071 -28.6687 -0.5561 14.2436
# 3 52.6355 16.2071 130.4106 -40.7557 31.1321 11.0549
# 4 -24.8985 -28.6687 -40.7557 42.6838 -4.3490 -5.1853
# 5 44.4157 -0.5561 31.1321 -4.3490 42.6214 -4.7706
# 6 28.8098 14.2436 11.0549 -5.1853 -4.7706 45.4800
#
#
#
# Elastic Compliance Matrix: (Units=1/GPa)
#
#
# Indices 1 2 3 4 5 6 
#
# 1 0.009065 -0.005752 -0.000312 -0.000484 -0.009899 -0.004959
# 2 -0.005752 0.039064 0.005672 0.027992 0.004511 -0.006305
# 3 -0.000312 0.005672 0.014708 0.016219 -0.009166 -0.004266
# 4 -0.000484 0.027992 0.016219 0.056014 -0.006005 -0.006646
# 5 -0.009899 0.004511 -0.009166 -0.006005 0.041119 0.010714
# 6 -0.004959 -0.006305 -0.004266 -0.006646 0.010714 0.028507
#
#
# Mechanical properties :
#
#
# Convention : Reuss Voigt Hill
#
# Bulk Modulus (GPa) = 16.11522 66.46777 41.29149
# Shear Modulus (GPa) = 23.81597 44.43860 34.12729
#
# Velocity S-wave (km/s) = 3.03873 4.15086 3.63755
# Velocity P-wave (km/s) = 4.30813 6.98167 5.80102
#
# Compressibility (1/GPa) = 0.06205312
#
# Stress axis : x y z
#
# Youngs Moduli (GPa) = 110.30948 25.59928 67.99175
#
# Poissons Ratio (x) = 0.14725 0.02121
# Poissons Ratio (y) = 0.63451 -0.38567
# Poissons Ratio (z) = 0.03442 -0.14521
#
# Static dielectric constant tensor:
#      x y z
#    x 4.856650 -0.447530 0.047480 
#    y -0.447530 5.363620 -0.339250 
#    z 0.047480 -0.339250 4.814880 
# 
# 
# High freq. dielectric constant tensor:
#      x y z
#    x 2.045950 -0.013710 -0.004800 
#    y -0.013710 2.046790 -0.014770 
#    z -0.004800 -0.014770 2.039820 
# 
# From -- ./inp_files/553750.got.cif
#   From: 2010.06.25/outbox.cif.g09.slc.cpg/sg2_277_cif.got.tgz:553750.got - 2010.06.27 13:26:56.
