data_PCOD8016127
_publ_section_title
;
Structure prediction by ZEFSAII (Michael W. Deem and Ramdas Pophale) SiO2 
 PCOD8016127
Probable space group: P -1
;
_chemical_formula_sum "Si O2"
_cell_formula_units_Z 16
_cell_length_a 27.989431
_cell_length_b 9.676926
_cell_length_c 8.558102
_cell_angle_alpha 68.688937
_cell_angle_beta 139.391435
_cell_angle_gamma 142.964660
_cell_volume 713.850243
_symmetry_space_group_name_H-M "P -1"
_symmetry_group_IT_number 2
_symmetry_cell_setting 'triclinic'
loop_
_space_group_symop_operation_xyz
x,y,z
-x,-y,-z
loop_
_atom_site_type_symbol
_atom_site_label
_atom_site_fract_x
_atom_site_fract_y
_atom_site_fract_z
Si Si1 0.905390 0.698733 0.834875
Si Si2 0.905493 0.189745 0.915347
Si Si3 0.591576 0.596255 0.447818
Si Si4 0.082816 0.808209 0.712531
Si Si5 0.365457 0.741493 0.883585
Si Si6 0.634125 0.591586 0.912061
Si Si7 0.560662 0.960769 0.751645
Si Si8 0.825191 0.358072 0.046614
O O1 0.788047 0.523649 0.478930
O O2 0.816290 0.472367 0.849692
O O3 0.034528 0.816244 0.060338
O O4 0.000000 0.000000 0.000000
O O5 0.731667 0.909111 0.577753
O O6 0.925106 0.144644 0.150760
O O7 0.000000 0.500000 0.000000
O O8 0.618596 0.630774 0.684605
O O9 0.463146 0.495518 0.161319
O O10 0.556351 0.374530 0.372876
O O11 0.119626 0.697899 0.869420
O O12 0.930115 0.584018 0.354442
O O13 0.197335 0.084620 0.765981
O O14 0.394921 0.632599 0.075303
O O15 0.500000 0.000000 0.000000
O O16 0.367317 0.866928 0.975397
O O17 0.500000 0.000000 0.500000
O O18 0.669637 0.070030 0.857531
#
# Coordination Sequence:
#
# PCOD8016127 Si02
#       8
#     2   2   2   2   2   2   2   2
#     4  12  28  46  67 101 149 189 230 292 360 417
#     4  11  24  43  70 103 141 181 231 286 359 414
#     4  10  23  41  75 101 137 184 232 291 344 423
#     4  10  21  43  71 101 129 178 241 288 338 416
#     4  12  28  44  70 103 147 183 231 294 359 419
#     4  10  21  44  68 102 134 180 236 284 347 413
#     4  12  24  45  70 106 140 183 233 287 355 424
#     4  11  23  42  72  97 135 182 232 290 344 415
#
# _framework density 22.413664000000001
#
# number of rings (size 3 to 8) (size 9 to 14) (size 15 to 20)
#    0.000    1.000    3.750    2.250    5.250    0.000 
#    0.000    3.750    0.000    0.000    0.000    0.000 
#    0.000    0.000    0.000    0.000    0.000    0.000 
#
# Total GULP energy -198329.342387 kJ/mol
# GULP energy per Si atom -12395.583899 kJ/mol
# Density = 2.236265 g / cm^3
# Si number density = 22.413664 Si / 1000 Ang^3
#
#
#
# Elastic Constant Matrix: (Units=GPa)
#
#
# Indices 1 2 3 4 5 6 
#
# 1 96.9128 40.8609 23.2718 12.1336 3.6808 -4.2440
# 2 40.8609 125.1863 29.7647 30.2461 7.8260 -1.2050
# 3 23.2718 29.7647 78.9762 20.5720 0.3324 1.8986
# 4 12.1336 30.2461 20.5720 38.9077 1.7351 0.9889
# 5 3.6808 7.8260 0.3324 1.7351 37.3987 8.6201
# 6 -4.2440 -1.2050 1.8986 0.9889 8.6201 41.5216
#
#
#
# Elastic Compliance Matrix: (Units=1/GPa)
#
#
# Indices 1 2 3 4 5 6 
#
# 1 0.012434 -0.003435 -0.002419 0.000072 -0.000821 0.001451
# 2 -0.003435 0.011220 -0.001446 -0.006820 -0.001814 0.000580
# 3 -0.002419 -0.001446 0.015605 -0.006388 0.000939 -0.001046
# 4 0.000072 -0.006820 -0.006388 0.034375 0.000050 -0.000727
# 5 -0.000821 -0.001814 0.000939 0.000050 0.028599 -0.006118
# 6 0.001451 0.000580 -0.001046 -0.000727 -0.006118 0.025584
#
#
# Mechanical properties :
#
#
# Convention : Reuss Voigt Hill
#
# Bulk Modulus (GPa) = 40.55588 54.31891 47.43740
# Shear Modulus (GPa) = 33.19246 37.37748 35.28497
#
# Velocity S-wave (km/s) = 3.85243 4.08808 3.97200
# Velocity P-wave (km/s) = 6.15807 6.82426 6.49971
#
# Compressibility (1/GPa) = 0.02465734
#
# Stress axis : x y z
#
# Youngs Moduli (GPa) = 80.42745 89.12682 64.08206
#
# Poissons Ratio (x) = 0.30617 0.15503
# Poissons Ratio (y) = 0.27628 0.09267
# Poissons Ratio (z) = 0.19457 0.12889
#
# Static dielectric constant tensor:
#      x y z
#    x 4.126280 -0.002390 0.112380 
#    y -0.002390 4.206820 0.253860 
#    z 0.112380 0.253860 4.129870 
# 
# 
# High freq. dielectric constant tensor:
#      x y z
#    x 1.885600 0.000540 0.005360 
#    y 0.000540 1.887420 0.019100 
#    z 0.005360 0.019100 1.881510 
# 
# From -- ./inp_files/356608.got.cif
#   From: 2010.06.25/outbox.cif.g09.slc.cpg/sg2_179_cif.got.tgz:356608.got - 2010.06.27 13:26:56.
