data_PCOD8016107
_publ_section_title
;
Structure prediction by ZEFSAII (Michael W. Deem and Ramdas Pophale) SiO2 
 PCOD8016107
Probable space group: P -1
;
_chemical_formula_sum "Si O2"
_cell_formula_units_Z 16
_cell_length_a 15.646036
_cell_length_b 9.295269
_cell_length_c 15.867745
_cell_angle_alpha 130.320350
_cell_angle_beta 155.291832
_cell_angle_gamma 48.909863
_cell_volume 717.797958
_symmetry_space_group_name_H-M "P -1"
_symmetry_group_IT_number 2
_symmetry_cell_setting 'triclinic'
loop_
_space_group_symop_operation_xyz
x,y,z
-x,-y,-z
loop_
_atom_site_type_symbol
_atom_site_label
_atom_site_fract_x
_atom_site_fract_y
_atom_site_fract_z
Si Si1 0.125442 0.179690 0.341484
Si Si2 0.740556 0.998652 0.947781
Si Si3 0.247700 0.973401 0.210597
Si Si4 0.043561 0.378316 0.910534
Si Si5 0.296404 0.115119 0.652348
Si Si6 0.367071 0.524557 0.143105
Si Si7 0.102507 0.402651 0.723002
Si Si8 0.785015 0.274683 0.499347
O O1 0.213616 0.098476 0.478596
O O2 0.894949 0.136306 0.112731
O O3 0.087442 0.410639 0.388631
O O4 0.289343 0.080342 0.376206
O O5 0.838991 0.835202 0.039741
O O6 0.685493 0.924334 0.776382
O O7 0.539842 0.119814 0.862851
O O8 0.370298 0.750121 0.233942
O O9 0.000000 0.000000 0.000000
O O10 0.831285 0.368527 0.665973
O O11 0.185652 0.490061 0.027894
O O12 0.000000 0.500000 0.000000
O O13 0.177301 0.310104 0.664912
O O14 0.266275 0.933424 0.611451
O O15 0.591741 0.407133 0.328677
O O16 0.306603 0.452634 0.969887
O O17 0.998288 0.253893 0.627677
#
# Coordination Sequence:
#
# PCOD8016107 Si02
#       8
#     2   2   2   2   2   2   2   2
#     4  11  24  45  68  99 135 174 222 277 337 394
#     4  11  23  42  69  98 133 175 219 276 339 390
#     4  10  21  43  70  95 133 173 214 275 337 393
#     4  11  23  41  68  97 138 176 216 281 335 396
#     4  12  26  45  67 101 133 178 230 274 329 399
#     4  11  23  44  67 100 132 177 226 267 339 400
#     4  11  26  45  70  95 136 182 223 278 331 389
#     4  11  26  44  66 100 134 176 229 271 334 397
#
# _framework density 22.290393999999999
#
# number of rings (size 3 to 8) (size 9 to 14) (size 15 to 20)
#    0.000    1.000    5.000    2.250    3.500    4.000 
#    0.000    0.000    0.000    0.000    0.000    0.000 
#    0.000    0.000    0.000    0.000    0.000    0.000 
#
# Total GULP energy -198345.948127 kJ/mol
# GULP energy per Si atom -12396.621758 kJ/mol
# Density = 2.223966 g / cm^3
# Si number density = 22.290394 Si / 1000 Ang^3
#
#
#
# Elastic Constant Matrix: (Units=GPa)
#
#
# Indices 1 2 3 4 5 6 
#
# 1 77.3516 23.9293 18.4360 4.9337 -13.9825 -11.9012
# 2 23.9293 90.1735 29.8514 -14.5350 -11.0306 -3.4026
# 3 18.4360 29.8514 77.2358 -8.4738 -11.6308 -6.7177
# 4 4.9337 -14.5350 -8.4738 32.1802 9.7746 -5.1671
# 5 -13.9825 -11.0306 -11.6308 9.7746 31.9170 4.0136
# 6 -11.9012 -3.4026 -6.7177 -5.1671 4.0136 41.1518
#
#
#
# Elastic Compliance Matrix: (Units=1/GPa)
#
#
# Indices 1 2 3 4 5 6 
#
# 1 0.016662 -0.003887 -0.001911 -0.006477 0.006904 0.002699
# 2 -0.003887 0.014420 -0.003967 0.006114 -0.000062 0.000194
# 3 -0.001911 -0.003967 0.015715 0.002102 0.002662 0.001689
# 4 -0.006477 0.006114 0.002102 0.040155 -0.012920 0.005277
# 5 0.006904 -0.000062 0.002662 -0.012920 0.039646 -0.003063
# 6 0.002699 0.000194 0.001689 0.005277 -0.003063 0.026334
#
#
# Mechanical properties :
#
#
# Convention : Reuss Voigt Hill
#
# Bulk Modulus (GPa) = 36.67384 43.24381 39.95883
# Shear Modulus (GPa) = 27.54041 32.55274 30.04657
#
# Velocity S-wave (km/s) = 3.51882 3.82565 3.67544
# Velocity P-wave (km/s) = 5.74438 6.24151 5.99810
#
# Compressibility (1/GPa) = 0.02726739
#
# Stress axis : x y z
#
# Youngs Moduli (GPa) = 60.01591 69.34948 63.63249
#
# Poissons Ratio (x) = 0.26953 0.12162
# Poissons Ratio (y) = 0.23326 0.25243
# Poissons Ratio (z) = 0.11471 0.27511
#
# Static dielectric constant tensor:
#      x y z
#    x 4.122630 0.040060 -0.083780 
#    y 0.040060 3.911930 0.074970 
#    z -0.083780 0.074970 4.088650 
# 
# 
# High freq. dielectric constant tensor:
#      x y z
#    x 1.888280 0.012940 -0.004360 
#    y 0.012940 1.871930 -0.009940 
#    z -0.004360 -0.009940 1.880590 
# 
# From -- ./inp_files/308909.got.cif
#   From: 2010.06.25/outbox.cif.g09.slc.cpg/sg2_155_cif.got.tgz:308909.got - 2010.06.27 13:26:56.
