data_PCOD8016121
_publ_section_title
;
Structure prediction by ZEFSAII (Michael W. Deem and Ramdas Pophale) SiO2 
 PCOD8016121
Probable space group: P -1
;
_chemical_formula_sum "Si O2"
_cell_formula_units_Z 16
_cell_length_a 10.707477
_cell_length_b 9.190932
_cell_length_c 8.528177
_cell_angle_alpha 124.464889
_cell_angle_beta 94.027127
_cell_angle_gamma 83.937894
_cell_volume 688.032001
_symmetry_space_group_name_H-M "P -1"
_symmetry_group_IT_number 2
_symmetry_cell_setting 'triclinic'
loop_
_space_group_symop_operation_xyz
x,y,z
-x,-y,-z
loop_
_atom_site_type_symbol
_atom_site_label
_atom_site_fract_x
_atom_site_fract_y
_atom_site_fract_z
Si Si1 0.997195 0.852228 0.537819
Si Si2 0.868037 0.073831 0.098888
Si Si3 0.883940 0.489164 0.810147
Si Si4 0.379189 0.410958 0.243191
Si Si5 0.251649 0.240223 0.600030
Si Si6 0.856829 0.396471 0.091323
Si Si7 0.502327 0.245141 0.460851
Si Si8 0.670506 0.896829 0.153811
O O1 0.849523 0.853504 0.575506
O O2 0.098367 0.849748 0.682171
O O3 0.027589 0.671335 0.342120
O O4 0.000000 0.000000 0.500000
O O5 0.810300 0.220354 0.059586
O O6 0.760828 0.940684 0.041982
O O7 0.000000 0.000000 0.000000
O O8 0.771940 0.562094 0.730932
O O9 0.989179 0.631063 0.919224
O O10 0.815395 0.432728 0.930053
O O11 0.441262 0.333806 0.357115
O O12 0.427249 0.608266 0.343445
O O13 0.408872 0.265351 0.016310
O O14 0.214129 0.449972 0.715964
O O15 0.391836 0.182332 0.521282
O O16 0.241507 0.174926 0.739369
O O17 0.588618 0.071937 0.310957
#
# Coordination Sequence:
#
# PCOD8016121 Si02
#       8
#     2   2   2   2   2   2   2   2
#     4  11  23  41  68 107 147 185 228 299 369 429
#     4  12  26  41  71 109 145 185 240 296 369 437
#     4  10  21  43  70  98 145 187 229 294 365 427
#     4  11  25  47  74 103 144 192 243 307 354 419
#     4  11  25  45  72 104 145 189 245 293 361 435
#     4  10  23  41  70 106 140 182 236 292 366 438
#     4  11  28  47  73 105 143 194 255 294 353 422
#     4  12  25  51  73 104 147 192 241 302 358 429
#
# _framework density 23.254733000000002
#
# number of rings (size 3 to 8) (size 9 to 14) (size 15 to 20)
#    0.000    1.000    2.500    3.000   10.500    1.500 
#    0.000    0.000    0.000    0.000    0.000    0.000 
#    0.000    0.000    0.000    0.000    0.000    0.000 
#
# Total GULP energy -198228.697171 kJ/mol
# GULP energy per Si atom -12389.293573 kJ/mol
# Density = 2.320180 g / cm^3
# Si number density = 23.254733 Si / 1000 Ang^3
#
#
#
# Elastic Constant Matrix: (Units=GPa)
#
#
# Indices 1 2 3 4 5 6 
#
# 1 102.6692 15.5885 30.1878 23.7882 -9.7309 -5.1997
# 2 15.5885 77.2250 11.4482 23.8888 -9.8252 -6.7546
# 3 30.1878 11.4482 89.0984 24.2769 4.0317 0.1957
# 4 23.7882 23.8888 24.2769 31.4911 -4.3774 -1.6672
# 5 -9.7309 -9.8252 4.0317 -4.3774 39.8532 -5.0276
# 6 -5.1997 -6.7546 0.1957 -1.6672 -5.0276 35.9479
#
#
#
# Elastic Compliance Matrix: (Units=1/GPa)
#
#
# Indices 1 2 3 4 5 6 
#
# 1 0.012471 0.000742 -0.002371 -0.007649 0.002881 0.002004
# 2 0.000742 0.017754 0.001221 -0.014345 0.003266 0.003228
# 3 -0.002371 0.001221 0.015088 -0.011272 -0.003189 -0.001165
# 4 -0.007649 -0.014345 -0.011272 0.057330 0.001931 -0.000811
# 5 0.002881 0.003266 -0.003189 0.001931 0.027769 0.005021
# 6 0.002004 0.003228 -0.001165 -0.000811 0.005021 0.029385
#
#
# Mechanical properties :
#
#
# Convention : Reuss Voigt Hill
#
# Bulk Modulus (GPa) = 22.47358 42.60464 32.53911
# Shear Modulus (GPa) = 28.49879 35.57630 32.03755
#
# Velocity S-wave (km/s) = 3.50452 3.91558 3.71574
# Velocity P-wave (km/s) = 5.10496 6.22920 5.69489
#
# Compressibility (1/GPa) = 0.04449669
#
# Stress axis : x y z
#
# Youngs Moduli (GPa) = 80.18321 56.32646 66.27688
#
# Poissons Ratio (x) = -0.04180 0.15717
# Poissons Ratio (y) = -0.05950 -0.08093
# Poissons Ratio (z) = 0.19015 -0.06878
#
# Static dielectric constant tensor:
#      x y z
#    x 2.817280 1.367910 -0.869890 
#    y 1.367910 2.894940 1.126080 
#    z -0.869890 1.126080 3.710400 
# 
# 
# High freq. dielectric constant tensor:
#      x y z
#    x 1.914190 -0.011520 0.001850 
#    y -0.011520 1.927590 0.009330 
#    z 0.001850 0.009330 1.916030 
# 
# From -- ./inp_files/246066.got.cif
#   From: 2010.06.25/outbox.cif.g09.slc.cpg/sg2_124_cif.got.tgz:246066.got - 2010.06.27 13:26:56.
