data_PCOD8016880
_publ_section_title
;
Structure prediction by ZEFSAII (Michael W. Deem and Ramdas Pophale) SiO2 
 PCOD8016880
Probable space group: P -1
;
_chemical_formula_sum "Si O2"
_cell_formula_units_Z 16
_cell_length_a 23.389524
_cell_length_b 6.791954
_cell_length_c 15.257239
_cell_angle_alpha 53.582510
_cell_angle_beta 150.528773
_cell_angle_gamma 105.370821
_cell_volume 740.538158
_symmetry_space_group_name_H-M "P -1"
_symmetry_group_IT_number 2
_symmetry_cell_setting 'triclinic'
loop_
_space_group_symop_operation_xyz
x,y,z
-x,-y,-z
loop_
_atom_site_type_symbol
_atom_site_label
_atom_site_fract_x
_atom_site_fract_y
_atom_site_fract_z
Si Si1 0.891534 0.147437 0.590988
Si Si2 0.833121 0.712861 0.687012
Si Si3 0.475930 0.676533 0.101598
Si Si4 0.517861 0.304112 0.697181
Si Si5 0.256131 0.382473 0.581915
Si Si6 0.228692 0.519086 0.180987
Si Si7 0.348008 0.356790 0.204153
Si Si8 0.685576 0.598013 0.048450
O O1 0.869794 0.373282 0.580075
O O2 0.831863 0.335554 0.370132
O O3 0.792964 0.038414 0.513478
O O4 0.068439 0.859147 0.893860
O O5 0.819181 0.536209 0.635961
O O6 0.738204 0.748237 0.635528
O O7 0.000000 0.500000 0.000000
O O8 0.532596 0.651781 0.281557
O O9 0.609242 0.597547 0.238380
O O10 0.444468 0.433439 0.106415
O O11 0.321025 0.030156 0.785787
O O12 0.365448 0.527008 0.377084
O O13 0.617792 0.408985 0.789335
O O14 0.618960 0.940513 0.900878
O O15 0.239557 0.405532 0.125148
O O16 0.500000 0.000000 0.500000
O O17 0.264564 0.447765 0.974971
#
# Coordination Sequence:
#
# PCOD8016880 Si02
#       8
#     2   2   2   2   2   2   2   2
#     4  11  25  42  66  97 139 173 212 271 333 396
#     4  10  23  42  62  94 137 174 211 259 331 408
#     4  10  22  36  65  97 130 170 220 269 321 384
#     4  11  22  43  69  97 126 169 228 274 324 391
#     4  11  21  38  63  97 131 174 218 263 325 389
#     4  11  24  45  63  94 134 175 216 271 331 386
#     4  11  25  44  71  97 125 171 228 278 325 387
#     4  11  23  42  69  98 132 172 220 279 327 382
#
# _framework density 21.605909
#
# number of rings (size 3 to 8) (size 9 to 14) (size 15 to 20)
#    0.000    1.250    5.000    0.375    1.750    3.000 
#    4.500    0.625    0.000    0.000    0.000    0.000 
#    0.000    0.000    0.000    0.000    0.000    0.000 
#
# Total GULP energy -198366.707162 kJ/mol
# GULP energy per Si atom -12397.919198 kJ/mol
# Density = 2.155673 g / cm^3
# Si number density = 21.605909 Si / 1000 Ang^3
#
#
#
# Elastic Constant Matrix: (Units=GPa)
#
#
# Indices 1 2 3 4 5 6 
#
# 1 118.0050 30.3339 40.8165 -13.1491 -22.8693 -26.4858
# 2 30.3339 99.1942 33.1354 -15.7490 -8.9137 -8.2529
# 3 40.8165 33.1354 108.6256 -11.2359 -13.4744 -17.2532
# 4 -13.1491 -15.7490 -11.2359 30.3555 -8.2991 -1.3829
# 5 -22.8693 -8.9137 -13.4744 -8.2991 35.4022 -0.1681
# 6 -26.4858 -8.2529 -17.2532 -1.3829 -0.1681 22.6211
#
#
#
# Elastic Compliance Matrix: (Units=1/GPa)
#
#
# Indices 1 2 3 4 5 6 
#
# 1 0.017378 -0.000353 -0.000095 0.012104 0.014038 0.020990
# 2 -0.000353 0.012535 -0.002044 0.006757 0.003749 0.003042
# 3 -0.000095 -0.002044 0.012563 0.005476 0.005533 0.009101
# 4 0.012104 0.006757 0.005476 0.051310 0.023747 0.024126
# 5 0.014038 0.003749 0.005533 0.023747 0.046045 0.023818
# 6 0.020990 0.003042 0.009101 0.024126 0.023818 0.078486
#
#
# Mechanical properties :
#
#
# Convention : Reuss Voigt Hill
#
# Bulk Modulus (GPa) = 26.67214 59.37736 43.02475
# Shear Modulus (GPa) = 21.20460 32.44504 26.82482
#
# Velocity S-wave (km/s) = 3.13617 3.87935 3.52739
# Velocity P-wave (km/s) = 5.04834 6.89982 6.04538
#
# Compressibility (1/GPa) = 0.03749230
#
# Stress axis : x y z
#
# Youngs Moduli (GPa) = 57.54320 79.77852 79.59661
#
# Poissons Ratio (x) = 0.02817 0.00756
# Poissons Ratio (y) = 0.02032 0.16269
# Poissons Ratio (z) = 0.00547 0.16306
#
# Static dielectric constant tensor:
#      x y z
#    x 4.582510 0.118400 -0.399790 
#    y 0.118400 3.963150 0.031450 
#    z -0.399790 0.031450 3.714090 
# 
# 
# High freq. dielectric constant tensor:
#      x y z
#    x 1.856250 -0.009050 -0.025000 
#    y -0.009050 1.846640 0.000830 
#    z -0.025000 0.000830 1.835540 
# 
# From -- ./inp_files/84241.got.cif
#   From: 2010.06.25/outbox.cif.g09.slc.cpg/sg2_43_cif.got.tgz:84241.got - 2010.06.27 13:26:56.
