data_PCOD8016209
_publ_section_title
;
Structure prediction by ZEFSAII (Michael W. Deem and Ramdas Pophale) SiO2 
 PCOD8016209
Probable space group: P -1
;
_chemical_formula_sum "Si O2"
_cell_formula_units_Z 14
_cell_length_a 7.420726
_cell_length_b 11.651138
_cell_length_c 8.116013
_cell_angle_alpha 67.517589
_cell_angle_beta 115.845845
_cell_angle_gamma 74.005155
_cell_volume 494.152931
_symmetry_space_group_name_H-M "P -1"
_symmetry_group_IT_number 2
_symmetry_cell_setting 'triclinic'
loop_
_space_group_symop_operation_xyz
x,y,z
-x,-y,-z
loop_
_atom_site_type_symbol
_atom_site_label
_atom_site_fract_x
_atom_site_fract_y
_atom_site_fract_z
Si Si1 0.984413 0.160856 0.342080
Si Si2 0.811825 0.634789 0.745420
Si Si3 0.265112 0.428749 0.590038
Si Si4 0.731054 0.888006 0.059615
Si Si5 0.737194 0.160575 0.909756
Si Si6 0.210758 0.708377 0.479062
Si Si7 0.534187 0.109433 0.343503
O O1 0.787861 0.218806 0.381852
O O2 0.087622 0.266167 0.326662
O O3 0.887439 0.166439 0.117890
O O4 0.194782 0.989800 0.563140
O O5 0.745564 0.562472 0.615797
O O6 0.549059 0.740812 0.667634
O O7 0.000000 0.500000 0.000000
O O8 0.459545 0.258722 0.812329
O O9 0.358632 0.531274 0.641501
O O10 0.000000 0.500000 0.500000
O O11 0.666873 0.825612 0.911955
O O12 0.827389 0.993871 0.986259
O O13 0.931163 0.758199 0.322228
O O14 0.500000 0.000000 0.000000
O O15 0.737830 0.238196 0.699880
O O16 0.500000 0.000000 0.500000
#
# Coordination Sequence:
#
# PCOD8016209 Si02
#       7
#     2   2   2   2   2   2   2
#     4  11  24  48  71 110 152 191 243 306 371 439
#     4  11  23  44  76 109 144 195 252 303 356 434
#     4  12  25  50  76 102 146 199 247 301 368 447
#     4  12  24  47  75 104 146 194 244 299 363 444
#     4  12  28  47  74 110 149 195 243 310 381 434
#     4  12  25  47  75 108 156 190 247 306 373 436
#     4  10  21  43  74 104 147 188 248 304 356 437
#
# _framework density 28.331310999999999
#
# number of rings (size 3 to 8) (size 9 to 14) (size 15 to 20)
#    0.000    0.571    2.857    6.857    0.000    2.286 
#    7.714    0.000    0.000    0.000    0.000    0.000 
#    0.000    0.000    0.000    0.000    0.000    0.000 
#
# Total GULP energy -173503.199355 kJ/mol
# GULP energy per Si atom -12393.085668 kJ/mol
# Density = 2.826683 g / cm^3
# Si number density = 28.331311 Si / 1000 Ang^3
#
#
#
# Elastic Constant Matrix: (Units=GPa)
#
#
# Indices 1 2 3 4 5 6 
#
# 1 71.6683 17.7409 -1.5223 2.0427 6.7285 -32.4318
# 2 17.7409 209.8577 50.6500 3.3858 -17.4147 -9.3542
# 3 -1.5223 50.6500 117.7970 -3.9199 3.8120 -10.2250
# 4 2.0427 3.3858 -3.9199 69.5353 -6.2433 -0.5697
# 5 6.7285 -17.4147 3.8120 -6.2433 41.2158 -4.7148
# 6 -32.4318 -9.3542 -10.2250 -0.5697 -4.7148 41.8038
#
#
#
# Elastic Compliance Matrix: (Units=1/GPa)
#
#
# Indices 1 2 3 4 5 6 
#
# 1 0.022735 -0.002042 0.002769 -0.000530 -0.002906 0.017524
# 2 -0.002042 0.005802 -0.002673 -0.000114 0.002945 -0.000609
# 3 0.002769 -0.002673 0.010084 0.000468 -0.002009 0.003797
# 4 -0.000530 -0.000114 0.000468 0.014630 0.002226 0.000128
# 5 -0.002906 0.002945 -0.002009 0.002226 0.026612 0.000945
# 6 0.017524 -0.000609 0.003797 0.000128 0.000945 0.038417
#
#
# Mechanical properties :
#
#
# Convention : Reuss Voigt Hill
#
# Bulk Modulus (GPa) = 28.79320 59.22892 44.01106
# Shear Modulus (GPa) = 37.38347 52.67460 45.02904
#
# Velocity S-wave (km/s) = 3.63645 4.31656 3.99102
# Velocity P-wave (km/s) = 5.27416 6.76719 6.06678
#
# Compressibility (1/GPa) = 0.03473043
#
# Stress axis : x y z
#
# Youngs Moduli (GPa) = 43.98444 172.35460 99.16237
#
# Poissons Ratio (x) = 0.35193 -0.27461
# Poissons Ratio (y) = 0.08981 0.26507
# Poissons Ratio (z) = -0.12181 0.46072
#
# Static dielectric constant tensor:
#      x y z
#    x 11.984180 -0.588710 4.463110 
#    y -0.588710 4.691810 -0.839950 
#    z 4.463110 -0.839950 8.671040 
# 
# 
# High freq. dielectric constant tensor:
#      x y z
#    x 2.186030 -0.006230 0.008630 
#    y -0.006230 2.174290 -0.007500 
#    z 0.008630 -0.007500 2.136380 
# 
# From -- ./inp_files/186000.got.cif
#   From: 2010.06.25/outbox.cif.g09.slc.cpg/sg2_93_cif.got.tgz:186000.got - 2010.06.27 13:26:56.
