data_PCOD8016978
_publ_section_title
;
Structure prediction by ZEFSAII (Michael W. Deem and Ramdas Pophale) SiO2 
 PCOD8016978
Probable space group: P -1
;
_chemical_formula_sum "Si O2"
_cell_formula_units_Z 16
_cell_length_a 12.002957
_cell_length_b 23.147738
_cell_length_c 17.489316
_cell_angle_alpha 18.350670
_cell_angle_beta 136.808680
_cell_angle_gamma 147.929835
_cell_volume 725.366907
_symmetry_space_group_name_H-M "P -1"
_symmetry_group_IT_number 2
_symmetry_cell_setting 'triclinic'
loop_
_space_group_symop_operation_xyz
x,y,z
-x,-y,-z
loop_
_atom_site_type_symbol
_atom_site_label
_atom_site_fract_x
_atom_site_fract_y
_atom_site_fract_z
Si Si1 0.916000 0.051878 0.731037
Si Si2 0.615466 0.687224 0.746770
Si Si3 0.687470 0.631587 0.363241
Si Si4 0.650601 0.945115 0.862996
Si Si5 0.810830 0.571805 0.239444
Si Si6 0.854551 0.490941 0.841841
Si Si7 0.898005 0.513043 0.524835
Si Si8 0.923405 0.696252 0.778880
O O1 0.707195 0.000754 0.730157
O O2 0.836963 0.812917 0.942750
O O3 0.063517 0.094614 0.823372
O O4 0.082661 0.323820 0.427859
O O5 0.417469 0.648760 0.651503
O O6 0.722390 0.622322 0.823950
O O7 0.831257 0.993819 0.491944
O O8 0.500000 0.500000 0.000000
O O9 0.500000 0.500000 0.500000
O O10 0.719525 0.446238 0.583388
O O11 0.622877 0.704635 0.167852
O O12 0.838181 0.189166 0.707144
O O13 0.391838 0.815458 0.911135
O O14 0.049019 0.661567 0.215578
O O15 0.783328 0.468809 0.440973
O O16 0.834329 0.605296 0.762080
O O17 0.046921 0.487737 0.945577
#
# Coordination Sequence:
#
# PCOD8016978 Si02
#       8
#     2   2   2   2   2   2   2   2
#     4  11  21  37  64  92 126 167 203 255 311 380
#     4  11  24  45  68  88 127 173 207 260 322 367
#     4  11  20  37  59  91 130 160 205 247 308 373
#     4  11  20  39  62  92 129 162 201 257 313 371
#     4  11  21  39  64  89 126 165 207 255 314 372
#     4  11  23  40  67  94 123 162 213 265 315 362
#     4  10  22  37  62  94 126 165 203 251 311 385
#     4  10  25  44  62  96 124 158 220 269 303 372
#
# _framework density 22.057803
#
# number of rings (size 3 to 8) (size 9 to 14) (size 15 to 20)
#    0.000    1.250    3.750    3.000    0.000    3.000 
#    0.000    3.750    2.750    0.000    0.000    0.000 
#    0.000    0.000    0.000    0.000    0.000    0.000 
#
# Total GULP energy -198226.178574 kJ/mol
# GULP energy per Si atom -12389.136161 kJ/mol
# Density = 2.200760 g / cm^3
# Si number density = 22.057803 Si / 1000 Ang^3
#
#
#
# Elastic Constant Matrix: (Units=GPa)
#
#
# Indices 1 2 3 4 5 6 
#
# 1 120.0989 27.2086 24.4309 8.6055 -16.1313 3.0298
# 2 27.2086 100.2901 19.7655 10.2243 -14.5466 -3.6396
# 3 24.4309 19.7655 58.4938 0.3617 -13.9442 -5.0810
# 4 8.6055 10.2243 0.3617 23.8247 2.0024 3.2707
# 5 -16.1313 -14.5466 -13.9442 2.0024 30.1027 -4.9168
# 6 3.0298 -3.6396 -5.0810 3.2707 -4.9168 29.4223
#
#
#
# Elastic Compliance Matrix: (Units=1/GPa)
#
#
# Indices 1 2 3 4 5 6 
#
# 1 0.009926 -0.001328 -0.002934 -0.003150 0.003401 -0.000775
# 2 -0.001328 0.012124 -0.002082 -0.005484 0.004992 0.002721
# 3 -0.002934 -0.002082 0.021407 0.000246 0.008151 0.005076
# 4 -0.003150 -0.005484 0.000246 0.047132 -0.008498 -0.006971
# 5 0.003401 0.004992 0.008151 -0.008498 0.043408 0.009873
# 6 -0.000775 0.002721 0.005076 -0.006971 0.009873 0.037706
#
#
# Mechanical properties :
#
#
# Convention : Reuss Voigt Hill
#
# Bulk Modulus (GPa) = 32.50019 46.85476 39.67748
# Shear Modulus (GPa) = 25.68746 30.50179 28.09463
#
# Velocity S-wave (km/s) = 3.41626 3.72265 3.57274
# Velocity P-wave (km/s) = 5.50701 6.30598 5.91999
#
# Compressibility (1/GPa) = 0.03076905
#
# Stress axis : x y z
#
# Youngs Moduli (GPa) = 100.74157 82.48379 46.71340
#
# Poissons Ratio (x) = 0.10957 0.13706
# Poissons Ratio (y) = 0.13382 0.09724
# Poissons Ratio (z) = 0.29558 0.17170
#
# Static dielectric constant tensor:
#      x y z
#    x 4.409500 0.261190 0.032900 
#    y 0.261190 4.209750 -0.065960 
#    z 0.032900 -0.065960 3.768460 
# 
# 
# High freq. dielectric constant tensor:
#      x y z
#    x 1.878480 0.003070 0.010680 
#    y 0.003070 1.875880 0.002760 
#    z 0.010680 0.002760 1.841780 
# 
# From -- ./inp_files/570929.got.cif
#   From: 2010.06.25/outbox.cif.g09.slc.cpg/sg2_286_cif.got.tgz:570929.got - 2010.06.27 13:26:56.
