data_PCOD8016971
_publ_section_title
;
Structure prediction by ZEFSAII (Michael W. Deem and Ramdas Pophale) SiO2 
 PCOD8016971
Probable space group: P -1
;
_chemical_formula_sum "Si O2"
_cell_formula_units_Z 16
_cell_length_a 30.269159
_cell_length_b 9.230330
_cell_length_c 15.873439
_cell_angle_alpha 134.696678
_cell_angle_beta 18.933851
_cell_angle_gamma 144.273367
_cell_volume 790.035002
_symmetry_space_group_name_H-M "P -1"
_symmetry_group_IT_number 2
_symmetry_cell_setting 'triclinic'
loop_
_space_group_symop_operation_xyz
x,y,z
-x,-y,-z
loop_
_atom_site_type_symbol
_atom_site_label
_atom_site_fract_x
_atom_site_fract_y
_atom_site_fract_z
Si Si1 0.123977 0.813498 0.300679
Si Si2 0.796755 0.908787 0.425285
Si Si3 0.585761 0.786228 0.926182
Si Si4 0.319821 0.607236 0.652899
Si Si5 0.719327 0.994707 0.077838
Si Si6 0.453748 0.044997 0.191509
Si Si7 0.756911 0.625302 0.952334
Si Si8 0.170248 0.400960 0.008593
O O1 0.103534 0.554494 0.223463
O O2 0.940553 0.718794 0.625761
O O3 0.274653 0.003720 0.172966
O O4 0.170636 0.955526 0.184098
O O5 0.682289 0.831209 0.683401
O O6 0.783912 0.661193 0.321113
O O7 0.726737 0.995698 0.512545
O O8 0.002335 0.131392 0.160840
O O9 0.500000 0.500000 0.000000
O O10 0.444327 0.838570 0.187150
O O11 0.514134 0.813658 0.348322
O O12 0.220876 0.732799 0.877057
O O13 0.323486 0.555168 0.724945
O O14 0.743909 0.845648 0.040353
O O15 0.601524 0.342360 0.078485
O O16 0.500000 0.000000 0.000000
O O17 0.748676 0.633971 0.071490
#
# Coordination Sequence:
#
# PCOD8016971 Si02
#       8
#     2   2   2   2   2   2   2   2
#     4  11  21  39  63  95 124 159 198 259 316 369
#     4  11  21  43  61  90 124 166 206 254 304 365
#     4  11  22  37  61  93 129 159 195 251 322 365
#     4  10  22  43  62  86 125 171 211 244 307 367
#     4  10  23  40  63  89 124 167 206 252 309 370
#     4  10  22  37  62  91 127 161 204 249 306 376
#     4  12  21  41  64  96 123 157 214 258 306 363
#     4  11  23  39  67  90 125 163 207 261 301 362
#
# _framework density 20.252268999999998
#
# number of rings (size 3 to 8) (size 9 to 14) (size 15 to 20)
#    0.000    1.250    3.750    3.375    1.750    0.500 
#    4.500    0.625    0.000    0.000    0.000    0.000 
#    0.000    0.000    0.000    0.000    0.000    0.000 
#
# Total GULP energy -198333.986816 kJ/mol
# GULP energy per Si atom -12395.874176 kJ/mol
# Density = 2.020617 g / cm^3
# Si number density = 20.252269 Si / 1000 Ang^3
#
#
#
# Elastic Constant Matrix: (Units=GPa)
#
#
# Indices 1 2 3 4 5 6 
#
# 1 133.2160 39.6079 -5.4218 8.2264 -1.9904 1.9293
# 2 39.6079 126.2074 -22.1891 2.8401 -9.2730 5.3900
# 3 -5.4218 -22.1891 -27.2896 -10.2517 7.4629 10.6140
# 4 8.2264 2.8401 -10.2517 28.3920 2.9517 0.2467
# 5 -1.9904 -9.2730 7.4629 2.9517 32.8201 -2.3120
# 6 1.9293 5.3900 10.6140 0.2467 -2.3120 45.7678
#
#
#
# Elastic Compliance Matrix: (Units=1/GPa)
#
#
# Indices 1 2 3 4 5 6 
#
# 1 0.008383 -0.002445 0.000852 -0.001851 -0.000228 -0.000265
# 2 -0.002445 0.008202 -0.004367 -0.002042 0.003369 0.000331
# 3 0.000852 -0.004367 -0.025399 -0.009656 0.005935 0.006720
# 4 -0.001851 -0.002042 -0.009656 0.032586 -0.001261 0.002319
# 5 -0.000228 0.003369 0.005935 -0.001261 0.030155 -0.000234
# 6 -0.000265 0.000331 0.006720 0.002319 -0.000234 0.020239
#
#
# Mechanical properties :
#
#
# Convention : Reuss Voigt Hill
#
# Bulk Modulus (GPa) = -48.23580 28.45866 -9.88857
# Shear Modulus (GPa) = 63.15226 36.07177 49.61201
#
# Velocity S-wave (km/s) = 5.59021 4.22491 4.95482
# Velocity P-wave (km/s) = 4.21879 6.15487 5.27639
#
# Compressibility (1/GPa) = -0.02073149
#
# Stress axis : x y z
#
# Youngs Moduli (GPa) = 119.29067 121.91567 -39.37238
#
# Poissons Ratio (x) = 0.29806 0.03355
# Poissons Ratio (y) = 0.29164 -0.17192
# Poissons Ratio (z) = -0.10166 0.53235
#
# Static dielectric constant tensor:
#      x y z
#    x 3.929340 -0.150460 0.100750 
#    y -0.150460 4.057380 0.226970 
#    z 0.100750 0.226970 3.047570 
# 
# 
# High freq. dielectric constant tensor:
#      x y z
#    x 1.792890 0.000060 0.004950 
#    y 0.000060 1.809230 0.007080 
#    z 0.004950 0.007080 1.776950 
# 
# From -- ./inp_files/178091.got.cif
#   From: 2010.06.25/outbox.cif.g09.slc.cpg/sg2_90_cif.got.tgz:178091.got - 2010.06.27 13:26:56.
