data_PCOD8016569
_publ_section_title
;
Structure prediction by ZEFSAII (Michael W. Deem and Ramdas Pophale) SiO2 
 PCOD8016569
Probable space group: P -1
;
_chemical_formula_sum "Si O2"
_cell_formula_units_Z 16
_cell_length_a 21.896291
_cell_length_b 8.627561
_cell_length_c 12.316398
_cell_angle_alpha 44.615609
_cell_angle_beta 145.590928
_cell_angle_gamma 110.118931
_cell_volume 729.583056
_symmetry_space_group_name_H-M "P -1"
_symmetry_group_IT_number 2
_symmetry_cell_setting 'triclinic'
loop_
_space_group_symop_operation_xyz
x,y,z
-x,-y,-z
loop_
_atom_site_type_symbol
_atom_site_label
_atom_site_fract_x
_atom_site_fract_y
_atom_site_fract_z
Si Si1 0.593259 0.955675 0.256007
Si Si2 0.157547 0.657049 0.083370
Si Si3 0.013378 0.585888 0.738136
Si Si4 0.012468 0.124251 0.065681
Si Si5 0.464004 0.072784 0.229500
Si Si6 0.235704 0.021996 0.982974
Si Si7 0.263678 0.096951 0.225583
Si Si8 0.688853 0.272635 0.321991
O O1 0.748016 0.678026 0.601637
O O2 0.527763 0.929180 0.279227
O O3 0.594997 0.219577 0.142219
O O4 0.500000 0.000000 0.000000
O O5 0.034339 0.764467 0.763115
O O6 0.091148 0.815414 0.021420
O O7 0.254748 0.734347 0.146217
O O8 0.889025 0.762008 0.385461
O O9 0.980547 0.416911 0.847866
O O10 0.155930 0.388165 0.982108
O O11 0.167545 0.891582 0.448969
O O12 0.000000 0.000000 0.000000
O O13 0.593034 0.951165 0.559906
O O14 0.374008 0.976070 0.179040
O O15 0.375259 0.406407 0.926011
O O16 0.197410 0.122169 0.001009
O O17 0.291407 0.847046 0.466647
#
# Coordination Sequence:
#
# PCOD8016569 Si02
#       8
#     2   2   2   2   2   2   2   2
#     4  11  25  41  71 101 128 175 221 280 337 390
#     4  12  25  45  67  98 141 174 217 277 342 392
#     4  11  23  45  65  97 136 174 226 275 330 393
#     4  11  23  41  73 100 127 169 226 282 328 391
#     4  11  24  46  67 100 135 173 230 274 329 396
#     4  12  27  38  68  96 139 186 217 267 326 413
#     4  10  21  45  67  97 132 176 226 277 330 385
#     4  10  22  43  72  97 128 168 228 286 322 386
#
# _framework density 21.930334999999999
#
# number of rings (size 3 to 8) (size 9 to 14) (size 15 to 20)
#    0.000    1.000    3.750    5.250    7.000    1.500 
#    0.000    0.000    0.000    0.000    0.000    0.000 
#    0.000    0.000    0.000    0.000    0.000    0.000 
#
# Total GULP energy -198347.748862 kJ/mol
# GULP energy per Si atom -12396.734304 kJ/mol
# Density = 2.188042 g / cm^3
# Si number density = 21.930335 Si / 1000 Ang^3
#
#
#
# Elastic Constant Matrix: (Units=GPa)
#
#
# Indices 1 2 3 4 5 6 
#
# 1 90.5607 55.7506 32.7469 3.7262 24.1389 8.0919
# 2 55.7506 115.6172 25.8739 21.6400 2.5409 -1.2450
# 3 32.7469 25.8739 89.9856 17.2612 4.8063 -4.2922
# 4 3.7262 21.6400 17.2612 37.3311 -9.5213 -0.1891
# 5 24.1389 2.5409 4.8063 -9.5213 20.8733 11.2869
# 6 8.0919 -1.2450 -4.2922 -0.1891 11.2869 43.4324
#
#
#
# Elastic Compliance Matrix: (Units=1/GPa)
#
#
# Indices 1 2 3 4 5 6 
#
# 1 0.028422 -0.011461 -0.004733 -0.002348 -0.032759 0.002411
# 2 -0.011461 0.014914 0.000501 -0.005536 0.008607 0.000351
# 3 -0.004733 0.000501 0.014354 -0.007149 -0.002779 0.003006
# 4 -0.002348 -0.005536 -0.007149 0.040518 0.027521 -0.007403
# 5 -0.032759 0.008607 -0.002779 0.027521 0.110053 -0.022405
# 6 0.002411 0.000351 0.003006 -0.007403 -0.022405 0.028672
#
#
# Mechanical properties :
#
#
# Convention : Reuss Voigt Hill
#
# Bulk Modulus (GPa) = 38.01353 58.32293 48.16823
# Shear Modulus (GPa) = 18.04493 32.44683 25.24588
#
# Velocity S-wave (km/s) = 2.87161 3.85065 3.39659
# Velocity P-wave (km/s) = 5.32600 6.81340 6.11509
#
# Compressibility (1/GPa) = 0.02630643
#
# Stress axis : x y z
#
# Youngs Moduli (GPa) = 35.18408 67.05049 69.66605
#
# Poissons Ratio (x) = 0.76843 0.32971
# Poissons Ratio (y) = 0.40323 -0.03492
# Poissons Ratio (z) = 0.16652 -0.03361
#
# Static dielectric constant tensor:
#      x y z
#    x 4.135090 -0.040230 -0.048300 
#    y -0.040230 4.185450 0.396800 
#    z -0.048300 0.396800 4.272850 
# 
# 
# High freq. dielectric constant tensor:
#      x y z
#    x 1.855840 -0.000160 0.012360 
#    y -0.000160 1.875310 0.016780 
#    z 0.012360 0.016780 1.857800 
# 
# From -- ./inp_files/469855.got.cif
#   From: 2010.06.25/outbox.cif.g09.slc.cpg/sg2_235_cif.got.tgz:469855.got - 2010.06.27 13:26:56.
