data_PCOD8016109
_publ_section_title
;
Structure prediction by ZEFSAII (Michael W. Deem and Ramdas Pophale) SiO2 
 PCOD8016109
Probable space group: P -1
;
_chemical_formula_sum "Si O2"
_cell_formula_units_Z 14
_cell_length_a 14.320285
_cell_length_b 8.933851
_cell_length_c 15.036740
_cell_angle_alpha 51.809694
_cell_angle_beta 29.111025
_cell_angle_gamma 69.960475
_cell_volume 629.858091
_symmetry_space_group_name_H-M "P -1"
_symmetry_group_IT_number 2
_symmetry_cell_setting 'triclinic'
loop_
_space_group_symop_operation_xyz
x,y,z
-x,-y,-z
loop_
_atom_site_type_symbol
_atom_site_label
_atom_site_fract_x
_atom_site_fract_y
_atom_site_fract_z
Si Si1 0.326410 0.962240 0.234595
Si Si2 0.056195 0.967687 0.171259
Si Si3 0.830612 0.242448 0.220012
Si Si4 0.277259 0.248766 0.045847
Si Si5 0.476311 0.988093 0.752933
Si Si6 0.797773 0.500163 0.484995
Si Si7 0.184271 0.628704 0.000636
O O1 0.148388 0.697237 0.468479
O O2 0.251099 0.137962 0.206083
O O3 0.427190 0.022454 0.227763
O O4 0.500000 0.000000 0.000000
O O5 0.118816 0.035797 0.195872
O O6 0.939170 0.089874 0.180806
O O7 0.893229 0.698305 0.404945
O O8 0.284013 0.048268 0.898078
O O9 0.720149 0.221204 0.222900
O O10 0.662171 0.173792 0.467198
O O11 0.000000 0.500000 0.000000
O O12 0.529049 0.390290 0.742101
O O13 0.159454 0.391418 0.092896
O O14 0.366836 0.748480 0.883481
O O15 0.942106 0.602078 0.236260
#
# Coordination Sequence:
#
# PCOD8016109 Si02
#       7
#     2   2   2   2   2   2   2
#     4  10  21  43  70  96 137 170 223 277 323 400
#     4  11  24  42  70  98 132 178 220 266 343 386
#     4  12  25  42  68  99 135 172 227 275 323 406
#     4  11  23  44  67  98 138 175 218 277 331 386
#     4  11  24  45  67  99 135 175 221 278 333 391
#     4  10  23  43  66  97 135 169 227 266 325 404
#     4  11  25  44  66 101 135 176 224 272 333 392
#
# _framework density 22.227229999999999
#
# number of rings (size 3 to 8) (size 9 to 14) (size 15 to 20)
#    0.000    1.143    4.286    2.143    0.000    5.714 
#    2.571    0.000    0.000    0.000    0.000    0.000 
#    0.000    0.000    0.000    0.000    0.000    0.000 
#
# Total GULP energy -173433.166057 kJ/mol
# GULP energy per Si atom -12388.083290 kJ/mol
# Density = 2.217664 g / cm^3
# Si number density = 22.227230 Si / 1000 Ang^3
#
#
#
# Elastic Constant Matrix: (Units=GPa)
#
#
# Indices 1 2 3 4 5 6 
#
# 1 154.1466 74.4670 48.7967 -17.8636 16.6301 14.4114
# 2 74.4670 102.6610 51.7177 -10.4320 -5.5032 4.1704
# 3 48.7967 51.7177 90.4334 -11.4152 5.9672 11.4628
# 4 -17.8636 -10.4320 -11.4152 35.9358 5.9321 -3.6161
# 5 16.6301 -5.5032 5.9672 5.9321 32.9323 -1.7491
# 6 14.4114 4.1704 11.4628 -3.6161 -1.7491 42.4868
#
#
#
# Elastic Compliance Matrix: (Units=1/GPa)
#
#
# Indices 1 2 3 4 5 6 
#
# 1 0.012720 -0.009051 -0.000060 0.004819 -0.008972 -0.003369
# 2 -0.009051 0.020672 -0.008367 -0.002483 0.010175 0.003506
# 3 -0.000060 -0.008367 0.017134 0.003486 -0.005297 -0.003702
# 4 0.004819 -0.002483 0.003486 0.032141 -0.009268 0.000023
# 5 -0.008972 0.010175 -0.005297 -0.009268 0.039454 0.004309
# 6 -0.003369 0.003506 -0.003702 0.000023 0.004309 0.025514
#
#
# Mechanical properties :
#
#
# Convention : Reuss Voigt Hill
#
# Bulk Modulus (GPa) = 64.22858 77.46707 70.84782
# Shear Modulus (GPa) = 26.62648 33.75496 30.19072
#
# Velocity S-wave (km/s) = 3.46486 3.90119 3.68948
# Velocity P-wave (km/s) = 6.70567 7.43104 7.07766
#
# Compressibility (1/GPa) = 0.01556939
#
# Stress axis : x y z
#
# Youngs Moduli (GPa) = 78.61544 48.37463 58.36194
#
# Poissons Ratio (x) = 0.43783 0.00352
# Poissons Ratio (y) = 0.71154 0.48834
# Poissons Ratio (z) = 0.00474 0.40477
#
# Static dielectric constant tensor:
#      x y z
#    x 4.482140 -0.104440 0.350290 
#    y -0.104440 4.460790 -0.199880 
#    z 0.350290 -0.199880 4.471330 
# 
# 
# High freq. dielectric constant tensor:
#      x y z
#    x 1.858790 0.014170 -0.000310 
#    y 0.014170 1.889960 -0.000890 
#    z -0.000310 -0.000890 1.883720 
# 
# From -- ./inp_files/315533.got.cif
#   From: 2010.06.25/outbox.cif.g09.slc.cpg/sg2_158_cif.got.tgz:315533.got - 2010.06.27 13:26:56.
