data_PCOD8016983
_publ_section_title
;
Structure prediction by ZEFSAII (Michael W. Deem and Ramdas Pophale) SiO2 
 PCOD8016983
Probable space group: P -1
;
_chemical_formula_sum "Si O2"
_cell_formula_units_Z 16
_cell_length_a 7.700231
_cell_length_b 14.712820
_cell_length_c 8.809025
_cell_angle_alpha 130.154993
_cell_angle_beta 93.948728
_cell_angle_gamma 67.515821
_cell_volume 682.097690
_symmetry_space_group_name_H-M "P -1"
_symmetry_group_IT_number 2
_symmetry_cell_setting 'triclinic'
loop_
_space_group_symop_operation_xyz
x,y,z
-x,-y,-z
loop_
_atom_site_type_symbol
_atom_site_label
_atom_site_fract_x
_atom_site_fract_y
_atom_site_fract_z
Si Si1 0.590732 0.763051 0.964864
Si Si2 0.404067 0.681847 0.103216
Si Si3 0.176701 0.894997 0.548581
Si Si4 0.697210 0.542191 0.216951
Si Si5 0.283022 0.096684 0.648141
Si Si6 0.065977 0.509020 0.342869
Si Si7 0.095519 0.204683 0.458310
Si Si8 0.541837 0.804815 0.669370
O O1 0.718505 0.604919 0.787281
O O2 0.497336 0.826582 0.868164
O O3 0.417887 0.785752 0.096706
O O4 0.713609 0.834849 0.118384
O O5 0.244122 0.762475 0.307206
O O6 0.614217 0.604471 0.114337
O O7 0.350181 0.581850 0.896152
O O8 0.349229 0.895515 0.664253
O O9 0.004212 0.896527 0.647818
O O10 0.139243 0.023864 0.581194
O O11 0.607609 0.651461 0.462613
O O12 0.928175 0.487508 0.186262
O O13 0.178408 0.210406 0.637703
O O14 0.500000 0.000000 0.500000
O O15 0.000000 0.500000 0.500000
O O16 0.060444 0.652197 0.459790
O O17 0.286260 0.151147 0.304980
#
# Coordination Sequence:
#
# PCOD8016983 Si02
#       8
#     2   2   2   2   2   2   2   2
#     4  12  24  40  69  99 134 182 215 273 348 394
#     4  10  22  37  62  97 129 171 229 266 334 395
#     4  11  24  46  68  97 133 182 226 282 323 389
#     4   9  20  39  57  92 136 169 212 273 328 403
#     4  12  24  47  70  94 137 179 232 280 324 389
#     4  11  23  41  66  99 140 171 211 277 345 407
#     4  11  24  45  71  96 134 176 224 281 336 393
#     4  10  22  44  64  98 138 172 215 272 342 404
#
# _framework density 23.457049999999999
#
# number of rings (size 3 to 8) (size 9 to 14) (size 15 to 20)
#    0.000    1.250    5.000    1.875    7.000    3.000 
#    0.000    0.625    0.000    0.000    0.000    0.000 
#    0.000    0.000    0.000    0.000    0.000    0.000 
#
# Total GULP energy -198323.046638 kJ/mol
# GULP energy per Si atom -12395.190415 kJ/mol
# Density = 2.340366 g / cm^3
# Si number density = 23.457050 Si / 1000 Ang^3
#
#
#
# Elastic Constant Matrix: (Units=GPa)
#
#
# Indices 1 2 3 4 5 6 
#
# 1 78.2657 13.3738 4.7387 -5.1738 -0.5045 33.2499
# 2 13.3738 112.4451 26.2807 -10.4360 -1.8472 24.2286
# 3 4.7387 26.2807 53.8133 -18.0721 4.7710 10.2493
# 4 -5.1738 -10.4360 -18.0721 29.1976 1.2148 0.0132
# 5 -0.5045 -1.8472 4.7710 1.2148 19.5755 8.2555
# 6 33.2499 24.2286 10.2493 0.0132 8.2555 41.8055
#
#
#
# Elastic Compliance Matrix: (Units=1/GPa)
#
#
# Indices 1 2 3 4 5 6 
#
# 1 0.021363 0.001996 0.002099 0.005455 0.008465 -0.020336
# 2 0.001996 0.011714 -0.004215 0.001701 0.005646 -0.008458
# 3 0.002099 -0.004215 0.027257 0.015988 -0.005983 -0.004732
# 4 0.005455 0.001701 0.015988 0.045839 -0.002766 -0.008712
# 5 0.008465 0.005646 -0.005983 -0.002766 0.062249 -0.020829
# 6 -0.020336 -0.008458 -0.004732 -0.008712 -0.020829 0.050272
#
#
# Mechanical properties :
#
#
# Convention : Reuss Voigt Hill
#
# Bulk Modulus (GPa) = 16.64070 37.03450 26.83760
# Shear Modulus (GPa) = 20.92336 31.45779 26.19057
#
# Velocity S-wave (km/s) = 2.98985 3.66605 3.34508
# Velocity P-wave (km/s) = 4.36216 5.80882 5.13668
#
# Compressibility (1/GPa) = 0.06009361
#
# Stress axis : x y z
#
# Youngs Moduli (GPa) = 46.80909 85.36747 36.68732
#
# Poissons Ratio (x) = -0.17037 -0.07700
# Poissons Ratio (y) = -0.09342 0.15464
# Poissons Ratio (z) = -0.09824 0.35982
#
# Static dielectric constant tensor:
#      x y z
#    x 4.257870 -0.064840 0.139390 
#    y -0.064840 4.371630 -0.027860 
#    z 0.139390 -0.027860 3.924340 
# 
# 
# High freq. dielectric constant tensor:
#      x y z
#    x 1.922040 -0.000790 0.011180 
#    y -0.000790 1.940900 -0.003850 
#    z 0.011180 -0.003850 1.899530 
# 
# From -- ./inp_files/208983.got.cif
#   From: 2010.06.25/outbox.cif.g09.slc.cpg/sg2_105_cif.got.tgz:208983.got - 2010.06.27 13:26:56.
