data_PCOD8016059
_publ_section_title
;
Structure prediction by ZEFSAII (Michael W. Deem and Ramdas Pophale) SiO2 
 PCOD8016059
Probable space group: P -1
;
_chemical_formula_sum "Si O2"
_cell_formula_units_Z 14
_cell_length_a 14.819659
_cell_length_b 28.093959
_cell_length_c 14.732197
_cell_angle_alpha 19.064002
_cell_angle_beta 160.400487
_cell_angle_gamma 160.419833
_cell_volume 592.237517
_symmetry_space_group_name_H-M "P -1"
_symmetry_group_IT_number 2
_symmetry_cell_setting 'triclinic'
loop_
_space_group_symop_operation_xyz
x,y,z
-x,-y,-z
loop_
_atom_site_type_symbol
_atom_site_label
_atom_site_fract_x
_atom_site_fract_y
_atom_site_fract_z
Si Si1 0.701891 0.023991 0.439212
Si Si2 0.079899 0.196006 0.330357
Si Si3 0.037447 0.811779 0.139324
Si Si4 0.027149 0.546385 0.837734
Si Si5 0.437841 0.510090 0.635689
Si Si6 0.150471 0.894643 0.372063
Si Si7 0.178266 0.891088 0.936476
O O1 0.332610 0.933585 0.260137
O O2 0.885232 0.135243 0.499235
O O3 0.811828 0.156681 0.221230
O O4 0.798820 0.881225 0.778985
O O5 0.398138 0.339657 0.409419
O O6 0.019764 0.243531 0.086426
O O7 0.058020 0.017594 0.622189
O O8 0.853120 0.631494 0.332843
O O9 0.167658 0.795740 0.191765
O O10 0.033703 0.723917 0.515681
O O11 0.712731 0.429471 0.696384
O O12 0.326479 0.550035 0.070774
O O13 0.000000 0.500000 0.000000
O O14 0.500000 0.000000 0.500000
O O15 0.000000 0.000000 0.000000
O O16 0.500000 0.000000 0.000000
#
# Coordination Sequence:
#
# PCOD8016059 Si02
#       7
#     2   2   2   2   2   2   2
#     4  11  22  41  65  93 128 180 226 272 334 401
#     4  10  24  41  67  97 130 176 229 280 338 420
#     4  11  23  41  67  97 137 171 217 287 339 400
#     4  12  27  46  68 100 146 187 231 289 346 412
#     4  12  26  44  67 104 140 180 229 285 356 406
#     4  12  24  41  67  97 133 179 233 282 333 401
#     4  10  21  43  69  96 131 174 232 278 339 416
#
# _framework density 23.639164999999998
#
# number of rings (size 3 to 8) (size 9 to 14) (size 15 to 20)
#    0.000    0.857    1.429    6.429    2.000    4.000 
#    0.000    0.714    0.000    0.000    0.000    0.000 
#    0.000    0.000    0.000    0.000    0.000    0.000 
#
# Total GULP energy -173505.355720 kJ/mol
# GULP energy per Si atom -12393.239694 kJ/mol
# Density = 2.358536 g / cm^3
# Si number density = 23.639165 Si / 1000 Ang^3
#
#
#
# Elastic Constant Matrix: (Units=GPa)
#
#
# Indices 1 2 3 4 5 6 
#
# 1 139.9719 54.1899 27.9890 13.9103 -10.2273 -19.6725
# 2 54.1899 151.5497 27.9402 26.8521 -10.1791 -17.0313
# 3 27.9890 27.9402 93.3332 28.4928 -0.1631 -6.5891
# 4 13.9103 26.8521 28.4928 34.7811 -1.4138 -2.9627
# 5 -10.2273 -10.1791 -0.1631 -1.4138 30.6752 14.4250
# 6 -19.6725 -17.0313 -6.5891 -2.9627 14.4250 44.7036
#
#
#
# Elastic Compliance Matrix: (Units=1/GPa)
#
#
# Indices 1 2 3 4 5 6 
#
# 1 0.008873 -0.002531 -0.001762 0.000091 0.001002 0.002363
# 2 -0.002531 0.008732 -0.000069 -0.005501 0.001103 0.001482
# 3 -0.001762 -0.000069 0.014802 -0.011335 -0.001591 0.001142
# 4 0.000091 -0.005501 -0.011335 0.042176 0.000621 -0.001131
# 5 0.001002 0.001103 -0.001591 0.000621 0.038910 -0.011888
# 6 0.002363 0.001482 0.001142 -0.001131 -0.011888 0.027904
#
#
# Mechanical properties :
#
#
# Convention : Reuss Voigt Hill
#
# Bulk Modulus (GPa) = 42.22710 67.23257 54.72984
# Shear Modulus (GPa) = 31.64263 40.34768 35.99515
#
# Velocity S-wave (km/s) = 3.66261 4.13584 3.90640
# Velocity P-wave (km/s) = 5.98233 7.16309 6.59917
#
# Compressibility (1/GPa) = 0.02368147
#
# Stress axis : x y z
#
# Youngs Moduli (GPa) = 112.70283 114.52663 67.56030
#
# Poissons Ratio (x) = 0.28987 0.11907
# Poissons Ratio (y) = 0.28526 0.00465
# Poissons Ratio (z) = 0.19863 0.00789
#
# Static dielectric constant tensor:
#      x y z
#    x 8.404930 2.094730 4.316890 
#    y 2.094730 4.999310 2.537540 
#    z 4.316890 2.537540 9.298520 
# 
# 
# High freq. dielectric constant tensor:
#      x y z
#    x 1.963170 -0.010700 -0.005590 
#    y -0.010700 1.929550 0.021120 
#    z -0.005590 0.021120 1.923220 
# 
# From -- ./inp_files/535719.got.cif
#   From: 2010.06.25/outbox.cif.g09.slc.cpg/sg2_268_cif.got.tgz:535719.got - 2010.06.27 13:26:56.
