data_PCOD8016865
_publ_section_title
;
Structure prediction by ZEFSAII (Michael W. Deem and Ramdas Pophale) SiO2 
 PCOD8016865
Probable space group: P -1
;
_chemical_formula_sum "Si O2"
_cell_formula_units_Z 16
_cell_length_a 8.679197
_cell_length_b 22.385000
_cell_length_c 9.089949
_cell_angle_alpha 46.521800
_cell_angle_beta 85.855377
_cell_angle_gamma 122.274455
_cell_volume 755.656614
_symmetry_space_group_name_H-M "P -1"
_symmetry_group_IT_number 2
_symmetry_cell_setting 'triclinic'
loop_
_space_group_symop_operation_xyz
x,y,z
-x,-y,-z
loop_
_atom_site_type_symbol
_atom_site_label
_atom_site_fract_x
_atom_site_fract_y
_atom_site_fract_z
Si Si1 0.520618 0.723982 0.145701
Si Si2 0.630785 0.720162 0.811545
Si Si3 0.431780 0.995811 0.674970
Si Si4 0.994907 0.722718 0.774751
Si Si5 0.822007 0.277431 0.743149
Si Si6 0.259669 0.454064 0.631287
Si Si7 0.084100 0.451913 0.149886
Si Si8 0.070773 0.998081 0.662630
O O1 0.360272 0.739596 0.120856
O O2 0.356181 0.581980 0.479578
O O3 0.577708 0.710256 0.004562
O O4 0.787862 0.856502 0.993021
O O5 0.837659 0.738268 0.730396
O O6 0.768837 0.862517 0.498739
O O7 0.362994 0.586591 0.975602
O O8 0.237622 0.987820 0.680509
O O9 0.500000 0.000000 0.500000
O O10 0.296147 0.864971 0.999963
O O11 0.694763 0.132626 0.513027
O O12 0.883493 0.605498 0.874268
O O13 0.945478 0.675590 0.025936
O O14 0.111559 0.405087 0.572379
O O15 0.858085 0.325136 0.493631
O O16 0.500000 0.500000 0.500000
O O17 0.000000 0.500000 0.000000
O O18 0.000000 0.000000 0.500000
#
# Coordination Sequence:
#
# PCOD8016865 Si02
#       8
#     2   2   2   2   2   2   2   2
#     4  11  21  38  64  97 133 165 222 283 331 385
#     4  11  22  42  64  95 134 174 224 279 333 398
#     4  12  22  41  69 101 134 173 226 282 336 395
#     4  12  25  42  70  98 135 181 222 274 342 401
#     4  12  25  41  69  99 137 176 227 278 336 397
#     4  12  22  39  66 101 131 168 226 283 333 390
#     4  12  27  45  66  97 139 185 223 271 340 408
#     4  10  22  36  62  98 135 169 212 277 339 391
#
# _framework density 21.173638
#
# number of rings (size 3 to 8) (size 9 to 14) (size 15 to 20)
#    0.000    0.500    3.750    6.750    1.750    0.500 
#    0.000    1.250    0.000    5.250    0.000    0.000 
#    0.000    0.000    0.000    0.000    0.000    0.000 
#
# Total GULP energy -198384.926484 kJ/mol
# GULP energy per Si atom -12399.057905 kJ/mol
# Density = 2.112545 g / cm^3
# Si number density = 21.173638 Si / 1000 Ang^3
#
#
#
# Elastic Constant Matrix: (Units=GPa)
#
#
# Indices 1 2 3 4 5 6 
#
# 1 199.6126 46.2072 65.1514 -17.6513 2.6896 -8.0680
# 2 46.2072 84.2870 41.2807 -19.2621 -0.5248 -5.9250
# 3 65.1514 41.2807 137.4538 -28.5362 16.3338 8.1417
# 4 -17.6513 -19.2621 -28.5362 42.0574 1.3352 -1.3504
# 5 2.6896 -0.5248 16.3338 1.3352 42.3903 -10.1815
# 6 -8.0680 -5.9250 8.1417 -1.3504 -10.1815 33.5826
#
#
#
# Elastic Compliance Matrix: (Units=1/GPa)
#
#
# Indices 1 2 3 4 5 6 
#
# 1 0.006438 -0.002052 -0.002708 -0.000041 0.001135 0.002184
# 2 -0.002052 0.015952 -0.003509 0.004116 0.002536 0.004107
# 3 -0.002708 -0.003509 0.011740 0.005227 -0.005930 -0.005703
# 4 -0.000041 0.004116 0.005227 0.029277 -0.002947 -0.000267
# 5 0.001135 0.002536 -0.005930 -0.002947 0.028492 0.010677
# 6 0.002184 0.004107 -0.005703 -0.000267 0.010677 0.035636
#
#
# Mechanical properties :
#
#
# Convention : Reuss Voigt Hill
#
# Bulk Modulus (GPa) = 56.83873 80.73689 68.78781
# Shear Modulus (GPa) = 33.34753 41.52034 37.43394
#
# Velocity S-wave (km/s) = 3.97288 4.43306 4.20926
# Velocity P-wave (km/s) = 6.92440 8.02598 7.49546
#
# Compressibility (1/GPa) = 0.01759364
#
# Stress axis : x y z
#
# Youngs Moduli (GPa) = 155.33057 62.68614 85.17748
#
# Poissons Ratio (x) = 0.12862 0.23067
# Poissons Ratio (y) = 0.31871 0.29885
# Poissons Ratio (z) = 0.42065 0.21994
#
# Static dielectric constant tensor:
#      x y z
#    x 6.360180 0.139530 0.294210 
#    y 0.139530 3.782880 -0.464480 
#    z 0.294210 -0.464480 4.662610 
# 
# 
# High freq. dielectric constant tensor:
#      x y z
#    x 1.849470 -0.003340 0.002050 
#    y -0.003340 1.805380 -0.033610 
#    z 0.002050 -0.033610 1.845450 
# 
# From -- ./inp_files/217111.got.cif
#   From: 2010.06.25/outbox.cif.g09.slc.cpg/sg2_109_cif.got.tgz:217111.got - 2010.06.27 13:26:56.
