data_PCOD8016390
_publ_section_title
;
Structure prediction by ZEFSAII (Michael W. Deem and Ramdas Pophale) SiO2 
 PCOD8016390
Probable space group: P -1
;
_chemical_formula_sum "Si O2"
_cell_formula_units_Z 16
_cell_length_a 9.113189
_cell_length_b 21.269003
_cell_length_c 22.123252
_cell_angle_alpha 18.883636
_cell_angle_beta 46.651606
_cell_angle_gamma 36.331350
_cell_volume 755.233167
_symmetry_space_group_name_H-M "P -1"
_symmetry_group_IT_number 2
_symmetry_cell_setting 'triclinic'
loop_
_space_group_symop_operation_xyz
x,y,z
-x,-y,-z
loop_
_atom_site_type_symbol
_atom_site_label
_atom_site_fract_x
_atom_site_fract_y
_atom_site_fract_z
Si Si1 0.891018 0.772292 0.121934
Si Si2 0.085749 0.750467 0.587231
Si Si3 0.639450 0.086889 0.494268
Si Si4 0.734913 0.754560 0.876031
Si Si5 0.553835 0.427075 0.828192
Si Si6 0.083547 0.107365 0.187119
Si Si7 0.534021 0.247681 0.707217
Si Si8 0.832089 0.563399 0.766671
O O1 0.743436 0.699519 0.269501
O O2 0.127892 0.736064 0.124162
O O3 0.021006 0.567466 0.218162
O O4 0.686777 0.066219 0.887970
O O5 0.405397 0.555612 0.688567
O O6 0.022301 0.580559 0.735571
O O7 0.975824 0.978715 0.364018
O O8 0.947699 0.869324 0.583903
O O9 0.565403 0.353720 0.287148
O O10 0.456917 0.155916 0.423133
O O11 0.582291 0.987627 0.658404
O O12 0.808287 0.828074 0.848068
O O13 0.512342 0.740991 0.972334
O O14 0.000000 0.500000 0.000000
O O15 0.312409 0.895925 0.267588
O O16 0.832106 0.367388 0.986131
O O17 0.500000 0.500000 0.500000
#
# Coordination Sequence:
#
# PCOD8016390 Si02
#       8
#     2   2   2   2   2   2   2   2
#     4   9  22  41  65  92 121 159 213 262 328 381
#     4  12  21  37  62  91 128 170 210 261 319 370
#     4  11  23  38  60  91 129 173 216 256 311 382
#     4  12  22  39  63  93 131 176 209 252 315 380
#     4  11  22  38  63  90 129 168 208 261 317 374
#     4  11  23  38  64  94 122 166 217 262 315 383
#     4  10  21  44  69  90 121 165 210 271 328 377
#     4  10  22  39  60  90 125 164 214 267 312 378
#
# _framework density 21.185509
#
# number of rings (size 3 to 8) (size 9 to 14) (size 15 to 20)
#    0.000    1.250    3.750    2.250    0.000    5.500 
#    0.000    1.250    0.000    0.000    0.000    0.000 
#    0.000    0.000    0.000    0.000    0.000    0.000 
#
# Total GULP energy -198282.736846 kJ/mol
# GULP energy per Si atom -12392.671053 kJ/mol
# Density = 2.113729 g / cm^3
# Si number density = 21.185509 Si / 1000 Ang^3
#
#
#
# Elastic Constant Matrix: (Units=GPa)
#
#
# Indices 1 2 3 4 5 6 
#
# 1 531.6790 -97.0611 68.9622 -51.3158 -83.5660 -33.5217
# 2 -97.0611 99.1844 28.0970 23.1665 27.0891 2.7018
# 3 68.9622 28.0970 131.3119 15.9336 1.0274 -5.6329
# 4 -51.3158 23.1665 15.9336 36.2546 10.0862 1.8255
# 5 -83.5660 27.0891 1.0274 10.0862 59.9848 4.2159
# 6 -33.5217 2.7018 -5.6329 1.8255 4.2159 41.8443
#
#
#
# Elastic Compliance Matrix: (Units=1/GPa)
#
#
# Indices 1 2 3 4 5 6 
#
# 1 0.003774 0.002660 -0.002970 0.003928 0.003310 0.001947
# 2 0.002660 0.015399 -0.004199 -0.003542 -0.002651 0.000993
# 3 -0.002970 -0.004199 0.010784 -0.005851 -0.001424 -0.000258
# 4 0.003928 -0.003542 -0.005851 0.037720 0.000769 0.000865
# 5 0.003310 -0.002651 -0.001424 0.000769 0.022349 0.000345
# 6 0.001947 0.000993 -0.000258 0.000865 0.000345 0.025286
#
#
# Mechanical properties :
#
#
# Convention : Reuss Voigt Hill
#
# Bulk Modulus (GPa) = 47.75896 84.68572 66.22234
# Shear Modulus (GPa) = 38.07796 78.42857 58.25326
#
# Velocity S-wave (km/s) = 4.24413 6.09100 5.24942
# Velocity P-wave (km/s) = 6.82708 9.46188 8.25034
#
# Compressibility (1/GPa) = 0.02093848
#
# Stress axis : x y z
#
# Youngs Moduli (GPa) = 264.99234 64.94014 92.73256
#
# Poissons Ratio (x) = -0.17273 0.27542
# Poissons Ratio (y) = -0.70482 0.38935
# Poissons Ratio (z) = 0.78704 0.27266
#
# Static dielectric constant tensor:
#      x y z
#    x 4.234300 -0.222070 0.226430 
#    y -0.222070 3.777870 -0.035000 
#    z 0.226430 -0.035000 4.211970 
# 
# 
# High freq. dielectric constant tensor:
#      x y z
#    x 1.834610 0.002000 -0.001680 
#    y 0.002000 1.809900 0.004540 
#    z -0.001680 0.004540 1.845670 
# 
# From -- ./inp_files/528797.got.cif
#   From: 2010.06.25/outbox.cif.g09.slc.cpg/sg2_265_cif.got.tgz:528797.got - 2010.06.27 13:26:56.
