data_PCOD8016935
_publ_section_title
;
Structure prediction by ZEFSAII (Michael W. Deem and Ramdas Pophale) SiO2 
 PCOD8016935
Probable space group: P -1
;
_chemical_formula_sum "Si O2"
_cell_formula_units_Z 14
_cell_length_a 22.515840
_cell_length_b 20.302339
_cell_length_c 7.934415
_cell_angle_alpha 36.048707
_cell_angle_beta 35.879542
_cell_angle_gamma 18.087623
_cell_volume 645.187832
_symmetry_space_group_name_H-M "P -1"
_symmetry_group_IT_number 2
_symmetry_cell_setting 'triclinic'
loop_
_space_group_symop_operation_xyz
x,y,z
-x,-y,-z
loop_
_atom_site_type_symbol
_atom_site_label
_atom_site_fract_x
_atom_site_fract_y
_atom_site_fract_z
Si Si1 0.048514 0.513738 0.627995
Si Si2 0.932743 0.270577 0.736230
Si Si3 0.554875 0.912750 0.241335
Si Si4 0.155798 0.887481 0.234060
Si Si5 0.727575 0.444948 0.519555
Si Si6 0.504323 0.706432 0.804116
Si Si7 0.755467 0.641081 0.859454
O O1 0.962135 0.711779 0.492138
O O2 0.210013 0.309761 0.807527
O O3 0.140524 0.453907 0.360307
O O4 0.875047 0.589180 0.843482
O O5 0.917707 0.275293 0.557360
O O6 0.710203 0.482771 0.887589
O O7 0.048542 0.055113 0.984633
O O8 0.464394 0.876080 0.562420
O O9 0.453786 0.097870 0.216268
O O10 0.500000 0.000000 0.000000
O O11 0.268992 0.675363 0.335219
O O12 0.323420 0.809778 0.088761
O O13 0.000000 0.000000 0.500000
O O14 0.529989 0.646908 0.669602
O O15 0.729544 0.537155 0.181967
#
# Coordination Sequence:
#
# PCOD8016935 Si02
#       7
#     2   2   2   2   2   2   2
#     4  10  22  37  60  90 125 158 196 255 304 357
#     4   9  21  41  60  85 118 155 203 251 295 365
#     4  11  20  39  62  91 119 162 202 242 303 367
#     4  12  23  39  64  87 117 159 201 252 310 352
#     4  10  22  41  59  87 121 159 206 246 298 365
#     4   9  22  40  61  85 121 154 202 249 293 361
#     4  11  21  38  59  89 126 156 199 252 306 356
#
# _framework density 21.699107000000001
#
# number of rings (size 3 to 8) (size 9 to 14) (size 15 to 20)
#    0.857    0.857    1.429    3.000    0.000    5.143 
#    0.000    0.000    0.000    0.000    0.000    0.000 
#    0.000    0.000    0.000    0.000    0.000    0.000 
#
# Total GULP energy -173543.046710 kJ/mol
# GULP energy per Si atom -12395.931908 kJ/mol
# Density = 2.164972 g / cm^3
# Si number density = 21.699107 Si / 1000 Ang^3
#
#
#
# Elastic Constant Matrix: (Units=GPa)
#
#
# Indices 1 2 3 4 5 6 
#
# 1 48.3730 -8.5137 4.0844 -14.2776 -4.4022 -5.7779
# 2 -8.5137 52.0637 27.1111 -24.4575 -2.2708 -7.4675
# 3 4.0844 27.1111 85.5689 -30.3710 -12.9697 -5.0032
# 4 -14.2776 -24.4575 -30.3710 39.1073 3.9339 -5.8588
# 5 -4.4022 -2.2708 -12.9697 3.9339 30.4846 -0.0369
# 6 -5.7779 -7.4675 -5.0032 -5.8588 -0.0369 30.7539
#
#
#
# Elastic Compliance Matrix: (Units=1/GPa)
#
#
# Indices 1 2 3 4 5 6 
#
# 1 0.036945 0.022333 0.005045 0.033832 0.004803 0.019636
# 2 0.022333 0.044535 0.000442 0.039572 0.001651 0.022622
# 3 0.005045 0.000442 0.018837 0.017196 0.006565 0.007403
# 4 0.033832 0.039572 0.017196 0.080657 0.004782 0.034134
# 5 0.004803 0.001651 0.006565 0.004782 0.035800 0.003325
# 6 0.019636 0.022622 0.007403 0.034134 0.003325 0.049409
#
#
# Mechanical properties :
#
#
# Convention : Reuss Voigt Hill
#
# Bulk Modulus (GPa) = 6.41203 25.70769 16.05986
# Shear Modulus (GPa) = 19.04542 30.95743 25.00142
#
# Velocity S-wave (km/s) = 2.96582 3.78122 3.39807
# Velocity P-wave (km/s) = 3.83269 5.56207 4.77630
#
# Compressibility (1/GPa) = 0.15595692
#
# Stress axis : x y z
#
# Youngs Moduli (GPa) = 27.06691 22.45422 53.08719
#
# Poissons Ratio (x) = -0.50147 -0.26780
# Poissons Ratio (y) = -0.60449 -0.02347
# Poissons Ratio (z) = -0.13654 -0.00993
#
# Static dielectric constant tensor:
#      x y z
#    x 3.840060 -0.069180 -0.118800 
#    y -0.069180 4.116860 -0.149590 
#    z -0.118800 -0.149590 3.747020 
# 
# 
# High freq. dielectric constant tensor:
#      x y z
#    x 1.842230 0.002500 -0.005700 
#    y 0.002500 1.849220 -0.014240 
#    z -0.005700 -0.014240 1.849340 
# 
# From -- ./inp_files/355232.got.cif
#   From: 2010.06.25/outbox.cif.g09.slc.cpg/sg2_178_cif.got.tgz:355232.got - 2010.06.27 13:26:56.
