data_PCOD8016881
_publ_section_title
;
Structure prediction by ZEFSAII (Michael W. Deem and Ramdas Pophale) SiO2 
 PCOD8016881
Probable space group: P -1
;
_chemical_formula_sum "Si O2"
_cell_formula_units_Z 16
_cell_length_a 8.931029
_cell_length_b 5.401749
_cell_length_c 19.900454
_cell_angle_alpha 54.180970
_cell_angle_beta 76.587434
_cell_angle_gamma 72.584702
_cell_volume 740.794146
_symmetry_space_group_name_H-M "P -1"
_symmetry_group_IT_number 2
_symmetry_cell_setting 'triclinic'
loop_
_space_group_symop_operation_xyz
x,y,z
-x,-y,-z
loop_
_atom_site_type_symbol
_atom_site_label
_atom_site_fract_x
_atom_site_fract_y
_atom_site_fract_z
Si Si1 0.625250 0.775339 0.708209
Si Si2 0.827453 0.364509 0.409427
Si Si3 0.571985 0.608255 0.300211
Si Si4 0.099284 0.223066 0.989944
Si Si5 0.833465 0.231593 0.838111
Si Si6 0.850216 0.571764 0.186149
Si Si7 0.124688 0.893867 0.418912
Si Si8 0.988402 0.118604 0.707129
O O1 0.521504 0.606557 0.697906
O O2 0.700844 0.546922 0.797726
O O3 0.532676 0.088321 0.702951
O O4 0.766544 0.848133 0.635592
O O5 0.660619 0.390935 0.385759
O O6 0.804915 0.376565 0.491269
O O7 0.902097 0.639203 0.326583
O O8 0.943738 0.037420 0.433824
O O9 0.693622 0.727032 0.218352
O O10 0.188227 0.378450 0.897678
O O11 0.000000 0.500000 0.000000
O O12 0.218514 0.008557 0.064880
O O13 0.000000 0.000000 0.000000
O O14 0.004297 0.274250 0.836319
O O15 0.861744 0.088416 0.782932
O O16 0.893584 0.212126 0.261933
O O17 0.117427 0.756744 0.366863
#
# Coordination Sequence:
#
# PCOD8016881 Si02
#       8
#     2   2   2   2   2   2   2   2
#     4  12  26  43  65  95 136 182 218 261 331 397
#     4  11  24  41  65  96 126 169 226 279 326 384
#     4  12  26  43  65  95 136 182 218 261 331 397
#     4  10  22  36  66 106 128 158 215 286 323 368
#     4  11  22  41  68  97 128 171 224 270 325 387
#     4  11  22  41  68  97 128 171 224 270 325 387
#     4  11  24  41  65  96 126 169 226 279 326 384
#     4  12  17  39  72  92 128 162 224 269 329 378
#
# _framework density 21.598441999999999
#
# number of rings (size 3 to 8) (size 9 to 14) (size 15 to 20)
#    0.000    0.750    6.250    1.875    0.000    1.000 
#    0.000    1.250    0.000    0.000    0.000    0.000 
#    0.000    0.000    0.000    0.000    0.000    0.000 
#
# Total GULP energy -198315.969179 kJ/mol
# GULP energy per Si atom -12394.748074 kJ/mol
# Density = 2.154928 g / cm^3
# Si number density = 21.598442 Si / 1000 Ang^3
#
#
#
# Elastic Constant Matrix: (Units=GPa)
#
#
# Indices 1 2 3 4 5 6 
#
# 1 92.3211 30.9897 26.9276 2.8523 14.4277 1.0685
# 2 30.9897 107.1974 22.3512 4.6004 11.9226 -1.7175
# 3 26.9276 22.3512 154.4503 17.2534 25.9162 -11.2306
# 4 2.8523 4.6004 17.2534 32.3926 6.4187 3.7443
# 5 14.4277 11.9226 25.9162 6.4187 18.5057 -3.9911
# 6 1.0685 -1.7175 -11.2306 3.7443 -3.9911 33.1298
#
#
#
# Elastic Compliance Matrix: (Units=1/GPa)
#
#
# Indices 1 2 3 4 5 6 
#
# 1 0.013311 -0.002845 -0.000828 0.001568 -0.008370 -0.002043
# 2 -0.002845 0.010688 -0.000326 -0.000291 -0.004095 0.000075
# 3 -0.000828 -0.000326 0.008825 -0.002830 -0.010066 0.002108
# 4 0.001568 -0.000291 -0.002830 0.035107 -0.010600 -0.006270
# 5 -0.008370 -0.004095 -0.010066 -0.010600 0.082658 0.007801
# 6 -0.002043 0.000075 0.002108 -0.006270 0.007801 0.032617
#
#
# Mechanical properties :
#
#
# Convention : Reuss Voigt Hill
#
# Bulk Modulus (GPa) = 40.27916 57.16731 48.72323
# Shear Modulus (GPa) = 25.06526 35.05231 30.05878
#
# Velocity S-wave (km/s) = 3.41033 4.03290 3.73461
# Velocity P-wave (km/s) = 5.84779 6.94345 6.41904
#
# Compressibility (1/GPa) = 0.02482674
#
# Stress axis : x y z
#
# Youngs Moduli (GPa) = 75.12324 93.56315 113.31814
#
# Poissons Ratio (x) = 0.26615 0.09387
# Poissons Ratio (y) = 0.21370 0.03690
# Poissons Ratio (z) = 0.06223 0.03047
#
# Static dielectric constant tensor:
#      x y z
#    x 3.809580 0.019740 0.179480 
#    y 0.019740 3.872140 0.235070 
#    z 0.179480 0.235070 4.742480 
# 
# 
# High freq. dielectric constant tensor:
#      x y z
#    x 1.818840 0.009420 0.016380 
#    y 0.009420 1.847210 0.010380 
#    z 0.016380 0.010380 1.866490 
# 
# From -- ./inp_files/48004.got.cif
#   From: 2010.06.25/outbox.cif.g09.slc.cpg/sg2_25_cif.got.tgz:48004.got - 2010.06.27 13:26:56.
