data_PCOD8016561
_publ_section_title
;
Structure prediction by ZEFSAII (Michael W. Deem and Ramdas Pophale) SiO2 
 PCOD8016561
Probable space group: P -1
;
_chemical_formula_sum "Si O2"
_cell_formula_units_Z 14
_cell_length_a 13.594600
_cell_length_b 15.115479
_cell_length_c 8.261508
_cell_angle_alpha 84.142774
_cell_angle_beta 117.151886
_cell_angle_gamma 150.168320
_cell_volume 561.993114
_symmetry_space_group_name_H-M "P -1"
_symmetry_group_IT_number 2
_symmetry_cell_setting 'triclinic'
loop_
_space_group_symop_operation_xyz
x,y,z
-x,-y,-z
loop_
_atom_site_type_symbol
_atom_site_label
_atom_site_fract_x
_atom_site_fract_y
_atom_site_fract_z
Si Si1 0.674698 0.195656 0.710165
Si Si2 0.820311 0.391192 0.229451
Si Si3 0.766881 0.144362 0.091805
Si Si4 0.113250 0.268975 0.138611
Si Si5 0.126276 0.907496 0.353101
Si Si6 0.668921 0.754887 0.636209
Si Si7 0.232183 0.484381 0.633811
O O1 0.776463 0.221384 0.940667
O O2 0.454734 0.113866 0.596047
O O3 0.976872 0.453429 0.805732
O O4 0.500000 0.000000 0.500000
O O5 0.685236 0.386957 0.180726
O O6 0.000000 0.500000 0.500000
O O7 0.566847 0.127959 0.046901
O O8 0.894981 0.144600 0.133389
O O9 0.971985 0.334566 0.355981
O O10 0.441592 0.549904 0.368634
O O11 0.108952 0.158334 0.162097
O O12 0.998576 0.218455 0.889621
O O13 0.144323 0.027649 0.348714
O O14 0.896156 0.703520 0.354867
O O15 0.514678 0.676731 0.698377
#
# Coordination Sequence:
#
# PCOD8016561 Si02
#       7
#     2   2   2   2   2   2   2
#     4  12  22  42  64  93 131 168 208 254 310 382
#     4  12  22  39  63  87 125 170 204 251 313 361
#     4  11  24  43  63  91 130 166 206 260 311 366
#     4  10  21  45  67  89 130 164 206 262 313 375
#     4  12  23  42  65  92 129 165 208 259 313 371
#     4  10  24  43  67  94 123 166 209 260 318 365
#     4  11  25  40  62  97 124 159 220 257 299 383
#
# _framework density 24.911338000000001
#
# number of rings (size 3 to 8) (size 9 to 14) (size 15 to 20)
#    0.000    0.857    4.286    2.143    0.000    6.286 
#    0.000   15.000    0.000    0.000    0.000    0.000 
#    0.000    0.000    0.000    0.000    0.000    0.000 
#
# Total GULP energy -173670.111405 kJ/mol
# GULP energy per Si atom -12405.007957 kJ/mol
# Density = 2.485464 g / cm^3
# Si number density = 24.911338 Si / 1000 Ang^3
#
#
#
# Elastic Constant Matrix: (Units=GPa)
#
#
# Indices 1 2 3 4 5 6 
#
# 1 105.4984 33.9264 18.2826 -5.1704 5.4941 -14.4441
# 2 33.9264 179.1013 44.6468 -11.8323 -8.4449 -11.4884
# 3 18.2826 44.6468 86.2123 -4.3692 5.7745 -3.2674
# 4 -5.1704 -11.8323 -4.3692 35.0276 -5.8884 -0.8341
# 5 5.4941 -8.4449 5.7745 -5.8884 37.3390 5.5042
# 6 -14.4441 -11.4884 -3.2674 -0.8341 5.5042 35.5667
#
#
#
# Elastic Compliance Matrix: (Units=1/GPa)
#
#
# Indices 1 2 3 4 5 6 
#
# 1 0.010910 -0.001577 -0.001152 0.000647 -0.002299 0.004187
# 2 -0.001577 0.007040 -0.003334 0.002180 0.002538 0.000986
# 3 -0.001152 -0.003334 0.013757 -0.000037 -0.002739 0.000142
# 4 0.000647 0.002180 -0.000037 0.030245 0.005042 0.000893
# 5 -0.002299 0.002538 -0.002739 0.005042 0.029625 -0.004832
# 6 0.004187 0.000986 0.000142 0.000893 -0.004832 0.030917
#
#
# Mechanical properties :
#
#
# Convention : Reuss Voigt Hill
#
# Bulk Modulus (GPa) = 51.06470 62.72483 56.89477
# Shear Modulus (GPa) = 35.42457 39.85041 37.63749
#
# Velocity S-wave (km/s) = 3.77507 4.00395 3.89119
# Velocity P-wave (km/s) = 6.28845 6.82711 6.56331
#
# Compressibility (1/GPa) = 0.01958300
#
# Stress axis : x y z
#
# Youngs Moduli (GPa) = 91.65853 142.04509 72.69097
#
# Poissons Ratio (x) = 0.22395 0.08372
# Poissons Ratio (y) = 0.14451 0.24233
# Poissons Ratio (z) = 0.10556 0.47353
#
# Static dielectric constant tensor:
#      x y z
#    x 5.571000 -0.201260 -0.460280 
#    y -0.201260 4.443580 0.086530 
#    z -0.460280 0.086530 4.985160 
# 
# 
# High freq. dielectric constant tensor:
#      x y z
#    x 2.010160 -0.017250 -0.007720 
#    y -0.017250 1.990960 0.003130 
#    z -0.007720 0.003130 1.999530 
# 
# From -- ./inp_files/314997.got.cif
#   From: 2010.06.25/outbox.cif.g09.slc.cpg/sg2_158_cif.got.tgz:314997.got - 2010.06.27 13:26:56.
