data_PCOD8016564
_publ_section_title
;
Structure prediction by ZEFSAII (Michael W. Deem and Ramdas Pophale) SiO2 
 PCOD8016564
Probable space group: P -1
;
_chemical_formula_sum "Si O2"
_cell_formula_units_Z 16
_cell_length_a 9.244565
_cell_length_b 6.806061
_cell_length_c 16.666945
_cell_angle_alpha 50.464514
_cell_angle_beta 84.599388
_cell_angle_gamma 75.696881
_cell_volume 780.893007
_symmetry_space_group_name_H-M "P -1"
_symmetry_group_IT_number 2
_symmetry_cell_setting 'triclinic'
loop_
_space_group_symop_operation_xyz
x,y,z
-x,-y,-z
loop_
_atom_site_type_symbol
_atom_site_label
_atom_site_fract_x
_atom_site_fract_y
_atom_site_fract_z
Si Si1 0.578321 0.518448 0.908260
Si Si2 0.147025 0.746283 0.643710
Si Si3 0.557107 0.554095 0.219203
Si Si4 0.269237 0.082264 0.961044
Si Si5 0.194889 0.218132 0.109230
Si Si6 0.944490 0.652739 0.542526
Si Si7 0.017704 0.539504 0.160920
Si Si8 0.778238 0.355649 0.740268
O O1 0.457876 0.605549 0.820436
O O2 0.666730 0.744989 0.852770
O O3 0.500000 0.500000 0.000000
O O4 0.687512 0.231405 0.954433
O O5 0.321490 0.613429 0.683415
O O6 0.050559 0.691572 0.738664
O O7 0.088650 0.624716 0.599453
O O8 0.132964 0.051045 0.553062
O O9 0.601365 0.822128 0.119098
O O10 0.399439 0.616216 0.256609
O O11 0.107999 0.183992 0.899320
O O12 0.243197 0.222949 0.012941
O O13 0.059636 0.458340 0.086601
O O14 0.149057 0.949485 0.203127
O O15 0.818463 0.532862 0.621756
O O16 0.000000 0.500000 0.500000
O O17 0.161780 0.565717 0.197936
#
# Coordination Sequence:
#
# PCOD8016564 Si02
#       8
#     2   2   2   2   2   2   2   2
#     4  12  23  39  60  86 128 176 204 246 299 350
#     4   9  22  42  67  87 122 152 198 256 305 375
#     4  11  21  43  59  91 123 163 203 248 302 353
#     4  11  23  39  60  85 129 164 212 251 289 358
#     4  12  21  36  60  88 123 170 205 249 295 351
#     4  10  21  45  67  92 115 153 196 255 321 366
#     4  10  22  39  59  93 119 165 205 250 303 354
#     4  11  23  39  63  87 127 155 201 259 300 365
#
# _framework density 20.489362
#
# number of rings (size 3 to 8) (size 9 to 14) (size 15 to 20)
#    0.000    1.250    3.750    2.250    0.000    3.500 
#    9.000    0.625    0.000    0.000    0.000    0.000 
#    0.000    0.000    0.000    0.000    0.000    0.000 
#
# Total GULP energy -198325.350605 kJ/mol
# GULP energy per Si atom -12395.334413 kJ/mol
# Density = 2.044273 g / cm^3
# Si number density = 20.489362 Si / 1000 Ang^3
#
#
#
# Elastic Constant Matrix: (Units=GPa)
#
#
# Indices 1 2 3 4 5 6 
#
# 1 120.2461 38.4512 52.6925 -2.0604 -3.5882 -5.0334
# 2 38.4512 104.0004 40.4831 9.7701 -9.4658 -10.7024
# 3 52.6925 40.4831 106.7869 -2.4740 -5.7437 4.3154
# 4 -2.0604 9.7701 -2.4740 31.6573 4.3686 -7.4459
# 5 -3.5882 -9.4658 -5.7437 4.3686 33.8835 1.4565
# 6 -5.0334 -10.7024 4.3154 -7.4459 1.4565 24.8047
#
#
#
# Elastic Compliance Matrix: (Units=1/GPa)
#
#
# Indices 1 2 3 4 5 6 
#
# 1 0.011266 -0.002231 -0.004815 0.001768 -0.000591 0.002727
# 2 -0.002231 0.013094 -0.003972 -0.003846 0.003048 0.004554
# 3 -0.004815 -0.003972 0.013502 0.000713 0.000787 -0.004872
# 4 0.001768 -0.003846 0.000713 0.036041 -0.005832 0.009737
# 5 -0.000591 0.003048 0.000787 -0.005832 0.031296 -0.002530
# 6 0.002727 0.004554 -0.004872 0.009737 -0.002530 0.046752
#
#
# Mechanical properties :
#
#
# Convention : Reuss Voigt Hill
#
# Bulk Modulus (GPa) = 63.18461 66.03187 64.60824
# Shear Modulus (GPa) = 27.89224 31.36287 29.62755
#
# Velocity S-wave (km/s) = 3.69359 3.91665 3.80675
# Velocity P-wave (km/s) = 7.00677 7.26298 7.13602
#
# Compressibility (1/GPa) = 0.01582664
#
# Stress axis : x y z
#
# Youngs Moduli (GPa) = 88.76191 76.37199 74.06427
#
# Poissons Ratio (x) = 0.17035 0.35658
# Poissons Ratio (y) = 0.19799 0.29422
# Poissons Ratio (z) = 0.42735 0.30338
#
# Static dielectric constant tensor:
#      x y z
#    x 4.025810 0.352320 -0.339470 
#    y 0.352320 4.120310 -0.321510 
#    z -0.339470 -0.321510 4.129520 
# 
# 
# High freq. dielectric constant tensor:
#      x y z
#    x 1.809130 0.008820 -0.015910 
#    y 0.008820 1.799790 0.003170 
#    z -0.015910 0.003170 1.791280 
# 
# From -- ./inp_files/323829.got.cif
#   From: 2010.06.25/outbox.cif.g09.slc.cpg/sg2_162_cif.got.tgz:323829.got - 2010.06.27 13:26:56.
