data_PCOD8016499
_publ_section_title
;
Structure prediction by ZEFSAII (Michael W. Deem and Ramdas Pophale) SiO2 
 PCOD8016499
Probable space group: P -1
;
_chemical_formula_sum "Si O2"
_cell_formula_units_Z 16
_cell_length_a 9.678764
_cell_length_b 19.405771
_cell_length_c 11.802063
_cell_angle_alpha 47.163084
_cell_angle_beta 125.023233
_cell_angle_gamma 154.427874
_cell_volume 696.182170
_symmetry_space_group_name_H-M "P -1"
_symmetry_group_IT_number 2
_symmetry_cell_setting 'triclinic'
loop_
_space_group_symop_operation_xyz
x,y,z
-x,-y,-z
loop_
_atom_site_type_symbol
_atom_site_label
_atom_site_fract_x
_atom_site_fract_y
_atom_site_fract_z
Si Si1 0.253820 0.394848 0.149214
Si Si2 0.960779 0.770997 0.993851
Si Si3 0.937814 0.970884 0.307806
Si Si4 0.425507 0.626964 0.586667
Si Si5 0.089829 0.758756 0.296253
Si Si6 0.160103 0.667989 0.836543
Si Si7 0.621945 0.248056 0.409200
Si Si8 0.112100 0.969088 0.165379
O O1 0.039207 0.293943 0.046003
O O2 0.310377 0.312636 0.295017
O O3 0.067926 0.353549 0.212663
O O4 0.593963 0.608867 0.049303
O O5 0.095511 0.938213 0.850453
O O6 0.178370 0.820423 0.136319
O O7 0.606134 0.790933 0.415053
O O8 0.249015 0.099631 0.387815
O O9 0.960175 0.910097 0.282291
O O10 0.223614 0.591331 0.625687
O O11 0.201345 0.454644 0.596598
O O12 0.368334 0.844580 0.409335
O O13 0.981297 0.807165 0.241385
O O14 0.190278 0.674815 0.707073
O O15 0.502213 0.847733 0.854191
O O16 0.000000 0.500000 0.000000
O O17 0.000000 0.000000 0.000000
#
# Coordination Sequence:
#
# PCOD8016499 Si02
#       8
#     2   2   2   2   2   2   2   2
#     4  10  22  42  73 104 132 186 242 279 345 425
#     4  10  21  44  72  99 142 184 231 288 346 412
#     4  11  23  43  73  97 135 188 236 281 342 418
#     4  11  25  43  74 100 138 187 235 280 356 417
#     4  11  26  44  70  99 147 183 221 290 357 406
#     4  11  27  43  75 105 136 183 240 288 343 416
#     4  11  25  47  69 104 144 178 231 298 345 408
#     4  11  25  46  66 102 149 184 225 294 354 411
#
# _framework density 22.982489000000001
#
# number of rings (size 3 to 8) (size 9 to 14) (size 15 to 20)
#    0.000    1.250    2.500    2.250    8.750    2.500 
#    2.250    1.250    0.000    0.000    0.000    0.000 
#    0.000    0.000    0.000    0.000    0.000    0.000 
#
# Total GULP energy -198388.241835 kJ/mol
# GULP energy per Si atom -12399.265115 kJ/mol
# Density = 2.293018 g / cm^3
# Si number density = 22.982489 Si / 1000 Ang^3
#
#
#
# Elastic Constant Matrix: (Units=GPa)
#
#
# Indices 1 2 3 4 5 6 
#
# 1 154.9763 38.2115 52.9944 -9.2268 3.2910 -18.6371
# 2 38.2115 69.8446 53.0557 -3.7138 -3.1836 -22.3407
# 3 52.9944 53.0557 167.9868 -2.7862 18.7534 -3.7737
# 4 -9.2268 -3.7138 -2.7862 40.9957 3.6727 6.0184
# 5 3.2910 -3.1836 18.7534 3.6727 38.4790 -2.6148
# 6 -18.6371 -22.3407 -3.7737 6.0184 -2.6148 34.3343
#
#
#
# Elastic Compliance Matrix: (Units=1/GPa)
#
#
# Indices 1 2 3 4 5 6 
#
# 1 0.007953 -0.002130 -0.001769 0.001096 0.000075 0.002550
# 2 -0.002130 0.027673 -0.008610 -0.001741 0.007977 0.016817
# 3 -0.001769 -0.008610 0.009758 0.000900 -0.005816 -0.006091
# 4 0.001096 -0.001741 0.000900 0.025617 -0.003474 -0.005194
# 5 0.000075 0.007977 -0.005816 -0.003474 0.030318 0.007510
# 6 0.002550 0.016817 -0.006091 -0.005194 0.007510 0.042265
#
#
# Mechanical properties :
#
#
# Convention : Reuss Voigt Hill
#
# Bulk Modulus (GPa) = 49.10073 75.70346 62.40210
# Shear Modulus (GPa) = 28.50798 39.33154 33.91976
#
# Velocity S-wave (km/s) = 3.52578 4.14136 3.84591
# Velocity P-wave (km/s) = 6.16325 7.47522 6.85071
#
# Compressibility (1/GPa) = 0.02036630
#
# Stress axis : x y z
#
# Youngs Moduli (GPa) = 125.73821 36.13652 102.48406
#
# Poissons Ratio (x) = 0.07696 0.18131
# Poissons Ratio (y) = 0.26779 0.88236
# Poissons Ratio (z) = 0.22245 0.31113
#
# Static dielectric constant tensor:
#      x y z
#    x 5.412690 -1.436590 -0.271190 
#    y -1.436590 5.272660 0.488850 
#    z -0.271190 0.488850 4.337850 
# 
# 
# High freq. dielectric constant tensor:
#      x y z
#    x 1.910330 -0.020790 0.006870 
#    y -0.020790 1.900250 0.009660 
#    z 0.006870 0.009660 1.916630 
# 
# From -- ./inp_files/335640.got.cif
#   From: 2010.06.25/outbox.cif.g09.slc.cpg/sg2_168_cif.got.tgz:335640.got - 2010.06.27 13:26:56.
