data_PCOD8016417
_publ_section_title
;
Structure prediction by ZEFSAII (Michael W. Deem and Ramdas Pophale) SiO2 
 PCOD8016417
Probable space group: P -1
;
_chemical_formula_sum "Si O2"
_cell_formula_units_Z 14
_cell_length_a 15.079920
_cell_length_b 24.670148
_cell_length_c 5.797839
_cell_angle_alpha 80.726937
_cell_angle_beta 108.778407
_cell_angle_gamma 161.574061
_cell_volume 565.513074
_symmetry_space_group_name_H-M "P -1"
_symmetry_group_IT_number 2
_symmetry_cell_setting 'triclinic'
loop_
_space_group_symop_operation_xyz
x,y,z
-x,-y,-z
loop_
_atom_site_type_symbol
_atom_site_label
_atom_site_fract_x
_atom_site_fract_y
_atom_site_fract_z
Si Si1 0.491112 0.807305 0.259834
Si Si2 0.161986 0.791221 0.593811
Si Si3 0.580304 0.415435 0.665198
Si Si4 0.316315 0.181918 0.299814
Si Si5 0.727700 0.590453 0.973819
Si Si6 0.266670 0.945755 0.895045
Si Si7 0.176654 0.547304 0.855471
O O1 0.724731 0.891973 0.508636
O O2 0.227083 0.678127 0.325695
O O3 0.720817 0.985600 0.237536
O O4 0.304390 0.677647 0.968806
O O5 0.321468 0.937038 0.726947
O O6 0.859808 0.602405 0.625377
O O7 0.021657 0.722795 0.265571
O O8 0.450490 0.907050 0.772267
O O9 0.299084 0.231175 0.386269
O O10 0.478121 0.405234 0.770778
O O11 0.728383 0.446562 0.894139
O O12 0.667050 0.375999 0.318904
O O13 0.000000 0.000000 0.000000
O O14 0.500000 0.500000 0.000000
O O15 0.900363 0.729169 0.843002
#
# Coordination Sequence:
#
# PCOD8016417 Si02
#       7
#     2   2   2   2   2   2   2
#     4  10  22  43  72 105 139 180 234 293 341 417
#     4  10  21  44  70 102 135 182 234 288 351 409
#     4  10  22  44  74  96 138 188 230 292 350 408
#     4  11  25  46  70 104 142 186 232 284 358 426
#     4  11  25  46  70 104 142 186 232 284 358 426
#     4  10  22  43  72 105 139 180 234 293 341 417
#     4  10  21  44  70 102 135 182 234 288 351 409
#
# _framework density 24.75628
#
# number of rings (size 3 to 8) (size 9 to 14) (size 15 to 20)
#    0.000    1.714    1.429    1.714    0.000    5.714 
#   20.571    0.000    0.000    1.714    0.000    0.000 
#    0.000    0.000    0.000    0.000    0.000    0.000 
#
# Total GULP energy -173538.995894 kJ/mol
# GULP energy per Si atom -12395.642564 kJ/mol
# Density = 2.469993 g / cm^3
# Si number density = 24.756280 Si / 1000 Ang^3
#
#
#
# Elastic Constant Matrix: (Units=GPa)
#
#
# Indices 1 2 3 4 5 6 
#
# 1 143.3858 63.5984 56.5752 9.6524 -26.3019 -22.2515
# 2 63.5984 95.4987 51.4109 -6.8099 -2.2564 -30.1437
# 3 56.5752 51.4109 94.3720 6.0316 -22.0208 -18.0558
# 4 9.6524 -6.8099 6.0316 36.2495 -5.5133 2.5597
# 5 -26.3019 -2.2564 -22.0208 -5.5133 31.2345 0.2222
# 6 -22.2515 -30.1437 -18.0558 2.5597 0.2222 46.4214
#
#
#
# Elastic Compliance Matrix: (Units=1/GPa)
#
#
# Indices 1 2 3 4 5 6 
#
# 1 0.012802 -0.007754 -0.000987 -0.003406 0.008917 0.000862
# 2 -0.007754 0.023209 -0.009399 0.005868 -0.010496 0.007425
# 3 -0.000987 -0.009399 0.019428 -0.003042 0.011642 0.001093
# 4 -0.003406 0.005868 -0.003042 0.030265 0.000758 -0.000678
# 5 0.008917 -0.010496 0.011642 0.000758 0.047096 0.001720
# 6 0.000862 0.007425 0.001093 -0.000678 0.001720 0.027231
#
#
# Mechanical properties :
#
#
# Convention : Reuss Voigt Hill
#
# Bulk Modulus (GPa) = 52.19348 75.15841 63.67594
# Shear Modulus (GPa) = 24.66739 33.55922 29.11331
#
# Velocity S-wave (km/s) = 3.16002 3.68582 3.43300
# Velocity P-wave (km/s) = 5.86882 6.96699 6.44135
#
# Compressibility (1/GPa) = 0.01915948
#
# Stress axis : x y z
#
# Youngs Moduli (GPa) = 78.11484 43.08670 51.47130
#
# Poissons Ratio (x) = 0.33409 0.05080
# Poissons Ratio (y) = 0.60570 0.48376
# Poissons Ratio (z) = 0.07710 0.40496
#
# Static dielectric constant tensor:
#      x y z
#    x 4.650370 -0.260540 -0.237300 
#    y -0.260540 4.475330 -0.132950 
#    z -0.237300 -0.132950 4.616180 
# 
# 
# High freq. dielectric constant tensor:
#      x y z
#    x 1.982930 -0.014860 -0.002680 
#    y -0.014860 1.987350 -0.009630 
#    z -0.002680 -0.009630 1.978260 
# 
# From -- ./inp_files/101117.got.cif
#   From: 2010.06.25/outbox.cif.g09.slc.cpg/sg2_51_cif.got.tgz:101117.got - 2010.06.27 13:26:56.
