data_PCOD8016960
_publ_section_title
;
Structure prediction by ZEFSAII (Michael W. Deem and Ramdas Pophale) SiO2 
 PCOD8016960
Probable space group: P -1
;
_chemical_formula_sum "Si O2"
_cell_formula_units_Z 14
_cell_length_a 6.921888
_cell_length_b 9.485033
_cell_length_c 13.590223
_cell_angle_alpha 97.207534
_cell_angle_beta 143.164388
_cell_angle_gamma 71.359734
_cell_volume 493.342437
_symmetry_space_group_name_H-M "P -1"
_symmetry_group_IT_number 2
_symmetry_cell_setting 'triclinic'
loop_
_space_group_symop_operation_xyz
x,y,z
-x,-y,-z
loop_
_atom_site_type_symbol
_atom_site_label
_atom_site_fract_x
_atom_site_fract_y
_atom_site_fract_z
Si Si1 0.441288 0.232234 0.231290
Si Si2 0.851303 0.233980 0.703590
Si Si3 0.459479 0.286844 0.030883
Si Si4 0.889412 0.657948 0.526913
Si Si5 0.886665 0.538588 0.723881
Si Si6 0.168856 0.120536 0.634418
Si Si7 0.804653 0.169359 0.970564
O O1 0.592441 0.282319 0.197407
O O2 0.413025 0.342351 0.321834
O O3 0.041838 0.260722 0.038829
O O4 0.643655 0.055988 0.335908
O O5 0.524629 0.238274 0.636356
O O6 0.744322 0.404551 0.626428
O O7 0.930691 0.120628 0.631843
O O8 0.191081 0.194348 0.907544
O O9 0.780883 0.195456 0.082107
O O10 0.249800 0.461423 0.925216
O O11 0.988261 0.621855 0.679039
O O12 0.037654 0.776505 0.537048
O O13 0.000000 0.500000 0.500000
O O14 0.412893 0.216009 0.773802
O O15 0.000000 0.000000 0.000000
#
# Coordination Sequence:
#
# PCOD8016960 Si02
#       7
#     2   2   2   2   2   2   2
#     4  11  22  39  57  87 128 145 193 241 286 354
#     4   9  21  40  61  86 111 148 206 235 280 350
#     4   9  20  38  58  85 117 155 188 231 297 333
#     4  12  21  40  65  84 113 151 202 243 281 347
#     4  10  23  39  58  88 114 157 194 237 296 334
#     4  10  22  37  61  90 111 159 190 236 295 332
#     4   9  19  36  58  89 117 153 193 229 287 344
#
# _framework density 28.377853999999999
#
# number of rings (size 3 to 8) (size 9 to 14) (size 15 to 20)
#    0.857    1.143    1.429    1.714    0.000    8.571 
#    2.571    0.714    0.000    0.000    0.000    0.000 
#    0.000    0.000    0.000    0.000    0.000    0.000 
#
# Total GULP energy -173467.882171 kJ/mol
# GULP energy per Si atom -12390.563012 kJ/mol
# Density = 2.831326 g / cm^3
# Si number density = 28.377854 Si / 1000 Ang^3
#
#
#
# Elastic Constant Matrix: (Units=GPa)
#
#
# Indices 1 2 3 4 5 6 
#
# 1 186.6875 62.4508 41.4915 3.9249 -29.1496 -31.8786
# 2 62.4508 137.3375 14.4818 4.8004 -25.6213 -36.4269
# 3 41.4915 14.4818 88.2393 1.6883 -38.4744 -23.8943
# 4 3.9249 4.8004 1.6883 25.4743 -5.7306 0.0935
# 5 -29.1496 -25.6213 -38.4744 -5.7306 57.9165 6.5413
# 6 -31.8786 -36.4269 -23.8943 0.0935 6.5413 64.2203
#
#
#
# Elastic Compliance Matrix: (Units=1/GPa)
#
#
# Indices 1 2 3 4 5 6 
#
# 1 0.007011 -0.002488 -0.002223 -0.000290 0.000791 0.001162
# 2 -0.002488 0.010391 0.002919 -0.000750 0.004614 0.005277
# 3 -0.002223 0.002919 0.018876 0.001244 0.012119 0.006339
# 4 -0.000290 -0.000750 0.001244 0.040353 0.004411 -0.000614
# 5 0.000791 0.004614 0.012119 0.004411 0.027663 0.004695
# 6 0.001162 0.005277 0.006339 -0.000614 0.004695 0.021022
#
#
# Mechanical properties :
#
#
# Convention : Reuss Voigt Hill
#
# Bulk Modulus (GPa) = 30.58551 72.12360 51.35455
# Shear Modulus (GPa) = 35.76587 49.11158 42.43873
#
# Velocity S-wave (km/s) = 3.55398 4.16460 3.87135
# Velocity P-wave (km/s) = 5.25761 6.97107 6.17407
#
# Compressibility (1/GPa) = 0.03269522
#
# Stress axis : x y z
#
# Youngs Moduli (GPa) = 142.63582 96.23498 52.97693
#
# Poissons Ratio (x) = 0.23940 0.11778
# Poissons Ratio (y) = 0.35483 -0.15466
# Poissons Ratio (z) = 0.31711 -0.28094
#
# Static dielectric constant tensor:
#      x y z
#    x 5.765880 0.086960 0.709450 
#    y 0.086960 4.869920 0.492180 
#    z 0.709450 0.492180 5.698320 
# 
# 
# High freq. dielectric constant tensor:
#      x y z
#    x 2.180210 -0.014110 0.018250 
#    y -0.014110 2.134660 0.020540 
#    z 0.018250 0.020540 2.169900 
# 
# From -- ./inp_files/364377.got.cif
#   From: 2010.06.25/outbox.cif.g09.slc.cpg/sg2_183_cif.got.tgz:364377.got - 2010.06.27 13:26:56.
