data_PCOD8016061
_publ_section_title
;
Structure prediction by ZEFSAII (Michael W. Deem and Ramdas Pophale) SiO2 
 PCOD8016061
Probable space group: P -1
;
_chemical_formula_sum "Si O2"
_cell_formula_units_Z 16
_cell_length_a 11.981340
_cell_length_b 12.911961
_cell_length_c 13.460760
_cell_angle_alpha 35.547446
_cell_angle_beta 80.050334
_cell_angle_gamma 108.182504
_cell_volume 730.441822
_symmetry_space_group_name_H-M "P -1"
_symmetry_group_IT_number 2
_symmetry_cell_setting 'triclinic'
loop_
_space_group_symop_operation_xyz
x,y,z
-x,-y,-z
loop_
_atom_site_type_symbol
_atom_site_label
_atom_site_fract_x
_atom_site_fract_y
_atom_site_fract_z
Si Si1 0.138863 0.740471 0.592635
Si Si2 0.865434 0.683056 0.726799
Si Si3 0.844056 0.639530 0.160505
Si Si4 0.182686 0.235865 0.547275
Si Si5 0.481655 0.555993 0.706896
Si Si6 0.491639 0.794234 0.711061
Si Si7 0.142796 0.435526 0.563974
Si Si8 0.788535 0.096279 0.764615
O O1 0.118215 0.503739 0.782024
O O2 0.120962 0.796706 0.441241
O O3 0.969839 0.623078 0.767966
O O4 0.332322 0.031191 0.385426
O O5 0.806511 0.655416 0.645284
O O6 0.686154 0.440584 0.009919
O O7 0.000000 0.000000 0.500000
O O8 0.629220 0.430691 0.347096
O O9 0.890949 0.709518 0.214426
O O10 0.970825 0.929237 0.849725
O O11 0.308264 0.211899 0.545543
O O12 0.256633 0.460506 0.446963
O O13 0.482644 0.622002 0.768516
O O14 0.391895 0.250428 0.940989
O O15 0.500000 0.000000 0.500000
O O16 0.262890 0.763255 0.309939
O O17 0.935831 0.214397 0.730223
#
# Coordination Sequence:
#
# PCOD8016061 Si02
#       8
#     2   2   2   2   2   2   2   2
#     4  11  23  43  73  96 137 185 224 284 345 407
#     4  12  26  44  72 101 136 185 236 283 343 406
#     4  11  24  43  68 100 143 178 225 283 347 398
#     4  12  25  43  70 102 136 179 236 278 337 421
#     4  12  25  44  67  98 139 178 223 287 344 406
#     4  12  27  45  68 105 141 178 229 286 344 413
#     4  10  22  43  69 100 132 184 227 282 337 410
#     4  10  21  43  69  96 137 176 226 285 343 399
#
# _framework density 21.904551999999999
#
# number of rings (size 3 to 8) (size 9 to 14) (size 15 to 20)
#    0.000    0.750    3.750    3.375    1.750    3.000 
#    0.000    0.000    0.000    0.000    0.000    0.000 
#    0.000    0.000    0.000    0.000    0.000    0.000 
#
# Total GULP energy -198393.562758 kJ/mol
# GULP energy per Si atom -12399.597672 kJ/mol
# Density = 2.185470 g / cm^3
# Si number density = 21.904552 Si / 1000 Ang^3
#
#
#
# Elastic Constant Matrix: (Units=GPa)
#
#
# Indices 1 2 3 4 5 6 
#
# 1 128.6076 55.1430 31.7241 15.2866 -19.5372 -15.4139
# 2 55.1430 164.9206 52.9011 6.0977 -5.9485 -9.7579
# 3 31.7241 52.9011 87.3987 13.5807 -1.7171 2.3005
# 4 15.2866 6.0977 13.5807 33.1163 -5.5391 2.2585
# 5 -19.5372 -5.9485 -1.7171 -5.5391 33.6764 -2.0059
# 6 -15.4139 -9.7579 2.3005 2.2585 -2.0059 35.7754
#
#
#
# Elastic Compliance Matrix: (Units=1/GPa)
#
#
# Indices 1 2 3 4 5 6 
#
# 1 0.011165 -0.002458 -0.002078 -0.003224 0.005693 0.004796
# 2 -0.002458 0.008334 -0.004393 0.001326 0.000125 0.001420
# 3 -0.002078 -0.004393 0.015636 -0.004805 -0.002148 -0.002916
# 4 -0.003224 0.001326 -0.004805 0.034193 0.003584 -0.002676
# 5 0.005693 0.000125 -0.002148 0.003584 0.033754 0.004291
# 6 0.004796 0.001420 -0.002916 -0.002676 0.004291 0.031003
#
#
# Mechanical properties :
#
#
# Convention : Reuss Voigt Hill
#
# Bulk Modulus (GPa) = 57.88257 73.38483 65.63370
# Shear Modulus (GPa) = 31.70499 36.59087 34.14793
#
# Velocity S-wave (km/s) = 3.80862 4.09157 3.95263
# Velocity P-wave (km/s) = 6.76927 7.47637 7.13159
#
# Compressibility (1/GPa) = 0.01727636
#
# Stress axis : x y z
#
# Youngs Moduli (GPa) = 89.56501 119.98858 63.95328
#
# Poissons Ratio (x) = 0.29496 0.13291
# Poissons Ratio (y) = 0.22017 0.28096
# Poissons Ratio (z) = 0.18614 0.52713
#
# Static dielectric constant tensor:
#      x y z
#    x 4.183790 -0.176420 0.112220 
#    y -0.176420 4.367560 -0.111520 
#    z 0.112220 -0.111520 3.682350 
# 
# 
# High freq. dielectric constant tensor:
#      x y z
#    x 1.876860 -0.006400 0.005130 
#    y -0.006400 1.885540 -0.006000 
#    z 0.005130 -0.006000 1.836870 
# 
# From -- ./inp_files/337749.got.cif
#   From: 2010.06.25/outbox.cif.g09.slc.cpg/sg2_169_cif.got.tgz:337749.got - 2010.06.27 13:26:56.
