data_PCOD8016310
_publ_section_title
;
Structure prediction by ZEFSAII (Michael W. Deem and Ramdas Pophale) SiO2 
 PCOD8016310
Probable space group: P -1
;
_chemical_formula_sum "Si O2"
_cell_formula_units_Z 16
_cell_length_a 12.311770
_cell_length_b 5.287788
_cell_length_c 17.185300
_cell_angle_alpha 91.784771
_cell_angle_beta 126.580259
_cell_angle_gamma 61.240197
_cell_volume 733.851163
_symmetry_space_group_name_H-M "P -1"
_symmetry_group_IT_number 2
_symmetry_cell_setting 'triclinic'
loop_
_space_group_symop_operation_xyz
x,y,z
-x,-y,-z
loop_
_atom_site_type_symbol
_atom_site_label
_atom_site_fract_x
_atom_site_fract_y
_atom_site_fract_z
Si Si1 0.214907 0.532809 0.077041
Si Si2 0.347658 0.280389 0.391497
Si Si3 0.056141 0.790672 0.670191
Si Si4 0.895065 0.860929 0.045431
Si Si5 0.718834 0.309693 0.504024
Si Si6 0.822932 0.561688 0.426788
Si Si7 0.507782 0.221088 0.307805
Si Si8 0.025697 0.352271 0.748802
O O1 0.395048 0.405749 0.187532
O O2 0.079240 0.689982 0.088659
O O3 0.209986 0.254234 0.038432
O O4 0.189423 0.775399 0.002766
O O5 0.333509 0.576606 0.427679
O O6 0.390876 0.200085 0.318666
O O7 0.166296 0.356252 0.324020
O O8 0.500000 0.000000 0.500000
O O9 0.171935 0.657866 0.641449
O O10 0.114103 0.504580 0.751099
O O11 0.062992 0.063909 0.710745
O O12 0.863621 0.941551 0.563853
O O13 0.899706 0.795440 0.137397
O O14 0.797450 0.476635 0.500787
O O15 0.564505 0.401851 0.384774
O O16 0.000000 0.500000 0.500000
O O17 0.669563 0.905560 0.343296
#
# Coordination Sequence:
#
# PCOD8016310 Si02
#       8
#     2   2   2   2   2   2   2   2
#     4  10  23  40  67  98 129 166 215 263 333 390
#     4  11  21  39  57  99 135 167 207 255 335 398
#     4  11  24  40  65  95 127 178 223 255 314 388
#     4  10  21  44  66  95 131 165 211 274 324 397
#     4  11  24  39  64  90 136 178 210 268 313 396
#     4  12  24  43  62  90 136 179 227 262 310 379
#     4  12  24  39  64  97 132 175 207 273 322 391
#     4  11  23  42  69  93 130 173 212 271 328 386
#
# _framework density 21.802786000000001
#
# number of rings (size 3 to 8) (size 9 to 14) (size 15 to 20)
#    0.000    1.000    3.750    3.750    3.500    1.000 
#    2.250    0.000    0.000    4.500    0.000    0.000 
#    0.000    0.000    0.000    0.000    0.000    0.000 
#
# Total GULP energy -198244.316424 kJ/mol
# GULP energy per Si atom -12390.269777 kJ/mol
# Density = 2.175316 g / cm^3
# Si number density = 21.802786 Si / 1000 Ang^3
#
#
#
# Elastic Constant Matrix: (Units=GPa)
#
#
# Indices 1 2 3 4 5 6 
#
# 1 47.7721 23.1634 11.8387 -9.0623 -11.2862 3.9915
# 2 23.1634 96.6082 24.3375 -10.0370 3.5942 -6.0878
# 3 11.8387 24.3375 113.1758 -9.2094 -7.4394 -2.7524
# 4 -9.0623 -10.0370 -9.2094 27.6052 6.0527 -3.1470
# 5 -11.2862 3.5942 -7.4394 6.0527 29.1716 -2.7834
# 6 3.9915 -6.0878 -2.7524 -3.1470 -2.7834 43.4462
#
#
#
# Elastic Compliance Matrix: (Units=1/GPa)
#
#
# Indices 1 2 3 4 5 6 
#
# 1 0.027687 -0.006641 -0.000530 0.003940 0.010333 -0.002560
# 2 -0.006641 0.013162 -0.002157 0.003281 -0.005210 0.002222
# 3 -0.000530 -0.002157 0.009666 0.001856 0.002201 0.000634
# 4 0.003940 0.003281 0.001856 0.041109 -0.006672 0.002766
# 5 0.010333 -0.005210 0.002201 -0.006672 0.040922 0.000599
# 6 -0.002560 0.002222 0.000634 0.002766 0.000599 0.023842
#
#
# Mechanical properties :
#
#
# Convention : Reuss Voigt Hill
#
# Bulk Modulus (GPa) = 31.38999 41.80392 36.59696
# Shear Modulus (GPa) = 26.93023 33.25903 30.09463
#
# Velocity S-wave (km/s) = 3.51832 3.90994 3.71928
# Velocity P-wave (km/s) = 5.56176 6.29275 5.93852
#
# Compressibility (1/GPa) = 0.03185729
#
# Stress axis : x y z
#
# Youngs Moduli (GPa) = 36.11826 75.97892 103.45223
#
# Poissons Ratio (x) = 0.50459 0.05488
# Poissons Ratio (y) = 0.23987 0.22315
# Poissons Ratio (z) = 0.01916 0.16389
#
# Static dielectric constant tensor:
#      x y z
#    x 4.109300 -0.214400 -0.230230 
#    y -0.214400 4.213590 0.019240 
#    z -0.230230 0.019240 3.923090 
# 
# 
# High freq. dielectric constant tensor:
#      x y z
#    x 1.845800 -0.003620 -0.011850 
#    y -0.003620 1.864870 0.001860 
#    z -0.011850 0.001860 1.841230 
# 
# From -- ./inp_files/127157.got.cif
#   From: 2010.06.25/outbox.cif.g09.slc.cpg/sg2_64_cif.got.tgz:127157.got - 2010.06.27 13:26:56.
