data_PCOD8016773
_publ_section_title
;
Structure prediction by ZEFSAII (Michael W. Deem and Ramdas Pophale) SiO2 
 PCOD8016773
Probable space group: P -1
;
_chemical_formula_sum "Si O2"
_cell_formula_units_Z 16
_cell_length_a 8.617774
_cell_length_b 15.520928
_cell_length_c 12.104027
_cell_angle_alpha 39.333952
_cell_angle_beta 83.466505
_cell_angle_gamma 61.728654
_cell_volume 805.975841
_symmetry_space_group_name_H-M "P -1"
_symmetry_group_IT_number 2
_symmetry_cell_setting 'triclinic'
loop_
_space_group_symop_operation_xyz
x,y,z
-x,-y,-z
loop_
_atom_site_type_symbol
_atom_site_label
_atom_site_fract_x
_atom_site_fract_y
_atom_site_fract_z
Si Si1 0.234573 0.649627 0.428502
Si Si2 0.838043 0.944067 0.257611
Si Si3 0.470205 0.639933 0.613659
Si Si4 0.086254 0.948359 0.423478
Si Si5 0.176935 0.377519 0.691803
Si Si6 0.138917 0.145971 0.057743
Si Si7 0.733094 0.280944 0.878364
Si Si8 0.584299 0.841493 0.307286
O O1 0.336891 0.690617 0.466863
O O2 0.259686 0.477344 0.629478
O O3 0.338269 0.623260 0.328602
O O4 0.003512 0.814643 0.282593
O O5 0.687215 0.898459 0.321472
O O6 0.939977 0.931786 0.377856
O O7 0.694335 0.141988 0.031438
O O8 0.307450 0.763435 0.598157
O O9 0.609312 0.433374 0.830097
O O10 0.617717 0.685493 0.529450
O O11 0.100192 0.098517 0.229112
O O12 0.000000 0.000000 0.500000
O O13 0.333784 0.210033 0.772706
O O14 0.000000 0.500000 0.500000
O O15 0.120760 0.319057 0.864708
O O16 0.353959 0.986796 0.161380
O O17 0.969430 0.170683 0.971715
#
# Coordination Sequence:
#
# PCOD8016773 Si02
#       8
#     2   2   2   2   2   2   2   2
#     4  11  21  34  53  83 124 162 190 221 287 345
#     4  10  22  35  58  85 114 153 194 241 281 344
#     4  10  22  37  59  86 113 158 196 236 283 348
#     4   9  21  45  66  81 109 150 196 248 298 335
#     4  12  20  33  55  87 124 160 187 231 280 346
#     4  10  22  35  55  84 116 152 194 232 282 341
#     4  11  20  37  53  84 122 157 193 226 282 349
#     4  11  21  36  53  87 122 154 188 231 290 347
#
# _framework density 19.851711999999999
#
# number of rings (size 3 to 8) (size 9 to 14) (size 15 to 20)
#    0.000    1.500    3.750    1.875    1.750    3.000 
#    0.000    5.000    0.000    3.000    0.000    0.000 
#    0.000    0.000    0.000    0.000    0.000    0.000 
#
# Total GULP energy -198213.578575 kJ/mol
# GULP energy per Si atom -12388.348661 kJ/mol
# Density = 1.980653 g / cm^3
# Si number density = 19.851712 Si / 1000 Ang^3
#
#
#
# Elastic Constant Matrix: (Units=GPa)
#
#
# Indices 1 2 3 4 5 6 
#
# 1 97.3875 38.1112 35.4248 -9.6953 -20.3907 -0.0204
# 2 38.1112 105.5655 49.1207 -1.2408 -14.8360 -10.5671
# 3 35.4248 49.1207 102.9375 -16.7304 -23.9528 -4.3502
# 4 -9.6953 -1.2408 -16.7304 29.7421 -0.3235 -2.5323
# 5 -20.3907 -14.8360 -23.9528 -0.3235 38.4394 -9.7271
# 6 -0.0204 -10.5671 -4.3502 -2.5323 -9.7271 24.1620
#
#
#
# Elastic Compliance Matrix: (Units=1/GPa)
#
#
# Indices 1 2 3 4 5 6 
#
# 1 0.013539 -0.003494 -0.001080 0.003793 0.005411 0.000865
# 2 -0.003494 0.013958 -0.005377 -0.003103 0.001529 0.005424
# 3 -0.001080 -0.005377 0.016469 0.009229 0.009009 0.005206
# 4 0.003793 -0.003103 0.009229 0.040716 0.008980 0.008190
# 5 0.005411 0.001529 0.009009 0.008980 0.040066 0.019366
# 6 0.000865 0.005424 0.005206 0.008190 0.019366 0.053352
#
#
# Mechanical properties :
#
#
# Convention : Reuss Voigt Hill
#
# Bulk Modulus (GPa) = 41.55719 61.24486 51.40102
# Shear Modulus (GPa) = 24.26923 30.68428 27.47675
#
# Velocity S-wave (km/s) = 3.50026 3.93577 3.72439
# Velocity P-wave (km/s) = 6.10860 7.18136 6.66659
#
# Compressibility (1/GPa) = 0.02406323
#
# Stress axis : x y z
#
# Youngs Moduli (GPa) = 73.86021 71.64571 60.72149
#
# Poissons Ratio (x) = 0.25031 0.06558
# Poissons Ratio (y) = 0.25804 0.32652
# Poissons Ratio (z) = 0.07977 0.38527
#
# Static dielectric constant tensor:
#      x y z
#    x 3.882500 -0.154270 -0.188730 
#    y -0.154270 3.341200 -0.459220 
#    z -0.188730 -0.459220 3.827220 
# 
# 
# High freq. dielectric constant tensor:
#      x y z
#    x 1.790000 -0.013800 -0.003820 
#    y -0.013800 1.728900 -0.043440 
#    z -0.003820 -0.043440 1.769040 
# 
# From -- ./inp_files/178247.got.cif
#   From: 2010.06.25/outbox.cif.g09.slc.cpg/sg2_90_cif.got.tgz:178247.got - 2010.06.27 13:26:56.
