data_PCOD8016476
_publ_section_title
;
Structure prediction by ZEFSAII (Michael W. Deem and Ramdas Pophale) SiO2 
 PCOD8016476
Probable space group: P -1
;
_chemical_formula_sum "Si O2"
_cell_formula_units_Z 16
_cell_length_a 11.925521
_cell_length_b 14.320593
_cell_length_c 7.879207
_cell_angle_alpha 44.548261
_cell_angle_beta 132.508147
_cell_angle_gamma 128.974126
_cell_volume 666.994223
_symmetry_space_group_name_H-M "P -1"
_symmetry_group_IT_number 2
_symmetry_cell_setting 'triclinic'
loop_
_space_group_symop_operation_xyz
x,y,z
-x,-y,-z
loop_
_atom_site_type_symbol
_atom_site_label
_atom_site_fract_x
_atom_site_fract_y
_atom_site_fract_z
Si Si1 0.034288 0.908108 0.505427
Si Si2 0.336612 0.091865 0.383049
Si Si3 0.611671 0.340712 0.048624
Si Si4 0.717979 0.653391 0.838205
Si Si5 0.333712 0.893181 0.349622
Si Si6 0.175988 0.544714 0.193503
Si Si7 0.921735 0.268961 0.934012
Si Si8 0.279626 0.279623 0.633128
O O1 0.873542 0.849504 0.305871
O O2 0.184002 0.992888 0.443899
O O3 0.070699 0.777890 0.801910
O O4 0.000000 0.000000 0.500000
O O5 0.338348 0.254120 0.194535
O O6 0.507348 0.078948 0.641998
O O7 0.332866 0.035505 0.259117
O O8 0.626932 0.489409 0.964354
O O9 0.712655 0.359566 0.956377
O O10 0.430002 0.265970 0.909006
O O11 0.671435 0.236586 0.363824
O O12 0.691896 0.717766 0.545358
O O13 0.903132 0.668631 0.042561
O O14 0.176222 0.855062 0.124133
O O15 0.173290 0.616970 0.281770
O O16 0.245588 0.420272 0.473313
O O17 0.000000 0.500000 0.000000
#
# Coordination Sequence:
#
# PCOD8016476 Si02
#       8
#     2   2   2   2   2   2   2   2
#     4  11  21  42  75  99 125 175 237 282 337 388
#     4  11  25  49  64  98 143 179 233 280 337 418
#     4  11  24  45  69 101 142 182 226 278 349 412
#     4  10  21  44  71  99 132 170 233 289 331 400
#     4  11  29  45  63 101 145 190 220 271 355 410
#     4  11  19  40  72 103 133 165 230 295 334 388
#     4  11  23  41  69 105 133 172 229 284 342 404
#     4  10  22  39  71 107 126 175 229 288 343 390
#
# _framework density 23.988212999999998
#
# number of rings (size 3 to 8) (size 9 to 14) (size 15 to 20)
#    0.000    1.250    6.250    2.250    3.500    4.000 
#    2.250    0.000    0.000    0.000    0.000    0.000 
#    0.000    0.000    0.000    0.000    0.000    0.000 
#
# Total GULP energy -198274.567328 kJ/mol
# GULP energy per Si atom -12392.160458 kJ/mol
# Density = 2.393361 g / cm^3
# Si number density = 23.988213 Si / 1000 Ang^3
#
#
#
# Elastic Constant Matrix: (Units=GPa)
#
#
# Indices 1 2 3 4 5 6 
#
# 1 124.8731 61.2201 22.0329 -2.1359 35.1310 -4.6081
# 2 61.2201 145.2930 39.8690 17.8286 12.8831 -2.5885
# 3 22.0329 39.8690 57.0480 14.7581 14.7954 3.1375
# 4 -2.1359 17.8286 14.7581 45.4163 6.8800 14.3338
# 5 35.1310 12.8831 14.7954 6.8800 22.4460 -5.5739
# 6 -4.6081 -2.5885 3.1375 14.3338 -5.5739 63.4418
#
#
#
# Elastic Compliance Matrix: (Units=1/GPa)
#
#
# Indices 1 2 3 4 5 6 
#
# 1 0.021277 -0.008316 0.004585 0.009513 -0.035531 -0.004292
# 2 -0.008316 0.011937 -0.007298 -0.005572 0.013348 0.002676
# 3 0.004585 -0.007298 0.026840 -0.001607 -0.020872 -0.002763
# 4 0.009513 -0.005572 -0.001607 0.031229 -0.022307 -0.008472
# 5 -0.035531 0.013348 -0.020872 -0.022307 0.116644 0.014284
# 6 -0.004292 0.002676 -0.002763 -0.008472 0.014284 0.018866
#
#
# Mechanical properties :
#
#
# Convention : Reuss Voigt Hill
#
# Bulk Modulus (GPa) = 26.31949 63.71757 45.01853
# Shear Modulus (GPa) = 19.11924 39.86696 29.49310
#
# Velocity S-wave (km/s) = 2.82623 4.08111 3.51020
# Velocity P-wave (km/s) = 4.65250 6.98763 5.93602
#
# Compressibility (1/GPa) = 0.03799466
#
# Stress axis : x y z
#
# Youngs Moduli (GPa) = 46.99931 83.77080 37.25829
#
# Poissons Ratio (x) = 0.69667 -0.17083
# Poissons Ratio (y) = 0.39087 0.27191
# Poissons Ratio (z) = -0.21549 0.61137
#
# Static dielectric constant tensor:
#      x y z
#    x 4.362230 -0.097920 0.217300 
#    y -0.097920 4.532270 0.372620 
#    z 0.217300 0.372620 3.403220 
# 
# 
# High freq. dielectric constant tensor:
#      x y z
#    x 1.945850 -0.001280 0.029620 
#    y -0.001280 1.979500 -0.002080 
#    z 0.029620 -0.002080 1.929970 
# 
# From -- ./inp_files/271994.got.cif
#   From: 2010.06.25/outbox.cif.g09.slc.cpg/sg2_136_cif.got.tgz:271994.got - 2010.06.27 13:26:56.
