data_PCOD8016788
_publ_section_title
;
Structure prediction by ZEFSAII (Michael W. Deem and Ramdas Pophale) SiO2 
 PCOD8016788
Probable space group: P -1
;
_chemical_formula_sum "Si O2"
_cell_formula_units_Z 16
_cell_length_a 17.433367
_cell_length_b 9.350530
_cell_length_c 14.093469
_cell_angle_alpha 77.527588
_cell_angle_beta 21.332875
_cell_angle_gamma 79.448053
_cell_volume 814.981523
_symmetry_space_group_name_H-M "P -1"
_symmetry_group_IT_number 2
_symmetry_cell_setting 'triclinic'
loop_
_space_group_symop_operation_xyz
x,y,z
-x,-y,-z
loop_
_atom_site_type_symbol
_atom_site_label
_atom_site_fract_x
_atom_site_fract_y
_atom_site_fract_z
Si Si1 0.529612 0.849798 0.542645
Si Si2 0.355455 0.064264 0.076813
Si Si3 0.089897 0.739922 0.133800
Si Si4 0.005573 0.900305 0.386561
Si Si5 0.911960 0.472243 0.259796
Si Si6 0.695466 0.575179 0.317128
Si Si7 0.130419 0.018465 0.751312
Si Si8 0.781585 0.157575 0.493731
O O1 0.669803 0.750180 0.328064
O O2 0.648643 0.893839 0.495925
O O3 0.500000 0.000000 0.500000
O O4 0.328458 0.746532 0.819855
O O5 0.175218 0.158759 0.321569
O O6 0.225958 0.943622 0.179135
O O7 0.526644 0.153498 0.801729
O O8 0.500000 0.000000 0.000000
O O9 0.060238 0.761170 0.277991
O O10 0.962179 0.596622 0.263140
O O11 0.001649 0.889322 0.179490
O O12 0.908861 0.044041 0.427123
O O13 0.720349 0.514508 0.405130
O O14 0.860615 0.324456 0.399686
O O15 0.107372 0.454550 0.969425
O O16 0.500000 0.500000 0.500000
O O17 0.176722 0.869495 0.663274
O O18 0.000000 0.000000 0.000000
#
# Coordination Sequence:
#
# PCOD8016788 Si02
#       8
#     2   2   2   2   2   2   2   2
#     4  12  23  34  57  81 111 157 210 245 284 336
#     4   9  18  40  65  90 112 143 189 250 303 350
#     4  11  22  38  54  86 118 157 191 245 295 343
#     4   9  20  38  65  89 115 142 193 249 301 350
#     4  11  24  39  56  79 127 161 202 237 292 353
#     4  11  24  39  53  79 119 175 203 241 288 341
#     4  11  21  36  53  82 119 151 202 248 281 333
#     4  10  22  35  60  87 113 156 197 240 292 352
#
# _framework density 19.632348
#
# number of rings (size 3 to 8) (size 9 to 14) (size 15 to 20)
#    0.000    1.500    3.750    1.500    5.250    1.000 
#    0.000    0.625    0.000    6.750    0.000    0.000 
#    0.000    0.000    0.000    0.000    0.000    0.000 
#
# Total GULP energy -198228.560835 kJ/mol
# GULP energy per Si atom -12389.285052 kJ/mol
# Density = 1.958766 g / cm^3
# Si number density = 19.632348 Si / 1000 Ang^3
#
#
#
# Elastic Constant Matrix: (Units=GPa)
#
#
# Indices 1 2 3 4 5 6 
#
# 1 99.0201 37.5599 49.4605 1.8648 -4.3416 32.9476
# 2 37.5599 102.4324 32.5241 1.9178 6.6073 24.5892
# 3 49.4605 32.5241 100.3096 -9.5661 0.3148 15.6005
# 4 1.8648 1.9178 -9.5661 26.2357 6.1653 -1.4956
# 5 -4.3416 6.6073 0.3148 6.1653 40.5442 2.6349
# 6 32.9476 24.5892 15.6005 -1.4956 2.6349 33.8310
#
#
#
# Elastic Compliance Matrix: (Units=1/GPa)
#
#
# Indices 1 2 3 4 5 6 
#
# 1 0.019792 -0.001334 -0.007505 -0.005937 0.004301 -0.015443
# 2 -0.001334 0.012845 -0.002621 -0.001836 -0.001495 -0.006793
# 3 -0.007505 -0.002621 0.014715 0.006650 -0.001687 0.002854
# 4 -0.005937 -0.001836 0.006650 0.043204 -0.007383 0.006535
# 5 0.004301 -0.001495 -0.001687 -0.007383 0.026812 -0.004739
# 6 -0.015443 -0.006793 0.002854 0.006535 -0.004739 0.048878
#
#
# Mechanical properties :
#
#
# Convention : Reuss Voigt Hill
#
# Bulk Modulus (GPa) = 40.92719 60.09455 50.51087
# Shear Modulus (GPa) = 25.34069 32.27003 28.80536
#
# Velocity S-wave (km/s) = 3.59662 4.05868 3.83461
# Velocity P-wave (km/s) = 6.17573 7.25536 6.73720
#
# Compressibility (1/GPa) = 0.02443364
#
# Stress axis : x y z
#
# Youngs Moduli (GPa) = 50.52481 77.84846 67.95776
#
# Poissons Ratio (x) = 0.10383 0.51000
# Poissons Ratio (y) = 0.06739 0.17813
# Poissons Ratio (z) = 0.37917 0.20405
#
# Static dielectric constant tensor:
#      x y z
#    x 2.920780 0.317250 0.307470 
#    y 0.317250 3.396660 0.051820 
#    z 0.307470 0.051820 3.812970 
# 
# 
# High freq. dielectric constant tensor:
#      x y z
#    x 1.768330 0.023820 -0.011720 
#    y 0.023820 1.739250 0.010270 
#    z -0.011720 0.010270 1.777200 
# 
# From -- ./inp_files/137619.got.cif
#   From: 2010.06.25/outbox.cif.g09.slc.cpg/sg2_69_cif.got.tgz:137619.got - 2010.06.27 13:26:56.
