data_PCOD8016565
_publ_section_title
;
Structure prediction by ZEFSAII (Michael W. Deem and Ramdas Pophale) SiO2 
 PCOD8016565
Probable space group: P -1
;
_chemical_formula_sum "Si O2"
_cell_formula_units_Z 16
_cell_length_a 11.669441
_cell_length_b 23.409952
_cell_length_c 11.093129
_cell_angle_alpha 39.224032
_cell_angle_beta 144.894540
_cell_angle_gamma 153.925625
_cell_volume 756.426826
_symmetry_space_group_name_H-M "P -1"
_symmetry_group_IT_number 2
_symmetry_cell_setting 'triclinic'
loop_
_space_group_symop_operation_xyz
x,y,z
-x,-y,-z
loop_
_atom_site_type_symbol
_atom_site_label
_atom_site_fract_x
_atom_site_fract_y
_atom_site_fract_z
Si Si1 0.837564 0.090010 0.656632
Si Si2 0.246626 0.486588 0.780953
Si Si3 0.817428 0.208183 0.955795
Si Si4 0.835668 0.019053 0.252374
Si Si5 0.146975 0.031439 0.920524
Si Si6 0.152607 0.381248 0.415173
Si Si7 0.233285 0.704379 0.996508
Si Si8 0.081891 0.495067 0.373774
O O1 0.905060 0.029612 0.723291
O O2 0.041200 0.242042 0.553349
O O3 0.500000 0.000000 0.500000
O O4 0.920457 0.079421 0.877040
O O5 0.214095 0.555015 0.744507
O O6 0.279284 0.538197 0.590695
O O7 0.500000 0.500000 0.000000
O O8 0.955134 0.331002 0.790677
O O9 0.979666 0.165047 0.157173
O O10 0.499219 0.091859 0.815293
O O11 0.836241 0.237796 0.065176
O O12 0.853907 0.001658 0.159317
O O13 0.000000 0.000000 0.500000
O O14 0.455540 0.175232 0.993302
O O15 0.500000 0.500000 0.500000
O O16 0.038653 0.391584 0.423824
O O17 0.009644 0.382657 0.173819
O O18 0.251895 0.618575 0.229584
#
# Coordination Sequence:
#
# PCOD8016565 Si02
#       8
#     2   2   2   2   2   2   2   2
#     4  11  24  45  66  95 134 175 218 276 338 390
#     4  10  23  45  66  92 135 176 213 273 337 399
#     4   9  22  40  63  94 129 164 223 261 325 397
#     4  10  22  39  65  96 125 167 217 273 320 386
#     4  10  23  43  67  95 129 176 222 270 335 401
#     4  12  26  42  72 100 134 180 229 280 339 401
#     4  10  21  45  67  92 136 169 221 282 331 401
#     4  10  24  42  65 100 128 171 227 270 330 399
#
# _framework density 21.152077999999999
#
# number of rings (size 3 to 8) (size 9 to 14) (size 15 to 20)
#    0.000    1.750    1.250    1.125    7.000    5.000 
#    2.250    0.000    0.000    0.000    0.000    0.000 
#    0.000    0.000    0.000    0.000    0.000    0.000 
#
# Total GULP energy -198319.151613 kJ/mol
# GULP energy per Si atom -12394.946976 kJ/mol
# Density = 2.110394 g / cm^3
# Si number density = 21.152078 Si / 1000 Ang^3
#
#
#
# Elastic Constant Matrix: (Units=GPa)
#
#
# Indices 1 2 3 4 5 6 
#
# 1 86.9682 35.1546 61.7047 5.1252 4.7380 -1.5213
# 2 35.1546 79.6099 43.3159 -8.2044 -0.6642 5.4243
# 3 61.7047 43.3159 123.8622 -21.2966 22.0972 -6.7300
# 4 5.1252 -8.2044 -21.2966 32.8113 10.9646 -4.9833
# 5 4.7380 -0.6642 22.0972 10.9646 32.1822 -0.8694
# 6 -1.5213 5.4243 -6.7300 -4.9833 -0.8694 29.7819
#
#
#
# Elastic Compliance Matrix: (Units=1/GPa)
#
#
# Indices 1 2 3 4 5 6 
#
# 1 0.028331 -0.002935 -0.021498 -0.026630 0.019420 -0.006765
# 2 -0.002935 0.017413 -0.006179 -0.001776 0.005508 -0.004854
# 3 -0.021498 -0.006179 0.033583 0.036249 -0.032027 0.012747
# 4 -0.026630 -0.001776 0.036249 0.076044 -0.046414 0.018524
# 5 0.019420 0.005508 -0.032027 -0.046414 0.065778 -0.013095
# 6 -0.006765 -0.004854 0.012747 0.018524 -0.013095 0.039714
#
#
# Mechanical properties :
#
#
# Convention : Reuss Voigt Hill
#
# Bulk Modulus (GPa) = 55.24075 63.42117 59.33096
# Shear Modulus (GPa) = 15.23822 28.97275 22.10548
#
# Velocity S-wave (km/s) = 2.68696 3.70501 3.23627
# Velocity P-wave (km/s) = 5.98323 6.95351 6.48654
#
# Compressibility (1/GPa) = 0.01810258
#
# Stress axis : x y z
#
# Youngs Moduli (GPa) = 35.29723 57.42813 29.77681
#
# Poissons Ratio (x) = 0.16854 0.64014
# Poissons Ratio (y) = 0.10359 0.18400
# Poissons Ratio (z) = 0.75882 0.35487
#
# Static dielectric constant tensor:
#      x y z
#    x 4.057000 0.144950 0.224060 
#    y 0.144950 4.092090 -0.131150 
#    z 0.224060 -0.131150 3.948920 
# 
# 
# High freq. dielectric constant tensor:
#      x y z
#    x 1.839750 0.001140 0.006240 
#    y 0.001140 1.816290 -0.019920 
#    z 0.006240 -0.019920 1.838540 
# 
# From -- ./inp_files/439253.got.cif
#   From: 2010.06.25/outbox.cif.g09.slc.cpg/sg2_220_cif.got.tgz:439253.got - 2010.06.27 13:26:56.
