data_PCOD8016480
_publ_section_title
;
Structure prediction by ZEFSAII (Michael W. Deem and Ramdas Pophale) SiO2 
 PCOD8016480
Probable space group: P -1
;
_chemical_formula_sum "Si O2"
_cell_formula_units_Z 14
_cell_length_a 9.873057
_cell_length_b 9.062646
_cell_length_c 15.138835
_cell_angle_alpha 63.211967
_cell_angle_beta 36.757952
_cell_angle_gamma 47.782332
_cell_volume 588.483670
_symmetry_space_group_name_H-M "P -1"
_symmetry_group_IT_number 2
_symmetry_cell_setting 'triclinic'
loop_
_space_group_symop_operation_xyz
x,y,z
-x,-y,-z
loop_
_atom_site_type_symbol
_atom_site_label
_atom_site_fract_x
_atom_site_fract_y
_atom_site_fract_z
Si Si1 0.015933 0.320072 0.586208
Si Si2 0.606010 0.937872 0.344998
Si Si3 0.112697 0.947506 0.356932
Si Si4 0.583833 0.977439 0.141285
Si Si5 0.415479 0.684800 0.558106
Si Si6 0.796677 0.205584 0.175106
Si Si7 0.433610 0.399765 0.135752
O O1 0.876847 0.409841 0.729304
O O2 0.000000 0.500000 0.500000
O O3 0.330326 0.125816 0.487185
O O4 0.837276 0.263739 0.638601
O O5 0.561108 0.931999 0.266544
O O6 0.834096 0.987683 0.226221
O O7 0.649115 0.733155 0.415683
O O8 0.402742 0.920833 0.197599
O O9 0.885822 0.121531 0.363906
O O10 0.000000 0.000000 0.500000
O O11 0.436832 0.216897 0.141199
O O12 0.898056 0.844339 0.976599
O O13 0.500000 0.500000 0.500000
O O14 0.377165 0.645729 0.691269
O O15 0.635225 0.315126 0.139188
O O16 0.500000 0.500000 0.000000
#
# Coordination Sequence:
#
# PCOD8016480 Si02
#       7
#     2   2   2   2   2   2   2
#     4  11  20  41  75 103 129 178 241 287 341 411
#     4  10  21  44  72 101 135 184 231 292 341 415
#     4  11  23  45  73  98 142 183 231 287 350 418
#     4  11  23  47  69  99 146 186 225 290 356 414
#     4  11  26  44  72 106 138 186 233 290 349 410
#     4  11  25  46  69 101 147 181 232 287 352 414
#     4  11  25  44  71 104 137 184 237 290 344 416
#
# _framework density 23.789954999999999
#
# number of rings (size 3 to 8) (size 9 to 14) (size 15 to 20)
#    0.000    1.143    5.714    2.143    6.000    1.714 
#    7.714    1.429    0.000    0.000    0.000    0.000 
#    0.000    0.000    0.000    0.000    0.000    0.000 
#
# Total GULP energy -173512.568515 kJ/mol
# GULP energy per Si atom -12393.754894 kJ/mol
# Density = 2.373581 g / cm^3
# Si number density = 23.789955 Si / 1000 Ang^3
#
#
#
# Elastic Constant Matrix: (Units=GPa)
#
#
# Indices 1 2 3 4 5 6 
#
# 1 100.1459 45.0716 47.4240 -19.9636 -12.1091 15.9191
# 2 45.0716 132.7424 62.6037 -16.6317 5.1250 27.8279
# 3 47.4240 62.6037 157.0112 -20.4282 -4.6991 7.1423
# 4 -19.9636 -16.6317 -20.4282 35.0400 3.6056 -2.5345
# 5 -12.1091 5.1250 -4.6991 3.6056 54.3834 -7.0546
# 6 15.9191 27.8279 7.1423 -2.5345 -7.0546 34.6965
#
#
#
# Elastic Compliance Matrix: (Units=1/GPa)
#
#
# Indices 1 2 3 4 5 6 
#
# 1 0.013990 -0.002440 -0.002396 0.004943 0.002406 -0.003118
# 2 -0.002440 0.012195 -0.003573 0.002037 -0.003230 -0.008434
# 3 -0.002396 -0.003573 0.008702 0.002116 0.000736 0.002478
# 4 0.004943 0.002037 0.002116 0.033544 -0.001415 -0.002175
# 5 0.002406 -0.003230 0.000736 -0.001415 0.020075 0.005314
# 6 -0.003118 -0.008434 0.002478 -0.002175 0.005314 0.037428
#
#
# Mechanical properties :
#
#
# Convention : Reuss Voigt Hill
#
# Bulk Modulus (GPa) = 55.34494 77.78868 66.56681
# Shear Modulus (GPa) = 33.60781 40.47731 37.04256
#
# Velocity S-wave (km/s) = 3.76265 4.12933 3.95025
# Velocity P-wave (km/s) = 6.49548 7.45012 6.98912
#
# Compressibility (1/GPa) = 0.01806850
#
# Stress axis : x y z
#
# Youngs Moduli (GPa) = 71.47962 81.99876 114.91685
#
# Poissons Ratio (x) = 0.20010 0.27530
# Poissons Ratio (y) = 0.17443 0.41065
# Poissons Ratio (z) = 0.17124 0.29302
#
# Static dielectric constant tensor:
#      x y z
#    x 4.835340 -0.261290 -0.111830 
#    y -0.261290 4.474240 -0.120290 
#    z -0.111830 -0.120290 4.497310 
# 
# 
# High freq. dielectric constant tensor:
#      x y z
#    x 1.947260 0.006300 0.004410 
#    y 0.006300 1.936890 -0.010230 
#    z 0.004410 -0.010230 1.953470 
# 
# From -- ./inp_files/566614.got.cif
#   From: 2010.06.25/outbox.cif.g09.slc.cpg/sg2_284_cif.got.tgz:566614.got - 2010.06.27 13:26:56.
