data_PCOD8016245
_publ_section_title
;
Structure prediction by ZEFSAII (Michael W. Deem and Ramdas Pophale) SiO2 
 PCOD8016245
Probable space group: P -1
;
_chemical_formula_sum "Si O2"
_cell_formula_units_Z 16
_cell_length_a 8.024884
_cell_length_b 21.146797
_cell_length_c 6.842476
_cell_angle_alpha 42.547671
_cell_angle_beta 86.052944
_cell_angle_gamma 85.498017
_cell_volume 782.661650
_symmetry_space_group_name_H-M "P -1"
_symmetry_group_IT_number 2
_symmetry_cell_setting 'triclinic'
loop_
_space_group_symop_operation_xyz
x,y,z
-x,-y,-z
loop_
_atom_site_type_symbol
_atom_site_label
_atom_site_fract_x
_atom_site_fract_y
_atom_site_fract_z
Si Si1 0.579540 0.681999 0.098472
Si Si2 0.553424 0.262491 0.426696
Si Si3 0.137950 0.454445 0.741166
Si Si4 0.965932 0.696849 0.602420
Si Si5 0.708872 0.797022 0.152512
Si Si6 0.289600 0.628290 0.524556
Si Si7 0.127041 0.865033 0.324510
Si Si8 0.948178 0.963662 0.790777
O O1 0.715821 0.595104 0.288732
O O2 0.663362 0.768980 0.999326
O O3 0.399387 0.660720 0.256294
O O4 0.556198 0.708207 0.816105
O O5 0.460003 0.191089 0.736725
O O6 0.594642 0.359026 0.320439
O O7 0.712579 0.200039 0.493436
O O8 0.227545 0.526354 0.713266
O O9 0.000000 0.500000 0.500000
O O10 0.042955 0.387449 0.050954
O O11 0.123133 0.690803 0.451570
O O12 0.975365 0.792936 0.510108
O O13 0.806797 0.707557 0.449410
O O14 0.802087 0.892551 0.931522
O O15 0.122877 0.945156 0.301258
O O16 0.108209 0.915273 0.998901
O O17 0.000000 0.000000 0.500000
#
# Coordination Sequence:
#
# PCOD8016245 Si02
#       8
#     2   2   2   2   2   2   2   2
#     4  11  24  42  64  93 128 171 212 261 314 378
#     4  10  22  43  64  88 131 169 204 259 321 371
#     4  12  25  40  66  96 123 169 222 261 312 371
#     4  10  21  44  64  88 132 168 204 269 314 370
#     4  10  22  41  64  94 125 166 212 254 317 377
#     4  10  24  41  61  92 127 163 216 261 314 365
#     4   9  22  40  64  92 123 165 206 250 323 371
#     4  10  22  39  66  96 124 157 210 263 303 378
#
# _framework density 20.443062000000001
#
# number of rings (size 3 to 8) (size 9 to 14) (size 15 to 20)
#    0.000    1.750    1.250    1.500    5.250    6.000 
#    0.000    1.250    0.000    0.000    0.000    0.000 
#    0.000    0.000    0.000    0.000    0.000    0.000 
#
# Total GULP energy -198222.394991 kJ/mol
# GULP energy per Si atom -12388.899687 kJ/mol
# Density = 2.039653 g / cm^3
# Si number density = 20.443062 Si / 1000 Ang^3
#
#
#
# Elastic Constant Matrix: (Units=GPa)
#
#
# Indices 1 2 3 4 5 6 
#
# 1 77.8274 46.0616 35.6380 1.1081 -5.5245 11.1005
# 2 46.0616 153.2254 71.8945 -2.9223 -5.9093 28.6895
# 3 35.6380 71.8945 114.1207 3.9859 -4.9787 16.8163
# 4 1.1081 -2.9223 3.9859 31.8610 3.4806 1.0480
# 5 -5.5245 -5.9093 -4.9787 3.4806 31.1821 1.3297
# 6 11.1005 28.6895 16.8163 1.0480 1.3297 34.9709
#
#
#
# Elastic Compliance Matrix: (Units=1/GPa)
#
#
# Indices 1 2 3 4 5 6 
#
# 1 0.016407 -0.003375 -0.002711 -0.000717 0.001965 -0.001188
# 2 -0.003375 0.011059 -0.005119 0.001879 0.000710 -0.005623
# 3 -0.002711 -0.005119 0.013128 -0.002079 0.000930 -0.001226
# 4 -0.000717 0.001879 -0.002079 0.032281 -0.003657 -0.001143
# 5 0.001965 0.000710 0.000930 -0.003657 0.033229 -0.002808
# 6 -0.001188 -0.005623 -0.001226 -0.001143 -0.002808 0.034316
#
#
# Mechanical properties :
#
#
# Convention : Reuss Voigt Hill
#
# Bulk Modulus (GPa) = 54.99724 72.48465 63.74095
# Shear Modulus (GPa) = 29.60461 32.37476 30.98968
#
# Velocity S-wave (km/s) = 3.80958 3.98383 3.89768
# Velocity P-wave (km/s) = 6.80526 7.52961 7.17658
#
# Compressibility (1/GPa) = 0.01818273
#
# Stress axis : x y z
#
# Youngs Moduli (GPa) = 60.94790 90.42424 76.17262
#
# Poissons Ratio (x) = 0.30522 0.20654
# Poissons Ratio (y) = 0.20573 0.38993
# Poissons Ratio (z) = 0.16526 0.46288
#
# Static dielectric constant tensor:
#      x y z
#    x 3.890300 0.078360 -0.028630 
#    y 0.078360 3.923340 -0.003650 
#    z -0.028630 -0.003650 3.509390 
# 
# 
# High freq. dielectric constant tensor:
#      x y z
#    x 1.808060 0.010640 -0.002450 
#    y 0.010640 1.814930 0.005230 
#    z -0.002450 0.005230 1.782780 
# 
# From -- ./inp_files/39871.got.cif
#   From: 2010.06.25/outbox.cif.g09.slc.cpg/sg2_20_cif.got.tgz:39871.got - 2010.06.27 13:26:56.
