data_PCOD8016533
_publ_section_title
;
Structure prediction by ZEFSAII (Michael W. Deem and Ramdas Pophale) SiO2 
 PCOD8016533
Probable space group: P -1
;
_chemical_formula_sum "Si O2"
_cell_formula_units_Z 16
_cell_length_a 15.413665
_cell_length_b 16.317937
_cell_length_c 12.396740
_cell_angle_alpha 37.190549
_cell_angle_beta 26.283668
_cell_angle_gamma 35.501031
_cell_volume 774.365573
_symmetry_space_group_name_H-M "P -1"
_symmetry_group_IT_number 2
_symmetry_cell_setting 'triclinic'
loop_
_space_group_symop_operation_xyz
x,y,z
-x,-y,-z
loop_
_atom_site_type_symbol
_atom_site_label
_atom_site_fract_x
_atom_site_fract_y
_atom_site_fract_z
Si Si1 0.530119 0.461261 0.348513
Si Si2 0.214569 0.435146 0.896094
Si Si3 0.357047 0.721211 0.976850
Si Si4 0.274672 0.796400 0.221152
Si Si5 0.791167 0.516173 0.654868
Si Si6 0.186849 0.141708 0.252330
Si Si7 0.407460 0.042482 0.900599
Si Si8 0.462939 0.268305 0.446943
O O1 0.409871 0.398285 0.635081
O O2 0.748721 0.460891 0.159439
O O3 0.384124 0.626011 0.305640
O O4 0.575301 0.349507 0.315219
O O5 0.216050 0.288682 0.105487
O O6 0.000000 0.500000 0.000000
O O7 0.587204 0.592489 0.880272
O O8 0.376654 0.803154 0.757804
O O9 0.280758 0.825953 0.054873
O O10 0.185625 0.647330 0.228889
O O11 0.037481 0.858550 0.463681
O O12 0.394332 0.889540 0.043683
O O13 0.754300 0.611012 0.485740
O O14 0.000000 0.500000 0.500000
O O15 0.364203 0.997690 0.256177
O O16 0.215976 0.131259 0.100989
O O17 0.399332 0.143818 0.701670
#
# Coordination Sequence:
#
# PCOD8016533 Si02
#       8
#     2   2   2   2   2   2   2   2
#     4  11  21  39  68  93 129 160 209 277 310 366
#     4  11  22  39  64 100 123 160 220 265 315 378
#     4   9  21  40  61  94 130 153 213 266 308 375
#     4  12  22  42  65  91 127 171 208 263 323 373
#     4   9  18  39  67  96 126 165 207 265 321 369
#     4  11  24  42  63  91 127 170 215 262 321 383
#     4  11  25  44  62  88 131 171 215 261 318 385
#     4  10  21  45  64  94 131 167 207 266 317 374
#
# _framework density 20.662075999999999
#
# number of rings (size 3 to 8) (size 9 to 14) (size 15 to 20)
#    0.750    0.750    5.000    0.375    0.000    1.500 
#   11.250    0.625    0.000    0.000    0.000    0.000 
#    0.000    0.000    0.000    0.000    0.000    0.000 
#
# Total GULP energy -198289.829279 kJ/mol
# GULP energy per Si atom -12393.114330 kJ/mol
# Density = 2.061505 g / cm^3
# Si number density = 20.662076 Si / 1000 Ang^3
#
#
#
# Elastic Constant Matrix: (Units=GPa)
#
#
# Indices 1 2 3 4 5 6 
#
# 1 115.9713 20.0710 50.5903 8.7292 -8.3731 -1.2584
# 2 20.0710 46.1530 29.4312 1.7362 -0.3241 2.8541
# 3 50.5903 29.4312 99.0910 -2.5325 8.4126 -4.0228
# 4 8.7292 1.7362 -2.5325 28.0003 -0.1990 -0.0225
# 5 -8.3731 -0.3241 8.4126 -0.1990 44.5449 -0.4569
# 6 -1.2584 2.8541 -4.0228 -0.0225 -0.4569 22.8109
#
#
#
# Elastic Compliance Matrix: (Units=1/GPa)
#
#
# Indices 1 2 3 4 5 6 
#
# 1 0.012110 -0.001065 -0.006276 -0.004253 0.003433 -0.000241
# 2 -0.001065 0.027655 -0.008047 -0.002104 0.001461 -0.004911
# 3 -0.006276 -0.008047 0.016288 0.003901 -0.004262 0.003452
# 4 -0.004253 -0.002104 0.003901 0.037514 -0.001376 0.000726
# 5 0.003433 0.001461 -0.004262 -0.001376 0.023901 -0.000268
# 6 -0.000241 -0.004911 0.003452 0.000726 -0.000268 0.045044
#
#
# Mechanical properties :
#
#
# Convention : Reuss Voigt Hill
#
# Bulk Modulus (GPa) = 39.56377 51.26671 45.41524
# Shear Modulus (GPa) = 24.78744 29.81276 27.30010
#
# Velocity S-wave (km/s) = 3.46737 3.80264 3.63887
# Velocity P-wave (km/s) = 5.93462 6.64424 6.29943
#
# Compressibility (1/GPa) = 0.02527565
#
# Stress axis : x y z
#
# Youngs Moduli (GPa) = 82.57299 36.15985 61.39532
#
# Poissons Ratio (x) = 0.03852 0.38535
# Poissons Ratio (y) = 0.08796 0.49406
# Poissons Ratio (z) = 0.51827 0.29099
#
# Static dielectric constant tensor:
#      x y z
#    x 3.824880 0.147620 0.064180 
#    y 0.147620 3.486630 -0.189400 
#    z 0.064180 -0.189400 3.931310 
# 
# 
# High freq. dielectric constant tensor:
#      x y z
#    x 1.811550 0.010800 0.003070 
#    y 0.010800 1.776300 -0.010670 
#    z 0.003070 -0.010670 1.809600 
# 
# From -- ./inp_files/454462.got.cif
#   From: 2010.06.25/outbox.cif.g09.slc.cpg/sg2_228_cif.got.tgz:454462.got - 2010.06.27 13:26:56.
