data_PCOD8016621
_publ_section_title
;
Structure prediction by ZEFSAII (Michael W. Deem and Ramdas Pophale) SiO2 
 PCOD8016621
Probable space group: P -1
;
_chemical_formula_sum "Si O2"
_cell_formula_units_Z 16
_cell_length_a 14.397171
_cell_length_b 8.974034
_cell_length_c 13.758846
_cell_angle_alpha 140.112997
_cell_angle_beta 41.569298
_cell_angle_gamma 135.021771
_cell_volume 718.315049
_symmetry_space_group_name_H-M "P -1"
_symmetry_group_IT_number 2
_symmetry_cell_setting 'triclinic'
loop_
_space_group_symop_operation_xyz
x,y,z
-x,-y,-z
loop_
_atom_site_type_symbol
_atom_site_label
_atom_site_fract_x
_atom_site_fract_y
_atom_site_fract_z
Si Si1 0.845089 0.754677 0.780901
Si Si2 0.677834 0.970339 0.172907
Si Si3 0.116493 0.973519 0.317500
Si Si4 0.117148 0.510573 0.995194
Si Si5 0.659547 0.407727 0.287917
Si Si6 0.334318 0.159463 0.396206
Si Si7 0.147464 0.991805 0.753615
Si Si8 0.342022 0.800773 0.368087
O O1 0.767037 0.472997 0.674229
O O2 0.995180 0.783009 0.738589
O O3 0.893665 0.910516 0.721614
O O4 0.726563 0.838792 0.977634
O O5 0.512740 0.814799 0.262077
O O6 0.672217 0.234055 0.278700
O O7 0.804932 0.023744 0.180753
O O8 0.274082 0.111215 0.310481
O O9 0.095013 0.683834 0.185281
O O10 0.000000 0.000000 0.500000
O O11 0.272345 0.649814 0.893763
O O12 0.112277 0.246257 0.903203
O O13 0.000000 0.500000 0.000000
O O14 0.492401 0.361691 0.363994
O O15 0.746146 0.689200 0.395719
O O16 0.333989 0.904801 0.318002
O O17 0.284709 0.970879 0.571477
#
# Coordination Sequence:
#
# PCOD8016621 Si02
#       8
#     2   2   2   2   2   2   2   2
#     4  12  26  47  67 105 147 181 231 295 348 419
#     4  11  25  46  72 104 141 190 232 283 350 420
#     4  12  26  44  71 101 135 183 233 291 356 407
#     4  12  23  45  69  95 138 179 234 292 341 407
#     4  10  21  45  70  97 136 176 232 288 336 413
#     4  10  23  42  71 100 133 180 229 283 348 406
#     4  12  25  45  72 103 137 192 234 283 355 412
#     4  11  25  47  70 104 147 181 232 291 346 421
#
# _framework density 22.274348
#
# number of rings (size 3 to 8) (size 9 to 14) (size 15 to 20)
#    0.000    0.750    3.750    3.000    3.500    1.500 
#    0.000    0.000    0.000    0.000    0.000    0.000 
#    0.000    0.000    0.000    0.000    0.000    0.000 
#
# Total GULP energy -198336.164645 kJ/mol
# GULP energy per Si atom -12396.010290 kJ/mol
# Density = 2.222365 g / cm^3
# Si number density = 22.274348 Si / 1000 Ang^3
#
#
#
# Elastic Constant Matrix: (Units=GPa)
#
#
# Indices 1 2 3 4 5 6 
#
# 1 132.3869 27.2946 35.7671 11.6595 0.1608 10.2557
# 2 27.2946 86.9862 29.3032 10.1390 -1.9020 6.4156
# 3 35.7671 29.3032 139.9404 3.2161 3.8742 7.2564
# 4 11.6595 10.1390 3.2161 37.6176 1.8432 2.2203
# 5 0.1608 -1.9020 3.8742 1.8432 31.6730 1.3352
# 6 10.2557 6.4156 7.2564 2.2203 1.3352 24.8418
#
#
#
# Elastic Compliance Matrix: (Units=1/GPa)
#
#
# Indices 1 2 3 4 5 6 
#
# 1 0.008740 -0.001751 -0.001700 -0.001958 0.000278 -0.002499
# 2 -0.001751 0.013284 -0.002209 -0.002802 0.001319 -0.001883
# 3 -0.001700 -0.002209 0.008117 0.000547 -0.001103 -0.001088
# 4 -0.001958 -0.002802 0.000547 0.028049 -0.001814 -0.001037
# 5 0.000278 0.001319 -0.001103 -0.001814 0.031962 -0.001689
# 6 -0.002499 -0.001883 -0.001088 -0.001037 -0.001689 0.042274
#
#
# Mechanical properties :
#
#
# Convention : Reuss Voigt Hill
#
# Bulk Modulus (GPa) = 53.13117 60.44925 56.79021
# Shear Modulus (GPa) = 33.32906 36.62306 34.97606
#
# Velocity S-wave (km/s) = 3.87240 4.05925 3.96692
# Velocity P-wave (km/s) = 6.62562 7.01195 6.82152
#
# Compressibility (1/GPa) = 0.01882134
#
# Stress axis : x y z
#
# Youngs Moduli (GPa) = 114.42105 75.27919 123.19333
#
# Poissons Ratio (x) = 0.13181 0.20945
# Poissons Ratio (y) = 0.20035 0.27208
# Poissons Ratio (z) = 0.19454 0.16626
#
# Static dielectric constant tensor:
#      x y z
#    x 4.259460 0.179060 -0.234340 
#    y 0.179060 3.968630 0.066440 
#    z -0.234340 0.066440 4.447080 
# 
# 
# High freq. dielectric constant tensor:
#      x y z
#    x 1.874950 0.008730 -0.008860 
#    y 0.008730 1.873420 -0.000260 
#    z -0.008860 -0.000260 1.896310 
# 
# From -- ./inp_files/530219.got.cif
#   From: 2010.06.25/outbox.cif.g09.slc.cpg/sg2_266_cif.got.tgz:530219.got - 2010.06.27 13:26:56.
