data_PCOD8016106
_publ_section_title
;
Structure prediction by ZEFSAII (Michael W. Deem and Ramdas Pophale) SiO2 
 PCOD8016106
Probable space group: P -1
;
_chemical_formula_sum "Si O2"
_cell_formula_units_Z 14
_cell_length_a 27.844144
_cell_length_b 8.487833
_cell_length_c 10.348333
_cell_angle_alpha 119.919419
_cell_angle_beta 32.161128
_cell_angle_gamma 143.082970
_cell_volume 649.506453
_symmetry_space_group_name_H-M "P -1"
_symmetry_group_IT_number 2
_symmetry_cell_setting 'triclinic'
loop_
_space_group_symop_operation_xyz
x,y,z
-x,-y,-z
loop_
_atom_site_type_symbol
_atom_site_label
_atom_site_fract_x
_atom_site_fract_y
_atom_site_fract_z
Si Si1 0.920400 0.051700 0.251017
Si Si2 0.508541 0.656822 0.428122
Si Si3 0.191510 0.169585 0.035488
Si Si4 0.206417 0.777562 0.848961
Si Si5 0.390123 0.307652 0.293462
Si Si6 0.336933 0.833132 0.318031
Si Si7 0.116665 0.154395 0.474815
O O1 0.767378 0.832959 0.422275
O O2 0.864846 0.939692 0.479643
O O3 0.041088 0.417346 0.115766
O O4 0.000000 0.000000 0.000000
O O5 0.500000 0.500000 0.500000
O O6 0.494168 0.543141 0.274102
O O7 0.675431 0.033748 0.218467
O O8 0.353265 0.522161 0.754668
O O9 0.188455 0.160012 0.194556
O O10 0.063854 0.094462 0.238251
O O11 0.173828 0.929133 0.932704
O O12 0.296049 0.809275 0.549333
O O13 0.337912 0.014658 0.305204
O O14 0.500000 0.500000 0.000000
O O15 0.202339 0.486754 0.425385
O O16 0.500000 0.000000 0.000000
#
# Coordination Sequence:
#
# PCOD8016106 Si02
#       7
#     2   2   2   2   2   2   2
#     4  12  26  44  69 106 145 181 233 298 349 411
#     4  10  21  43  70  95 132 186 227 276 349 420
#     4  10  22  44  70  98 133 192 235 286 347 429
#     4  11  24  43  75  95 139 188 233 282 360 418
#     4  12  27  45  72 107 144 181 236 295 352 414
#     4  12  24  43  72 101 137 187 238 286 350 422
#     4  11  24  42  70 100 141 178 243 289 345 421
#
# _framework density 21.554829999999999
#
# number of rings (size 3 to 8) (size 9 to 14) (size 15 to 20)
#    0.000    0.857    4.286    3.429    6.000    1.714 
#    5.143    1.429    0.000    0.000    0.000    0.000 
#    0.000    0.000    0.000    0.000    0.000    0.000 
#
# Total GULP energy -173596.040857 kJ/mol
# GULP energy per Si atom -12399.717204 kJ/mol
# Density = 2.150577 g / cm^3
# Si number density = 21.554830 Si / 1000 Ang^3
#
#
#
# Elastic Constant Matrix: (Units=GPa)
#
#
# Indices 1 2 3 4 5 6 
#
# 1 95.8357 22.2568 28.4166 -3.3649 -0.5694 14.2849
# 2 22.2568 79.9476 32.6722 -11.0754 -8.3976 15.1885
# 3 28.4166 32.6722 99.6149 4.0148 3.5634 9.8298
# 4 -3.3649 -11.0754 4.0148 42.7562 -1.5457 -0.0140
# 5 -0.5694 -8.3976 3.5634 -1.5457 29.4808 2.8719
# 6 14.2849 15.1885 9.8298 -0.0140 2.8719 35.7449
#
#
#
# Elastic Compliance Matrix: (Units=1/GPa)
#
#
# Indices 1 2 3 4 5 6 
#
# 1 0.012126 -0.001425 -0.002696 0.000857 0.000544 -0.003542
# 2 -0.001425 0.017558 -0.005201 0.005156 0.006455 -0.005978
# 3 -0.002696 -0.005201 0.012741 -0.002873 -0.003228 0.000042
# 4 0.000857 0.005156 -0.002873 0.025182 0.003348 -0.002002
# 5 0.000544 0.006455 -0.003228 0.003348 0.036825 -0.005030
# 6 -0.003542 -0.005978 0.000042 -0.002002 -0.005030 0.032323
#
#
# Mechanical properties :
#
#
# Convention : Reuss Voigt Hill
#
# Bulk Modulus (GPa) = 42.05142 49.12104 45.58623
# Shear Modulus (GPa) = 30.61324 34.39988 32.50656
#
# Velocity S-wave (km/s) = 3.77271 3.99924 3.88762
# Velocity P-wave (km/s) = 6.20719 6.64557 6.43011
#
# Compressibility (1/GPa) = 0.02378041
#
# Stress axis : x y z
#
# Youngs Moduli (GPa) = 82.46531 56.95251 78.48789
#
# Poissons Ratio (x) = 0.08117 0.21162
# Poissons Ratio (y) = 0.11753 0.40823
# Poissons Ratio (z) = 0.22234 0.29622
#
# Static dielectric constant tensor:
#      x y z
#    x 3.935720 0.281870 -0.189700 
#    y 0.281870 4.211170 -0.344150 
#    z -0.189700 -0.344150 4.530380 
# 
# 
# High freq. dielectric constant tensor:
#      x y z
#    x 1.838070 0.017020 -0.006100 
#    y 0.017020 1.841960 -0.002120 
#    z -0.006100 -0.002120 1.871240 
# 
# From -- ./inp_files/352291.got.cif
#   From: 2010.06.25/outbox.cif.g09.slc.cpg/sg2_177_cif.got.tgz:352291.got - 2010.06.27 13:26:56.
