data_PCOD8016724
_publ_section_title
;
Structure prediction by ZEFSAII (Michael W. Deem and Ramdas Pophale) SiO2 
 PCOD8016724
Probable space group: P -1
;
_chemical_formula_sum "Si O2"
_cell_formula_units_Z 14
_cell_length_a 9.262605
_cell_length_b 12.400811
_cell_length_c 13.151963
_cell_angle_alpha 113.690250
_cell_angle_beta 61.051211
_cell_angle_gamma 63.019146
_cell_volume 711.749602
_symmetry_space_group_name_H-M "P -1"
_symmetry_group_IT_number 2
_symmetry_cell_setting 'triclinic'
loop_
_space_group_symop_operation_xyz
x,y,z
-x,-y,-z
loop_
_atom_site_type_symbol
_atom_site_label
_atom_site_fract_x
_atom_site_fract_y
_atom_site_fract_z
Si Si1 0.942844 0.337800 0.109306
Si Si2 0.353885 0.626755 0.360557
Si Si3 0.150804 0.001570 0.025087
Si Si4 0.234932 0.406443 0.089882
Si Si5 0.873188 0.052016 0.760771
Si Si6 0.188519 0.649804 0.054430
Si Si7 0.227696 0.438813 0.337416
O O1 0.055271 0.403591 0.106415
O O2 0.603825 0.529574 0.312401
O O3 0.012688 0.252502 0.938309
O O4 0.088891 0.171367 0.080104
O O5 0.485649 0.533804 0.166477
O O6 0.240266 0.567262 0.417430
O O7 0.100961 0.866711 0.535219
O O8 0.044665 0.040547 0.190063
O O9 0.480332 0.792238 0.827378
O O10 0.000000 0.000000 0.000000
O O11 0.146207 0.480735 0.263380
O O12 0.564900 0.186368 0.883970
O O13 0.145670 0.571102 0.118533
O O14 0.886356 0.185462 0.802616
O O15 0.000000 0.500000 0.500000
#
# Coordination Sequence:
#
# PCOD8016724 Si02
#       7
#     2   2   2   2   2   2   2
#     4  10  22  40  64  92 124 168 208 253 313 373
#     4  10  23  42  60  97 121 165 211 253 308 379
#     4  11  19  42  64  86 131 169 204 254 321 367
#     4  11  23  42  66  90 127 172 200 267 310 364
#     4  11  23  38  68  93 120 171 210 255 319 361
#     4  10  21  47  64  88 133 162 214 248 318 375
#     4  11  25  41  60  97 131 160 211 265 306 368
#
# _framework density 19.669839
#
# number of rings (size 3 to 8) (size 9 to 14) (size 15 to 20)
#    0.857    0.571    5.714    0.857    4.000    3.429 
#    0.000    0.714    0.000    0.000    0.000    0.000 
#    0.000    0.000    0.000    0.000    0.000    0.000 
#
# Total GULP energy -173587.427944 kJ/mol
# GULP energy per Si atom -12399.101996 kJ/mol
# Density = 1.962507 g / cm^3
# Si number density = 19.669839 Si / 1000 Ang^3
#
#
#
# Elastic Constant Matrix: (Units=GPa)
#
#
# Indices 1 2 3 4 5 6 
#
# 1 120.6926 39.5994 32.5323 3.0180 -13.2059 30.8119
# 2 39.5994 129.6981 39.7891 0.8645 -4.0249 29.4725
# 3 32.5323 39.7891 96.6919 15.3444 6.5968 26.3261
# 4 3.0180 0.8645 15.3444 23.4032 7.6596 0.9467
# 5 -13.2059 -4.0249 6.5968 7.6596 18.0121 0.9322
# 6 30.8119 29.4725 26.3261 0.9467 0.9322 38.7034
#
#
#
# Elastic Compliance Matrix: (Units=1/GPa)
#
#
# Indices 1 2 3 4 5 6 
#
# 1 0.012578 -0.001050 -0.001735 -0.003952 0.011729 -0.008220
# 2 -0.001050 0.010086 -0.002736 0.001001 0.002322 -0.005064
# 3 -0.001735 -0.002736 0.015467 -0.008349 -0.003648 -0.006764
# 4 -0.003952 0.001001 -0.008349 0.056201 -0.023891 0.007263
# 5 0.011729 0.002322 -0.003648 -0.023891 0.076643 -0.009886
# 6 -0.008220 -0.005064 -0.006764 0.007263 -0.009886 0.040899
#
#
# Mechanical properties :
#
#
# Convention : Reuss Voigt Hill
#
# Bulk Modulus (GPa) = 36.91384 63.43600 50.17492
# Shear Modulus (GPa) = 21.55668 31.70120 26.62894
#
# Velocity S-wave (km/s) = 3.31407 4.01891 3.68339
# Velocity P-wave (km/s) = 5.78373 7.33866 6.60710
#
# Compressibility (1/GPa) = 0.02709011
#
# Stress axis : x y z
#
# Youngs Moduli (GPa) = 79.50233 99.14457 64.65350
#
# Poissons Ratio (x) = 0.10410 0.11217
# Poissons Ratio (y) = 0.08347 0.17688
# Poissons Ratio (z) = 0.13794 0.27124
#
# Static dielectric constant tensor:
#      x y z
#    x 3.585860 0.025170 0.039060 
#    y 0.025170 3.530950 -0.080360 
#    z 0.039060 -0.080360 3.219300 
# 
# 
# High freq. dielectric constant tensor:
#      x y z
#    x 1.772810 0.003370 0.000250 
#    y 0.003370 1.777000 0.004150 
#    z 0.000250 0.004150 1.742160 
# 
# From -- ./inp_files/500659.got.cif
#   From: 2010.06.25/outbox.cif.g09.slc.cpg/sg2_251_cif.got.tgz:500659.got - 2010.06.27 13:26:56.
