data_PCOD8016140
_publ_section_title
;
Structure prediction by ZEFSAII (Michael W. Deem and Ramdas Pophale) SiO2 
 PCOD8016140
Probable space group: P -1
;
_chemical_formula_sum "Si O2"
_cell_formula_units_Z 14
_cell_length_a 8.143535
_cell_length_b 9.345430
_cell_length_c 11.670119
_cell_angle_alpha 68.094599
_cell_angle_beta 74.386462
_cell_angle_gamma 121.788909
_cell_volume 565.267678
_symmetry_space_group_name_H-M "P -1"
_symmetry_group_IT_number 2
_symmetry_cell_setting 'triclinic'
loop_
_space_group_symop_operation_xyz
x,y,z
-x,-y,-z
loop_
_atom_site_type_symbol
_atom_site_label
_atom_site_fract_x
_atom_site_fract_y
_atom_site_fract_z
Si Si1 0.821446 0.339861 0.482384
Si Si2 0.597802 0.749390 0.333833
Si Si3 0.023098 0.774698 0.947015
Si Si4 0.700782 0.697400 0.560375
Si Si5 0.615140 0.718708 0.970314
Si Si6 0.236013 0.021750 0.359740
Si Si7 0.884047 0.463884 0.859011
O O1 0.622630 0.344878 0.512954
O O2 0.664717 0.088576 0.621070
O O3 0.000000 0.500000 0.500000
O O4 0.959450 0.406397 0.319228
O O5 0.760011 0.773654 0.393318
O O6 0.493519 0.563970 0.313567
O O7 0.729203 0.973486 0.180957
O O8 0.813979 0.773351 0.005324
O O9 0.970379 0.641799 0.883586
O O10 0.062199 0.679365 0.071705
O O11 0.964968 0.821589 0.518339
O O12 0.613152 0.778087 0.638262
O O13 0.749179 0.903644 0.793282
O O14 0.500000 0.500000 0.000000
O O15 0.398772 0.686222 0.073080
#
# Coordination Sequence:
#
# PCOD8016140 Si02
#       7
#     2   2   2   2   2   2   2
#     4  12  26  44  70 100 141 185 234 294 351 411
#     4  11  22  42  68 105 142 175 231 305 345 409
#     4  10  21  43  71 105 141 182 234 289 358 423
#     4  10  23  38  71 101 136 176 238 289 346 414
#     4  10  22  40  71  99 137 183 232 285 350 425
#     4  11  22  44  70  99 133 188 236 282 347 427
#     4  10  24  44  68 104 143 187 234 285 353 432
#
# _framework density 24.767026000000001
#
# number of rings (size 3 to 8) (size 9 to 14) (size 15 to 20)
#    0.000    1.429    2.857    1.714    6.000    5.714 
#    0.000    4.286    0.000   10.286    0.000    0.000 
#    0.000    0.000    0.000    0.000    0.000    0.000 
#
# Total GULP energy -173458.561457 kJ/mol
# GULP energy per Si atom -12389.897247 kJ/mol
# Density = 2.471066 g / cm^3
# Si number density = 24.767026 Si / 1000 Ang^3
#
#
#
# Elastic Constant Matrix: (Units=GPa)
#
#
# Indices 1 2 3 4 5 6 
#
# 1 133.3607 42.4258 54.8828 -7.0292 6.4984 -6.8980
# 2 42.4258 99.0830 27.5926 -27.2677 2.0088 -10.3643
# 3 54.8828 27.5926 99.8902 -28.5942 7.6029 -13.5993
# 4 -7.0292 -27.2677 -28.5942 33.8937 -7.4125 2.7814
# 5 6.4984 2.0088 7.6029 -7.4125 40.0355 -9.2968
# 6 -6.8980 -10.3643 -13.5993 2.7814 -9.2968 28.1941
#
#
#
# Elastic Compliance Matrix: (Units=1/GPa)
#
#
# Indices 1 2 3 4 5 6 
#
# 1 0.012022 -0.005696 -0.007802 -0.008986 -0.002511 -0.002857
# 2 -0.005696 0.016286 0.003519 0.015195 0.003644 0.005993
# 3 -0.007802 0.003519 0.019129 0.017252 0.002443 0.007715
# 4 -0.008986 0.015195 0.017252 0.055819 0.009957 0.009485
# 5 -0.002511 0.003644 0.002443 0.009957 0.029018 0.010490
# 6 -0.002857 0.005993 0.007715 0.009485 0.010490 0.043217
#
#
# Mechanical properties :
#
#
# Convention : Reuss Voigt Hill
#
# Bulk Modulus (GPa) = 36.39169 64.68180 50.53674
# Shear Modulus (GPa) = 24.43686 34.25350 29.34518
#
# Velocity S-wave (km/s) = 3.14454 3.72294 3.44590
# Velocity P-wave (km/s) = 5.28296 6.68231 6.02341
#
# Compressibility (1/GPa) = 0.02747880
#
# Stress axis : x y z
#
# Youngs Moduli (GPa) = 83.17820 61.40159 52.27762
#
# Poissons Ratio (x) = 0.34974 0.40789
# Poissons Ratio (y) = 0.47378 -0.18397
# Poissons Ratio (z) = 0.64898 -0.21608
#
# Static dielectric constant tensor:
#      x y z
#    x 5.414220 -0.121700 -0.252020 
#    y -0.121700 4.459450 -0.331920 
#    z -0.252020 -0.331920 4.015620 
# 
# 
# High freq. dielectric constant tensor:
#      x y z
#    x 1.997890 -0.005800 0.003190 
#    y -0.005800 1.978590 -0.017360 
#    z 0.003190 -0.017360 1.977150 
# 
# From -- ./inp_files/245494.got.cif
#   From: 2010.06.25/outbox.cif.g09.slc.cpg/sg2_123_cif.got.tgz:245494.got - 2010.06.27 13:26:56.
