data_PCOD8016467
_publ_section_title
;
Structure prediction by ZEFSAII (Michael W. Deem and Ramdas Pophale) SiO2 
 PCOD8016467
Probable space group: P -1
;
_chemical_formula_sum "Si O2"
_cell_formula_units_Z 14
_cell_length_a 8.725184
_cell_length_b 22.720590
_cell_length_c 8.162657
_cell_angle_alpha 127.415903
_cell_angle_beta 50.902936
_cell_angle_gamma 149.788961
_cell_volume 623.741808
_symmetry_space_group_name_H-M "P -1"
_symmetry_group_IT_number 2
_symmetry_cell_setting 'triclinic'
loop_
_space_group_symop_operation_xyz
x,y,z
-x,-y,-z
loop_
_atom_site_type_symbol
_atom_site_label
_atom_site_fract_x
_atom_site_fract_y
_atom_site_fract_z
Si Si1 0.912893 0.913555 0.548616
Si Si2 0.137012 0.405245 0.095309
Si Si3 0.758110 0.297055 0.473326
Si Si4 0.202206 0.845213 0.116257
Si Si5 0.756428 0.031825 0.276074
Si Si6 0.729597 0.427610 0.933271
Si Si7 0.965562 0.769122 0.795501
O O1 0.534707 0.804421 0.623927
O O2 0.033572 0.866629 0.346445
O O3 0.059884 0.972354 0.732669
O O4 0.000000 0.000000 0.500000
O O5 0.080473 0.458884 0.112546
O O6 0.042336 0.400616 0.335444
O O7 0.500000 0.500000 0.000000
O O8 0.977077 0.282865 0.932349
O O9 0.661246 0.331486 0.723006
O O10 0.873086 0.258381 0.432756
O O11 0.561073 0.938304 0.098581
O O12 0.187665 0.854332 0.945838
O O13 0.016794 0.163099 0.241239
O O14 0.500000 0.000000 0.500000
O O15 0.393639 0.352983 0.111435
O O16 0.000000 0.500000 0.000000
#
# Coordination Sequence:
#
# PCOD8016467 Si02
#       7
#     2   2   2   2   2   2   2
#     4  11  23  42  70 104 138 178 233 284 350 418
#     4  11  22  46  68  98 136 189 232 272 352 406
#     4  11  23  45  72  96 140 188 224 288 347 405
#     4  10  21  44  71  96 144 183 223 289 342 409
#     4  10  23  41  69 105 137 180 232 283 350 417
#     4  12  27  44  69 107 136 182 239 286 337 420
#     4  11  23  47  70 100 144 184 225 288 356 400
#
# _framework density 22.445183
#
# number of rings (size 3 to 8) (size 9 to 14) (size 15 to 20)
#    0.000    1.143    4.286    2.571    2.000    5.143 
#    2.571    3.571    0.000    0.000    0.000    0.000 
#    0.000    0.000    0.000    0.000    0.000    0.000 
#
# Total GULP energy -173445.139953 kJ/mol
# GULP energy per Si atom -12388.938568 kJ/mol
# Density = 2.239410 g / cm^3
# Si number density = 22.445183 Si / 1000 Ang^3
#
#
#
# Elastic Constant Matrix: (Units=GPa)
#
#
# Indices 1 2 3 4 5 6 
#
# 1 161.1392 56.9800 32.7814 6.2843 15.1262 6.1503
# 2 56.9800 110.6993 28.8733 -0.9040 4.5041 -5.4627
# 3 32.7814 28.8733 47.3599 2.1852 -8.6557 2.6299
# 4 6.2843 -0.9040 2.1852 33.1174 -0.6568 -1.0383
# 5 15.1262 4.5041 -8.6557 -0.6568 39.2729 -2.5742
# 6 6.1503 -5.4627 2.6299 -1.0383 -2.5742 44.4888
#
#
#
# Elastic Compliance Matrix: (Units=1/GPa)
#
#
# Indices 1 2 3 4 5 6 
#
# 1 0.008833 -0.003228 -0.004753 -0.001585 -0.004212 -0.001617
# 2 -0.003228 0.012362 -0.005722 0.001373 -0.001264 0.002261
# 3 -0.004753 -0.005722 0.029645 -0.001075 0.008917 -0.001307
# 4 -0.001585 0.001373 -0.001075 0.030659 0.000808 0.001214
# 5 -0.004212 -0.001264 0.008917 0.000808 0.029315 0.001615
# 6 -0.001617 0.002261 -0.001307 0.001214 0.001615 0.023178
#
#
# Mechanical properties :
#
#
# Convention : Reuss Voigt Hill
#
# Bulk Modulus (GPa) = 42.67328 61.82977 52.25152
# Shear Modulus (GPa) = 29.54930 36.74673 33.14802
#
# Velocity S-wave (km/s) = 3.63231 4.05059 3.84714
# Velocity P-wave (km/s) = 6.05352 7.03443 6.56233
#
# Compressibility (1/GPa) = 0.02343387
#
# Stress axis : x y z
#
# Youngs Moduli (GPa) = 113.20930 80.89369 33.73267
#
# Poissons Ratio (x) = 0.26116 0.16032
# Poissons Ratio (y) = 0.36549 0.19301
# Poissons Ratio (z) = 0.53805 0.46286
#
# Static dielectric constant tensor:
#      x y z
#    x 4.492090 0.349820 0.032960 
#    y 0.349820 3.731500 0.146430 
#    z 0.032960 0.146430 3.892650 
# 
# 
# High freq. dielectric constant tensor:
#      x y z
#    x 1.900540 0.002010 -0.007790 
#    y 0.002010 1.888350 -0.007450 
#    z -0.007790 -0.007450 1.874320 
# 
# From -- ./inp_files/226437.got.cif
#   From: 2010.06.25/outbox.cif.g09.slc.cpg/sg2_114_cif.got.tgz:226437.got - 2010.06.27 13:26:56.
