data_PCOD8016018
_publ_section_title
;
Structure prediction by ZEFSAII (Michael W. Deem and Ramdas Pophale) SiO2 
 PCOD8016018
Probable space group: P -1
;
_chemical_formula_sum "Si O2"
_cell_formula_units_Z 16
_cell_length_a 6.446491
_cell_length_b 24.667980
_cell_length_c 15.556259
_cell_angle_alpha 16.900065
_cell_angle_beta 84.824473
_cell_angle_gamma 85.661682
_cell_volume 715.719626
_symmetry_space_group_name_H-M "P -1"
_symmetry_group_IT_number 2
_symmetry_cell_setting 'triclinic'
loop_
_space_group_symop_operation_xyz
x,y,z
-x,-y,-z
loop_
_atom_site_type_symbol
_atom_site_label
_atom_site_fract_x
_atom_site_fract_y
_atom_site_fract_z
Si Si1 0.129826 0.837793 0.858399
Si Si2 0.391503 0.831426 0.206154
Si Si3 0.559772 0.289416 0.324923
Si Si4 0.392707 0.543676 0.216272
Si Si5 0.120235 0.608022 0.973271
Si Si6 0.787480 0.819083 0.770318
Si Si7 0.794344 0.001078 0.205999
Si Si8 0.873876 0.242656 0.519554
O O1 0.890302 0.839813 0.830141
O O2 0.267931 0.984363 0.570838
O O3 0.130474 0.877173 0.900072
O O4 0.231855 0.635703 0.149059
O O5 0.546405 0.661516 0.445696
O O6 0.176397 0.769479 0.358183
O O7 0.500000 0.000000 0.000000
O O8 0.334022 0.880933 0.035937
O O9 0.357053 0.163042 0.500812
O O10 0.642184 0.238378 0.493653
O O11 0.500000 0.500000 0.000000
O O12 0.756801 0.260245 0.299496
O O13 0.286332 0.518596 0.165958
O O14 0.594273 0.678222 0.995188
O O15 0.995490 0.434189 0.198226
O O16 0.966194 0.743975 0.817072
O O17 0.994211 0.927813 0.259852
#
# Coordination Sequence:
#
# PCOD8016018 Si02
#       8
#     2   2   2   2   2   2   2   2
#     4  10  24  41  66 100 135 174 222 274 342 398
#     4  12  25  48  69  96 133 182 231 275 329 392
#     4  12  24  38  64 103 141 170 215 279 344 402
#     4  11  23  43  71  93 136 179 222 278 328 400
#     4  11  22  37  70 103 130 175 218 276 343 396
#     4  10  21  43  68  99 136 171 225 276 338 403
#     4  12  26  43  66  99 138 180 225 274 329 399
#     4  12  24  43  68  97 136 176 221 274 337 399
#
# _framework density 22.355124
#
# number of rings (size 3 to 8) (size 9 to 14) (size 15 to 20)
#    0.000    0.750    3.750    4.125    1.750    3.500 
#    0.000    0.625    0.000    0.000    0.000    0.000 
#    0.000    0.000    0.000    0.000    0.000    0.000 
#
# Total GULP energy -198418.359838 kJ/mol
# GULP energy per Si atom -12401.147490 kJ/mol
# Density = 2.230424 g / cm^3
# Si number density = 22.355124 Si / 1000 Ang^3
#
#
#
# Elastic Constant Matrix: (Units=GPa)
#
#
# Indices 1 2 3 4 5 6 
#
# 1 68.5949 23.2423 19.3949 -2.8702 7.2231 3.2896
# 2 23.2423 116.7589 31.8603 1.1587 17.1829 3.6296
# 3 19.3949 31.8603 97.2325 -8.7553 28.0649 -4.3259
# 4 -2.8702 1.1587 -8.7553 33.0624 -1.2033 -2.3187
# 5 7.2231 17.1829 28.0649 -1.2033 35.9777 5.7828
# 6 3.2896 3.6296 -4.3259 -2.3187 5.7828 28.7646
#
#
#
# Elastic Compliance Matrix: (Units=1/GPa)
#
#
# Indices 1 2 3 4 5 6 
#
# 1 0.016239 -0.002533 -0.002494 0.000713 0.000225 -0.001900
# 2 -0.002533 0.010086 -0.002256 -0.001325 -0.002443 -0.000938
# 3 -0.002494 -0.002256 0.015322 0.003896 -0.011115 0.005423
# 4 0.000713 -0.001325 0.003896 0.031565 -0.002077 0.003634
# 5 0.000225 -0.002443 -0.011115 -0.002077 0.039029 -0.009403
# 6 -0.001900 -0.000938 0.005423 0.003634 -0.009403 0.038099
#
#
# Mechanical properties :
#
#
# Convention : Reuss Voigt Hill
#
# Bulk Modulus (GPa) = 36.92684 47.95347 42.44016
# Shear Modulus (GPa) = 28.74665 33.43353 31.09009
#
# Velocity S-wave (km/s) = 3.58985 3.87145 3.73330
# Velocity P-wave (km/s) = 5.80834 6.44061 6.13263
#
# Compressibility (1/GPa) = 0.02708057
#
# Stress axis : x y z
#
# Youngs Moduli (GPa) = 61.57933 99.14539 65.26755
#
# Poissons Ratio (x) = 0.25114 0.16280
# Poissons Ratio (y) = 0.15598 0.14723
# Poissons Ratio (z) = 0.15360 0.22365
#
# Static dielectric constant tensor:
#      x y z
#    x 4.276180 0.004900 0.051870 
#    y 0.004900 4.180190 0.022800 
#    z 0.051870 0.022800 4.026430 
# 
# 
# High freq. dielectric constant tensor:
#      x y z
#    x 1.890170 0.005350 0.010720 
#    y 0.005350 1.878260 -0.007540 
#    z 0.010720 -0.007540 1.872710 
# 
# From -- ./inp_files/72297.got.cif
#   From: 2010.06.25/outbox.cif.g09.slc.cpg/sg2_37_cif.got.tgz:72297.got - 2010.06.27 13:26:56.
