data_PCOD8016205
_publ_section_title
;
Structure prediction by ZEFSAII (Michael W. Deem and Ramdas Pophale) SiO2 
 PCOD8016205
Probable space group: P -1
;
_chemical_formula_sum "Si O2"
_cell_formula_units_Z 14
_cell_length_a 9.077228
_cell_length_b 7.849349
_cell_length_c 9.710899
_cell_angle_alpha 100.488464
_cell_angle_beta 87.925541
_cell_angle_gamma 54.907328
_cell_volume 548.076262
_symmetry_space_group_name_H-M "P -1"
_symmetry_group_IT_number 2
_symmetry_cell_setting 'triclinic'
loop_
_space_group_symop_operation_xyz
x,y,z
-x,-y,-z
loop_
_atom_site_type_symbol
_atom_site_label
_atom_site_fract_x
_atom_site_fract_y
_atom_site_fract_z
Si Si1 0.676110 0.175954 0.347267
Si Si2 0.433792 0.235873 0.581623
Si Si3 0.891661 0.607532 0.878984
Si Si4 0.993951 0.201031 0.306502
Si Si5 0.914188 0.712548 0.397821
Si Si6 0.483213 0.279330 0.098703
Si Si7 0.343368 0.757723 0.190817
O O1 0.502986 0.326559 0.477784
O O2 0.603394 0.137638 0.204780
O O3 0.784144 0.278610 0.324004
O O4 0.812373 0.956302 0.391337
O O5 0.213797 0.373365 0.619152
O O6 0.511858 0.231810 0.725823
O O7 0.500000 0.000000 0.500000
O O8 0.955597 0.744795 0.832387
O O9 0.672445 0.756549 0.935347
O O10 0.925690 0.433044 0.738571
O O11 0.000000 0.500000 0.000000
O O12 0.019526 0.312887 0.451279
O O13 0.136692 0.941149 0.275193
O O14 0.380258 0.529941 0.173877
O O15 0.626865 0.202356 0.960437
#
# Coordination Sequence:
#
# PCOD8016205 Si02
#       7
#     2   2   2   2   2   2   2
#     4  11  25  43  74 107 138 185 235 288 358 412
#     4  10  21  43  74 102 138 182 239 287 348 412
#     4  12  29  48  72 103 144 188 240 291 360 421
#     4  12  26  46  72 105 141 189 236 298 349 418
#     4  11  24  48  71 105 145 182 237 292 353 424
#     4  11  28  46  71 105 144 189 234 293 351 430
#     4  11  25  47  73 100 147 184 243 286 358 418
#
# _framework density 25.543893000000001
#
# number of rings (size 3 to 8) (size 9 to 14) (size 15 to 20)
#    0.000    0.857    2.857    3.429   12.000    1.714 
#    0.000    0.000    0.000    0.000    0.000    0.000 
#    0.000    0.000    0.000    0.000    0.000    0.000 
#
# Total GULP energy -173643.153660 kJ/mol
# GULP energy per Si atom -12403.082404 kJ/mol
# Density = 2.548575 g / cm^3
# Si number density = 25.543893 Si / 1000 Ang^3
#
#
#
# Elastic Constant Matrix: (Units=GPa)
#
#
# Indices 1 2 3 4 5 6 
#
# 1 160.3910 12.3065 32.2494 -16.2007 -2.7081 -4.1976
# 2 12.3065 28.0198 19.1504 -16.4184 -4.5084 0.6329
# 3 32.2494 19.1504 131.2997 -17.9408 8.2396 -11.8844
# 4 -16.2007 -16.4184 -17.9408 46.4886 -8.7590 -0.5466
# 5 -2.7081 -4.5084 8.2396 -8.7590 38.5458 -4.8659
# 6 -4.1976 0.6329 -11.8844 -0.5466 -4.8659 43.2618
#
#
#
# Elastic Compliance Matrix: (Units=1/GPa)
#
#
# Indices 1 2 3 4 5 6 
#
# 1 0.006776 -0.000871 -0.001326 0.001757 0.001114 0.000453
# 2 -0.000871 0.052466 -0.005756 0.018124 0.011306 -0.000933
# 3 -0.001326 -0.005756 0.009218 0.000654 -0.002306 0.002237
# 4 0.001757 0.018124 0.000654 0.030534 0.009232 0.001509
# 5 0.001114 0.011306 -0.002306 0.009232 0.030292 0.002833
# 6 0.000453 -0.000933 0.002237 0.001509 0.002833 0.024125
#
#
# Mechanical properties :
#
#
# Convention : Reuss Voigt Hill
#
# Bulk Modulus (GPa) = 19.02810 49.68037 34.35423
# Shear Modulus (GPa) = 26.76163 42.72620 34.74391
#
# Velocity S-wave (km/s) = 3.24029 4.09425 3.69204
# Velocity P-wave (km/s) = 4.63299 6.46852 5.62612
#
# Compressibility (1/GPa) = 0.05255385
#
# Stress axis : x y z
#
# Youngs Moduli (GPa) = 147.57041 19.06012 108.48431
#
# Poissons Ratio (x) = 0.01660 0.14386
# Poissons Ratio (y) = 0.12856 0.62441
# Poissons Ratio (z) = 0.19569 0.10971
#
# Static dielectric constant tensor:
#      x y z
#    x 5.408610 -0.098150 -0.402450 
#    y -0.098150 4.523190 0.119280 
#    z -0.402450 0.119280 4.608830 
# 
# 
# High freq. dielectric constant tensor:
#      x y z
#    x 2.028710 -0.001460 -0.012230 
#    y -0.001460 2.030610 -0.000480 
#    z -0.012230 -0.000480 2.024780 
# 
# From -- ./inp_files/158153.got.cif
#   From: 2010.06.25/outbox.cif.g09.slc.cpg/sg2_80_cif.got.tgz:158153.got - 2010.06.27 13:26:56.
