data_PCOD8016938
_publ_section_title
;
Structure prediction by ZEFSAII (Michael W. Deem and Ramdas Pophale) SiO2 
 PCOD8016938
Probable space group: P -1
;
_chemical_formula_sum "Si O2"
_cell_formula_units_Z 12
_cell_length_a 18.839112
_cell_length_b 24.208227
_cell_length_c 5.327498
_cell_angle_alpha 62.352430
_cell_angle_beta 62.782305
_cell_angle_gamma 14.131073
_cell_volume 525.144675
_symmetry_space_group_name_H-M "P -1"
_symmetry_group_IT_number 2
_symmetry_cell_setting 'triclinic'
loop_
_space_group_symop_operation_xyz
x,y,z
-x,-y,-z
loop_
_atom_site_type_symbol
_atom_site_label
_atom_site_fract_x
_atom_site_fract_y
_atom_site_fract_z
Si Si1 0.808272 0.082527 0.122260
Si Si2 0.443675 0.373424 0.596556
Si Si3 0.045679 0.521399 0.566686
Si Si4 0.341338 0.595851 0.304083
Si Si5 0.396647 0.161128 0.995544
Si Si6 0.049707 0.315478 0.989319
O O1 0.587841 0.248030 0.364181
O O2 0.651061 0.201860 0.856661
O O3 0.010870 0.869211 0.260985
O O4 0.000000 0.000000 0.000000
O O5 0.341662 0.521251 0.458995
O O6 0.151543 0.551148 0.730306
O O7 0.000000 0.500000 0.500000
O O8 0.731805 0.766816 0.687035
O O9 0.296507 0.308645 0.802709
O O10 0.145062 0.512086 0.293737
O O11 0.500000 0.500000 0.500000
O O12 0.500000 0.500000 0.000000
O O13 0.262548 0.214335 0.896700
O O14 0.748574 0.894466 0.979108
#
# Coordination Sequence:
#
# PCOD8016938 Si02
#       6
#     2   2   2   2   2   2
#     4  12  24  45  72  91 134 175 213 271 341 387
#     4  12  26  43  66 105 131 170 224 277 317 400
#     4   9  18  36  61  87 115 169 209 250 314 385
#     4  12  23  43  72  96 126 173 221 261 332 403
#     4   9  19  39  63  82 127 170 205 255 319 380
#     4  10  22  37  60  91 124 163 213 260 319 367
#
# _framework density 22.850845
#
# number of rings (size 3 to 8) (size 9 to 14) (size 15 to 20)
#    0.000    1.333    3.333    2.000    2.333    1.333 
#    6.000    0.000    0.000    0.000    0.000    0.000 
#    0.000    0.000    0.000    0.000    0.000    0.000 
#
# Total GULP energy -148692.842406 kJ/mol
# GULP energy per Si atom -12391.070200 kJ/mol
# Density = 2.279884 g / cm^3
# Si number density = 22.850845 Si / 1000 Ang^3
#
#
#
# Elastic Constant Matrix: (Units=GPa)
#
#
# Indices 1 2 3 4 5 6 
#
# 1 27.0870 27.8810 21.4251 -7.7899 2.3455 10.4531
# 2 27.8810 150.6477 67.0091 0.9355 -18.8892 34.7622
# 3 21.4251 67.0091 154.4273 8.0581 -7.0888 14.3336
# 4 -7.7899 0.9355 8.0581 48.8002 7.0388 0.4911
# 5 2.3455 -18.8892 -7.0888 7.0388 38.9783 2.4314
# 6 10.4531 34.7622 14.3336 0.4911 2.4314 33.9563
#
#
#
# Elastic Compliance Matrix: (Units=1/GPa)
#
#
# Indices 1 2 3 4 5 6 
#
# 1 0.055336 -0.007987 -0.004650 0.011213 -0.009674 -0.006365
# 2 -0.007987 0.012564 -0.003033 -0.001923 0.006963 -0.009594
# 3 -0.004650 -0.003033 0.008497 -0.002197 0.000694 0.000932
# 4 0.011213 -0.001923 -0.002197 0.023585 -0.006237 -0.000451
# 5 -0.009674 0.006963 0.000694 -0.006237 0.031276 -0.006593
# 6 -0.006365 -0.009594 0.000932 -0.000451 -0.006593 0.041316
#
#
# Mechanical properties :
#
#
# Convention : Reuss Voigt Hill
#
# Bulk Modulus (GPa) = 22.19429 62.75472 42.47450
# Shear Modulus (GPa) = 22.83803 38.73675 30.78739
#
# Velocity S-wave (km/s) = 3.16482 4.12175 3.67457
# Velocity P-wave (km/s) = 4.80505 7.08337 6.05238
#
# Compressibility (1/GPa) = 0.04505664
#
# Stress axis : x y z
#
# Youngs Moduli (GPa) = 18.07153 79.59019 117.69084
#
# Poissons Ratio (x) = 0.63567 0.54727
# Poissons Ratio (y) = 0.14433 0.35700
# Poissons Ratio (z) = 0.08403 0.24143
#
# Static dielectric constant tensor:
#      x y z
#    x 3.535990 0.508080 -0.524420 
#    y 0.508080 4.755810 -0.574480 
#    z -0.524420 -0.574480 4.626210 
# 
# 
# High freq. dielectric constant tensor:
#      x y z
#    x 1.878160 0.027950 0.004530 
#    y 0.027950 1.908110 -0.007070 
#    z 0.004530 -0.007070 1.928510 
# 
# From -- ./inp_files/56684.got.cif
#   From: 2010.06.25/outbox.cif.g09.slc.cpg/sg2_29_cif.got.tgz:56684.got - 2010.06.27 13:26:56.
