data_PCOD8016614
_publ_section_title
;
Structure prediction by ZEFSAII (Michael W. Deem and Ramdas Pophale) SiO2 
 PCOD8016614
Probable space group: P -1
;
_chemical_formula_sum "Si O2"
_cell_formula_units_Z 14
_cell_length_a 10.298369
_cell_length_b 9.357545
_cell_length_c 12.907789
_cell_angle_alpha 110.184719
_cell_angle_beta 146.971044
_cell_angle_gamma 79.851191
_cell_volume 620.618898
_symmetry_space_group_name_H-M "P -1"
_symmetry_group_IT_number 2
_symmetry_cell_setting 'triclinic'
loop_
_space_group_symop_operation_xyz
x,y,z
-x,-y,-z
loop_
_atom_site_type_symbol
_atom_site_label
_atom_site_fract_x
_atom_site_fract_y
_atom_site_fract_z
Si Si1 0.019625 0.328193 0.994970
Si Si2 0.805452 0.190831 0.034808
Si Si3 0.832862 0.793639 0.537442
Si Si4 0.585368 0.838606 0.757303
Si Si5 0.065916 0.895028 0.428239
Si Si6 0.455156 0.821532 0.441831
Si Si7 0.355147 0.328713 0.825738
O O1 0.835656 0.234939 0.763129
O O2 0.934692 0.283628 0.044965
O O3 0.000000 0.500000 0.000000
O O4 0.284534 0.290964 0.136488
O O5 0.963034 0.240255 0.256223
O O6 0.543416 0.224333 0.894081
O O7 0.761189 0.007181 0.935638
O O8 0.569344 0.741402 0.403566
O O9 0.818359 0.684987 0.397313
O O10 0.883905 0.983524 0.603309
O O11 0.306671 0.830104 0.603848
O O12 0.584216 0.788260 0.624492
O O13 0.828132 0.749223 0.222641
O O14 0.000000 0.000000 0.500000
O O15 0.500000 0.000000 0.500000
O O16 0.500000 0.500000 0.000000
#
# Coordination Sequence:
#
# PCOD8016614 Si02
#       7
#     2   2   2   2   2   2   2
#     4  12  27  43  68 109 148 185 232 296 362 419
#     4  12  23  45  74 104 142 191 241 286 359 425
#     4  11  22  42  73 103 135 183 245 295 337 425
#     4  12  23  43  77 106 138 192 237 290 355 424
#     4  10  21  45  70 103 139 180 246 291 332 426
#     4  12  20  42  72 102 140 181 237 288 354 426
#     4  11  25  48  68 100 150 188 230 297 357 417
#
# _framework density 22.558128
#
# number of rings (size 3 to 8) (size 9 to 14) (size 15 to 20)
#    0.000    0.571    8.571    1.286    0.000    2.857 
#    2.571    0.000    0.000    0.000    0.000    0.000 
#    0.000    0.000    0.000    0.000    0.000    0.000 
#
# Total GULP energy -173433.601850 kJ/mol
# GULP energy per Si atom -12388.114418 kJ/mol
# Density = 2.250678 g / cm^3
# Si number density = 22.558128 Si / 1000 Ang^3
#
#
#
# Elastic Constant Matrix: (Units=GPa)
#
#
# Indices 1 2 3 4 5 6 
#
# 1 78.3527 30.9140 25.6612 2.9810 12.1691 -6.3263
# 2 30.9140 133.3914 61.2159 0.8019 11.2029 -7.7576
# 3 25.6612 61.2159 135.1047 7.4629 -7.6408 8.5566
# 4 2.9810 0.8019 7.4629 41.7125 -4.1603 2.7681
# 5 12.1691 11.2029 -7.6408 -4.1603 48.6865 -4.1891
# 6 -6.3263 -7.7576 8.5566 2.7681 -4.1891 20.2984
#
#
#
# Elastic Compliance Matrix: (Units=1/GPa)
#
#
# Indices 1 2 3 4 5 6 
#
# 1 0.015258 -0.001829 -0.002486 -0.001262 -0.003499 0.004554
# 2 -0.001829 0.010688 -0.004963 0.000243 -0.002322 0.005094
# 3 -0.002486 -0.004963 0.010744 -0.000938 0.002811 -0.006493
# 4 -0.001262 0.000243 -0.000938 0.024613 0.001970 -0.002855
# 5 -0.003499 -0.002322 0.002811 0.001970 0.022665 0.001246
# 6 0.004554 0.005094 -0.006493 -0.002855 0.001246 0.056015
#
#
# Mechanical properties :
#
#
# Convention : Reuss Voigt Hill
#
# Bulk Modulus (GPa) = 55.14223 64.71455 59.92839
# Shear Modulus (GPa) = 30.37991 37.40999 33.89495
#
# Velocity S-wave (km/s) = 3.67378 4.07674 3.88049
# Velocity P-wave (km/s) = 6.51867 7.13512 6.83385
#
# Compressibility (1/GPa) = 0.01813492
#
# Stress axis : x y z
#
# Youngs Moduli (GPa) = 65.54080 93.56399 93.07173
#
# Poissons Ratio (x) = 0.17112 0.23137
# Poissons Ratio (y) = 0.11987 0.46189
# Poissons Ratio (z) = 0.16293 0.46433
#
# Static dielectric constant tensor:
#      x y z
#    x 4.019600 0.218150 0.161610 
#    y 0.218150 4.035500 -0.027490 
#    z 0.161610 -0.027490 4.405870 
# 
# 
# High freq. dielectric constant tensor:
#      x y z
#    x 1.892920 -0.007330 0.006450 
#    y -0.007330 1.862860 -0.008590 
#    z 0.006450 -0.008590 1.905450 
# 
# From -- ./inp_files/296925.got.cif
#   From: 2010.06.25/outbox.cif.g09.slc.cpg/sg2_149_cif.got.tgz:296925.got - 2010.06.27 13:26:56.
