data_PCOD8016448
_publ_section_title
;
Structure prediction by ZEFSAII (Michael W. Deem and Ramdas Pophale) SiO2 
 PCOD8016448
Probable space group: P -1
;
_chemical_formula_sum "Si O2"
_cell_formula_units_Z 16
_cell_length_a 5.085914
_cell_length_b 25.946337
_cell_length_c 6.755672
_cell_angle_alpha 126.573655
_cell_angle_beta 75.002573
_cell_angle_gamma 106.466468
_cell_volume 681.888161
_symmetry_space_group_name_H-M "P -1"
_symmetry_group_IT_number 2
_symmetry_cell_setting 'triclinic'
loop_
_space_group_symop_operation_xyz
x,y,z
-x,-y,-z
loop_
_atom_site_type_symbol
_atom_site_label
_atom_site_fract_x
_atom_site_fract_y
_atom_site_fract_z
Si Si1 0.288350 0.948232 0.263078
Si Si2 0.015558 0.961464 0.712287
Si Si3 0.172594 0.516498 0.804922
Si Si4 0.900929 0.809614 0.945903
Si Si5 0.233021 0.274251 0.848367
Si Si6 0.368668 0.129311 0.200770
Si Si7 0.223850 0.420633 0.236315
Si Si8 0.232848 0.764331 0.472060
O O1 0.303819 0.960709 0.531041
O O2 0.190695 0.011104 0.334560
O O3 0.570801 0.936328 0.075392
O O4 0.075154 0.880453 0.122016
O O5 0.891017 0.888130 0.639935
O O6 0.000000 0.000000 0.000000
O O7 0.187142 0.450952 0.528535
O O8 0.487569 0.550052 0.860527
O O9 0.025617 0.566691 0.824843
O O10 0.000000 0.500000 0.000000
O O11 0.679189 0.819316 0.841482
O O12 0.074311 0.756400 0.696631
O O13 0.752189 0.776290 0.091812
O O14 0.527685 0.280215 0.691336
O O15 0.977835 0.247292 0.695111
O O16 0.199675 0.344120 0.097756
O O17 0.617700 0.159788 0.368076
#
# Coordination Sequence:
#
# PCOD8016448 Si02
#       8
#     2   2   2   2   2   2   2   2
#     4  10  24  40  64  94 127 172 224 275 353 411
#     4  11  22  43  63  94 129 168 223 289 345 418
#     4  10  21  44  71 101 141 182 222 279 334 384
#     4  11  25  45  66 100 132 183 227 277 345 413
#     4  12  26  43  70 101 144 181 227 285 331 402
#     4  11  23  45  68  94 133 176 228 285 344 414
#     4  10  23  41  67 106 138 179 232 270 331 399
#     4  11  26  46  66  97 136 186 230 278 343 407
#
# _framework density 23.464258000000001
#
# number of rings (size 3 to 8) (size 9 to 14) (size 15 to 20)
#    0.000    1.250    2.500    2.250    3.500    2.500 
#    2.250    0.000    0.000    0.000    0.000    0.000 
#    0.000    0.000    0.000    0.000    0.000    0.000 
#
# Total GULP energy -198225.508523 kJ/mol
# GULP energy per Si atom -12389.094283 kJ/mol
# Density = 2.341085 g / cm^3
# Si number density = 23.464258 Si / 1000 Ang^3
#
#
#
# Elastic Constant Matrix: (Units=GPa)
#
#
# Indices 1 2 3 4 5 6 
#
# 1 94.8731 4.5902 36.7235 -10.6537 -9.0694 -6.7539
# 2 4.5902 66.7327 45.1333 -0.4720 1.5881 -3.6852
# 3 36.7235 45.1333 138.4135 -9.3832 -11.6461 3.2432
# 4 -10.6537 -0.4720 -9.3832 29.8938 1.0355 -12.2309
# 5 -9.0694 1.5881 -11.6461 1.0355 42.2228 -3.5918
# 6 -6.7539 -3.6852 3.2432 -12.2309 -3.5918 28.2785
#
#
#
# Elastic Compliance Matrix: (Units=1/GPa)
#
#
# Indices 1 2 3 4 5 6 
#
# 1 0.013295 0.001973 -0.003718 0.006341 0.002186 0.006879
# 2 0.001973 0.020045 -0.007295 0.000363 -0.002026 0.003820
# 3 -0.003718 -0.007295 0.010898 0.000918 0.002255 -0.002405
# 4 0.006341 0.000363 0.000918 0.044520 0.002297 0.021004
# 5 0.002186 -0.002026 0.002255 0.002297 0.025151 0.004187
# 6 0.006879 0.003820 -0.002405 0.021004 0.004187 0.047395
#
#
# Mechanical properties :
#
#
# Convention : Reuss Voigt Hill
#
# Bulk Modulus (GPa) = 38.22973 52.54594 45.38784
# Shear Modulus (GPa) = 26.58101 34.31716 30.44908
#
# Velocity S-wave (km/s) = 3.36940 3.82845 3.60624
# Velocity P-wave (km/s) = 5.60939 6.47961 6.06014
#
# Compressibility (1/GPa) = 0.02615765
#
# Stress axis : x y z
#
# Youngs Moduli (GPa) = 75.21711 49.88771 91.75774
#
# Poissons Ratio (x) = -0.09842 0.34116
# Poissons Ratio (y) = -0.14840 0.66938
# Poissons Ratio (z) = 0.27966 0.36393
#
# Static dielectric constant tensor:
#      x y z
#    x 4.406170 0.103300 -0.211330 
#    y 0.103300 3.675530 0.080610 
#    z -0.211330 0.080610 4.692490 
# 
# 
# High freq. dielectric constant tensor:
#      x y z
#    x 1.938920 0.008830 -0.010000 
#    y 0.008830 1.893800 -0.001620 
#    z -0.010000 -0.001620 1.957570 
# 
# From -- ./inp_files/13682.got.cif
#   From: 2010.06.25/outbox.cif.g09.slc.cpg/sg2_7_cif.got.tgz:13682.got - 2010.06.27 13:26:56.
