data_PCOD8016032
_publ_section_title
;
Structure prediction by ZEFSAII (Michael W. Deem and Ramdas Pophale) SiO2 
 PCOD8016032
Probable space group: P -1
;
_chemical_formula_sum "Si O2"
_cell_formula_units_Z 16
_cell_length_a 15.401301
_cell_length_b 12.199412
_cell_length_c 15.466030
_cell_angle_alpha 37.199951
_cell_angle_beta 28.071023
_cell_angle_gamma 56.336120
_cell_volume 705.153576
_symmetry_space_group_name_H-M "P -1"
_symmetry_group_IT_number 2
_symmetry_cell_setting 'triclinic'
loop_
_space_group_symop_operation_xyz
x,y,z
-x,-y,-z
loop_
_atom_site_type_symbol
_atom_site_label
_atom_site_fract_x
_atom_site_fract_y
_atom_site_fract_z
Si Si1 0.049022 0.402328 0.393442
Si Si2 0.037823 0.519409 0.767075
Si Si3 0.294382 0.799542 0.043082
Si Si4 0.836135 0.029058 0.238463
Si Si5 0.277788 0.159788 0.359587
Si Si6 0.301966 0.133439 0.719645
Si Si7 0.478420 0.563825 0.382154
Si Si8 0.065828 0.163151 0.260166
O O1 0.139876 0.628707 0.215227
O O2 0.237585 0.349571 0.254014
O O3 0.949496 0.403432 0.389415
O O4 0.850386 0.215415 0.739195
O O5 0.282388 0.606343 0.528345
O O6 0.934926 0.624755 0.849372
O O7 0.884075 0.264677 0.067854
O O8 0.483304 0.764037 0.933302
O O9 0.400947 0.029982 0.760086
O O10 0.720231 0.877966 0.516382
O O11 0.675715 0.918916 0.366777
O O12 0.052388 0.028351 0.030370
O O13 0.101013 0.945249 0.603146
O O14 0.430323 0.383170 0.467440
O O15 0.500000 0.500000 0.500000
O O16 0.698594 0.771207 0.025196
O O17 0.000000 0.000000 0.500000
#
# Coordination Sequence:
#
# PCOD8016032 Si02
#       8
#     2   2   2   2   2   2   2   2
#     4  11  24  46  67 105 143 171 229 285 356 419
#     4  11  25  45  74  99 141 182 227 288 357 406
#     4  11  25  41  74 101 135 185 224 283 356 417
#     4  10  22  43  71 101 137 174 228 297 343 407
#     4  12  26  44  69 100 141 181 232 291 342 410
#     4  10  21  43  69 104 132 181 235 278 350 417
#     4  11  28  46  73 103 143 188 234 288 346 417
#     4  12  28  47  68 103 142 184 244 285 340 429
#
# _framework density 22.690093000000001
#
# number of rings (size 3 to 8) (size 9 to 14) (size 15 to 20)
#    0.000    1.000    3.750    1.875    5.250    3.000 
#    0.000    0.000    0.000    0.000    0.000    0.000 
#    0.000    0.000    0.000    0.000    0.000    0.000 
#
# Total GULP energy -198487.610791 kJ/mol
# GULP energy per Si atom -12405.475674 kJ/mol
# Density = 2.263845 g / cm^3
# Si number density = 22.690093 Si / 1000 Ang^3
#
#
#
# Elastic Constant Matrix: (Units=GPa)
#
#
# Indices 1 2 3 4 5 6 
#
# 1 96.4281 8.3175 17.0763 1.2970 9.8607 -15.3034
# 2 8.3175 87.5966 -2.7943 -3.5575 -1.3677 -10.3590
# 3 17.0763 -2.7943 71.4696 7.3878 -0.3361 -3.4472
# 4 1.2970 -3.5575 7.3878 26.5367 -6.5098 -7.9911
# 5 9.8607 -1.3677 -0.3361 -6.5098 27.8628 -3.3724
# 6 -15.3034 -10.3590 -3.4472 -7.9911 -3.3724 41.0696
#
#
#
# Elastic Compliance Matrix: (Units=1/GPa)
#
#
# Indices 1 2 3 4 5 6 
#
# 1 0.011902 -0.000823 -0.002742 0.000273 -0.003769 0.003741
# 2 -0.000823 0.012089 0.000532 0.003084 0.002042 0.003555
# 3 -0.002742 0.000532 0.015070 -0.004066 0.000180 -0.000399
# 4 0.000273 0.003084 -0.004066 0.045219 0.011818 0.010307
# 5 -0.003769 0.002042 0.000180 0.011818 0.040664 0.004764
# 6 0.003741 0.003555 -0.000399 0.010307 0.004764 0.029003
#
#
# Mechanical properties :
#
#
# Convention : Reuss Voigt Hill
#
# Bulk Modulus (GPa) = 30.30792 33.41038 31.85915
# Shear Modulus (GPa) = 29.23789 34.62012 31.92900
#
# Velocity S-wave (km/s) = 3.59357 3.91036 3.75531
# Velocity P-wave (km/s) = 5.53215 5.92828 5.73364
#
# Compressibility (1/GPa) = 0.03299467
#
# Stress axis : x y z
#
# Youngs Moduli (GPa) = 84.01682 82.72258 66.35833
#
# Poissons Ratio (x) = 0.06808 0.18192
# Poissons Ratio (y) = 0.06914 -0.03527
# Poissons Ratio (z) = 0.23034 -0.04397
#
# Static dielectric constant tensor:
#      x y z
#    x 4.210150 0.005120 -0.108820 
#    y 0.005120 4.351340 0.071760 
#    z -0.108820 0.071760 3.843470 
# 
# 
# High freq. dielectric constant tensor:
#      x y z
#    x 1.904150 0.000260 -0.003040 
#    y 0.000260 1.905180 0.002740 
#    z -0.003040 0.002740 1.884100 
# 
# From -- ./inp_files/434251.got.cif
#   From: 2010.06.25/outbox.cif.g09.slc.cpg/sg2_218_cif.got.tgz:434251.got - 2010.06.27 13:26:56.
