data_PCOD8016537
_publ_section_title
;
Structure prediction by ZEFSAII (Michael W. Deem and Ramdas Pophale) SiO2 
 PCOD8016537
Probable space group: P -1
;
_chemical_formula_sum "Si O2"
_cell_formula_units_Z 14
_cell_length_a 11.654839
_cell_length_b 11.103489
_cell_length_c 9.610917
_cell_angle_alpha 115.939266
_cell_angle_beta 146.016200
_cell_angle_gamma 55.955552
_cell_volume 575.080799
_symmetry_space_group_name_H-M "P -1"
_symmetry_group_IT_number 2
_symmetry_cell_setting 'triclinic'
loop_
_space_group_symop_operation_xyz
x,y,z
-x,-y,-z
loop_
_atom_site_type_symbol
_atom_site_label
_atom_site_fract_x
_atom_site_fract_y
_atom_site_fract_z
Si Si1 0.184611 0.522415 0.588742
Si Si2 0.391991 0.401110 0.008430
Si Si3 0.361582 0.242834 0.451705
Si Si4 0.209419 0.983705 0.109208
Si Si5 0.212577 0.373339 0.094844
Si Si6 0.292448 0.905084 0.835978
Si Si7 0.074756 0.197961 0.672220
O O1 0.188240 0.490197 0.742023
O O2 0.196959 0.381042 0.444011
O O3 0.958092 0.667287 0.399644
O O4 0.403428 0.552863 0.789414
O O5 0.318566 0.436518 0.111419
O O6 0.461448 0.224178 0.968159
O O7 0.596399 0.168521 0.726846
O O8 0.394659 0.302207 0.363135
O O9 0.255293 0.124601 0.265273
O O10 0.181775 0.966410 0.906507
O O11 0.000000 0.000000 0.000000
O O12 0.000000 0.500000 0.000000
O O13 0.117931 0.253632 0.892499
O O14 0.150674 0.829264 0.573496
O O15 0.282642 0.038227 0.790034
#
# Coordination Sequence:
#
# PCOD8016537 Si02
#       7
#     2   2   2   2   2   2   2
#     4  10  21  45  66 102 133 183 237 289 350 419
#     4  10  24  42  71  94 139 189 234 293 349 418
#     4  11  24  45  69 103 149 177 245 291 357 427
#     4  11  25  44  72 102 140 193 235 296 355 420
#     4  12  25  44  66 104 141 183 234 294 359 422
#     4  10  21  45  64  98 138 182 240 283 350 424
#     4  10  22  40  68  96 139 177 229 289 342 424
#
# _framework density 24.344404999999998
#
# number of rings (size 3 to 8) (size 9 to 14) (size 15 to 20)
#    0.000    1.429    4.286    0.000    0.000    7.429 
#    0.000    0.000    0.000    0.000    0.000    0.000 
#    0.000    0.000    0.000    0.000    0.000    0.000 
#
# Total GULP energy -173447.740612 kJ/mol
# GULP energy per Si atom -12389.124329 kJ/mol
# Density = 2.428900 g / cm^3
# Si number density = 24.344405 Si / 1000 Ang^3
#
#
#
# Elastic Constant Matrix: (Units=GPa)
#
#
# Indices 1 2 3 4 5 6 
#
# 1 123.2499 39.9919 16.6541 -18.7155 -26.4514 5.9710
# 2 39.9919 158.0834 33.2315 -25.6560 -4.8037 4.8232
# 3 16.6541 33.2315 91.1133 -21.8973 -23.3518 5.2702
# 4 -18.7155 -25.6560 -21.8973 50.7576 0.2721 -6.0241
# 5 -26.4514 -4.8037 -23.3518 0.2721 28.5174 -9.2858
# 6 5.9710 4.8232 5.2702 -6.0241 -9.2858 31.4547
#
#
#
# Elastic Compliance Matrix: (Units=1/GPa)
#
#
# Indices 1 2 3 4 5 6 
#
# 1 0.012272 -0.002682 0.003521 0.004938 0.014669 0.002768
# 2 -0.002682 0.007787 -0.002912 0.001587 -0.003917 -0.001049
# 3 0.003521 -0.002912 0.017808 0.007856 0.018508 0.003763
# 4 0.004938 0.001587 0.007856 0.026407 0.013125 0.006435
# 5 0.014669 -0.003917 0.018508 0.013125 0.068749 0.017524
# 6 0.002768 -0.001049 0.003763 0.006435 0.017524 0.037203
#
#
# Mechanical properties :
#
#
# Convention : Reuss Voigt Hill
#
# Bulk Modulus (GPa) = 29.65428 61.35574 45.50501
# Shear Modulus (GPa) = 26.93805 40.98388 33.96097
#
# Velocity S-wave (km/s) = 3.33008 4.10750 3.73905
# Velocity P-wave (km/s) = 5.19553 6.91038 6.11338
#
# Compressibility (1/GPa) = 0.03372194
#
# Stress axis : x y z
#
# Youngs Moduli (GPa) = 81.48648 128.41981 56.15564
#
# Poissons Ratio (x) = 0.34443 -0.19774
# Poissons Ratio (y) = 0.21855 0.16350
# Poissons Ratio (z) = -0.28694 0.37391
#
# Static dielectric constant tensor:
#      x y z
#    x 4.200240 0.480100 -0.200960 
#    y 0.480100 5.149950 -0.469000 
#    z -0.200960 -0.469000 4.760070 
# 
# 
# High freq. dielectric constant tensor:
#      x y z
#    x 1.948220 0.018360 -0.001400 
#    y 0.018360 2.000170 -0.013370 
#    z -0.001400 -0.013370 1.987160 
# 
# From -- ./inp_files/259716.got.cif
#   From: 2010.06.25/outbox.cif.g09.slc.cpg/sg2_130_cif.got.tgz:259716.got - 2010.06.27 13:26:56.
