data_PCOD8016988
_publ_section_title
;
Structure prediction by ZEFSAII (Michael W. Deem and Ramdas Pophale) SiO2 
 PCOD8016988
Probable space group: P -1
;
_chemical_formula_sum "Si O2"
_cell_formula_units_Z 16
_cell_length_a 9.741675
_cell_length_b 20.541301
_cell_length_c 8.773277
_cell_angle_alpha 131.250821
_cell_angle_beta 44.595336
_cell_angle_gamma 138.299216
_cell_volume 788.729836
_symmetry_space_group_name_H-M "P -1"
_symmetry_group_IT_number 2
_symmetry_cell_setting 'triclinic'
loop_
_space_group_symop_operation_xyz
x,y,z
-x,-y,-z
loop_
_atom_site_type_symbol
_atom_site_label
_atom_site_fract_x
_atom_site_fract_y
_atom_site_fract_z
Si Si1 0.139626 0.839856 0.233687
Si Si2 0.640004 0.709820 0.405286
Si Si3 0.736879 0.822151 0.019447
Si Si4 0.593064 0.963680 0.507847
Si Si5 0.596243 0.636973 0.012616
Si Si6 0.408900 0.145942 0.128276
Si Si7 0.756749 0.491663 0.681618
Si Si8 0.796732 0.084861 0.040658
O O1 0.890012 0.743127 0.330190
O O2 0.179526 0.937575 0.449035
O O3 0.338680 0.817497 0.082368
O O4 0.148593 0.858544 0.074856
O O5 0.685084 0.722781 0.207843
O O6 0.564692 0.785691 0.642220
O O7 0.428373 0.593623 0.423297
O O8 0.645332 0.880322 0.280726
O O9 0.586884 0.698372 0.969371
O O10 0.734210 0.841759 0.873489
O O11 0.995234 0.861206 0.922464
O O12 0.409806 0.912605 0.710013
O O13 0.500000 0.000000 0.500000
O O14 0.346637 0.540819 0.113439
O O15 0.774228 0.597536 0.788647
O O16 0.277609 0.030797 0.110950
O O17 0.000000 0.500000 0.500000
#
# Coordination Sequence:
#
# PCOD8016988 Si02
#       8
#     2   2   2   2   2   2   2   2
#     4  11  23  38  57  89 124 158 218 246 285 356
#     4  10  22  37  63  88 115 154 196 258 296 355
#     4  12  23  39  59  90 128 161 204 250 296 359
#     4  11  23  38  56  85 127 174 199 243 293 345
#     4   9  22  38  62  96 113 150 202 248 306 362
#     4  11  24  35  57  89 123 167 199 242 304 346
#     4   9  20  41  68  91 115 148 196 255 313 367
#     4  11  23  37  59  84 124 166 216 244 286 349
#
# _framework density 20.285779999999999
#
# number of rings (size 3 to 8) (size 9 to 14) (size 15 to 20)
#    0.750    0.750    3.750    2.625    7.000    2.000 
#    0.000    0.625    0.000    1.500    0.000    0.000 
#    0.000    0.000    0.000    0.000    0.000    0.000 
#
# Total GULP energy -198249.730847 kJ/mol
# GULP energy per Si atom -12390.608178 kJ/mol
# Density = 2.023961 g / cm^3
# Si number density = 20.285780 Si / 1000 Ang^3
#
#
#
# Elastic Constant Matrix: (Units=GPa)
#
#
# Indices 1 2 3 4 5 6 
#
# 1 83.3133 27.7434 23.7528 -0.7122 -8.0585 14.3809
# 2 27.7434 74.1121 37.6852 9.3571 -5.6048 14.3006
# 3 23.7528 37.6852 81.9907 12.7634 -2.1413 -1.6093
# 4 -0.7122 9.3571 12.7634 21.2404 5.6161 -9.7655
# 5 -8.0585 -5.6048 -2.1413 5.6161 23.1390 -1.3970
# 6 14.3809 14.3006 -1.6093 -9.7655 -1.3970 24.9484
#
#
#
# Elastic Compliance Matrix: (Units=1/GPa)
#
#
# Indices 1 2 3 4 5 6 
#
# 1 0.015486 -0.001865 -0.003411 -0.001712 0.004529 -0.008494
# 2 -0.001865 0.025242 -0.008548 -0.017425 0.007675 -0.020336
# 3 -0.003411 -0.008548 0.017868 -0.004079 -0.000228 0.006409
# 4 -0.001712 -0.017425 -0.004079 0.082291 -0.022653 0.041654
# 5 0.004529 0.007675 -0.000228 -0.022653 0.051344 -0.013016
# 6 -0.008494 -0.020336 0.006409 0.041654 -0.013016 0.072625
#
#
# Mechanical properties :
#
#
# Convention : Reuss Voigt Hill
#
# Bulk Modulus (GPa) = 32.31134 46.41988 39.36561
# Shear Modulus (GPa) = 16.51141 23.88122 20.19631
#
# Velocity S-wave (km/s) = 2.85606 3.43481 3.15872
# Velocity P-wave (km/s) = 5.18061 6.21798 5.72285
#
# Compressibility (1/GPa) = 0.03094889
#
# Stress axis : x y z
#
# Youngs Moduli (GPa) = 64.57446 39.61604 55.96489
#
# Poissons Ratio (x) = 0.07388 0.19090
# Poissons Ratio (y) = 0.12043 0.47838
# Poissons Ratio (z) = 0.22027 0.33863
#
# Static dielectric constant tensor:
#      x y z
#    x 3.696220 0.153660 -0.118830 
#    y 0.153660 3.546860 0.029290 
#    z -0.118830 0.029290 3.781150 
# 
# 
# High freq. dielectric constant tensor:
#      x y z
#    x 1.778440 0.012840 -0.010250 
#    y 0.012840 1.773940 0.003960 
#    z -0.010250 0.003960 1.797010 
# 
# From -- ./inp_files/215449.got.cif
#   From: 2010.06.25/outbox.cif.g09.slc.cpg/sg2_108_cif.got.tgz:215449.got - 2010.06.27 13:26:56.
