data_PCOD8016598
_publ_section_title
;
Structure prediction by ZEFSAII (Michael W. Deem and Ramdas Pophale) SiO2 
 PCOD8016598
Probable space group: P -1
;
_chemical_formula_sum "Si O2"
_cell_formula_units_Z 14
_cell_length_a 18.650929
_cell_length_b 8.151077
_cell_length_c 7.937826
_cell_angle_alpha 122.923609
_cell_angle_beta 104.206871
_cell_angle_gamma 120.249415
_cell_volume 610.782361
_symmetry_space_group_name_H-M "P -1"
_symmetry_group_IT_number 2
_symmetry_cell_setting 'triclinic'
loop_
_space_group_symop_operation_xyz
x,y,z
-x,-y,-z
loop_
_atom_site_type_symbol
_atom_site_label
_atom_site_fract_x
_atom_site_fract_y
_atom_site_fract_z
Si Si1 0.543053 0.801306 0.743731
Si Si2 0.195652 0.703322 0.871674
Si Si3 0.986658 0.190493 0.659010
Si Si4 0.675337 0.394241 0.595763
Si Si5 0.396490 0.162411 0.832101
Si Si6 0.785923 0.932131 0.172919
Si Si7 0.108130 0.185500 0.291318
O O1 0.500000 0.500000 0.500000
O O2 0.451107 0.773788 0.617878
O O3 0.557602 0.845536 0.976718
O O4 0.672292 0.102205 0.900563
O O5 0.132337 0.431173 0.547765
O O6 0.119343 0.557149 0.920019
O O7 0.197738 0.923644 0.915059
O O8 0.907194 0.148127 0.460304
O O9 0.933065 0.077766 0.754457
O O10 0.000000 0.000000 0.500000
O O11 0.772037 0.625470 0.632001
O O12 0.652177 0.116869 0.466879
O O13 0.723538 0.595454 0.906315
O O14 0.292156 0.099199 0.765912
O O15 0.500000 0.500000 0.000000
O O16 0.000000 0.000000 0.000000
#
# Coordination Sequence:
#
# PCOD8016598 Si02
#       7
#     2   2   2   2   2   2   2
#     4  11  22  46  70 103 139 187 229 278 360 411
#     4  10  21  45  68  99 146 180 229 294 339 415
#     4  10  23  42  72 101 136 186 231 290 350 413
#     4  12  23  45  74  98 143 190 225 289 354 414
#     4  11  26  44  66 105 143 181 235 290 339 423
#     4  11  23  46  70 102 143 184 230 290 355 408
#     4  11  24  45  70 103 138 182 238 285 355 415
#
# _framework density 22.921423000000001
#
# number of rings (size 3 to 8) (size 9 to 14) (size 15 to 20)
#    0.000    1.143    5.714    2.571    2.000    1.714 
#    7.714    2.857    0.000    0.000    0.000    0.000 
#    0.000    0.000    0.000    0.000    0.000    0.000 
#
# Total GULP energy -173560.153928 kJ/mol
# GULP energy per Si atom -12397.153852 kJ/mol
# Density = 2.286925 g / cm^3
# Si number density = 22.921423 Si / 1000 Ang^3
#
#
#
# Elastic Constant Matrix: (Units=GPa)
#
#
# Indices 1 2 3 4 5 6 
#
# 1 133.0987 58.6238 53.2928 21.6314 9.4240 7.5253
# 2 58.6238 103.4758 37.3536 37.9145 29.4831 10.0635
# 3 53.2928 37.3536 119.2985 24.5536 8.2364 11.7334
# 4 21.6314 37.9145 24.5536 38.3044 0.4477 6.6636
# 5 9.4240 29.4831 8.2364 0.4477 56.5959 12.2202
# 6 7.5253 10.0635 11.7334 6.6636 12.2202 10.9665
#
#
#
# Elastic Compliance Matrix: (Units=1/GPa)
#
#
# Indices 1 2 3 4 5 6 
#
# 1 0.011375 -0.006773 -0.003493 0.002947 0.002689 -0.002641
# 2 -0.006773 0.024563 -0.000266 -0.022126 -0.013900 0.011324
# 3 -0.003493 -0.000266 0.011561 -0.003712 0.000896 -0.008472
# 4 0.002947 -0.022126 -0.003712 0.053746 0.017642 -0.030064
# 5 0.002689 -0.013900 0.000896 0.017642 0.032076 -0.036512
# 6 -0.002641 0.011324 -0.008472 -0.030064 -0.036512 0.150626
#
#
# Mechanical properties :
#
#
# Convention : Reuss Voigt Hill
#
# Bulk Modulus (GPa) = 37.82751 72.71261 55.27006
# Shear Modulus (GPa) = 15.93253 34.94687 25.43970
#
# Velocity S-wave (km/s) = 2.63932 3.90890 3.33508
# Velocity P-wave (km/s) = 5.08203 7.22247 6.24464
#
# Compressibility (1/GPa) = 0.02643579
#
# Stress axis : x y z
#
# Youngs Moduli (GPa) = 87.91270 40.71122 86.49444
#
# Poissons Ratio (x) = 0.27573 0.30215
# Poissons Ratio (y) = 0.59541 0.02299
# Poissons Ratio (z) = 0.30711 0.01082
#
# Static dielectric constant tensor:
#      x y z
#    x 3.683980 0.087770 -0.411990 
#    y 0.087770 4.664360 0.214570 
#    z -0.411990 0.214570 3.967880 
# 
# 
# High freq. dielectric constant tensor:
#      x y z
#    x 1.914540 0.006330 0.006900 
#    y 0.006330 1.894580 0.019060 
#    z 0.006900 0.019060 1.908520 
# 
# From -- ./inp_files/326770.got.cif
#   From: 2010.06.25/outbox.cif.g09.slc.cpg/sg2_164_cif.got.tgz:326770.got - 2010.06.27 13:26:56.
