data_PCOD8016221
_publ_section_title
;
Structure prediction by ZEFSAII (Michael W. Deem and Ramdas Pophale) SiO2 
 PCOD8016221
Probable space group: P -1
;
_chemical_formula_sum "Si O2"
_cell_formula_units_Z 12
_cell_length_a 12.933500
_cell_length_b 13.406436
_cell_length_c 5.036170
_cell_angle_alpha 79.053680
_cell_angle_beta 85.582819
_cell_angle_gamma 145.286869
_cell_volume 443.770698
_symmetry_space_group_name_H-M "P -1"
_symmetry_group_IT_number 2
_symmetry_cell_setting 'triclinic'
loop_
_space_group_symop_operation_xyz
x,y,z
-x,-y,-z
loop_
_atom_site_type_symbol
_atom_site_label
_atom_site_fract_x
_atom_site_fract_y
_atom_site_fract_z
Si Si1 0.418007 0.289121 0.071030
Si Si2 0.579995 0.331745 0.522361
Si Si3 0.398361 0.966371 0.784994
Si Si4 0.992845 0.385062 0.687381
Si Si5 0.132398 0.204216 0.968850
Si Si6 0.970452 0.166097 0.543547
O O1 0.515480 0.364000 0.305533
O O2 0.343185 0.340527 0.980214
O O3 0.584210 0.388459 0.781439
O O4 0.225675 0.056273 0.210658
O O5 0.788722 0.458724 0.325525
O O6 0.421300 0.106922 0.682305
O O7 0.500000 0.000000 0.500000
O O8 0.161231 0.746517 0.969147
O O9 0.500000 0.000000 0.000000
O O10 0.928045 0.250721 0.535932
O O11 0.000000 0.500000 0.500000
O O12 0.024303 0.178182 0.231537
O O13 0.150515 0.291438 0.660505
O O14 0.000000 0.000000 0.000000
#
# Coordination Sequence:
#
# PCOD8016221 Si02
#       6
#     2   2   2   2   2   2
#     4  11  22  45  74 108 148 194 250 314 376 453
#     4  12  26  45  73 112 151 194 252 311 381 447
#     4  12  27  50  76 104 149 207 260 312 378 446
#     4  12  29  51  76 115 159 203 256 319 376 456
#     4  10  21  43  76 113 145 197 257 311 377 451
#     4  11  23  44  74 111 151 200 254 310 376 452
#
# _framework density 27.040991999999999
#
# number of rings (size 3 to 8) (size 9 to 14) (size 15 to 20)
#    0.000    0.667    3.333    6.000    0.000    3.333 
#    0.000    5.000    0.000    0.000    0.000    0.000 
#    0.000    0.000    0.000    0.000    0.000    0.000 
#
# Total GULP energy -148826.422310 kJ/mol
# GULP energy per Si atom -12402.201859 kJ/mol
# Density = 2.697945 g / cm^3
# Si number density = 27.040992 Si / 1000 Ang^3
#
#
#
# Elastic Constant Matrix: (Units=GPa)
#
#
# Indices 1 2 3 4 5 6 
#
# 1 133.0538 7.8343 55.0552 -4.3625 -2.5834 -2.6624
# 2 7.8343 49.1194 38.5626 3.4131 -7.5233 20.8464
# 3 55.0552 38.5626 173.3283 5.8614 -20.2065 -7.6116
# 4 -4.3625 3.4131 5.8614 61.0780 2.9850 -6.8077
# 5 -2.5834 -7.5233 -20.2065 2.9850 56.4212 1.4182
# 6 -2.6624 20.8464 -7.6116 -6.8077 1.4182 56.3272
#
#
#
# Elastic Compliance Matrix: (Units=1/GPa)
#
#
# Indices 1 2 3 4 5 6 
#
# 1 0.008758 0.001006 -0.003119 0.000870 -0.000621 -0.000259
# 2 0.001006 0.032520 -0.007816 -0.002590 0.002057 -0.013409
# 3 -0.003119 -0.007816 0.008903 -0.000304 0.001922 0.003863
# 4 0.000870 -0.002590 -0.000304 0.017017 -0.001391 0.003050
# 5 -0.000621 0.002057 0.001922 -0.001391 0.018761 -0.001171
# 6 -0.000259 -0.013409 0.003863 0.003050 -0.001171 0.023624
#
#
# Mechanical properties :
#
#
# Convention : Reuss Voigt Hill
#
# Bulk Modulus (GPa) = 32.97768 62.04509 47.51139
# Shear Modulus (GPa) = 35.82942 51.70191 43.76567
#
# Velocity S-wave (km/s) = 3.64401 4.37737 4.02741
# Velocity P-wave (km/s) = 5.47056 6.96729 6.26379
#
# Compressibility (1/GPa) = 0.03032354
#
# Stress axis : x y z
#
# Youngs Moduli (GPa) = 114.17597 30.74991 112.31990
#
# Poissons Ratio (x) = -0.03094 0.35033
# Poissons Ratio (y) = -0.11487 0.87792
# Poissons Ratio (z) = 0.35612 0.24035
#
# Static dielectric constant tensor:
#      x y z
#    x 6.423890 0.514230 0.185140 
#    y 0.514230 5.388150 -0.239040 
#    z 0.185140 -0.239040 5.096950 
# 
# 
# High freq. dielectric constant tensor:
#      x y z
#    x 2.107070 -0.003420 0.008200 
#    y -0.003420 2.100290 -0.012450 
#    z 0.008200 -0.012450 2.095390 
# 
# From -- ./inp_files/75793.got.cif
#   From: 2010.06.25/outbox.cif.g09.slc.cpg/sg2_38_cif.got.tgz:75793.got - 2010.06.27 13:26:56.
