data_PCOD8016300
_publ_section_title
;
Structure prediction by ZEFSAII (Michael W. Deem and Ramdas Pophale) SiO2 
 PCOD8016300
Probable space group: P -1
;
_chemical_formula_sum "Si O2"
_cell_formula_units_Z 14
_cell_length_a 15.827702
_cell_length_b 9.348394
_cell_length_c 15.223481
_cell_angle_alpha 69.665420
_cell_angle_beta 27.435864
_cell_angle_gamma 51.230283
_cell_volume 659.333142
_symmetry_space_group_name_H-M "P -1"
_symmetry_group_IT_number 2
_symmetry_cell_setting 'triclinic'
loop_
_space_group_symop_operation_xyz
x,y,z
-x,-y,-z
loop_
_atom_site_type_symbol
_atom_site_label
_atom_site_fract_x
_atom_site_fract_y
_atom_site_fract_z
Si Si1 0.837077 0.506778 0.076946
Si Si2 0.781376 0.190555 0.230935
Si Si3 0.661140 0.752831 0.437310
Si Si4 0.692869 0.594907 0.793366
Si Si5 0.801797 0.692124 0.511061
Si Si6 0.129003 0.847287 0.326760
Si Si7 0.229808 0.940702 0.546100
O O1 0.775028 0.375033 0.194306
O O2 0.547720 0.754824 0.270771
O O3 0.000000 0.500000 0.000000
O O4 0.024753 0.407162 0.839602
O O5 0.481724 0.305184 0.464100
O O6 0.860263 0.096215 0.276711
O O7 0.000000 0.000000 0.000000
O O8 0.662459 0.710095 0.548337
O O9 0.500000 0.000000 0.500000
O O10 0.610193 0.762043 0.754966
O O11 0.836295 0.357927 0.665838
O O12 0.901557 0.548436 0.678928
O O13 0.429357 0.726829 0.064958
O O14 0.852412 0.836089 0.411406
O O15 0.000000 0.000000 0.500000
O O16 0.935548 0.027267 0.389291
#
# Coordination Sequence:
#
# PCOD8016300 Si02
#       7
#     2   2   2   2   2   2   2
#     4  12  25  43  64  97 142 173 222 278 334 406
#     4  12  25  43  68  98 135 182 229 267 342 417
#     4  12  23  42  67  99 132 180 223 269 337 412
#     4   9  22  44  68  92 129 179 220 285 343 393
#     4  10  21  44  66  91 132 174 223 276 338 405
#     4  10  23  43  66  97 130 167 236 281 340 407
#     4  11  24  41  64  96 135 175 217 290 340 395
#
# _framework density 21.233574999999998
#
# number of rings (size 3 to 8) (size 9 to 14) (size 15 to 20)
#    0.000    1.143    4.286    0.429    4.000    1.143 
#    2.571    2.143    0.000    0.000    0.000    0.000 
#    0.000    0.000    0.000    0.000    0.000    0.000 
#
# Total GULP energy -173480.362275 kJ/mol
# GULP energy per Si atom -12391.454448 kJ/mol
# Density = 2.118525 g / cm^3
# Si number density = 21.233575 Si / 1000 Ang^3
#
#
#
# Elastic Constant Matrix: (Units=GPa)
#
#
# Indices 1 2 3 4 5 6 
#
# 1 145.1525 47.6169 36.7096 -1.0496 -1.4916 -21.7195
# 2 47.6169 70.5431 28.0949 -21.7414 -3.9551 -9.3192
# 3 36.7096 28.0949 121.5406 -3.5208 4.5959 -6.5968
# 4 -1.0496 -21.7414 -3.5208 37.6037 2.9672 -2.3707
# 5 -1.4916 -3.9551 4.5959 2.9672 34.9702 -4.8025
# 6 -21.7195 -9.3192 -6.5968 -2.3707 -4.8025 40.4205
#
#
#
# Elastic Compliance Matrix: (Units=1/GPa)
#
#
# Indices 1 2 3 4 5 6 
#
# 1 0.009962 -0.006804 -0.001378 -0.003618 0.000613 0.003420
# 2 -0.006804 0.024769 -0.003209 0.013827 0.002116 0.002593
# 3 -0.001378 -0.003209 0.009410 -0.000898 -0.001608 -0.000188
# 4 -0.003618 0.013827 -0.000898 0.034671 -0.001001 0.003012
# 5 0.000613 0.002116 -0.001608 -0.001001 0.029710 0.004026
# 6 0.003420 0.002593 -0.000188 0.003012 0.004026 0.027800
#
#
# Mechanical properties :
#
#
# Convention : Reuss Voigt Hill
#
# Bulk Modulus (GPa) = 46.82052 62.45324 54.63688
# Shear Modulus (GPa) = 30.07954 37.58654 33.83304
#
# Velocity S-wave (km/s) = 3.76786 4.21188 3.99604
# Velocity P-wave (km/s) = 6.40524 7.28900 6.86137
#
# Compressibility (1/GPa) = 0.02135816
#
# Stress axis : x y z
#
# Youngs Moduli (GPa) = 100.38297 40.37241 106.26508
#
# Poissons Ratio (x) = 0.27470 0.14647
# Poissons Ratio (y) = 0.68302 0.34103
# Poissons Ratio (z) = 0.13837 0.12956
#
# Static dielectric constant tensor:
#      x y z
#    x 4.061010 -0.192600 -0.092320 
#    y -0.192600 4.028860 -0.142630 
#    z -0.092320 -0.142630 4.383900 
# 
# 
# High freq. dielectric constant tensor:
#      x y z
#    x 1.836590 -0.010860 -0.010250 
#    y -0.010860 1.828020 -0.016060 
#    z -0.010250 -0.016060 1.840660 
# 
# From -- ./inp_files/503658.got.cif
#   From: 2010.06.25/outbox.cif.g09.slc.cpg/sg2_252_cif.got.tgz:503658.got - 2010.06.27 13:26:56.
