data_PCOD8016577
_publ_section_title
;
Structure prediction by ZEFSAII (Michael W. Deem and Ramdas Pophale) SiO2 
 PCOD8016577
Probable space group: P -1
;
_chemical_formula_sum "Si O2"
_cell_formula_units_Z 14
_cell_length_a 15.205466
_cell_length_b 6.288925
_cell_length_c 8.516695
_cell_angle_alpha 111.852359
_cell_angle_beta 119.400185
_cell_angle_gamma 91.305054
_cell_volume 636.926723
_symmetry_space_group_name_H-M "P -1"
_symmetry_group_IT_number 2
_symmetry_cell_setting 'triclinic'
loop_
_space_group_symop_operation_xyz
x,y,z
-x,-y,-z
loop_
_atom_site_type_symbol
_atom_site_label
_atom_site_fract_x
_atom_site_fract_y
_atom_site_fract_z
Si Si1 0.379285 0.634735 0.031722
Si Si2 0.766801 0.657682 0.944292
Si Si3 0.211812 0.158667 0.336821
Si Si4 0.746986 0.106449 0.218266
Si Si5 0.610401 0.808455 0.272872
Si Si6 0.078383 0.646293 0.989072
Si Si7 0.918289 0.540952 0.564115
O O1 0.344030 0.500400 0.129952
O O2 0.491951 0.817447 0.209169
O O3 0.296371 0.772063 0.932935
O O4 0.388834 0.452604 0.853898
O O5 0.769107 0.684675 0.764283
O O6 0.847848 0.518875 0.043562
O O7 0.795580 0.910498 0.125177
O O8 0.322747 0.135832 0.493235
O O9 0.158385 0.280771 0.463739
O O10 0.142638 0.897606 0.175312
O O11 0.839123 0.282375 0.446641
O O12 0.655098 0.001574 0.231207
O O13 0.997716 0.681775 0.799672
O O14 0.000000 0.500000 0.000000
O O15 0.000000 0.500000 0.500000
#
# Coordination Sequence:
#
# PCOD8016577 Si02
#       7
#     2   2   2   2   2   2   2
#     4  10  21  45  68 101 130 175 221 272 334 393
#     4  11  25  43  68  95 139 177 219 273 326 398
#     4  12  25  45  64 103 136 172 220 274 333 397
#     4  11  23  45  68 101 133 171 227 276 322 397
#     4  10  23  40  73  98 134 172 218 278 335 388
#     4  12  26  44  65  95 136 181 218 269 334 391
#     4  12  25  41  69  96 132 177 222 273 323 392
#
# _framework density 21.980547999999999
#
# number of rings (size 3 to 8) (size 9 to 14) (size 15 to 20)
#    0.000    0.857    2.857    4.286    4.000    1.143 
#    0.000    2.857    0.000    0.000    0.000    0.000 
#    0.000    0.000    0.000    0.000    0.000    0.000 
#
# Total GULP energy -173436.804908 kJ/mol
# GULP energy per Si atom -12388.343208 kJ/mol
# Density = 2.193052 g / cm^3
# Si number density = 21.980548 Si / 1000 Ang^3
#
#
#
# Elastic Constant Matrix: (Units=GPa)
#
#
# Indices 1 2 3 4 5 6 
#
# 1 109.7743 43.4193 46.5325 19.7403 11.9746 6.1888
# 2 43.4193 105.5918 39.5882 16.9632 6.0526 3.6070
# 3 46.5325 39.5882 116.4299 14.1300 25.1494 9.3829
# 4 19.7403 16.9632 14.1300 39.9414 1.7529 -2.7496
# 5 11.9746 6.0526 25.1494 1.7529 33.9476 5.2878
# 6 6.1888 3.6070 9.3829 -2.7496 5.2878 37.8376
#
#
#
# Elastic Compliance Matrix: (Units=1/GPa)
#
#
# Indices 1 2 3 4 5 6 
#
# 1 0.012602 -0.003308 -0.003114 -0.003744 -0.001187 -0.001080
# 2 -0.003308 0.012230 -0.002750 -0.002661 0.001208 -0.000305
# 3 -0.003114 -0.002750 0.012696 -0.001554 -0.007512 -0.001440
# 4 -0.003744 -0.002661 -0.001554 0.028745 0.000962 0.003206
# 5 -0.001187 0.001208 -0.007512 0.000962 0.035638 -0.002969
# 6 -0.001080 -0.000305 -0.001440 0.003206 -0.002969 0.027639
#
#
# Mechanical properties :
#
#
# Convention : Reuss Voigt Hill
#
# Bulk Modulus (GPa) = 52.12711 65.65289 58.89000
# Shear Modulus (GPa) = 32.40687 35.82905 34.11796
#
# Velocity S-wave (km/s) = 3.84388 4.04175 3.94406
# Velocity P-wave (km/s) = 6.59296 7.19128 6.89861
#
# Compressibility (1/GPa) = 0.01918388
#
# Stress axis : x y z
#
# Youngs Moduli (GPa) = 79.35554 81.76443 78.76710
#
# Poissons Ratio (x) = 0.27047 0.24527
# Poissons Ratio (y) = 0.26250 0.21661
# Poissons Ratio (z) = 0.24710 0.22485
#
# Static dielectric constant tensor:
#      x y z
#    x 4.290030 0.090910 0.143000 
#    y 0.090910 3.973350 0.071290 
#    z 0.143000 0.071290 3.914670 
# 
# 
# High freq. dielectric constant tensor:
#      x y z
#    x 1.878750 0.001640 0.008790 
#    y 0.001640 1.865630 0.009940 
#    z 0.008790 0.009940 1.859820 
# 
# From -- ./inp_files/23888.got.cif
#   From: 2010.06.25/outbox.cif.g09.slc.cpg/sg2_12_cif.got.tgz:23888.got - 2010.06.27 13:26:56.
