data_PCOD8016325
_publ_section_title
;
Structure prediction by ZEFSAII (Michael W. Deem and Ramdas Pophale) SiO2 
 PCOD8016325
Probable space group: P -1
;
_chemical_formula_sum "Si O2"
_cell_formula_units_Z 16
_cell_length_a 7.995524
_cell_length_b 12.815823
_cell_length_c 9.474378
_cell_angle_alpha 51.870265
_cell_angle_beta 62.406607
_cell_angle_gamma 92.696200
_cell_volume 594.585901
_symmetry_space_group_name_H-M "P -1"
_symmetry_group_IT_number 2
_symmetry_cell_setting 'triclinic'
loop_
_space_group_symop_operation_xyz
x,y,z
-x,-y,-z
loop_
_atom_site_type_symbol
_atom_site_label
_atom_site_fract_x
_atom_site_fract_y
_atom_site_fract_z
Si Si1 0.661399 0.468565 0.649953
Si Si2 0.568414 0.883415 0.723362
Si Si3 0.056281 0.745110 0.573509
Si Si4 0.944547 0.419237 0.785471
Si Si5 0.291281 0.159607 0.000796
Si Si6 0.675120 0.737996 0.571542
Si Si7 0.431773 0.070840 0.759923
Si Si8 0.905491 0.177783 0.204608
O O1 0.744088 0.375202 0.795154
O O2 0.538434 0.663557 0.243679
O O3 0.584112 0.567584 0.691280
O O4 0.851939 0.576998 0.379016
O O5 0.526138 0.739744 0.760250
O O6 0.368041 0.908470 0.842428
O O7 0.692826 0.024505 0.450522
O O8 0.711909 0.890050 0.795060
O O9 0.311288 0.852846 0.386338
O O10 0.968131 0.739612 0.770478
O O11 0.019468 0.582999 0.680373
O O12 0.923479 0.799827 0.475374
O O13 0.847981 0.295196 0.049501
O O14 0.332628 0.049371 0.972936
O O15 0.057412 0.140171 0.077323
O O16 0.660053 0.836095 0.367919
#
# Coordination Sequence:
#
# PCOD8016325 Si02
#       8
#     2   2   2   2   2   2   2   2
#     4  10  24  42  72 105 145 176 229 306 350 415
#     4  11  26  49  68 100 149 187 238 288 351 419
#     4  10  22  44  71 101 147 180 225 302 347 420
#     4  10  21  44  67 106 138 184 233 282 369 411
#     4  12  24  45  72 108 139 182 239 296 350 416
#     4  11  24  46  72 103 144 185 234 291 352 421
#     4  11  25  43  77 103 136 191 238 286 351 428
#     4  11  24  42  74  98 141 193 228 290 354 426
#
# _framework density 26.909483999999999
#
# number of rings (size 3 to 8) (size 9 to 14) (size 15 to 20)
#    0.000    1.250    2.500    2.250    3.500    4.500 
#    0.000    2.500    0.000    0.000    0.000    0.000 
#    0.000    0.000    0.000    0.000    0.000    0.000 
#
# Total GULP energy -198338.322485 kJ/mol
# GULP energy per Si atom -12396.145155 kJ/mol
# Density = 2.684824 g / cm^3
# Si number density = 26.909484 Si / 1000 Ang^3
#
#
#
# Elastic Constant Matrix: (Units=GPa)
#
#
# Indices 1 2 3 4 5 6 
#
# 1 117.6293 38.6159 27.0075 0.8447 1.6124 -21.7388
# 2 38.6159 201.8287 41.2069 34.8818 -3.3633 -27.7444
# 3 27.0075 41.2069 87.4479 11.0556 11.4793 -15.3421
# 4 0.8447 34.8818 11.0556 41.9392 -13.4048 1.1877
# 5 1.6124 -3.3633 11.4793 -13.4048 30.6119 3.3883
# 6 -21.7388 -27.7444 -15.3421 1.1877 3.3883 39.4867
#
#
#
# Elastic Compliance Matrix: (Units=1/GPa)
#
#
# Indices 1 2 3 4 5 6 
#
# 1 0.010066 -0.001199 -0.002074 0.001319 0.000269 0.003830
# 2 -0.001199 0.007051 -0.001170 -0.006268 -0.001932 0.004193
# 3 -0.002074 -0.001170 0.015461 -0.006091 -0.009038 0.005002
# 4 0.001319 -0.006268 -0.006091 0.036837 0.018626 -0.008751
# 5 0.000269 -0.001932 -0.009038 0.018626 0.044998 -0.009143
# 6 0.003830 0.004193 0.005002 -0.008751 -0.009143 0.033371
#
#
# Mechanical properties :
#
#
# Convention : Reuss Voigt Hill
#
# Bulk Modulus (GPa) = 42.20976 68.95184 55.58080
# Shear Modulus (GPa) = 30.38254 42.41260 36.39757
#
# Velocity S-wave (km/s) = 3.36380 3.97435 3.68175
# Velocity P-wave (km/s) = 5.55038 6.83665 6.22682
#
# Compressibility (1/GPa) = 0.02369121
#
# Stress axis : x y z
#
# Youngs Moduli (GPa) = 99.34556 141.83179 64.67717
#
# Poissons Ratio (x) = 0.17013 0.13412
# Poissons Ratio (y) = 0.11916 0.07568
# Poissons Ratio (z) = 0.20601 0.16597
#
# Static dielectric constant tensor:
#      x y z
#    x 4.926910 0.051400 0.206280 
#    y 0.051400 5.754600 0.247970 
#    z 0.206280 0.247970 4.723010 
# 
# 
# High freq. dielectric constant tensor:
#      x y z
#    x 2.086790 -0.008390 0.017090 
#    y -0.008390 2.107980 0.008740 
#    z 0.017090 0.008740 2.071350 
# 
# From -- ./inp_files/205496.got.cif
#   From: 2010.06.25/outbox.cif.g09.slc.cpg/sg2_103_cif.got.tgz:205496.got - 2010.06.27 13:26:56.
