data_PCOD8016898
_publ_section_title
;
Structure prediction by ZEFSAII (Michael W. Deem and Ramdas Pophale) SiO2 
 PCOD8016898
Probable space group: P -1
;
_chemical_formula_sum "Si O2"
_cell_formula_units_Z 16
_cell_length_a 19.721537
_cell_length_b 5.144306
_cell_length_c 23.047627
_cell_angle_alpha 106.267570
_cell_angle_beta 160.726956
_cell_angle_gamma 73.630162
_cell_volume 739.772968
_symmetry_space_group_name_H-M "P -1"
_symmetry_group_IT_number 2
_symmetry_cell_setting 'triclinic'
loop_
_space_group_symop_operation_xyz
x,y,z
-x,-y,-z
loop_
_atom_site_type_symbol
_atom_site_label
_atom_site_fract_x
_atom_site_fract_y
_atom_site_fract_z
Si Si1 0.521248 0.553455 0.217084
Si Si2 0.876051 0.909001 0.706146
Si Si3 0.343925 0.678444 0.808705
Si Si4 0.699023 0.892699 0.918552
Si Si5 0.865683 0.493549 0.577979
Si Si6 0.565060 0.257851 0.404443
Si Si7 0.772004 0.732604 0.221025
Si Si8 0.432255 0.300972 0.482440
O O1 0.632295 0.406134 0.243687
O O2 0.366357 0.355555 0.110588
O O3 0.700267 0.639860 0.410232
O O4 0.394181 0.825645 0.111796
O O5 0.960829 0.719228 0.709899
O O6 0.810134 0.726592 0.697320
O O7 0.663865 0.076486 0.525609
O O8 0.053159 0.105225 0.880288
O O9 0.211564 0.466231 0.723122
O O10 0.216863 0.964949 0.726857
O O11 0.566515 0.694525 0.017161
O O12 0.626128 0.869054 0.791053
O O13 0.748738 0.278138 0.507951
O O14 0.042470 0.325195 0.676556
O O15 0.481487 0.554589 0.380389
O O16 0.500000 0.500000 0.500000
O O17 0.500000 0.000000 0.500000
#
# Coordination Sequence:
#
# PCOD8016898 Si02
#       8
#     2   2   2   2   2   2   2   2
#     4  11  23  41  60  92 129 162 217 275 322 370
#     4  11  23  42  72  95 129 173 210 256 325 371
#     4  10  22  37  54  84 121 165 212 268 318 384
#     4  11  25  40  67  98 130 165 216 271 310 375
#     4  10  23  38  64  92 124 167 215 270 322 379
#     4  10  23  44  66 100 131 164 216 261 313 375
#     4  10  22  37  56  82 121 164 215 262 322 383
#     4  11  23  43  71  99 134 173 207 253 309 376
#
# _framework density 21.628259
#
# number of rings (size 3 to 8) (size 9 to 14) (size 15 to 20)
#    0.000    1.500    2.500    1.500    7.000    2.000 
#    0.000    1.250    0.000    0.000    0.000    0.000 
#    0.000    0.000    0.000    0.000    0.000    0.000 
#
# Total GULP energy -198290.216274 kJ/mol
# GULP energy per Si atom -12393.138517 kJ/mol
# Density = 2.157903 g / cm^3
# Si number density = 21.628259 Si / 1000 Ang^3
#
#
#
# Elastic Constant Matrix: (Units=GPa)
#
#
# Indices 1 2 3 4 5 6 
#
# 1 138.6955 48.8726 46.0411 14.9268 11.2005 -7.6871
# 2 48.8726 125.0624 37.6653 14.2463 0.5717 -5.0969
# 3 46.0411 37.6653 90.9569 22.3939 -4.4541 -8.0248
# 4 14.9268 14.2463 22.3939 24.6959 1.4888 -1.0972
# 5 11.2005 0.5717 -4.4541 1.4888 17.1068 -0.5263
# 6 -7.6871 -5.0969 -8.0248 -1.0972 -0.5263 37.7866
#
#
#
# Elastic Compliance Matrix: (Units=1/GPa)
#
#
# Indices 1 2 3 4 5 6 
#
# 1 0.010270 -0.002604 -0.004380 -0.000237 -0.007736 0.000693
# 2 -0.002604 0.009928 -0.002167 -0.002237 0.001013 0.000299
# 3 -0.004380 -0.002167 0.017885 -0.012745 0.008779 0.002367
# 4 -0.000237 -0.002237 -0.012745 0.053883 -0.007827 -0.001601
# 5 -0.007736 0.001013 0.008779 -0.007827 0.066489 0.001126
# 6 0.000693 0.000299 0.002367 -0.001601 0.001126 0.027118
#
#
# Mechanical properties :
#
#
# Convention : Reuss Voigt Hill
#
# Bulk Modulus (GPa) = 50.54845 68.87477 59.71161
# Shear Modulus (GPa) = 23.75659 30.72690 27.24174
#
# Velocity S-wave (km/s) = 3.31781 3.77328 3.55286
# Velocity P-wave (km/s) = 6.17247 7.13425 6.67072
#
# Compressibility (1/GPa) = 0.01978300
#
# Stress axis : x y z
#
# Youngs Moduli (GPa) = 97.37093 100.72109 55.91295
#
# Poissons Ratio (x) = 0.26225 0.24488
# Poissons Ratio (y) = 0.25353 0.12115
# Poissons Ratio (z) = 0.42645 0.21824
#
# Static dielectric constant tensor:
#      x y z
#    x 4.216590 0.109500 -0.098790 
#    y 0.109500 4.458910 0.092740 
#    z -0.098790 0.092740 3.741780 
# 
# 
# High freq. dielectric constant tensor:
#      x y z
#    x 1.857920 -0.003120 0.000820 
#    y -0.003120 1.863760 0.015870 
#    z 0.000820 0.015870 1.823360 
# 
# From -- ./inp_files/47760.got.cif
#   From: 2010.06.25/outbox.cif.g09.slc.cpg/sg2_24_cif.got.tgz:47760.got - 2010.06.27 13:26:56.
