data_PCOD8016783
_publ_section_title
;
Structure prediction by ZEFSAII (Michael W. Deem and Ramdas Pophale) SiO2 
 PCOD8016783
Probable space group: P -1
;
_chemical_formula_sum "Si O2"
_cell_formula_units_Z 16
_cell_length_a 5.128399
_cell_length_b 14.386242
_cell_length_c 18.294606
_cell_angle_alpha 40.717967
_cell_angle_beta 109.567500
_cell_angle_gamma 106.377819
_cell_volume 828.769042
_symmetry_space_group_name_H-M "P -1"
_symmetry_group_IT_number 2
_symmetry_cell_setting 'triclinic'
loop_
_space_group_symop_operation_xyz
x,y,z
-x,-y,-z
loop_
_atom_site_type_symbol
_atom_site_label
_atom_site_fract_x
_atom_site_fract_y
_atom_site_fract_z
Si Si1 0.301355 0.787533 0.860713
Si Si2 0.835122 0.867063 0.597885
Si Si3 0.842290 0.527098 0.311630
Si Si4 0.455528 0.423231 0.891389
Si Si5 0.767431 0.940981 0.713568
Si Si6 0.554885 0.509027 0.584831
Si Si7 0.032152 0.595039 0.835639
Si Si8 0.393838 0.761124 0.505748
O O1 0.517605 0.863099 0.780569
O O2 0.146066 0.646755 0.894398
O O3 0.066881 0.895475 0.797723
O O4 0.455257 0.731692 0.980351
O O5 0.728966 0.900144 0.649439
O O6 0.577214 0.834155 0.542034
O O7 0.031422 0.732206 0.700130
O O8 0.000000 0.000000 0.500000
O O9 0.692391 0.600216 0.186466
O O10 0.692360 0.575561 0.343619
O O11 0.817210 0.353797 0.406343
O O12 0.166326 0.569703 0.320800
O O13 0.231267 0.478205 0.894021
O O14 0.716983 0.533819 0.845962
O O15 0.764188 0.111552 0.623789
O O16 0.500000 0.500000 0.500000
O O17 0.569054 0.675561 0.512622
#
# Coordination Sequence:
#
# PCOD8016783 Si02
#       8
#     2   2   2   2   2   2   2   2
#     4  11  24  36  52  76 113 158 202 237 268 318
#     4  11  22  35  54  83 123 160 193 232 276 340
#     4  10  22  35  61  86 113 140 186 228 303 336
#     4  12  21  38  55  79 110 152 198 241 277 327
#     4  11  24  37  52  81 117 159 199 225 274 331
#     4  10  22  39  61  90 117 137 180 236 305 360
#     4  11  21  34  52  76 110 153 205 236 278 314
#     4  10  22  35  59  82 118 148 188 234 289 339
#
# _framework density 19.305741000000001
#
# number of rings (size 3 to 8) (size 9 to 14) (size 15 to 20)
#    0.750    0.500    1.250    6.750    5.250    0.000 
#    0.000    0.000    0.000    0.000    0.000    5.250 
#    0.000    0.000    0.000    0.000    0.000    0.000 
#
# Total GULP energy -198338.870156 kJ/mol
# GULP energy per Si atom -12396.179385 kJ/mol
# Density = 1.926180 g / cm^3
# Si number density = 19.305741 Si / 1000 Ang^3
#
#
#
# Elastic Constant Matrix: (Units=GPa)
#
#
# Indices 1 2 3 4 5 6 
#
# 1 114.6435 17.0368 28.5768 7.0145 16.7844 -4.1217
# 2 17.0368 33.6140 31.0215 14.2594 6.8462 -5.7595
# 3 28.5768 31.0215 112.7924 13.0836 22.4912 -3.6916
# 4 7.0145 14.2594 13.0836 23.5091 4.9019 -1.9435
# 5 16.7844 6.8462 22.4912 4.9019 31.9784 -2.3998
# 6 -4.1217 -5.7595 -3.6916 -1.9435 -2.3998 20.2973
#
#
#
# Elastic Compliance Matrix: (Units=1/GPa)
#
#
# Indices 1 2 3 4 5 6 
#
# 1 0.010033 -0.003725 -0.000776 0.000562 -0.003977 0.000423
# 2 -0.003725 0.053761 -0.011183 -0.025023 0.002928 0.010415
# 3 -0.000776 -0.011183 0.013347 0.000878 -0.006843 -0.001628
# 4 0.000562 -0.025023 0.000878 0.057858 -0.004561 -0.001826
# 5 -0.003977 0.002928 -0.006843 -0.004561 0.038461 0.002889
# 6 0.000423 0.010415 -0.001628 -0.001826 0.002889 0.052179
#
#
# Mechanical properties :
#
#
# Convention : Reuss Voigt Hill
#
# Bulk Modulus (GPa) = 21.84620 46.03557 33.94089
# Shear Modulus (GPa) = 18.36458 27.45128 22.90793
#
# Velocity S-wave (km/s) = 3.08758 3.77493 3.44842
# Velocity P-wave (km/s) = 4.90422 6.54961 5.78571
#
# Compressibility (1/GPa) = 0.04577455
#
# Stress axis : x y z
#
# Youngs Moduli (GPa) = 99.67414 18.60095 74.92148
#
# Poissons Ratio (x) = 0.06929 0.05811
# Poissons Ratio (y) = 0.37128 0.83781
# Poissons Ratio (z) = 0.07731 0.20801
#
# Static dielectric constant tensor:
#      x y z
#    x 3.670680 -0.049290 0.200740 
#    y -0.049290 3.040290 0.027010 
#    z 0.200740 0.027010 3.759640 
# 
# 
# High freq. dielectric constant tensor:
#      x y z
#    x 1.769820 -0.001790 0.008970 
#    y -0.001790 1.694130 0.009410 
#    z 0.008970 0.009410 1.755260 
# 
# From -- ./inp_files/549808.got.cif
#   From: 2010.06.25/outbox.cif.g09.slc.cpg/sg2_275_cif.got.tgz:549808.got - 2010.06.27 13:26:56.
