data_PCOD8016804
_publ_section_title
;
Structure prediction by ZEFSAII (Michael W. Deem and Ramdas Pophale) SiO2 
 PCOD8016804
Probable space group: P -1
;
_chemical_formula_sum "Si O2"
_cell_formula_units_Z 16
_cell_length_a 11.535450
_cell_length_b 16.086243
_cell_length_c 12.856913
_cell_angle_alpha 66.332292
_cell_angle_beta 35.959941
_cell_angle_gamma 92.479665
_cell_volume 935.299525
_symmetry_space_group_name_H-M "P -1"
_symmetry_group_IT_number 2
_symmetry_cell_setting 'triclinic'
loop_
_space_group_symop_operation_xyz
x,y,z
-x,-y,-z
loop_
_atom_site_type_symbol
_atom_site_label
_atom_site_fract_x
_atom_site_fract_y
_atom_site_fract_z
Si Si1 0.327567 0.496475 0.212647
Si Si2 0.068495 0.650887 0.149508
Si Si3 0.113517 0.591561 0.575862
Si Si4 0.935187 0.123951 0.665177
Si Si5 0.760119 0.686697 0.471919
Si Si6 0.449495 0.241831 0.101072
Si Si7 0.466296 0.845915 0.115241
Si Si8 0.171013 0.561059 0.948530
O O1 0.297076 0.423969 0.370321
O O2 0.032804 0.419330 0.416662
O O3 0.500000 0.500000 0.000000
O O4 0.463846 0.635026 0.074529
O O5 0.138155 0.652295 0.976575
O O6 0.843787 0.503540 0.421787
O O7 0.945149 0.712452 0.226293
O O8 0.344618 0.722684 0.976152
O O9 0.385925 0.738115 0.306796
O O10 0.933666 0.546114 0.835624
O O11 0.787471 0.166185 0.706175
O O12 0.080757 0.191027 0.635062
O O13 0.151879 0.158001 0.407128
O O14 0.718999 0.976646 0.917978
O O15 0.483744 0.642621 0.652533
O O16 0.442539 0.162554 0.058729
O O17 0.000000 0.500000 0.000000
#
# Coordination Sequence:
#
# PCOD8016804 Si02
#       8
#     2   2   2   2   2   2   2   2
#     4  11  15  27  52  77  98 131 161 196 258 306
#     4   9  19  31  54  75  94 131 164 208 260 296
#     4   9  17  34  47  73 107 127 162 205 250 298
#     4  11  21  30  47  74 110 143 167 194 237 300
#     4  12  18  33  53  74 105 130 162 207 252 305
#     4  11  18  32  49  75 108 137 164 200 248 302
#     4  11  21  31  46  75 111 139 171 195 233 305
#     4  10  22  36  52  76  98 126 167 218 258 295
#
# _framework density 17.106819000000002
#
# number of rings (size 3 to 8) (size 9 to 14) (size 15 to 20)
#    0.750    0.750    6.250    1.125    0.000    2.500 
#    0.000    0.000    0.000    0.750    0.000    0.875 
#    0.000    0.000    0.000    0.000    0.000    0.000 
#
# Total GULP energy -198255.484085 kJ/mol
# GULP energy per Si atom -12390.967755 kJ/mol
# Density = 1.706788 g / cm^3
# Si number density = 17.106819 Si / 1000 Ang^3
#
#
#
# Elastic Constant Matrix: (Units=GPa)
#
#
# Indices 1 2 3 4 5 6 
#
# 1 44.6100 20.8242 19.8046 0.4864 -16.4708 16.6160
# 2 20.8242 93.6745 49.8847 10.9453 -9.8479 14.9883
# 3 19.8046 49.8847 94.8553 4.3346 -14.2642 3.7424
# 4 0.4864 10.9453 4.3346 38.9447 2.4052 5.0295
# 5 -16.4708 -9.8479 -14.2642 2.4052 18.4035 -5.2747
# 6 16.6160 14.9883 3.7424 5.0295 -5.2747 17.8973
#
#
#
# Elastic Compliance Matrix: (Units=1/GPa)
#
#
# Indices 1 2 3 4 5 6 
#
# 1 0.048827 0.000211 -0.004562 0.002757 0.029407 -0.036661
# 2 0.000211 0.017491 -0.008718 -0.002300 -0.000497 -0.012521
# 3 -0.004562 -0.008718 0.016844 -0.001193 0.007489 0.010557
# 4 0.002757 -0.002300 -0.001193 0.028118 -0.006267 -0.010132
# 5 0.029407 -0.000497 0.007489 -0.006267 0.086687 -0.001142
# 6 -0.036661 -0.012521 0.010557 -0.010132 -0.001142 0.100700
#
#
# Mechanical properties :
#
#
# Convention : Reuss Voigt Hill
#
# Bulk Modulus (GPa) = 17.53717 46.01852 31.77784
# Shear Modulus (GPa) = 14.54278 24.55754 19.55016
#
# Velocity S-wave (km/s) = 2.91884 3.79296 3.38424
# Velocity P-wave (km/s) = 4.65116 6.79273 5.82128
#
# Compressibility (1/GPa) = 0.05702174
#
# Stress axis : x y z
#
# Youngs Moduli (GPa) = 20.48060 57.17207 59.36811
#
# Poissons Ratio (x) = -0.01205 0.27087
# Poissons Ratio (y) = -0.00431 0.51758
# Poissons Ratio (z) = 0.09344 0.49844
#
# Static dielectric constant tensor:
#      x y z
#    x 2.474700 -0.020520 -0.295130 
#    y -0.020520 3.345200 0.011350 
#    z -0.295130 0.011350 3.036350 
# 
# 
# High freq. dielectric constant tensor:
#      x y z
#    x 1.599220 0.016280 -0.006920 
#    y 0.016280 1.670560 0.015150 
#    z -0.006920 0.015150 1.662460 
# 
# From -- ./inp_files/458178.got.cif
#   From: 2010.06.25/outbox.cif.g09.slc.cpg/sg2_230_cif.got.tgz:458178.got - 2010.06.27 13:26:56.
