data_PCOD8016143
_publ_section_title
;
Structure prediction by ZEFSAII (Michael W. Deem and Ramdas Pophale) SiO2 
 PCOD8016143
Probable space group: P -1
;
_chemical_formula_sum "Si O2"
_cell_formula_units_Z 12
_cell_length_a 7.562518
_cell_length_b 9.441668
_cell_length_c 15.525159
_cell_angle_alpha 132.045848
_cell_angle_beta 144.439065
_cell_angle_gamma 62.611113
_cell_volume 469.436029
_symmetry_space_group_name_H-M "P -1"
_symmetry_group_IT_number 2
_symmetry_cell_setting 'triclinic'
loop_
_space_group_symop_operation_xyz
x,y,z
-x,-y,-z
loop_
_atom_site_type_symbol
_atom_site_label
_atom_site_fract_x
_atom_site_fract_y
_atom_site_fract_z
Si Si1 0.883284 0.521051 0.601310
Si Si2 0.856397 0.923316 0.221600
Si Si3 0.299007 0.339728 0.579625
Si Si4 0.204854 0.856398 0.481954
Si Si5 0.234964 0.817529 0.189423
Si Si6 0.169675 0.825056 0.976925
O O1 0.634368 0.586830 0.463254
O O2 0.744576 0.313997 0.503963
O O3 0.183027 0.507630 0.657118
O O4 0.963855 0.673730 0.771539
O O5 0.016310 0.783397 0.290285
O O6 0.909910 0.852654 0.116169
O O7 0.497775 0.905795 0.094155
O O8 0.035933 0.144295 0.397736
O O9 0.616758 0.318700 0.742914
O O10 0.547182 0.969520 0.640982
O O11 0.000000 0.000000 0.500000
O O12 0.202743 0.726284 0.043430
O O13 0.000000 0.000000 0.000000
#
# Coordination Sequence:
#
# PCOD8016143 Si02
#       6
#     2   2   2   2   2   2
#     4  11  23  41  73 109 143 183 238 295 348 419
#     4  11  23  46  73 100 146 191 232 289 358 424
#     4  10  21  43  71 107 141 182 243 290 346 423
#     4  11  19  44  77 102 139 185 235 293 349 415
#     4  11  23  46  75 102 142 194 231 285 363 420
#     4  12  27  46  70 104 149 188 235 292 360 421
#
# _framework density 25.562588000000002
#
# number of rings (size 3 to 8) (size 9 to 14) (size 15 to 20)
#    0.000    1.000    5.000    3.000    0.000    5.333 
#    0.000   21.667    0.000    0.000    0.000    0.000 
#    0.000    0.000    0.000    0.000    0.000    0.000 
#
# Total GULP energy -148746.167889 kJ/mol
# GULP energy per Si atom -12395.513991 kJ/mol
# Density = 2.550441 g / cm^3
# Si number density = 25.562588 Si / 1000 Ang^3
#
#
#
# Elastic Constant Matrix: (Units=GPa)
#
#
# Indices 1 2 3 4 5 6 
#
# 1 193.2675 61.3048 57.6081 -14.1495 -18.7251 -15.1429
# 2 61.3048 136.4585 54.7665 -19.8451 -22.0648 30.8946
# 3 57.6081 54.7665 76.2581 -17.4388 -34.0012 -2.7385
# 4 -14.1495 -19.8451 -17.4388 31.5593 -4.0311 -11.4379
# 5 -18.7251 -22.0648 -34.0012 -4.0311 30.0909 -1.8761
# 6 -15.1429 30.8946 -2.7385 -11.4379 -1.8761 51.8528
#
#
#
# Elastic Compliance Matrix: (Units=1/GPa)
#
#
# Indices 1 2 3 4 5 6 
#
# 1 0.007432 -0.002624 -0.004592 0.000100 -0.002260 0.003432
# 2 -0.002624 0.014466 -0.012565 -0.003882 -0.006437 -0.011138
# 3 -0.004592 -0.012565 0.071485 0.047733 0.076546 0.023219
# 4 0.000100 -0.003882 0.047733 0.071944 0.062223 0.022984
# 5 -0.002260 -0.006437 0.076546 0.062223 0.123519 0.025412
# 6 0.003432 -0.011138 0.023219 0.022984 0.025412 0.034140
#
#
# Mechanical properties :
#
#
# Convention : Reuss Voigt Hill
#
# Bulk Modulus (GPa) = 18.57981 83.70479 51.14230
# Shear Modulus (GPa) = 13.14100 38.18757 25.66428
#
# Velocity S-wave (km/s) = 2.26977 3.86927 3.17200
# Velocity P-wave (km/s) = 3.76209 7.26484 5.78494
#
# Compressibility (1/GPa) = 0.05382187
#
# Stress axis : x y z
#
# Youngs Moduli (GPa) = 134.54450 69.12670 13.98892
#
# Poissons Ratio (x) = 0.18139 0.06424
# Poissons Ratio (y) = 0.35305 0.17577
# Poissons Ratio (z) = 0.61784 0.86857
#
# Static dielectric constant tensor:
#      x y z
#    x 5.275540 0.231630 -0.611720 
#    y 0.231630 4.881240 -0.299540 
#    z -0.611720 -0.299540 4.453670 
# 
# 
# High freq. dielectric constant tensor:
#      x y z
#    x 2.051600 -0.004540 -0.025840 
#    y -0.004540 2.023910 -0.016840 
#    z -0.025840 -0.016840 1.988280 
# 
# From -- ./inp_files/560081.got.cif
#   From: 2010.06.25/outbox.cif.g09.slc.cpg/sg2_281_cif.got.tgz:560081.got - 2010.06.27 13:26:56.
