data_PCOD8016754
_publ_section_title
;
Structure prediction by ZEFSAII (Michael W. Deem and Ramdas Pophale) SiO2 
 PCOD8016754
Probable space group: P -1
;
_chemical_formula_sum "Si O2"
_cell_formula_units_Z 16
_cell_length_a 19.094129
_cell_length_b 11.445865
_cell_length_c 13.560307
_cell_angle_alpha 21.080551
_cell_angle_beta 44.606687
_cell_angle_gamma 45.147693
_cell_volume 738.624603
_symmetry_space_group_name_H-M "P -1"
_symmetry_group_IT_number 2
_symmetry_cell_setting 'triclinic'
loop_
_space_group_symop_operation_xyz
x,y,z
-x,-y,-z
loop_
_atom_site_type_symbol
_atom_site_label
_atom_site_fract_x
_atom_site_fract_y
_atom_site_fract_z
Si Si1 0.192743 0.938593 0.626711
Si Si2 0.573472 0.235534 0.201619
Si Si3 0.928682 0.772072 0.297192
Si Si4 0.120079 0.506242 0.634964
Si Si5 0.993061 0.798768 0.845852
Si Si6 0.679591 0.567006 0.987988
Si Si7 0.468024 0.803236 0.972234
Si Si8 0.346601 0.310538 0.588195
O O1 0.153713 0.033268 0.701241
O O2 0.244975 0.222061 0.304566
O O3 0.271264 0.597836 0.830497
O O4 0.103803 0.885694 0.683751
O O5 0.500000 0.000000 0.500000
O O6 0.642580 0.050268 0.190832
O O7 0.658554 0.270571 0.171262
O O8 0.506317 0.623167 0.966314
O O9 0.871682 0.608728 0.396073
O O10 0.000000 0.500000 0.500000
O O11 0.000000 0.000000 0.000000
O O12 0.050816 0.294032 0.932403
O O13 0.230792 0.449250 0.618754
O O14 0.076119 0.892098 0.379388
O O15 0.000000 0.500000 0.000000
O O16 0.570316 0.794626 0.941106
O O17 0.413157 0.184128 0.718644
O O18 0.393037 0.588453 0.266445
#
# Coordination Sequence:
#
# PCOD8016754 Si02
#       8
#     2   2   2   2   2   2   2   2
#     4  12  22  40  61  92 122 171 209 255 322 376
#     4   8  18  32  51  81 134 168 205 228 297 365
#     4  12  22  39  60  89 138 165 201 255 322 405
#     4  12  24  42  66  97 123 175 212 258 340 378
#     4  12  27  48  68  90 124 163 228 288 318 375
#     4  10  22  33  58  85 127 168 210 241 300 376
#     4   9  20  33  50  85 127 169 203 242 292 366
#     4  11  19  34  56  83 126 168 205 250 295 375
#
# _framework density 21.661884000000001
#
# number of rings (size 3 to 8) (size 9 to 14) (size 15 to 20)
#    0.750    0.500    2.500    4.500    0.000    3.000 
#    0.000    0.000    0.000    0.000    0.000   17.500 
#    0.000    0.000    0.000    0.000    0.000    0.000 
#
# Total GULP energy -198271.349487 kJ/mol
# GULP energy per Si atom -12391.959343 kJ/mol
# Density = 2.161258 g / cm^3
# Si number density = 21.661884 Si / 1000 Ang^3
#
#
#
# Elastic Constant Matrix: (Units=GPa)
#
#
# Indices 1 2 3 4 5 6 
#
# 1 102.3959 52.9643 48.0810 -10.6913 8.7384 -37.8722
# 2 52.9643 44.9164 30.1992 -4.0298 -5.9581 -24.0231
# 3 48.0810 30.1992 128.8672 9.1143 10.4170 -21.2466
# 4 -10.6913 -4.0298 9.1143 31.2793 -11.8925 6.5354
# 5 8.7384 -5.9581 10.4170 -11.8925 45.3550 -7.4132
# 6 -37.8722 -24.0231 -21.2466 6.5354 -7.4132 35.2638
#
#
#
# Elastic Compliance Matrix: (Units=1/GPa)
#
#
# Indices 1 2 3 4 5 6 
#
# 1 0.031223 -0.031228 -0.002494 0.002744 -0.007405 0.008690
# 2 -0.031228 0.075751 -0.005110 0.004844 0.021452 0.018599
# 3 -0.002494 -0.005110 0.010788 -0.006400 -0.004243 0.000634
# 4 0.002744 0.004844 -0.006400 0.040412 0.011744 -0.002629
# 5 -0.007405 0.021452 -0.004243 0.011744 0.031753 0.008603
# 6 0.008690 0.018599 0.000634 -0.002629 0.008603 0.053039
#
#
# Mechanical properties :
#
#
# Convention : Reuss Voigt Hill
#
# Bulk Modulus (GPa) = 24.94000 59.85207 42.39604
# Shear Modulus (GPa) = 14.97023 32.04195 23.50609
#
# Velocity S-wave (km/s) = 2.63170 3.85019 3.29771
# Velocity P-wave (km/s) = 4.55772 6.88879 5.84073
#
# Compressibility (1/GPa) = 0.04009623
#
# Stress axis : x y z
#
# Youngs Moduli (GPa) = 32.02808 13.20116 92.69345
#
# Poissons Ratio (x) = 0.41225 0.23116
# Poissons Ratio (y) = 1.00019 0.47371
# Poissons Ratio (z) = 0.07987 0.06746
#
# Static dielectric constant tensor:
#      x y z
#    x 4.010240 -0.295850 0.217000 
#    y -0.295850 3.718120 0.002470 
#    z 0.217000 0.002470 3.984130 
# 
# 
# High freq. dielectric constant tensor:
#      x y z
#    x 1.855570 -0.036770 0.019870 
#    y -0.036770 1.820890 0.005970 
#    z 0.019870 0.005970 1.860800 
# 
# From -- ./inp_files/538129.got.cif
#   From: 2010.06.25/outbox.cif.g09.slc.cpg/sg2_270_cif.got.tgz:538129.got - 2010.06.27 13:26:56.
