data_PCOD8016434
_publ_section_title
;
Structure prediction by ZEFSAII (Michael W. Deem and Ramdas Pophale) SiO2 
 PCOD8016434
Probable space group: P -1
;
_chemical_formula_sum "Si O2"
_cell_formula_units_Z 14
_cell_length_a 21.621418
_cell_length_b 8.218237
_cell_length_c 13.095801
_cell_angle_alpha 68.308573
_cell_angle_beta 150.785782
_cell_angle_gamma 132.755836
_cell_volume 652.964525
_symmetry_space_group_name_H-M "P -1"
_symmetry_group_IT_number 2
_symmetry_cell_setting 'triclinic'
loop_
_space_group_symop_operation_xyz
x,y,z
-x,-y,-z
loop_
_atom_site_type_symbol
_atom_site_label
_atom_site_fract_x
_atom_site_fract_y
_atom_site_fract_z
Si Si1 0.975468 0.968626 0.590969
Si Si2 0.694421 0.969619 0.425267
Si Si3 0.907469 0.770361 0.999556
Si Si4 0.629257 0.613728 0.805261
Si Si5 0.605823 0.280897 0.540582
Si Si6 0.314353 0.655301 0.598882
Si Si7 0.385261 0.199424 0.870950
O O1 0.852437 0.666511 0.527573
O O2 0.855982 0.021067 0.427559
O O3 0.000000 0.000000 0.500000
O O4 0.201546 0.220449 0.902240
O O5 0.552565 0.722817 0.362333
O O6 0.568753 0.821269 0.172131
O O7 0.749714 0.224341 0.481425
O O8 0.912621 0.106799 0.697081
O O9 0.732923 0.683574 0.830611
O O10 0.808239 0.511146 0.848181
O O11 0.000000 0.000000 0.000000
O O12 0.540467 0.711737 0.657293
O O13 0.669887 0.330812 0.503479
O O14 0.500000 0.000000 0.500000
O O15 0.539563 0.862576 0.924311
O O16 0.500000 0.500000 0.000000
#
# Coordination Sequence:
#
# PCOD8016434 Si02
#       7
#     2   2   2   2   2   2   2
#     4  11  22  42  71 103 135 183 229 286 351 419
#     4  12  25  46  72 104 140 184 229 292 351 413
#     4  12  26  45  70 100 142 188 236 282 347 415
#     4  12  24  46  69 100 139 183 238 283 348 413
#     4  12  27  45  71 104 140 187 236 287 345 416
#     4  11  25  45  70 103 143 180 231 294 349 411
#     4  10  21  44  70  98 137 176 229 281 348 413
#
# _framework density 21.440676
#
# number of rings (size 3 to 8) (size 9 to 14) (size 15 to 20)
#    0.000    0.571    2.857    6.857    4.000    0.571 
#    2.571    1.429    0.000    0.000    0.000    0.000 
#    0.000    0.000    0.000    0.000    0.000    0.000 
#
# Total GULP energy -173542.899292 kJ/mol
# GULP energy per Si atom -12395.921378 kJ/mol
# Density = 2.139188 g / cm^3
# Si number density = 21.440676 Si / 1000 Ang^3
#
#
#
# Elastic Constant Matrix: (Units=GPa)
#
#
# Indices 1 2 3 4 5 6 
#
# 1 139.8631 31.3593 15.0949 2.0987 -16.4118 16.1337
# 2 31.3593 94.4059 11.0668 10.1747 -0.4445 12.3687
# 3 15.0949 11.0668 103.3609 4.7195 -10.2802 -1.2825
# 4 2.0987 10.1747 4.7195 30.5131 -0.4549 0.5361
# 5 -16.4118 -0.4445 -10.2802 -0.4549 46.9556 -6.2885
# 6 16.1337 12.3687 -1.2825 0.5361 -6.2885 39.4945
#
#
#
# Elastic Compliance Matrix: (Units=1/GPa)
#
#
# Indices 1 2 3 4 5 6 
#
# 1 0.008313 -0.002406 -0.000764 0.000425 0.002413 -0.002289
# 2 -0.002406 0.012306 -0.000971 -0.003755 -0.001385 -0.003072
# 3 -0.000764 -0.000971 0.010171 -0.001188 0.002113 0.001299
# 4 0.000425 -0.003755 -0.001188 0.034174 0.000256 0.000541
# 5 0.002413 -0.001385 0.002113 0.000256 0.023018 0.003178
# 6 -0.002289 -0.003072 0.001299 0.000541 0.003178 0.027758
#
#
# Mechanical properties :
#
#
# Convention : Reuss Voigt Hill
#
# Bulk Modulus (GPa) = 44.42933 50.29688 47.36310
# Shear Modulus (GPa) = 38.01598 42.06656 40.04127
#
# Velocity S-wave (km/s) = 4.21536 4.43425 4.32619
# Velocity P-wave (km/s) = 6.66778 7.05169 6.86242
#
# Compressibility (1/GPa) = 0.02250765
#
# Stress axis : x y z
#
# Youngs Moduli (GPa) = 120.29939 81.25936 98.31992
#
# Poissons Ratio (x) = 0.19553 0.07513
# Poissons Ratio (y) = 0.28947 0.09543
# Poissons Ratio (z) = 0.09193 0.07887
#
# Static dielectric constant tensor:
#      x y z
#    x 4.064690 0.034460 0.038440 
#    y 0.034460 3.806020 -0.148340 
#    z 0.038440 -0.148340 4.563350 
# 
# 
# High freq. dielectric constant tensor:
#      x y z
#    x 1.857360 0.004760 -0.009600 
#    y 0.004760 1.829240 -0.004970 
#    z -0.009600 -0.004970 1.863780 
# 
# From -- ./inp_files/289238.got.cif
#   From: 2010.06.25/outbox.cif.g09.slc.cpg/sg2_145_cif.got.tgz:289238.got - 2010.06.27 13:26:56.
