data_PCOD8016253
_publ_section_title
;
Structure prediction by ZEFSAII (Michael W. Deem and Ramdas Pophale) SiO2 
 PCOD8016253
Probable space group: P -1
;
_chemical_formula_sum "Si O2"
_cell_formula_units_Z 14
_cell_length_a 17.813701
_cell_length_b 25.605392
_cell_length_c 14.022728
_cell_angle_alpha 23.816882
_cell_angle_beta 22.818282
_cell_angle_gamma 13.327315
_cell_volume 560.174053
_symmetry_space_group_name_H-M "P -1"
_symmetry_group_IT_number 2
_symmetry_cell_setting 'triclinic'
loop_
_space_group_symop_operation_xyz
x,y,z
-x,-y,-z
loop_
_atom_site_type_symbol
_atom_site_label
_atom_site_fract_x
_atom_site_fract_y
_atom_site_fract_z
Si Si1 0.335826 0.393437 0.874665
Si Si2 0.472741 0.668006 0.555363
Si Si3 0.568886 0.084165 0.514452
Si Si4 0.452953 0.165195 0.954429
Si Si5 0.826974 0.791749 0.399181
Si Si6 0.333341 0.619537 0.351684
Si Si7 0.760297 0.239121 0.130749
O O1 0.397361 0.481148 0.589329
O O2 0.503573 0.334015 0.880714
O O3 0.939076 0.574849 0.046563
O O4 0.539560 0.165275 0.961470
O O5 0.476239 0.535714 0.707566
O O6 0.175201 0.822906 0.727313
O O7 0.859839 0.458684 0.497795
O O8 0.357191 0.861630 0.308228
O O9 0.268292 0.245749 0.517813
O O10 0.585640 0.211671 0.333410
O O11 0.502043 0.014663 0.793918
O O12 0.922941 0.861305 0.413757
O O13 0.500000 0.000000 0.500000
O O14 0.919717 0.885693 0.096929
O O15 0.500000 0.500000 0.000000
#
# Coordination Sequence:
#
# PCOD8016253 Si02
#       7
#     2   2   2   2   2   2   2
#     4   8  16  31  58  96 137 164 210 266 328 376
#     4  10  21  44  64  97 138 173 217 266 336 385
#     4  11  23  41  69 100 129 171 226 270 328 383
#     4   9  19  36  65  98 134 172 214 274 323 392
#     4  11  24  45  71  98 127 176 224 277 314 393
#     4   9  17  34  63  97 126 172 217 268 317 385
#     4  10  26  47  63  92 142 174 215 272 332 397
#
# _framework density 24.992231
#
# number of rings (size 3 to 8) (size 9 to 14) (size 15 to 20)
#    0.000    2.286    1.429    0.857    2.000    3.429 
#    7.714    0.714    0.000    0.000    0.000    0.000 
#    0.000    0.000    0.000    0.000    0.000    0.000 
#
# Total GULP energy -173443.347226 kJ/mol
# GULP energy per Si atom -12388.810516 kJ/mol
# Density = 2.493535 g / cm^3
# Si number density = 24.992231 Si / 1000 Ang^3
#
#
#
# Elastic Constant Matrix: (Units=GPa)
#
#
# Indices 1 2 3 4 5 6 
#
# 1 166.9418 10.2712 72.8305 -3.1941 -13.8732 13.2624
# 2 10.2712 43.4070 27.3710 -2.5489 7.5817 17.9342
# 3 72.8305 27.3710 140.5795 -2.0819 -2.4798 26.6989
# 4 -3.1941 -2.5489 -2.0819 38.0003 10.2449 7.2574
# 5 -13.8732 7.5817 -2.4798 10.2449 40.5467 -6.6190
# 6 13.2624 17.9342 26.6989 7.2574 -6.6190 32.4704
#
#
#
# Elastic Compliance Matrix: (Units=1/GPa)
#
#
# Indices 1 2 3 4 5 6 
#
# 1 0.008004 -0.000134 -0.004269 -0.000515 0.002796 0.001000
# 2 -0.000134 0.037630 -0.002874 0.010561 -0.013768 -0.023533
# 3 -0.004269 -0.002874 0.011130 0.001792 -0.001770 -0.006582
# 4 -0.000515 0.010561 0.001792 0.034051 -0.013495 -0.017459
# 5 0.002796 -0.013768 -0.001770 -0.013495 0.034426 0.017951
# 6 0.001000 -0.023533 -0.006582 -0.017459 0.017951 0.056360
#
#
# Mechanical properties :
#
#
# Convention : Reuss Voigt Hill
#
# Bulk Modulus (GPa) = 23.69120 63.54151 43.61635
# Shear Modulus (GPa) = 23.78419 38.23387 31.00903
#
# Velocity S-wave (km/s) = 3.08825 3.91555 3.52624
# Velocity P-wave (km/s) = 4.71343 6.77656 5.83687
#
# Compressibility (1/GPa) = 0.04220976
#
# Stress axis : x y z
#
# Youngs Moduli (GPa) = 124.94340 26.57480 89.84867
#
# Poissons Ratio (x) = 0.00355 0.38353
# Poissons Ratio (y) = 0.01671 0.25825
# Poissons Ratio (z) = 0.53333 0.07638
#
# Static dielectric constant tensor:
#      x y z
#    x 5.003620 0.131360 0.002660 
#    y 0.131360 4.540870 0.532040 
#    z 0.002660 0.532040 5.449380 
# 
# 
# High freq. dielectric constant tensor:
#      x y z
#    x 2.003460 -0.012770 -0.000420 
#    y -0.012770 1.983870 0.001170 
#    z -0.000420 0.001170 1.992130 
# 
# From -- ./inp_files/457597.got.cif
#   From: 2010.06.25/outbox.cif.g09.slc.cpg/sg2_229_cif.got.tgz:457597.got - 2010.06.27 13:26:56.
