data_PCOD8016620
_publ_section_title
;
Structure prediction by ZEFSAII (Michael W. Deem and Ramdas Pophale) SiO2 
 PCOD8016620
Probable space group: P -1
;
_chemical_formula_sum "Si O2"
_cell_formula_units_Z 16
_cell_length_a 14.621391
_cell_length_b 17.007404
_cell_length_c 11.144841
_cell_angle_alpha 31.588571
_cell_angle_beta 132.228653
_cell_angle_gamma 151.563387
_cell_volume 657.554975
_symmetry_space_group_name_H-M "P -1"
_symmetry_group_IT_number 2
_symmetry_cell_setting 'triclinic'
loop_
_space_group_symop_operation_xyz
x,y,z
-x,-y,-z
loop_
_atom_site_type_symbol
_atom_site_label
_atom_site_fract_x
_atom_site_fract_y
_atom_site_fract_z
Si Si1 0.040818 0.552846 0.106394
Si Si2 0.889560 0.930955 0.206934
Si Si3 0.166131 0.934124 0.397788
Si Si4 0.069561 0.403056 0.833978
Si Si5 0.686660 0.196763 0.654106
Si Si6 0.765221 0.755814 0.575651
Si Si7 0.433790 0.209387 0.049248
Si Si8 0.364537 0.069803 0.653131
O O1 0.001986 0.357383 0.392506
O O2 0.898547 0.536717 0.073256
O O3 0.000000 0.500000 0.000000
O O4 0.263508 0.837481 0.942537
O O5 0.762690 0.729321 0.463951
O O6 0.043809 0.969508 0.225429
O O7 0.733835 0.845241 0.086133
O O8 0.034292 0.195144 0.049886
O O9 0.351736 0.097662 0.256001
O O10 0.250284 0.000614 0.519371
O O11 0.262503 0.650731 0.613384
O O12 0.877630 0.315715 0.736028
O O13 0.583352 0.213658 0.632360
O O14 0.544504 0.924171 0.834336
O O15 0.635724 0.780316 0.461903
O O16 0.649797 0.502906 0.863487
O O17 0.000000 0.000000 0.500000
#
# Coordination Sequence:
#
# PCOD8016620 Si02
#       8
#     2   2   2   2   2   2   2   2
#     4  10  22  42  66  97 137 173 229 280 344 403
#     4  11  24  45  72 101 142 182 227 284 346 414
#     4  11  24  44  69 103 136 182 228 286 347 406
#     4  10  21  45  70  96 140 180 227 289 346 404
#     4  10  24  43  69 102 135 179 234 287 342 408
#     4  12  26  46  68 100 142 183 229 284 346 408
#     4  11  26  45  70 104 137 182 233 284 345 409
#     4  11  25  43  66 100 132 186 231 282 346 409
#
# _framework density 24.332564999999999
#
# number of rings (size 3 to 8) (size 9 to 14) (size 15 to 20)
#    0.000    1.250    3.750    0.750    3.500    4.500 
#    0.000    0.000    0.000    0.000    0.000    0.000 
#    0.000    0.000    0.000    0.000    0.000    0.000 
#
# Total GULP energy -198305.786477 kJ/mol
# GULP energy per Si atom -12394.111655 kJ/mol
# Density = 2.427718 g / cm^3
# Si number density = 24.332565 Si / 1000 Ang^3
#
#
#
# Elastic Constant Matrix: (Units=GPa)
#
#
# Indices 1 2 3 4 5 6 
#
# 1 132.5185 8.4104 45.4934 -13.2884 11.6675 9.0218
# 2 8.4104 42.8152 22.9248 -10.9349 7.5333 0.6256
# 3 45.4934 22.9248 148.5465 -33.5939 -13.5747 3.5992
# 4 -13.2884 -10.9349 -33.5939 30.4431 -5.8746 0.4396
# 5 11.6675 7.5333 -13.5747 -5.8746 42.9802 5.8677
# 6 9.0218 0.6256 3.5992 0.4396 5.8677 35.4660
#
#
#
# Elastic Compliance Matrix: (Units=1/GPa)
#
#
# Indices 1 2 3 4 5 6 
#
# 1 0.008963 0.000504 -0.003065 0.000098 -0.003280 -0.001436
# 2 0.000504 0.027514 -0.003853 0.004758 -0.005614 0.000647
# 3 -0.003065 -0.003853 0.011494 0.011317 0.006903 -0.001601
# 4 0.000098 0.004758 0.011317 0.049049 0.009896 -0.003503
# 5 -0.003280 -0.005614 0.006903 0.009896 0.029321 -0.004741
# 6 -0.001436 0.000647 -0.001601 -0.003503 -0.004741 0.029540
#
#
# Mechanical properties :
#
#
# Convention : Reuss Voigt Hill
#
# Bulk Modulus (GPa) = 28.45610 53.05971 40.75790
# Shear Modulus (GPa) = 27.71239 38.24797 32.98018
#
# Velocity S-wave (km/s) = 3.37842 3.96900 3.68556
# Velocity P-wave (km/s) = 5.19022 6.54655 5.90744
#
# Compressibility (1/GPa) = 0.03514185
#
# Stress axis : x y z
#
# Youngs Moduli (GPa) = 111.57069 36.34533 86.99891
#
# Poissons Ratio (x) = -0.01832 0.26669
# Poissons Ratio (y) = -0.05623 0.33522
# Poissons Ratio (z) = 0.34201 0.14005
#
# Static dielectric constant tensor:
#      x y z
#    x 4.615370 -0.173340 -0.094250 
#    y -0.173340 4.008450 -0.102480 
#    z -0.094250 -0.102480 4.852300 
# 
# 
# High freq. dielectric constant tensor:
#      x y z
#    x 1.980850 -0.006420 -0.004710 
#    y -0.006420 1.942740 0.001080 
#    z -0.004710 0.001080 1.983250 
# 
# From -- ./inp_files/209486.got.cif
#   From: 2010.06.25/outbox.cif.g09.slc.cpg/sg2_105_cif.got.tgz:209486.got - 2010.06.27 13:26:56.
