data_PCOD8016368
_publ_section_title
;
Structure prediction by ZEFSAII (Michael W. Deem and Ramdas Pophale) SiO2 
 PCOD8016368
Probable space group: P -1
;
_chemical_formula_sum "Si O2"
_cell_formula_units_Z 16
_cell_length_a 8.325187
_cell_length_b 8.368607
_cell_length_c 17.088479
_cell_angle_alpha 102.108823
_cell_angle_beta 129.344012
_cell_angle_gamma 51.171067
_cell_volume 681.550161
_symmetry_space_group_name_H-M "P -1"
_symmetry_group_IT_number 2
_symmetry_cell_setting 'triclinic'
loop_
_space_group_symop_operation_xyz
x,y,z
-x,-y,-z
loop_
_atom_site_type_symbol
_atom_site_label
_atom_site_fract_x
_atom_site_fract_y
_atom_site_fract_z
Si Si1 0.936915 0.903265 0.037703
Si Si2 0.378793 0.996714 0.542517
Si Si3 0.165577 0.373976 0.614963
Si Si4 0.287838 0.740193 0.884544
Si Si5 0.285957 0.494889 0.393027
Si Si6 0.190534 0.728142 0.683433
Si Si7 0.229569 0.555657 0.211591
Si Si8 0.091848 0.597726 0.933976
O O1 0.181469 0.732933 0.156593
O O2 0.705215 0.096933 0.043479
O O3 0.875029 0.775451 0.951669
O O4 0.000000 0.000000 0.000000
O O5 0.393252 0.125824 0.629825
O O6 0.064162 0.105643 0.436351
O O7 0.500000 0.000000 0.500000
O O8 0.568201 0.752702 0.605369
O O9 0.269907 0.493731 0.692460
O O10 0.000000 0.500000 0.500000
O O11 0.981608 0.382624 0.624188
O O12 0.136960 0.832208 0.763605
O O13 0.110059 0.692477 0.869383
O O14 0.606455 0.536926 0.947444
O O15 0.500000 0.500000 0.500000
O O16 0.193936 0.628386 0.297960
O O17 0.461774 0.673465 0.725947
O O18 0.995770 0.540509 0.123596
#
# Coordination Sequence:
#
# PCOD8016368 Si02
#       8
#     2   2   2   2   2   2   2   2
#     4  10  23  45  70  98 133 185 230 283 351 424
#     4  11  24  45  74  95 139 192 236 283 338 422
#     4  10  21  44  68  97 133 185 235 281 342 413
#     4  10  22  42  73  99 132 184 231 278 354 429
#     4  12  26  45  69 106 145 180 232 302 346 403
#     4  11  23  41  72 101 135 187 239 279 350 419
#     4  12  26  44  70 103 146 182 228 300 354 401
#     4  10  22  46  67  98 144 172 226 299 348 407
#
# _framework density 23.475895000000001
#
# number of rings (size 3 to 8) (size 9 to 14) (size 15 to 20)
#    0.000    1.250    3.750    2.625    1.750    2.500 
#    2.250    0.000    0.000    0.000    0.000    0.000 
#    0.000    0.000    0.000    0.000    0.000    0.000 
#
# Total GULP energy -198214.890912 kJ/mol
# GULP energy per Si atom -12388.430682 kJ/mol
# Density = 2.342246 g / cm^3
# Si number density = 23.475895 Si / 1000 Ang^3
#
#
#
# Elastic Constant Matrix: (Units=GPa)
#
#
# Indices 1 2 3 4 5 6 
#
# 1 103.8635 25.7434 41.4450 1.4752 -15.8252 -13.8226
# 2 25.7434 102.9408 16.1132 21.6334 -11.3060 -12.4696
# 3 41.4450 16.1132 92.7637 16.0323 -23.2783 2.9436
# 4 1.4752 21.6334 16.0323 41.2722 -2.2074 -8.4527
# 5 -15.8252 -11.3060 -23.2783 -2.2074 44.2435 3.3560
# 6 -13.8226 -12.4696 2.9436 -8.4527 3.3560 29.8028
#
#
#
# Elastic Compliance Matrix: (Units=1/GPa)
#
#
# Indices 1 2 3 4 5 6 
#
# 1 0.013951 -0.002527 -0.006781 0.005011 0.000461 0.007452
# 2 -0.002527 0.011948 0.000506 -0.005877 0.001979 0.001887
# 3 -0.006781 0.000506 0.017037 -0.007833 0.006854 -0.007609
# 4 0.005011 -0.005877 -0.007833 0.032076 -0.002994 0.010074
# 5 0.000461 0.001979 0.006854 -0.002994 0.026997 -0.003524
# 6 0.007452 0.001887 -0.007609 0.010074 -0.003524 0.041806
#
#
# Mechanical properties :
#
#
# Convention : Reuss Voigt Hill
#
# Bulk Modulus (GPa) = 39.47530 51.79680 45.63605
# Shear Modulus (GPa) = 29.43551 37.48145 33.45848
#
# Velocity S-wave (km/s) = 3.54483 4.00007 3.77931
# Velocity P-wave (km/s) = 5.79708 6.59135 6.20693
#
# Compressibility (1/GPa) = 0.02533229
#
# Stress axis : x y z
#
# Youngs Moduli (GPa) = 71.67917 83.69529 58.69607
#
# Poissons Ratio (x) = 0.21151 0.39801
# Poissons Ratio (y) = 0.18115 -0.02971
# Poissons Ratio (z) = 0.48604 -0.04236
#
# Static dielectric constant tensor:
#      x y z
#    x 4.288630 -0.012650 -0.275320 
#    y -0.012650 6.147850 0.184460 
#    z -0.275320 0.184460 4.253850 
# 
# 
# High freq. dielectric constant tensor:
#      x y z
#    x 1.926840 -0.009730 -0.021960 
#    y -0.009730 1.926130 0.016810 
#    z -0.021960 0.016810 1.923280 
# 
# From -- ./inp_files/557392.got.cif
#   From: 2010.06.25/outbox.cif.g09.slc.cpg/sg2_279_cif.got.tgz:557392.got - 2010.06.27 13:26:56.
