data_PCOD8016255
_publ_section_title
;
Structure prediction by ZEFSAII (Michael W. Deem and Ramdas Pophale) SiO2 
 PCOD8016255
Probable space group: P -1
;
_chemical_formula_sum "Si O2"
_cell_formula_units_Z 16
_cell_length_a 15.252027
_cell_length_b 6.482445
_cell_length_c 16.570130
_cell_angle_alpha 112.445564
_cell_angle_beta 30.815809
_cell_angle_gamma 121.933772
_cell_volume 702.289905
_symmetry_space_group_name_H-M "P -1"
_symmetry_group_IT_number 2
_symmetry_cell_setting 'triclinic'
loop_
_space_group_symop_operation_xyz
x,y,z
-x,-y,-z
loop_
_atom_site_type_symbol
_atom_site_label
_atom_site_fract_x
_atom_site_fract_y
_atom_site_fract_z
Si Si1 0.158042 0.270275 0.430291
Si Si2 0.539441 0.518856 0.238464
Si Si3 0.153153 0.350570 0.105887
Si Si4 0.826504 0.872079 0.320623
Si Si5 0.500650 0.018733 0.597168
Si Si6 0.937598 0.222638 0.743264
Si Si7 0.782938 0.445366 0.174506
Si Si8 0.285424 0.332298 0.168472
O O1 0.351216 0.284144 0.322000
O O2 0.220217 0.415626 0.316851
O O3 0.049012 0.366435 0.595571
O O4 0.000000 0.000000 0.500000
O O5 0.673199 0.443952 0.178501
O O6 0.466022 0.707202 0.364269
O O7 0.661310 0.648851 0.082111
O O8 0.132065 0.593968 0.128983
O O9 0.163110 0.360881 0.196568
O O10 0.975492 0.099200 0.184154
O O11 0.661030 0.942205 0.493246
O O12 0.749994 0.635754 0.288079
O O13 0.913608 0.818688 0.324049
O O14 0.302536 0.825847 0.760449
O O15 0.500000 0.000000 0.500000
O O16 0.758234 0.958279 0.829593
O O17 0.000000 0.500000 0.000000
O O18 0.500000 0.500000 0.000000
#
# Coordination Sequence:
#
# PCOD8016255 Si02
#       8
#     2   2   2   2   2   2   2   2
#     4  10  22  44  71  99 141 181 233 292 345 415
#     4  12  25  44  71 103 143 185 240 285 353 421
#     4  11  24  42  72 103 138 187 230 293 353 420
#     4  11  24  43  69  99 143 178 238 286 345 418
#     4  12  27  44  71 100 138 190 233 291 350 410
#     4  10  23  41  70 100 137 183 231 289 350 416
#     4  12  27  44  69 104 142 186 234 287 347 420
#     4  10  21  44  64  99 140 178 231 288 349 416
#
# _framework density 22.782613999999999
#
# number of rings (size 3 to 8) (size 9 to 14) (size 15 to 20)
#    0.000    1.000    2.500    3.375    5.250    3.000 
#    0.000    2.500    0.000    0.000    0.000    0.000 
#    0.000    0.000    0.000    0.000    0.000    0.000 
#
# Total GULP energy -198303.553558 kJ/mol
# GULP energy per Si atom -12393.972097 kJ/mol
# Density = 2.273076 g / cm^3
# Si number density = 22.782614 Si / 1000 Ang^3
#
#
#
# Elastic Constant Matrix: (Units=GPa)
#
#
# Indices 1 2 3 4 5 6 
#
# 1 122.2411 37.7136 49.1606 -3.7542 -0.8173 4.2599
# 2 37.7136 83.4304 34.5700 -4.9590 -3.3823 -1.7271
# 3 49.1606 34.5700 137.0680 -15.9204 3.7582 2.8453
# 4 -3.7542 -4.9590 -15.9204 47.5714 1.2507 -5.2194
# 5 -0.8173 -3.3823 3.7582 1.2507 43.9909 -4.0763
# 6 4.2599 -1.7271 2.8453 -5.2194 -4.0763 27.4538
#
#
#
# Elastic Compliance Matrix: (Units=1/GPa)
#
#
# Indices 1 2 3 4 5 6 
#
# 1 0.010502 -0.003621 -0.002901 -0.000705 0.000028 -0.001687
# 2 -0.003621 0.014772 -0.002437 0.000628 0.001451 0.002079
# 3 -0.002901 -0.002437 0.009293 0.002620 -0.001141 -0.000338
# 4 -0.000705 0.000628 0.002620 0.022365 -0.000448 0.004063
# 5 0.000028 0.001451 -0.001141 -0.000448 0.023286 0.003577
# 6 -0.001687 0.002079 -0.000338 0.004063 0.003577 0.038156
#
#
# Mechanical properties :
#
#
# Convention : Reuss Voigt Hill
#
# Bulk Modulus (GPa) = 60.06238 65.06977 62.56607
# Shear Modulus (GPa) = 35.25081 38.55624 36.90353
#
# Velocity S-wave (km/s) = 3.93780 4.11829 4.02905
# Velocity P-wave (km/s) = 6.86262 7.15799 7.01186
#
# Compressibility (1/GPa) = 0.01664936
#
# Stress axis : x y z
#
# Youngs Moduli (GPa) = 95.22368 67.69690 107.60387
#
# Poissons Ratio (x) = 0.24511 0.31216
# Poissons Ratio (y) = 0.34478 0.26222
# Poissons Ratio (z) = 0.27624 0.16497
#
# Static dielectric constant tensor:
#      x y z
#    x 4.394800 0.168940 0.123340 
#    y 0.168940 4.062660 -0.116870 
#    z 0.123340 -0.116870 4.555840 
# 
# 
# High freq. dielectric constant tensor:
#      x y z
#    x 1.908110 0.011480 0.005170 
#    y 0.011480 1.881670 -0.015460 
#    z 0.005170 -0.015460 1.915130 
# 
# From -- ./inp_files/402936.got.cif
#   From: 2010.06.25/outbox.cif.g09.slc.cpg/sg2_202_cif.got.tgz:402936.got - 2010.06.27 13:26:56.
