data_PCOD8016223
_publ_section_title
;
Structure prediction by ZEFSAII (Michael W. Deem and Ramdas Pophale) SiO2 
 PCOD8016223
Probable space group: P -1
;
_chemical_formula_sum "Si O2"
_cell_formula_units_Z 16
_cell_length_a 5.333793
_cell_length_b 7.055552
_cell_length_c 22.642823
_cell_angle_alpha 98.486540
_cell_angle_beta 123.950779
_cell_angle_gamma 90.568042
_cell_volume 694.662714
_symmetry_space_group_name_H-M "P -1"
_symmetry_group_IT_number 2
_symmetry_cell_setting 'triclinic'
loop_
_space_group_symop_operation_xyz
x,y,z
-x,-y,-z
loop_
_atom_site_type_symbol
_atom_site_label
_atom_site_fract_x
_atom_site_fract_y
_atom_site_fract_z
Si Si1 0.327076 0.671375 0.077765
Si Si2 0.307468 0.479717 0.308536
Si Si3 0.918613 0.369686 0.073910
Si Si4 0.965174 0.711279 0.187713
Si Si5 0.194307 0.013363 0.141727
Si Si6 0.263128 0.762894 0.720429
Si Si7 0.052002 0.018628 0.409679
Si Si8 0.397650 0.200128 0.567102
O O1 0.194610 0.456243 0.071079
O O2 0.621031 0.738425 0.160865
O O3 0.131998 0.848121 0.075963
O O4 0.366976 0.672635 0.011419
O O5 0.171390 0.656316 0.265817
O O6 0.528678 0.387465 0.288143
O O7 0.496101 0.575850 0.393525
O O8 0.034145 0.332054 0.289349
O O9 0.879899 0.532437 0.123615
O O10 0.974796 0.174982 0.105639
O O11 0.115454 0.910921 0.189506
O O12 0.538574 0.116355 0.198207
O O13 0.159609 0.896390 0.661683
O O14 0.220825 0.188237 0.480886
O O15 0.305857 0.913605 0.404083
O O16 0.832102 0.875998 0.414676
#
# Coordination Sequence:
#
# PCOD8016223 Si02
#       8
#     2   2   2   2   2   2   2   2
#     4  10  23  38  67  88 124 173 208 280 331 394
#     4  12  26  42  66  95 135 174 219 277 324 386
#     4  10  21  44  59  93 127 159 223 270 334 397
#     4  11  24  39  63  91 126 172 216 273 333 388
#     4  11  24  39  63  92 128 170 220 270 329 395
#     4  12  26  42  66  96 134 175 220 276 321 392
#     4  10  22  42  68  98 132 173 221 269 326 389
#     4  10  22  42  68  97 134 173 218 273 323 390
#
# _framework density 23.032762000000002
#
# number of rings (size 3 to 8) (size 9 to 14) (size 15 to 20)
#    0.000    1.250    1.250    3.750    5.250    2.500 
#    0.000    0.000    0.000    0.000    0.000    0.000 
#    0.000    0.000    0.000    0.000    0.000    0.000 
#
# Total GULP energy -198289.964544 kJ/mol
# GULP energy per Si atom -12393.122784 kJ/mol
# Density = 2.298034 g / cm^3
# Si number density = 23.032762 Si / 1000 Ang^3
#
#
#
# Elastic Constant Matrix: (Units=GPa)
#
#
# Indices 1 2 3 4 5 6 
#
# 1 65.4390 2.0149 0.0967 10.3506 4.4980 1.5448
# 2 2.0149 84.1718 6.1676 8.7895 -4.5621 -4.1803
# 3 0.0967 6.1676 66.2213 8.4868 -1.7552 -11.2693
# 4 10.3506 8.7895 8.4868 41.8243 -1.2826 0.0022
# 5 4.4980 -4.5621 -1.7552 -1.2826 33.2573 -0.8132
# 6 1.5448 -4.1803 -11.2693 0.0022 -0.8132 24.9825
#
#
#
# Elastic Compliance Matrix: (Units=1/GPa)
#
#
# Indices 1 2 3 4 5 6 
#
# 1 0.016118 -0.000157 0.000287 -0.004087 -0.002368 -0.000970
# 2 -0.000157 0.012355 -0.000471 -0.002412 0.001645 0.001918
# 3 0.000287 -0.000471 0.016883 -0.003372 0.000842 0.007547
# 4 -0.004087 -0.002412 -0.003372 0.026143 0.001012 -0.001642
# 5 -0.002368 0.001645 0.000842 0.001012 0.030742 0.001802
# 6 -0.000970 0.001918 0.007547 -0.001642 0.001802 0.043872
#
#
# Mechanical properties :
#
#
# Convention : Reuss Voigt Hill
#
# Bulk Modulus (GPa) = 22.38437 25.82114 24.10276
# Shear Modulus (GPa) = 30.92405 33.84970 32.38687
#
# Velocity S-wave (km/s) = 3.66814 3.83774 3.75390
# Velocity P-wave (km/s) = 5.26117 5.55631 5.41075
#
# Compressibility (1/GPa) = 0.04467403
#
# Stress axis : x y z
#
# Youngs Moduli (GPa) = 62.04307 80.93878 59.23057
#
# Poissons Ratio (x) = 0.01268 -0.01700
# Poissons Ratio (y) = 0.00972 0.02792
# Poissons Ratio (z) = -0.01780 0.03815
#
# Static dielectric constant tensor:
#      x y z
#    x 4.144810 -0.019500 0.003110 
#    y -0.019500 3.987010 0.098050 
#    z 0.003110 0.098050 4.429950 
# 
# 
# High freq. dielectric constant tensor:
#      x y z
#    x 1.908950 -0.004530 0.003060 
#    y -0.004530 1.905200 0.010790 
#    z 0.003060 0.010790 1.925090 
# 
# From -- ./inp_files/10829.got.cif
#   From: 2010.06.25/outbox.cif.g09.slc.cpg/sg2_6_cif.got.tgz:10829.got - 2010.06.27 13:26:56.
