data_PCOD8016680
_publ_section_title
;
Structure prediction by ZEFSAII (Michael W. Deem and Ramdas Pophale) SiO2 
 PCOD8016680
Probable space group: P -1
;
_chemical_formula_sum "Si O2"
_cell_formula_units_Z 16
_cell_length_a 9.008453
_cell_length_b 8.887899
_cell_length_c 23.275939
_cell_angle_alpha 138.105229
_cell_angle_beta 139.525395
_cell_angle_gamma 42.748187
_cell_volume 744.567069
_symmetry_space_group_name_H-M "P -1"
_symmetry_group_IT_number 2
_symmetry_cell_setting 'triclinic'
loop_
_space_group_symop_operation_xyz
x,y,z
-x,-y,-z
loop_
_atom_site_type_symbol
_atom_site_label
_atom_site_fract_x
_atom_site_fract_y
_atom_site_fract_z
Si Si1 0.244592 0.613293 0.274406
Si Si2 0.414731 0.659470 0.606101
Si Si3 0.806385 0.779006 0.278247
Si Si4 0.565706 0.873869 0.873345
Si Si5 0.136129 0.474238 0.384141
Si Si6 0.597333 0.285214 0.922055
Si Si7 0.004034 0.972071 0.762000
Si Si8 0.030558 0.238486 0.957072
O O1 0.474134 0.535248 0.364702
O O2 0.291206 0.406147 0.181928
O O3 0.998627 0.651812 0.248325
O O4 0.203203 0.859306 0.296225
O O5 0.208753 0.588014 0.493932
O O6 0.625519 0.660243 0.623928
O O7 0.287515 0.928622 0.671619
O O8 0.589353 0.678006 0.176374
O O9 0.926057 0.696197 0.352337
O O10 0.273852 0.948886 0.814718
O O11 0.621985 0.033506 0.886647
O O12 0.686626 0.906133 0.978679
O O13 0.017590 0.287151 0.316915
O O14 0.857696 0.270111 0.970583
O O15 0.500000 0.500000 0.000000
O O16 0.957693 0.084901 0.844033
O O17 0.000000 0.500000 0.000000
#
# Coordination Sequence:
#
# PCOD8016680 Si02
#       8
#     2   2   2   2   2   2   2   2
#     4  11  22  43  68  92 134 176 217 268 330 395
#     4  10  21  46  67  98 130 178 217 277 331 396
#     4  11  22  42  69  96 132 176 221 271 327 400
#     4  12  25  46  64  93 140 177 215 268 329 398
#     4  10  25  39  70 100 133 168 227 274 334 389
#     4  12  25  42  70  99 128 179 222 263 328 393
#     4  12  25  43  65 103 132 175 219 276 329 385
#     4  12  26  42  66  97 135 171 218 271 323 388
#
# _framework density 21.488997000000001
#
# number of rings (size 3 to 8) (size 9 to 14) (size 15 to 20)
#    0.000    0.750    3.750    3.375    5.250    1.500 
#    0.000    2.500    0.000    0.000    0.000    0.000 
#    0.000    0.000    0.000    0.000    0.000    0.000 
#
# Total GULP energy -198457.065649 kJ/mol
# GULP energy per Si atom -12403.566603 kJ/mol
# Density = 2.144009 g / cm^3
# Si number density = 21.488997 Si / 1000 Ang^3
#
#
#
# Elastic Constant Matrix: (Units=GPa)
#
#
# Indices 1 2 3 4 5 6 
#
# 1 90.6851 37.4466 29.1292 1.1941 2.7327 9.0257
# 2 37.4466 121.5133 50.0327 -16.8858 -0.8537 8.9787
# 3 29.1292 50.0327 136.7961 -17.4843 -5.3599 7.5613
# 4 1.1941 -16.8858 -17.4843 42.8159 3.8158 -9.2909
# 5 2.7327 -0.8537 -5.3599 3.8158 31.4792 6.2629
# 6 9.0257 8.9787 7.5613 -9.2909 6.2629 34.2528
#
#
#
# Elastic Compliance Matrix: (Units=1/GPa)
#
#
# Indices 1 2 3 4 5 6 
#
# 1 0.013454 -0.003627 -0.001799 -0.003122 -0.000611 -0.002933
# 2 -0.003627 0.010982 -0.002819 0.003211 -0.000177 -0.000397
# 3 -0.001799 -0.002819 0.009114 0.002449 0.001413 -0.000393
# 4 -0.003122 0.003211 0.002449 0.027753 -0.004125 0.007723
# 5 -0.000611 -0.000177 0.001413 -0.004125 0.034037 -0.007447
# 6 -0.002933 -0.000397 -0.000393 0.007723 -0.007447 0.033615
#
#
# Mechanical properties :
#
#
# Convention : Reuss Voigt Hill
#
# Bulk Modulus (GPa) = 58.61474 64.69018 61.65246
# Shear Modulus (GPa) = 33.08347 37.20196 35.14271
#
# Velocity S-wave (km/s) = 3.92797 4.16529 4.04837
# Velocity P-wave (km/s) = 6.92155 7.30083 7.11372
#
# Compressibility (1/GPa) = 0.01706055
#
# Stress axis : x y z
#
# Youngs Moduli (GPa) = 74.32667 91.05625 109.71556
#
# Poissons Ratio (x) = 0.33024 0.19742
# Poissons Ratio (y) = 0.26956 0.30929
# Poissons Ratio (z) = 0.13374 0.25669
#
# Static dielectric constant tensor:
#      x y z
#    x 4.097360 0.038620 0.008610 
#    y 0.038620 4.088510 -0.247630 
#    z 0.008610 -0.247630 4.132060 
# 
# 
# High freq. dielectric constant tensor:
#      x y z
#    x 1.836790 0.001690 -0.011980 
#    y 0.001690 1.857070 -0.012550 
#    z -0.011980 -0.012550 1.847840 
# 
# From -- ./inp_files/39025.got.cif
#   From: 2010.06.25/outbox.cif.g09.slc.cpg/sg2_20_cif.got.tgz:39025.got - 2010.06.27 13:26:56.
