data_PCOD8016305
_publ_section_title
;
Structure prediction by ZEFSAII (Michael W. Deem and Ramdas Pophale) SiO2 
 PCOD8016305
Probable space group: P -1
;
_chemical_formula_sum "Si O2"
_cell_formula_units_Z 16
_cell_length_a 11.301331
_cell_length_b 6.831593
_cell_length_c 14.513956
_cell_angle_alpha 58.300789
_cell_angle_beta 56.052090
_cell_angle_gamma 83.736069
_cell_volume 763.438603
_symmetry_space_group_name_H-M "P -1"
_symmetry_group_IT_number 2
_symmetry_cell_setting 'triclinic'
loop_
_space_group_symop_operation_xyz
x,y,z
-x,-y,-z
loop_
_atom_site_type_symbol
_atom_site_label
_atom_site_fract_x
_atom_site_fract_y
_atom_site_fract_z
Si Si1 0.824861 0.396948 0.402024
Si Si2 0.419189 0.460013 0.808055
Si Si3 0.826810 0.972284 0.981897
Si Si4 0.165493 0.083416 0.792708
Si Si5 0.661001 0.157474 0.365129
Si Si6 0.591407 0.685782 0.843488
Si Si7 0.836075 0.434837 0.758429
Si Si8 0.677304 0.232328 0.699044
O O1 0.794723 0.643163 0.322358
O O2 0.766459 0.197154 0.398836
O O3 0.737525 0.305000 0.554460
O O4 0.995476 0.420198 0.340373
O O5 0.286040 0.253478 0.961653
O O6 0.352867 0.585675 0.724520
O O7 0.493027 0.660777 0.800317
O O8 0.538404 0.336271 0.746980
O O9 0.795542 0.948035 0.110550
O O10 0.793604 0.216830 0.902939
O O11 0.991125 0.963016 0.884245
O O12 0.262513 0.957360 0.719348
O O13 0.500000 0.000000 0.500000
O O14 0.745574 0.625764 0.771515
O O15 0.622617 0.949156 0.804573
O O16 0.500000 0.500000 0.000000
O O17 0.804194 0.332888 0.694260
#
# Coordination Sequence:
#
# PCOD8016305 Si02
#       8
#     2   2   2   2   2   2   2   2
#     4  11  24  44  66  94 129 173 213 266 325 378
#     4  11  24  39  63  97 128 168 212 262 319 382
#     4  10  21  44  66  93 134 168 211 266 325 379
#     4  10  24  43  65  96 131 172 210 265 323 384
#     4  12  26  40  64  99 130 171 216 260 323 388
#     4  11  24  40  64  95 126 172 211 265 324 375
#     4  10  24  43  65  96 125 166 222 264 320 384
#     4  11  24  43  66  92 132 171 216 267 318 384
#
# _framework density 20.957808
#
# number of rings (size 3 to 8) (size 9 to 14) (size 15 to 20)
#    0.000    1.250    1.250    3.375    5.250    8.000 
#    0.000    0.000    0.000    0.000    0.000    0.000 
#    0.000    0.000    0.000    0.000    0.000    0.000 
#
# Total GULP energy -198469.917338 kJ/mol
# GULP energy per Si atom -12404.369834 kJ/mol
# Density = 2.091011 g / cm^3
# Si number density = 20.957808 Si / 1000 Ang^3
#
#
#
# Elastic Constant Matrix: (Units=GPa)
#
#
# Indices 1 2 3 4 5 6 
#
# 1 100.1598 39.2075 27.5452 15.2626 -10.0080 13.5626
# 2 39.2075 104.1352 37.0402 17.1584 -14.1352 10.2924
# 3 27.5452 37.0402 116.5344 8.6900 -3.9005 5.7005
# 4 15.2626 17.1584 8.6900 24.9177 5.8823 -4.8316
# 5 -10.0080 -14.1352 -3.9005 5.8823 38.3282 -8.2100
# 6 13.5626 10.2924 5.7005 -4.8316 -8.2100 17.1820
#
#
#
# Elastic Compliance Matrix: (Units=1/GPa)
#
#
# Indices 1 2 3 4 5 6 
#
# 1 0.014346 -0.001900 -0.001440 -0.009661 0.001916 -0.011509
# 2 -0.001900 0.014281 -0.002856 -0.010064 0.004579 -0.006750
# 3 -0.001440 -0.002856 0.009903 -0.000653 -0.000506 -0.000864
# 4 -0.009661 -0.010064 -0.000653 0.060639 -0.010007 0.026141
# 5 0.001916 0.004579 -0.000506 -0.010007 0.031511 0.008155
# 6 -0.011509 -0.006750 -0.000864 0.026141 0.008155 0.082862
#
#
# Mechanical properties :
#
#
# Convention : Reuss Voigt Hill
#
# Bulk Modulus (GPa) = 38.25715 58.71279 48.48497
# Shear Modulus (GPa) = 21.30872 30.55469 25.93170
#
# Velocity S-wave (km/s) = 3.19210 3.82241 3.52138
# Velocity P-wave (km/s) = 5.64624 6.89613 6.30225
#
# Compressibility (1/GPa) = 0.02613891
#
# Stress axis : x y z
#
# Youngs Moduli (GPa) = 69.70749 70.02329 100.97658
#
# Poissons Ratio (x) = 0.13303 0.14536
# Poissons Ratio (y) = 0.13243 0.28841
# Poissons Ratio (z) = 0.10034 0.20000
#
# Static dielectric constant tensor:
#      x y z
#    x 4.084390 0.056850 -0.034220 
#    y 0.056850 3.322620 -0.380400 
#    z -0.034220 -0.380400 3.610520 
# 
# 
# High freq. dielectric constant tensor:
#      x y z
#    x 1.840220 0.004150 -0.000240 
#    y 0.004150 1.819210 -0.005650 
#    z -0.000240 -0.005650 1.831660 
# 
# From -- ./inp_files/69184.got.cif
#   From: 2010.06.25/outbox.cif.g09.slc.cpg/sg2_35_cif.got.tgz:69184.got - 2010.06.27 13:26:56.
