data_PCOD8016991
_publ_section_title
;
Structure prediction by ZEFSAII (Michael W. Deem and Ramdas Pophale) SiO2 
 PCOD8016991
Probable space group: P -1
;
_chemical_formula_sum "Si O2"
_cell_formula_units_Z 14
_cell_length_a 20.296131
_cell_length_b 5.258074
_cell_length_c 11.939864
_cell_angle_alpha 104.387063
_cell_angle_beta 143.417613
_cell_angle_gamma 67.152450
_cell_volume 695.150503
_symmetry_space_group_name_H-M "P -1"
_symmetry_group_IT_number 2
_symmetry_cell_setting 'triclinic'
loop_
_space_group_symop_operation_xyz
x,y,z
-x,-y,-z
loop_
_atom_site_type_symbol
_atom_site_label
_atom_site_fract_x
_atom_site_fract_y
_atom_site_fract_z
Si Si1 0.903484 0.743212 0.332833
Si Si2 0.305180 0.329390 0.080945
Si Si3 0.456000 0.062769 0.622132
Si Si4 0.638407 0.138526 0.731564
Si Si5 0.920725 0.154234 0.575835
Si Si6 0.899472 0.051180 0.778247
Si Si7 0.775792 0.606781 0.571867
O O1 0.000000 0.500000 0.500000
O O2 0.959075 0.816183 0.303100
O O3 0.863169 0.007667 0.389256
O O4 0.791605 0.650475 0.143392
O O5 0.435900 0.166468 0.191835
O O6 0.295664 0.637042 0.140708
O O7 0.282362 0.153860 0.136556
O O8 0.382692 0.906527 0.432426
O O9 0.511373 0.238201 0.632191
O O10 0.366068 0.268700 0.608497
O O11 0.952291 0.978273 0.715920
O O12 0.822912 0.455454 0.500952
O O13 0.818784 0.376844 0.704804
O O14 0.824841 0.857087 0.688322
O O15 0.000000 0.000000 0.000000
#
# Coordination Sequence:
#
# PCOD8016991 Si02
#       7
#     2   2   2   2   2   2   2
#     4  11  23  43  66  90 129 168 222 267 307 369
#     4  10  22  37  63  91 121 162 214 257 313 371
#     4   9  21  39  63  91 129 163 202 262 319 379
#     4   9  21  38  58  95 125 159 211 253 318 374
#     4   9  24  41  64  91 126 170 208 268 317 363
#     4  10  22  42  59  95 127 166 211 249 320 385
#     4  10  22  39  63  90 129 163 200 261 321 373
#
# _framework density 20.139523000000001
#
# number of rings (size 3 to 8) (size 9 to 14) (size 15 to 20)
#    1.714    0.571    0.000    1.714    6.000    1.143 
#    5.143    0.714    0.000    2.571    0.000    0.000 
#    0.000    0.000    0.000    0.000    0.000    0.000 
#
# Total GULP energy -173446.400292 kJ/mol
# GULP energy per Si atom -12389.028592 kJ/mol
# Density = 2.009368 g / cm^3
# Si number density = 20.139523 Si / 1000 Ang^3
#
#
#
# Elastic Constant Matrix: (Units=GPa)
#
#
# Indices 1 2 3 4 5 6 
#
# 1 69.5180 48.2127 36.9629 5.6099 1.9155 -8.1410
# 2 48.2127 116.7201 57.8564 11.4251 10.1078 19.1770
# 3 36.9629 57.8564 137.0622 10.5273 -1.7421 0.0698
# 4 5.6099 11.4251 10.5273 30.3411 4.5057 1.8117
# 5 1.9155 10.1078 -1.7421 4.5057 15.2385 -1.3028
# 6 -8.1410 19.1770 0.0698 1.8117 -1.3028 41.0834
#
#
#
# Elastic Compliance Matrix: (Units=1/GPa)
#
#
# Indices 1 2 3 4 5 6 
#
# 1 0.024177 -0.011223 -0.001635 -0.001094 0.005418 0.010252
# 2 -0.011223 0.018633 -0.004932 -0.000737 -0.012258 -0.011269
# 3 -0.001635 -0.004932 0.010063 -0.002281 0.005493 0.002236
# 4 -0.001094 -0.000737 -0.002281 0.035880 -0.010396 -0.001781
# 5 0.005418 -0.012258 0.005493 -0.010396 0.077605 0.009706
# 6 0.010252 -0.011269 0.002236 -0.001781 0.009706 0.032015
#
#
# Mechanical properties :
#
#
# Convention : Reuss Voigt Hill
#
# Bulk Modulus (GPa) = 57.82761 67.70717 62.76739
# Shear Modulus (GPa) = 20.85785 29.35047 25.10416
#
# Velocity S-wave (km/s) = 3.22167 3.82168 3.53443
# Velocity P-wave (km/s) = 6.52799 7.29148 6.92027
#
# Compressibility (1/GPa) = 0.01729278
#
# Stress axis : x y z
#
# Youngs Moduli (GPa) = 41.36166 53.66722 99.37530
#
# Poissons Ratio (x) = 0.60229 0.16249
# Poissons Ratio (y) = 0.46419 0.49016
# Poissons Ratio (z) = 0.06763 0.26471
#
# Static dielectric constant tensor:
#      x y z
#    x 3.557990 0.101460 0.178510 
#    y 0.101460 3.670250 0.075800 
#    z 0.178510 0.075800 3.474000 
# 
# 
# High freq. dielectric constant tensor:
#      x y z
#    x 1.766920 0.010800 0.010640 
#    y 0.010800 1.789250 0.003360 
#    z 0.010640 0.003360 1.764690 
# 
# From -- ./inp_files/541989.got.cif
#   From: 2010.06.25/outbox.cif.g09.slc.cpg/sg2_271_cif.got.tgz:541989.got - 2010.06.27 13:26:56.
