data_PCOD8016527
_publ_section_title
;
Structure prediction by ZEFSAII (Michael W. Deem and Ramdas Pophale) SiO2 
 PCOD8016527
Probable space group: P -1
;
_chemical_formula_sum "Si O2"
_cell_formula_units_Z 14
_cell_length_a 11.781256
_cell_length_b 11.749054
_cell_length_c 11.392497
_cell_angle_alpha 44.335177
_cell_angle_beta 51.031138
_cell_angle_gamma 39.583961
_cell_volume 691.475446
_symmetry_space_group_name_H-M "P -1"
_symmetry_group_IT_number 2
_symmetry_cell_setting 'triclinic'
loop_
_space_group_symop_operation_xyz
x,y,z
-x,-y,-z
loop_
_atom_site_type_symbol
_atom_site_label
_atom_site_fract_x
_atom_site_fract_y
_atom_site_fract_z
Si Si1 0.096378 0.099976 0.407350
Si Si2 0.778609 0.533381 0.376894
Si Si3 0.128714 0.997764 0.710151
Si Si4 0.291227 0.656657 0.030921
Si Si5 0.024215 0.348062 0.691593
Si Si6 0.556752 0.125840 0.807255
Si Si7 0.264337 0.748666 0.238878
O O1 0.206056 0.015526 0.523905
O O2 0.940398 0.342596 0.336581
O O3 0.258965 0.037693 0.260394
O O4 0.000000 0.000000 0.500000
O O5 0.846845 0.663405 0.283738
O O6 0.601329 0.690538 0.302214
O O7 0.721321 0.450477 0.582449
O O8 0.114677 0.136164 0.723292
O O9 0.936408 0.057352 0.743260
O O10 0.240359 0.777225 0.853639
O O11 0.271278 0.771856 0.077949
O O12 0.168726 0.574776 0.182147
O O13 0.500000 0.500000 0.000000
O O14 0.000000 0.500000 0.500000
O O15 0.587358 0.241534 0.801197
O O16 0.500000 0.000000 0.000000
#
# Coordination Sequence:
#
# PCOD8016527 Si02
#       7
#     2   2   2   2   2   2   2
#     4  11  23  44  72  96 130 183 228 267 340 402
#     4  11  24  43  73  96 137 181 224 278 334 406
#     4  10  22  41  72  92 132 175 222 271 332 399
#     4  11  25  39  69 102 133 172 222 280 332 401
#     4  11  20  43  68  96 133 174 219 271 342 391
#     4  12  28  42  68 102 136 175 228 282 334 401
#     4  10  21  45  63  93 132 181 216 266 343 391
#
# _framework density 20.246559999999999
#
# number of rings (size 3 to 8) (size 9 to 14) (size 15 to 20)
#    0.000    1.143    7.143    2.143    6.000    1.714 
#    0.000    1.429    0.000    0.000    0.000    0.000 
#    0.000    0.000    0.000    0.000    0.000    0.000 
#
# Total GULP energy -173443.099344 kJ/mol
# GULP energy per Si atom -12388.792810 kJ/mol
# Density = 2.020048 g / cm^3
# Si number density = 20.246560 Si / 1000 Ang^3
#
#
#
# Elastic Constant Matrix: (Units=GPa)
#
#
# Indices 1 2 3 4 5 6 
#
# 1 152.7647 32.9286 35.4719 -4.8592 -10.3435 -1.1797
# 2 32.9286 64.9307 41.1229 -1.4384 -3.2091 -4.5879
# 3 35.4719 41.1229 101.3741 3.7796 -2.4427 -15.6897
# 4 -4.8592 -1.4384 3.7796 31.9454 -6.7043 9.5373
# 5 -10.3435 -3.2091 -2.4427 -6.7043 40.7828 -6.2858
# 6 -1.1797 -4.5879 -15.6897 9.5373 -6.2858 30.3182
#
#
#
# Elastic Compliance Matrix: (Units=1/GPa)
#
#
# Indices 1 2 3 4 5 6 
#
# 1 0.007734 -0.002715 -0.001846 0.002044 0.001767 -0.001342
# 2 -0.002715 0.021993 -0.008287 0.002177 0.000655 -0.001615
# 3 -0.001846 -0.008287 0.015327 -0.004857 0.000261 0.008188
# 4 0.002044 0.002177 -0.004857 0.037064 0.004515 -0.012828
# 5 0.001767 0.000655 0.000261 0.004515 0.026451 0.004367
# 6 -0.001342 -0.001615 0.008188 -0.012828 0.004367 0.041865
#
#
# Mechanical properties :
#
#
# Convention : Reuss Voigt Hill
#
# Bulk Modulus (GPa) = 51.66045 59.79070 55.72558
# Shear Modulus (GPa) = 27.38495 34.57903 30.98199
#
# Velocity S-wave (km/s) = 3.68172 4.13715 3.91607
# Velocity P-wave (km/s) = 6.60640 7.23994 6.93042
#
# Compressibility (1/GPa) = 0.01935717
#
# Stress axis : x y z
#
# Youngs Moduli (GPa) = 129.29509 45.46943 65.24587
#
# Poissons Ratio (x) = 0.12346 0.12046
# Poissons Ratio (y) = 0.35107 0.54068
# Poissons Ratio (z) = 0.23870 0.37680
#
# Static dielectric constant tensor:
#      x y z
#    x 5.118800 1.041220 -0.855010 
#    y 1.041220 4.317340 -0.731640 
#    z -0.855010 -0.731640 3.445550 
# 
# 
# High freq. dielectric constant tensor:
#      x y z
#    x 1.807510 -0.000440 0.009900 
#    y -0.000440 1.775310 0.007650 
#    z 0.009900 0.007650 1.791410 
# 
# From -- ./inp_files/189685.got.cif
#   From: 2010.06.25/outbox.cif.g09.slc.cpg/sg2_95_cif.got.tgz:189685.got - 2010.06.27 13:26:56.
