data_PCOD8016146
_publ_section_title
;
Structure prediction by ZEFSAII (Michael W. Deem and Ramdas Pophale) SiO2 
 PCOD8016146
Probable space group: P -1
;
_chemical_formula_sum "Si O2"
_cell_formula_units_Z 14
_cell_length_a 12.017733
_cell_length_b 10.172625
_cell_length_c 6.613312
_cell_angle_alpha 129.478907
_cell_angle_beta 72.961945
_cell_angle_gamma 106.877775
_cell_volume 590.692178
_symmetry_space_group_name_H-M "P -1"
_symmetry_group_IT_number 2
_symmetry_cell_setting 'triclinic'
loop_
_space_group_symop_operation_xyz
x,y,z
-x,-y,-z
loop_
_atom_site_type_symbol
_atom_site_label
_atom_site_fract_x
_atom_site_fract_y
_atom_site_fract_z
Si Si1 0.133554 0.776259 0.112994
Si Si2 0.925214 0.545227 0.392912
Si Si3 0.682336 0.220197 0.657403
Si Si4 0.496463 0.756637 0.878832
Si Si5 0.066917 0.076561 0.236124
Si Si6 0.703379 0.017018 0.062666
Si Si7 0.657416 0.469683 0.577538
O O1 0.055961 0.592727 0.925691
O O2 0.239672 0.810842 0.921457
O O3 0.189334 0.769056 0.297030
O O4 0.055647 0.933550 0.283474
O O5 0.973661 0.742884 0.490314
O O6 0.785935 0.537100 0.489490
O O7 0.000000 0.500000 0.500000
O O8 0.673697 0.399444 0.725109
O O9 0.675348 0.061577 0.351424
O O10 0.578984 0.187299 0.840994
O O11 0.577619 0.619939 0.781481
O O12 0.414207 0.686159 0.667977
O O13 0.584356 0.927354 0.929959
O O14 0.202380 0.117826 0.129168
O O15 0.000000 0.000000 0.000000
#
# Coordination Sequence:
#
# PCOD8016146 Si02
#       7
#     2   2   2   2   2   2   2
#     4  10  23  42  64  97 130 165 218 265 315 387
#     4  12  20  43  77  87 125 179 210 267 331 376
#     4  12  22  40  61  95 135 166 216 260 327 385
#     4  11  23  40  65  94 131 175 214 265 318 386
#     4  10  21  43  71  92 125 170 220 268 323 378
#     4  10  22  40  63  90 133 170 209 269 317 378
#     4  11  23  42  63  95 133 165 220 270 318 380
#
# _framework density 23.701008999999999
#
# number of rings (size 3 to 8) (size 9 to 14) (size 15 to 20)
#    0.857    0.286    5.714    0.857    0.000    3.429 
#    2.571    1.429    0.000    0.000    0.000    0.000 
#    0.000    0.000    0.000    0.000    0.000    0.000 
#
# Total GULP energy -173486.176817 kJ/mol
# GULP energy per Si atom -12391.869773 kJ/mol
# Density = 2.364706 g / cm^3
# Si number density = 23.701009 Si / 1000 Ang^3
#
#
#
# Elastic Constant Matrix: (Units=GPa)
#
#
# Indices 1 2 3 4 5 6 
#
# 1 113.3161 25.6353 34.1505 7.7750 26.5118 -20.9844
# 2 25.6353 103.6481 31.6935 19.1592 22.3093 -18.0141
# 3 34.1505 31.6935 99.4079 25.8725 13.0125 -11.6323
# 4 7.7750 19.1592 25.8725 45.1990 -2.5254 3.4693
# 5 26.5118 22.3093 13.0125 -2.5254 48.9939 -7.6530
# 6 -20.9844 -18.0141 -11.6323 3.4693 -7.6530 47.0868
#
#
#
# Elastic Compliance Matrix: (Units=1/GPa)
#
#
# Indices 1 2 3 4 5 6 
#
# 1 0.011557 -0.000172 -0.002568 -0.001008 -0.004964 0.003717
# 2 -0.000172 0.012898 -0.001598 -0.005111 -0.004990 0.004029
# 3 -0.002568 -0.001598 0.013687 -0.006948 -0.001582 0.001880
# 4 -0.001008 -0.005111 -0.006948 0.029156 0.005378 -0.005395
# 5 -0.004964 -0.004990 -0.001582 0.005378 0.025959 -0.000689
# 6 0.003717 0.004029 0.001880 -0.005395 -0.000689 0.025185
#
#
# Mechanical properties :
#
#
# Convention : Reuss Voigt Hill
#
# Bulk Modulus (GPa) = 33.93932 55.48118 44.71025
# Shear Modulus (GPa) = 36.51218 43.24880 39.88049
#
# Velocity S-wave (km/s) = 3.92922 4.27636 4.10646
# Velocity P-wave (km/s) = 5.91066 6.91684 6.43345
#
# Compressibility (1/GPa) = 0.02946435
#
# Stress axis : x y z
#
# Youngs Moduli (GPa) = 86.52865 77.53005 73.06295
#
# Poissons Ratio (x) = 0.01335 0.18764
# Poissons Ratio (y) = 0.01490 0.11678
# Poissons Ratio (z) = 0.22223 0.12392
#
# Static dielectric constant tensor:
#      x y z
#    x 4.579530 -0.156250 -0.003430 
#    y -0.156250 4.232260 0.297990 
#    z -0.003430 0.297990 4.063650 
# 
# 
# High freq. dielectric constant tensor:
#      x y z
#    x 1.970550 -0.012580 -0.002870 
#    y -0.012580 1.936720 0.015200 
#    z -0.002870 0.015200 1.928990 
# 
# From -- ./inp_files/72310.got.cif
#   From: 2010.06.25/outbox.cif.g09.slc.cpg/sg2_37_cif.got.tgz:72310.got - 2010.06.27 13:26:56.
