data_PCOD8016054
_publ_section_title
;
Structure prediction by ZEFSAII (Michael W. Deem and Ramdas Pophale) SiO2 
 PCOD8016054
Probable space group: P -1
;
_chemical_formula_sum "Si O2"
_cell_formula_units_Z 14
_cell_length_a 7.216544
_cell_length_b 11.018355
_cell_length_c 7.045891
_cell_angle_alpha 104.659393
_cell_angle_beta 105.289252
_cell_angle_gamma 100.094165
_cell_volume 504.943676
_symmetry_space_group_name_H-M "P -1"
_symmetry_group_IT_number 2
_symmetry_cell_setting 'triclinic'
loop_
_space_group_symop_operation_xyz
x,y,z
-x,-y,-z
loop_
_atom_site_type_symbol
_atom_site_label
_atom_site_fract_x
_atom_site_fract_y
_atom_site_fract_z
Si Si1 0.661302 0.404625 0.370106
Si Si2 0.207969 0.914632 0.025022
Si Si3 0.675708 0.816813 0.668419
Si Si4 0.093016 0.266050 0.849599
Si Si5 0.535018 0.805942 0.224905
Si Si6 0.038114 0.743436 0.603781
Si Si7 0.356630 0.522824 0.181191
O O1 0.497917 0.265353 0.279245
O O2 0.866143 0.372602 0.344693
O O3 0.575001 0.488353 0.223090
O O4 0.696831 0.473714 0.610360
O O5 0.428385 0.901585 0.126260
O O6 0.043064 0.805349 0.046466
O O7 0.194551 0.058959 0.132279
O O8 0.164200 0.882989 0.776993
O O9 0.590563 0.864249 0.473030
O O10 0.811120 0.719381 0.605513
O O11 0.267949 0.195175 0.838614
O O12 0.954782 0.254252 0.621456
O O13 0.182674 0.416498 0.989250
O O14 0.385530 0.661274 0.142405
#
# Coordination Sequence:
#
# PCOD8016054 Si02
#       7
#     2   2   2   2   2   2   2
#     4  10  22  43  69  98 132 174 220 275 332 387
#     4  12  25  43  69  99 134 176 221 271 330 395
#     4  10  23  44  67  99 135 169 224 278 324 395
#     4  11  24  43  65  97 139 174 215 275 328 388
#     4  10  23  42  67  97 130 178 222 266 334 394
#     4  11  25  41  65 100 131 174 224 262 329 397
#     4  10  21  43  69  95 135 175 219 274 328 394
#
# _framework density 27.725866
#
# number of rings (size 3 to 8) (size 9 to 14) (size 15 to 20)
#    0.000    1.429    0.000    4.714    0.000    7.429 
#    0.000   18.571    0.000    0.000    0.000    0.000 
#    0.000    0.000    0.000    0.000    0.000    0.000 
#
# Total GULP energy -173621.665078 kJ/mol
# GULP energy per Si atom -12401.547506 kJ/mol
# Density = 2.766276 g / cm^3
# Si number density = 27.725866 Si / 1000 Ang^3
#
#
#
# Elastic Constant Matrix: (Units=GPa)
#
#
# Indices 1 2 3 4 5 6 
#
# 1 84.9856 20.6933 4.8884 2.0975 12.0908 -22.4799
# 2 20.6933 61.4988 38.0696 9.2267 2.5886 -12.1618
# 3 4.8884 38.0696 180.5687 22.0289 1.6358 5.5423
# 4 2.0975 9.2267 22.0289 40.6806 -14.4867 15.3768
# 5 12.0908 2.5886 1.6358 -14.4867 22.6038 3.0513
# 6 -22.4799 -12.1618 5.5423 15.3768 3.0513 35.4676
#
#
#
# Elastic Compliance Matrix: (Units=1/GPa)
#
#
# Indices 1 2 3 4 5 6 
#
# 1 0.025029 0.002351 0.001477 -0.026950 -0.035242 0.031155
# 2 0.002351 0.025064 -0.003633 -0.017734 -0.017915 0.019882
# 3 0.001477 -0.003633 0.006858 -0.004835 -0.004114 0.001069
# 4 -0.026950 -0.017734 -0.004835 0.087102 0.081691 -0.067197
# 5 -0.035242 -0.017915 -0.004114 0.081691 0.127819 -0.074250
# 6 0.031155 0.019882 0.001069 -0.067197 -0.074250 0.090113
#
#
# Mechanical properties :
#
#
# Convention : Reuss Voigt Hill
#
# Bulk Modulus (GPa) = 17.43844 50.48397 33.96120
# Shear Modulus (GPa) = 13.13344 37.31052 25.22198
#
# Velocity S-wave (km/s) = 2.17880 3.67235 3.01938
# Velocity P-wave (km/s) = 3.55427 6.01908 4.94278
#
# Compressibility (1/GPa) = 0.05734459
#
# Stress axis : x y z
#
# Youngs Moduli (GPa) = 39.95341 39.89722 145.80972
#
# Poissons Ratio (x) = -0.09382 -0.21543
# Poissons Ratio (y) = -0.09395 0.52966
# Poissons Ratio (z) = -0.05903 0.14493
#
# Static dielectric constant tensor:
#      x y z
#    x 5.101990 -0.383760 0.068120 
#    y -0.383760 4.566450 -0.090010 
#    z 0.068120 -0.090010 5.475220 
# 
# 
# High freq. dielectric constant tensor:
#      x y z
#    x 2.121490 -0.017510 0.000860 
#    y -0.017510 2.092190 0.000860 
#    z 0.000860 0.000860 2.148720 
# 
# From -- ./inp_files/181964.got.cif
#   From: 2010.06.25/outbox.cif.g09.slc.cpg/sg2_91_cif.got.tgz:181964.got - 2010.06.27 13:26:56.
