data_PCOD8016560
_publ_section_title
;
Structure prediction by ZEFSAII (Michael W. Deem and Ramdas Pophale) SiO2 
 PCOD8016560
Probable space group: P -1
;
_chemical_formula_sum "Si O2"
_cell_formula_units_Z 14
_cell_length_a 14.553621
_cell_length_b 8.034145
_cell_length_c 11.115005
_cell_angle_alpha 92.253377
_cell_angle_beta 43.757721
_cell_angle_gamma 122.139219
_cell_volume 615.088638
_symmetry_space_group_name_H-M "P -1"
_symmetry_group_IT_number 2
_symmetry_cell_setting 'triclinic'
loop_
_space_group_symop_operation_xyz
x,y,z
-x,-y,-z
loop_
_atom_site_type_symbol
_atom_site_label
_atom_site_fract_x
_atom_site_fract_y
_atom_site_fract_z
Si Si1 0.604032 0.052690 0.719929
Si Si2 0.121327 0.412218 0.598780
Si Si3 0.291052 0.993913 0.143358
Si Si4 0.496256 0.376499 0.788258
Si Si5 0.598184 0.922223 0.354415
Si Si6 0.598876 0.390506 0.262850
Si Si7 0.023606 0.217892 0.955994
O O1 0.480736 0.848551 0.729329
O O2 0.778861 0.314802 0.498867
O O3 0.704689 0.012141 0.716014
O O4 0.451628 0.017181 0.939567
O O5 0.273378 0.417463 0.395919
O O6 0.092418 0.321024 0.758908
O O7 0.925174 0.239771 0.703925
O O8 0.364643 0.240301 0.029542
O O9 0.425867 0.477043 0.795489
O O10 0.454944 0.173996 0.735795
O O11 0.500000 0.000000 0.500000
O O12 0.519811 0.695617 0.502854
O O13 0.828119 0.142181 0.160339
O O14 0.824580 0.570609 0.085373
O O15 0.000000 0.000000 0.000000
#
# Coordination Sequence:
#
# PCOD8016560 Si02
#       7
#     2   2   2   2   2   2   2
#     4  10  25  41  64  97 123 174 211 278 321 382
#     4  11  21  40  69  90 127 168 221 261 327 383
#     4  10  21  45  67  88 129 164 228 265 326 377
#     4  11  22  41  64  95 128 176 206 275 324 379
#     4  12  24  40  63  98 133 168 217 265 322 384
#     4  12  25  41  63  95 140 164 217 262 329 396
#     4  12  24  41  69  96 132 180 211 261 332 391
#
# _framework density 22.760947999999999
#
# number of rings (size 3 to 8) (size 9 to 14) (size 15 to 20)
#    0.000    0.857    4.286    3.429    0.000    3.429 
#    0.000    0.714    0.000    0.000    0.000    0.000 
#    0.000    0.000    0.000    0.000    0.000    0.000 
#
# Total GULP energy -173498.767741 kJ/mol
# GULP energy per Si atom -12392.769124 kJ/mol
# Density = 2.270914 g / cm^3
# Si number density = 22.760948 Si / 1000 Ang^3
#
#
#
# Elastic Constant Matrix: (Units=GPa)
#
#
# Indices 1 2 3 4 5 6 
#
# 1 109.7332 14.3509 66.9592 -28.0628 29.6304 5.0821
# 2 14.3509 36.4548 27.4498 -12.6727 -4.5811 9.3810
# 3 66.9592 27.4498 149.5558 -34.7140 1.2017 -0.9367
# 4 -28.0628 -12.6727 -34.7140 24.8918 6.3594 -8.7902
# 5 29.6304 -4.5811 1.2017 6.3594 42.5116 -3.2739
# 6 5.0821 9.3810 -0.9367 -8.7902 -3.2739 28.6319
#
#
#
# Elastic Compliance Matrix: (Units=1/GPa)
#
#
# Indices 1 2 3 4 5 6 
#
# 1 0.024203 0.000242 -0.004443 0.026984 -0.020646 0.001403
# 2 0.000242 0.036619 -0.005046 0.008009 0.001989 -0.009520
# 3 -0.004443 -0.005046 0.012357 0.011727 0.000954 0.006555
# 4 0.026984 0.008009 0.011727 0.107177 -0.032604 0.022146
# 5 -0.020646 0.001989 0.000954 -0.032604 0.042819 -0.002069
# 6 0.001403 -0.009520 0.006555 0.022146 -0.002069 0.044573
#
#
# Mechanical properties :
#
#
# Convention : Reuss Voigt Hill
#
# Bulk Modulus (GPa) = 18.28612 57.02929 37.65771
# Shear Modulus (GPa) = 16.42198 31.67265 24.04732
#
# Velocity S-wave (km/s) = 2.68899 3.73438 3.25394
# Velocity P-wave (km/s) = 4.20622 6.61092 5.54060
#
# Compressibility (1/GPa) = 0.05468628
#
# Stress axis : x y z
#
# Youngs Moduli (GPa) = 41.31722 27.30790 80.92574
#
# Poissons Ratio (x) = -0.00662 0.35952
# Poissons Ratio (y) = -0.01001 0.40837
# Poissons Ratio (z) = 0.18355 0.13780
#
# Static dielectric constant tensor:
#      x y z
#    x 4.753590 0.054550 0.346930 
#    y 0.054550 3.769760 -0.327750 
#    z 0.346930 -0.327750 4.551230 
# 
# 
# High freq. dielectric constant tensor:
#      x y z
#    x 1.936640 -0.002720 0.011700 
#    y -0.002720 1.858530 -0.024990 
#    z 0.011700 -0.024990 1.911280 
# 
# From -- ./inp_files/445829.got.cif
#   From: 2010.06.25/outbox.cif.g09.slc.cpg/sg2_223_cif.got.tgz:445829.got - 2010.06.27 13:26:56.
