data_PCOD8016226
_publ_section_title
;
Structure prediction by ZEFSAII (Michael W. Deem and Ramdas Pophale) SiO2 
 PCOD8016226
Probable space group: P -1
;
_chemical_formula_sum "Si O2"
_cell_formula_units_Z 16
_cell_length_a 24.564645
_cell_length_b 5.301358
_cell_length_c 6.526326
_cell_angle_alpha 103.235262
_cell_angle_beta 77.578609
_cell_angle_gamma 68.282927
_cell_volume 725.132772
_symmetry_space_group_name_H-M "P -1"
_symmetry_group_IT_number 2
_symmetry_cell_setting 'triclinic'
loop_
_space_group_symop_operation_xyz
x,y,z
-x,-y,-z
loop_
_atom_site_type_symbol
_atom_site_label
_atom_site_fract_x
_atom_site_fract_y
_atom_site_fract_z
Si Si1 0.931015 0.872366 0.696152
Si Si2 0.626092 0.871389 0.301108
Si Si3 0.304992 0.640282 0.106046
Si Si4 0.041467 0.503351 0.778173
Si Si5 0.594303 0.276103 0.745056
Si Si6 0.260701 0.195271 0.020953
Si Si7 0.478547 0.801452 0.851306
Si Si8 0.874139 0.530033 0.954193
O O1 0.937201 0.777039 0.436027
O O2 0.898693 0.711404 0.824527
O O3 0.999843 0.782109 0.722227
O O4 0.893433 0.214876 0.786038
O O5 0.676321 0.976946 0.193002
O O6 0.617878 0.959285 0.563291
O O7 0.557491 0.037066 0.290776
O O8 0.654047 0.530531 0.161203
O O9 0.349628 0.634864 0.254617
O O10 0.264724 0.471904 0.179136
O O11 0.258790 0.970232 0.148445
O O12 0.101995 0.508103 0.835793
O O13 0.000000 0.500000 0.000000
O O14 0.540379 0.511643 0.689805
O O15 0.568873 0.271366 0.990127
O O16 0.200265 0.303275 0.946777
O O17 0.500000 0.000000 0.000000
#
# Coordination Sequence:
#
# PCOD8016226 Si02
#       8
#     2   2   2   2   2   2   2   2
#     4  10  22  39  66  95 124 168 204 250 318 359
#     4  10  23  40  61  89 120 161 202 250 313 366
#     4  10  21  44  60  87 122 160 209 251 306 364
#     4   9  21  40  66  95 130 163 206 258 306 365
#     4  11  22  39  64  87 120 161 200 258 317 367
#     4  10  22  43  62  85 129 163 205 262 294 366
#     4  11  21  39  60  92 121 152 203 259 310 376
#     4  11  22  41  61  93 129 163 209 257 301 364
#
# _framework density 22.064927000000001
#
# number of rings (size 3 to 8) (size 9 to 14) (size 15 to 20)
#    0.750    1.000    2.500    1.500    0.000    8.000 
#    4.500    0.000    0.000    0.000    0.000    0.000 
#    0.000    0.000    0.000    0.000    0.000    0.000 
#
# Total GULP energy -198229.963770 kJ/mol
# GULP energy per Si atom -12389.372736 kJ/mol
# Density = 2.201471 g / cm^3
# Si number density = 22.064927 Si / 1000 Ang^3
#
#
#
# Elastic Constant Matrix: (Units=GPa)
#
#
# Indices 1 2 3 4 5 6 
#
# 1 121.6640 50.4927 35.6641 -1.6674 28.5720 -17.7858
# 2 50.4927 122.2911 19.0768 6.4604 13.2805 1.2781
# 3 35.6641 19.0768 84.9563 14.2172 27.2860 -5.1073
# 4 -1.6674 6.4604 14.2172 20.8739 4.3873 2.4240
# 5 28.5720 13.2805 27.2860 4.3873 22.2067 -3.1611
# 6 -17.7858 1.2781 -5.1073 2.4240 -3.1611 40.3819
#
#
#
# Elastic Compliance Matrix: (Units=1/GPa)
#
#
# Indices 1 2 3 4 5 6 
#
# 1 0.014954 -0.004688 -0.000813 0.005957 -0.015898 0.005030
# 2 -0.004688 0.010287 0.000025 -0.003367 0.000205 -0.002169
# 3 -0.000813 0.000025 0.021161 -0.009808 -0.022874 0.001116
# 4 0.005957 -0.003367 -0.009808 0.057494 -0.005297 -0.002376
# 5 -0.015898 0.000205 -0.022874 -0.005297 0.094202 -0.002210
# 6 0.005030 -0.002169 0.001116 -0.002376 -0.002210 0.027158
#
#
# Mechanical properties :
#
#
# Convention : Reuss Voigt Hill
#
# Bulk Modulus (GPa) = 28.20853 59.93096 44.06975
# Shear Modulus (GPa) = 20.15917 31.60433 25.88175
#
# Velocity S-wave (km/s) = 3.02591 3.78872 3.42860
# Velocity P-wave (km/s) = 5.00203 6.80877 5.97410
#
# Compressibility (1/GPa) = 0.03545026
#
# Stress axis : x y z
#
# Youngs Moduli (GPa) = 66.87182 97.20781 47.25584
#
# Poissons Ratio (x) = 0.45573 0.03843
# Poissons Ratio (y) = 0.31351 -0.00119
# Poissons Ratio (z) = 0.05438 -0.00245
#
# Static dielectric constant tensor:
#      x y z
#    x 4.157190 -0.160360 0.263330 
#    y -0.160360 3.946160 0.037520 
#    z 0.263330 0.037520 3.766160 
# 
# 
# High freq. dielectric constant tensor:
#      x y z
#    x 1.870420 -0.005180 0.021570 
#    y -0.005180 1.865550 0.010310 
#    z 0.021570 0.010310 1.836810 
# 
# From -- ./inp_files/125620.got.cif
#   From: 2010.06.25/outbox.cif.g09.slc.cpg/sg2_63_cif.got.tgz:125620.got - 2010.06.27 13:26:56.
