data_PCOD8016219
_publ_section_title
;
Structure prediction by ZEFSAII (Michael W. Deem and Ramdas Pophale) SiO2 
 PCOD8016219
Probable space group: P -1
;
_chemical_formula_sum "Si O2"
_cell_formula_units_Z 14
_cell_length_a 6.071667
_cell_length_b 25.167531
_cell_length_c 9.328061
_cell_angle_alpha 143.296389
_cell_angle_beta 48.608138
_cell_angle_gamma 120.707287
_cell_volume 638.522210
_symmetry_space_group_name_H-M "P -1"
_symmetry_group_IT_number 2
_symmetry_cell_setting 'triclinic'
loop_
_space_group_symop_operation_xyz
x,y,z
-x,-y,-z
loop_
_atom_site_type_symbol
_atom_site_label
_atom_site_fract_x
_atom_site_fract_y
_atom_site_fract_z
Si Si1 0.857842 0.525698 0.266524
Si Si2 0.597098 0.841129 0.154778
Si Si3 0.951383 0.310124 0.280202
Si Si4 0.514477 0.821304 0.826619
Si Si5 0.816553 0.427632 0.346237
Si Si6 0.976441 0.086813 0.298126
Si Si7 0.909418 0.030084 0.757914
O O1 0.027470 0.605066 0.441402
O O2 0.869625 0.437434 0.173117
O O3 0.527417 0.557673 0.443270
O O4 0.000000 0.500000 0.000000
O O5 0.359002 0.879298 0.454598
O O6 0.826081 0.914552 0.172134
O O7 0.761949 0.755007 0.968223
O O8 0.449977 0.816433 0.013878
O O9 0.651325 0.261942 0.349441
O O10 0.928155 0.335850 0.175931
O O11 0.860302 0.827514 0.652880
O O12 0.388974 0.911285 0.999719
O O13 0.000000 0.500000 0.500000
O O14 0.131023 0.056545 0.315215
O O15 0.000000 0.000000 0.000000
O O16 0.000000 0.000000 0.500000
#
# Coordination Sequence:
#
# PCOD8016219 Si02
#       7
#     2   2   2   2   2   2   2
#     4  10  21  43  76 102 128 168 218 265 318 391
#     4  11  23  42  62  93 134 177 212 282 338 370
#     4  10  23  43  65  93 143 172 212 267 330 397
#     4  11  23  41  62  93 131 175 220 277 335 377
#     4   9  20  42  70  99 127 171 209 256 322 394
#     4  12  23  41  69  92 126 178 235 276 323 387
#     4  11  21  40  68  88 123 174 223 281 330 386
#
# _framework density 21.925625
#
# number of rings (size 3 to 8) (size 9 to 14) (size 15 to 20)
#    0.000    1.429    2.857    2.571    0.000    2.286 
#    0.000   18.571    0.000    0.000    0.000    0.000 
#    0.000    0.000    0.000    0.000    0.000    0.000 
#
# Total GULP energy -173495.522707 kJ/mol
# GULP energy per Si atom -12392.537336 kJ/mol
# Density = 2.187572 g / cm^3
# Si number density = 21.925625 Si / 1000 Ang^3
#
#
#
# Elastic Constant Matrix: (Units=GPa)
#
#
# Indices 1 2 3 4 5 6 
#
# 1 111.6855 54.8601 43.4637 -3.4866 -2.9539 -9.3952
# 2 54.8601 129.3702 62.1793 -7.0514 -6.5151 -12.0192
# 3 43.4637 62.1793 97.7399 -16.9979 2.5863 -11.1922
# 4 -3.4866 -7.0514 -16.9979 36.0321 -2.1005 -1.0900
# 5 -2.9539 -6.5151 2.5863 -2.1005 32.3959 4.5342
# 6 -9.3952 -12.0192 -11.1922 -1.0900 4.5342 49.3923
#
#
#
# Elastic Compliance Matrix: (Units=1/GPa)
#
#
# Indices 1 2 3 4 5 6 
#
# 1 0.011955 -0.003501 -0.003202 -0.000991 0.000489 0.000630
# 2 -0.003501 0.012497 -0.006528 -0.000803 0.002573 0.000642
# 3 -0.003202 -0.006528 0.017247 0.006446 -0.002860 0.002115
# 4 -0.000991 -0.000803 0.006446 0.030649 0.000988 0.001662
# 5 0.000489 0.002573 -0.002860 0.000988 0.032122 -0.002856
# 6 0.000630 0.000642 0.002115 0.001662 -0.002856 0.021300
#
#
# Mechanical properties :
#
#
# Convention : Reuss Voigt Hill
#
# Bulk Modulus (GPa) = 65.63027 73.31129 69.47078
# Shear Modulus (GPa) = 31.78424 35.45023 33.61724
#
# Velocity S-wave (km/s) = 3.81154 4.02536 3.91991
# Velocity P-wave (km/s) = 7.02628 7.42385 7.22780
#
# Compressibility (1/GPa) = 0.01523687
#
# Stress axis : x y z
#
# Youngs Moduli (GPa) = 83.64993 80.01642 57.98220
#
# Poissons Ratio (x) = 0.28017 0.18565
# Poissons Ratio (y) = 0.29290 0.37849
# Poissons Ratio (z) = 0.26783 0.52232
#
# Static dielectric constant tensor:
#      x y z
#    x 4.206660 -0.202050 -0.041750 
#    y -0.202050 3.883690 0.043520 
#    z -0.041750 0.043520 3.565080 
# 
# 
# High freq. dielectric constant tensor:
#      x y z
#    x 1.885910 -0.002070 0.000500 
#    y -0.002070 1.875500 -0.000120 
#    z 0.000500 -0.000120 1.821790 
# 
# From -- ./inp_files/43936.got.cif
#   From: 2010.06.25/outbox.cif.g09.slc.cpg/sg2_22_cif.got.tgz:43936.got - 2010.06.27 13:26:56.
