data_PCOD8016557
_publ_section_title
;
Structure prediction by ZEFSAII (Michael W. Deem and Ramdas Pophale) SiO2 
 PCOD8016557
Probable space group: P -1
;
_chemical_formula_sum "Si O2"
_cell_formula_units_Z 14
_cell_length_a 15.832493
_cell_length_b 8.902219
_cell_length_c 8.344200
_cell_angle_alpha 137.120802
_cell_angle_beta 115.806087
_cell_angle_gamma 88.527391
_cell_volume 632.506993
_symmetry_space_group_name_H-M "P -1"
_symmetry_group_IT_number 2
_symmetry_cell_setting 'triclinic'
loop_
_space_group_symop_operation_xyz
x,y,z
-x,-y,-z
loop_
_atom_site_type_symbol
_atom_site_label
_atom_site_fract_x
_atom_site_fract_y
_atom_site_fract_z
Si Si1 0.387101 0.469172 0.570973
Si Si2 0.924072 0.613842 0.986392
Si Si3 0.924355 0.970267 0.768884
Si Si4 0.751800 0.070119 0.849672
Si Si5 0.632080 0.720801 0.949175
Si Si6 0.225834 0.456589 0.897674
Si Si7 0.746976 0.255694 0.328452
O O1 0.511913 0.626201 0.833956
O O2 0.364633 0.402764 0.313284
O O3 0.334299 0.641869 0.709654
O O4 0.340070 0.219872 0.448006
O O5 0.851396 0.473646 0.664752
O O6 0.852336 0.610741 0.069924
O O7 0.000000 0.500000 0.000000
O O8 0.001831 0.899992 0.222713
O O9 0.856454 0.106841 0.871703
O O10 0.843438 0.683685 0.427294
O O11 0.000000 0.000000 0.000000
O O12 0.713042 0.245411 0.858703
O O13 0.783717 0.163977 0.130946
O O14 0.688790 0.637402 0.066599
O O15 0.689552 0.022654 0.221944
#
# Coordination Sequence:
#
# PCOD8016557 Si02
#       7
#     2   2   2   2   2   2   2
#     4  10  21  45  67 101 129 177 217 270 337 390
#     4  12  24  42  67  97 133 175 220 275 329 383
#     4  12  27  43  66  94 135 182 221 266 328 394
#     4  11  25  43  65  96 139 172 221 267 327 400
#     4  10  23  40  74  97 132 170 221 277 330 387
#     4  12  25  44  65 102 135 171 221 277 324 391
#     4  11  23  44  68  97 135 173 223 272 325 399
#
# _framework density 22.134143999999999
#
# number of rings (size 3 to 8) (size 9 to 14) (size 15 to 20)
#    0.000    0.857    2.857    4.286    4.000    1.714 
#    0.000    2.857    0.000    0.000    0.000    0.000 
#    0.000    0.000    0.000    0.000    0.000    0.000 
#
# Total GULP energy -173652.642632 kJ/mol
# GULP energy per Si atom -12403.760188 kJ/mol
# Density = 2.208377 g / cm^3
# Si number density = 22.134144 Si / 1000 Ang^3
#
#
#
# Elastic Constant Matrix: (Units=GPa)
#
#
# Indices 1 2 3 4 5 6 
#
# 1 91.1426 28.1791 24.2939 0.4191 8.6225 -1.8770
# 2 28.1791 140.9727 25.6300 25.5377 17.8361 -7.5976
# 3 24.2939 25.6300 65.9257 6.9445 8.6865 -3.3942
# 4 0.4191 25.5377 6.9445 42.5527 1.7509 0.7602
# 5 8.6225 17.8361 8.6865 1.7509 34.0176 -1.2274
# 6 -1.8770 -7.5976 -3.3942 0.7602 -1.2274 35.4554
#
#
#
# Elastic Compliance Matrix: (Units=1/GPa)
#
#
# Indices 1 2 3 4 5 6 
#
# 1 0.012752 -0.002003 -0.003951 0.001778 -0.001272 -0.000215
# 2 -0.002003 0.009295 -0.001772 -0.005152 -0.003587 0.001702
# 3 -0.003951 -0.001772 0.017882 -0.001732 -0.002507 0.001073
# 4 0.001778 -0.005152 -0.001732 0.026837 0.001250 -0.001708
# 5 -0.001272 -0.003587 -0.002507 0.001250 0.032176 0.000011
# 6 -0.000215 0.001702 0.001073 -0.001708 0.000011 0.028698
#
#
# Mechanical properties :
#
#
# Convention : Reuss Voigt Hill
#
# Bulk Modulus (GPa) = 40.85762 50.47191 45.66476
# Shear Modulus (GPa) = 33.05759 37.06767 35.06263
#
# Velocity S-wave (km/s) = 3.86879 4.09673 3.98439
# Velocity P-wave (km/s) = 6.20128 6.72531 6.46860
#
# Compressibility (1/GPa) = 0.02447524
#
# Stress axis : x y z
#
# Youngs Moduli (GPa) = 78.41840 107.58293 55.92311
#
# Poissons Ratio (x) = 0.21552 0.22096
# Poissons Ratio (y) = 0.15710 0.09912
# Poissons Ratio (z) = 0.30984 0.19069
#
# Static dielectric constant tensor:
#      x y z
#    x 4.322790 0.053900 0.108270 
#    y 0.053900 4.062780 0.172610 
#    z 0.108270 0.172610 3.991820 
# 
# 
# High freq. dielectric constant tensor:
#      x y z
#    x 1.878190 0.005540 -0.002000 
#    y 0.005540 1.880260 0.010730 
#    z -0.002000 0.010730 1.866690 
# 
# From -- ./inp_files/24681.got.cif
#   From: 2010.06.25/outbox.cif.g09.slc.cpg/sg2_13_cif.got.tgz:24681.got - 2010.06.27 13:26:56.
