data_PCOD8016178
_publ_section_title
;
Structure prediction by ZEFSAII (Michael W. Deem and Ramdas Pophale) SiO2 
 PCOD8016178
Probable space group: P -1
;
_chemical_formula_sum "Si O2"
_cell_formula_units_Z 14
_cell_length_a 9.370257
_cell_length_b 8.138143
_cell_length_c 11.647770
_cell_angle_alpha 70.535020
_cell_angle_beta 133.316798
_cell_angle_gamma 108.665584
_cell_volume 603.869517
_symmetry_space_group_name_H-M "P -1"
_symmetry_group_IT_number 2
_symmetry_cell_setting 'triclinic'
loop_
_space_group_symop_operation_xyz
x,y,z
-x,-y,-z
loop_
_atom_site_type_symbol
_atom_site_label
_atom_site_fract_x
_atom_site_fract_y
_atom_site_fract_z
Si Si1 0.809420 0.882907 0.144060
Si Si2 0.475961 0.428544 0.875132
Si Si3 0.447202 0.760633 0.647894
Si Si4 0.119309 0.190764 0.037635
Si Si5 0.145072 0.011321 0.469318
Si Si6 0.487982 0.293583 0.555526
Si Si7 0.252616 0.753373 0.071922
O O1 0.661434 0.758643 0.173671
O O2 0.834983 0.749175 0.082544
O O3 0.018004 0.947458 0.302710
O O4 0.711824 0.053596 0.011696
O O5 0.385720 0.565786 0.710753
O O6 0.690723 0.394608 0.951568
O O7 0.500000 0.500000 0.000000
O O8 0.415337 0.775236 0.490518
O O9 0.314293 0.886156 0.610941
O O10 0.679042 0.819349 0.781997
O O11 0.976683 0.303879 0.003832
O O12 0.000000 0.000000 0.000000
O O13 0.258200 0.207787 0.465343
O O14 0.000000 0.000000 0.500000
O O15 0.500000 0.500000 0.500000
O O16 0.611326 0.239143 0.742890
#
# Coordination Sequence:
#
# PCOD8016178 Si02
#       7
#     2   2   2   2   2   2   2
#     4  11  24  47  72 106 146 195 243 297 369 440
#     4  12  26  45  72 111 148 190 241 312 361 432
#     4  12  26  50  72 107 152 193 245 304 373 431
#     4  10  21  43  72 103 133 187 244 294 354 432
#     4  12  28  48  76 108 150 199 244 299 376 444
#     4  12  25  49  75 111 149 189 246 309 365 433
#     4  11  24  46  78 102 144 193 248 294 370 441
#
# _framework density 23.183817999999999
#
# number of rings (size 3 to 8) (size 9 to 14) (size 15 to 20)
#    0.000    0.571    2.857    6.000    2.000    1.143 
#    5.143    0.000    0.000    0.000    0.000    0.000 
#    0.000    0.000    0.000    0.000    0.000    0.000 
#
# Total GULP energy -173570.655745 kJ/mol
# GULP energy per Si atom -12397.903982 kJ/mol
# Density = 2.313105 g / cm^3
# Si number density = 23.183818 Si / 1000 Ang^3
#
#
#
# Elastic Constant Matrix: (Units=GPa)
#
#
# Indices 1 2 3 4 5 6 
#
# 1 167.1802 61.4122 58.8565 -4.1692 7.2031 -22.3900
# 2 61.4122 111.2480 53.4054 -15.3796 9.8651 5.3619
# 3 58.8565 53.4054 139.7882 4.8501 4.7872 -1.0459
# 4 -4.1692 -15.3796 4.8501 33.7822 -0.3185 -7.7598
# 5 7.2031 9.8651 4.7872 -0.3185 43.4704 -0.0154
# 6 -22.3900 5.3619 -1.0459 -7.7598 -0.0154 53.6794
#
#
#
# Elastic Compliance Matrix: (Units=1/GPa)
#
#
# Indices 1 2 3 4 5 6 
#
# 1 0.008745 -0.003870 -0.002181 0.000563 -0.000325 0.004073
# 2 -0.003870 0.014128 -0.003921 0.005983 -0.002090 -0.002237
# 3 -0.002181 -0.003921 0.009685 -0.003640 0.000158 -0.000856
# 4 0.000563 0.005983 -0.003640 0.033937 -0.000800 0.004472
# 5 -0.000325 -0.002090 0.000158 -0.000800 0.023509 -0.000033
# 6 0.004073 -0.002237 -0.000856 0.004472 -0.000033 0.021181
#
#
# Mechanical properties :
#
#
# Convention : Reuss Voigt Hill
#
# Bulk Modulus (GPa) = 79.28365 85.06274 82.17319
# Shear Modulus (GPa) = 36.94608 42.48922 39.71765
#
# Velocity S-wave (km/s) = 3.99634 4.28566 4.14353
# Velocity P-wave (km/s) = 7.45429 7.82684 7.64283
#
# Compressibility (1/GPa) = 0.01261294
#
# Stress axis : x y z
#
# Youngs Moduli (GPa) = 114.35745 70.78269 103.25733
#
# Poissons Ratio (x) = 0.27391 0.22524
# Poissons Ratio (y) = 0.44253 0.40486
# Poissons Ratio (z) = 0.24945 0.27753
#
# Static dielectric constant tensor:
#      x y z
#    x 5.940290 0.069140 0.018650 
#    y 0.069140 4.266860 0.021070 
#    z 0.018650 0.021070 4.319250 
# 
# 
# High freq. dielectric constant tensor:
#      x y z
#    x 1.937770 0.004190 -0.010900 
#    y 0.004190 1.920220 0.003580 
#    z -0.010900 0.003580 1.910630 
# 
# From -- ./inp_files/378470.got.cif
#   From: 2010.06.25/outbox.cif.g09.slc.cpg/sg2_190_cif.got.tgz:378470.got - 2010.06.27 13:26:56.
