data_PCOD8016077
_publ_section_title
;
Structure prediction by ZEFSAII (Michael W. Deem and Ramdas Pophale) SiO2 
 PCOD8016077
Probable space group: P -1
;
_chemical_formula_sum "Si O2"
_cell_formula_units_Z 16
_cell_length_a 14.382423
_cell_length_b 7.723732
_cell_length_c 11.959805
_cell_angle_alpha 78.980246
_cell_angle_beta 64.283842
_cell_angle_gamma 34.534266
_cell_volume 641.587143
_symmetry_space_group_name_H-M "P -1"
_symmetry_group_IT_number 2
_symmetry_cell_setting 'triclinic'
loop_
_space_group_symop_operation_xyz
x,y,z
-x,-y,-z
loop_
_atom_site_type_symbol
_atom_site_label
_atom_site_fract_x
_atom_site_fract_y
_atom_site_fract_z
Si Si1 0.037986 0.264567 0.944540
Si Si2 0.431480 0.663627 0.195570
Si Si3 0.252423 0.169030 0.673792
Si Si4 0.634603 0.721831 0.055359
Si Si5 0.957249 0.155469 0.618435
Si Si6 0.455010 0.218316 0.264677
Si Si7 0.090928 0.095739 0.175413
Si Si8 0.673729 0.161515 0.515627
O O1 0.190274 0.082393 0.789516
O O2 0.111735 0.039280 0.037294
O O3 0.000000 0.500000 0.000000
O O4 0.856519 0.439825 0.955383
O O5 0.602523 0.555567 0.097796
O O6 0.482518 0.383566 0.187803
O O7 0.358934 0.809415 0.340064
O O8 0.268145 0.947203 0.155601
O O9 0.101866 0.536961 0.728017
O O10 0.464227 0.912527 0.635796
O O11 0.279427 0.091502 0.537632
O O12 0.585993 0.892713 0.172894
O O13 0.500000 0.000000 0.000000
O O14 0.760457 0.542347 0.655279
O O15 0.132090 0.015839 0.584479
O O16 0.000000 0.000000 0.500000
O O17 0.909516 0.097623 0.752497
O O18 0.500000 0.500000 0.500000
#
# Coordination Sequence:
#
# PCOD8016077 Si02
#       8
#     2   2   2   2   2   2   2   2
#     4  10  21  43  70 100 138 183 234 293 345 429
#     4  11  26  47  70 108 142 184 239 294 356 412
#     4  11  23  44  73  97 143 189 232 292 362 408
#     4  12  26  45  74 105 145 186 241 289 356 426
#     4  11  23  45  68  98 142 186 239 287 358 410
#     4  11  24  47  69 104 142 187 232 292 356 415
#     4  10  22  43  69  99 137 185 234 292 346 428
#     4  12  25  45  69 101 147 179 238 300 338 432
#
# _framework density 24.938157
#
# number of rings (size 3 to 8) (size 9 to 14) (size 15 to 20)
#    0.000    1.000    6.250    1.500    5.250    2.000 
#    2.250    3.125    0.000    0.000    0.000    0.000 
#    0.000    0.000    0.000    0.000    0.000    0.000 
#
# Total GULP energy -198261.632815 kJ/mol
# GULP energy per Si atom -12391.352051 kJ/mol
# Density = 2.488140 g / cm^3
# Si number density = 24.938157 Si / 1000 Ang^3
#
#
#
# Elastic Constant Matrix: (Units=GPa)
#
#
# Indices 1 2 3 4 5 6 
#
# 1 110.8257 39.0941 -5.2950 2.5667 -12.4057 -36.2810
# 2 39.0941 105.5107 0.0991 8.2481 0.4767 -40.3958
# 3 -5.2950 0.0991 43.5515 -8.9451 3.6508 -17.9529
# 4 2.5667 8.2481 -8.9451 40.6582 -8.5658 3.4324
# 5 -12.4057 0.4767 3.6508 -8.5658 38.8511 3.9805
# 6 -36.2810 -40.3958 -17.9529 3.4324 3.9805 52.1657
#
#
#
# Elastic Compliance Matrix: (Units=1/GPa)
#
#
# Indices 1 2 3 4 5 6 
#
# 1 0.013283 -0.001110 0.005611 0.000355 0.002774 0.010075
# 2 -0.001110 0.015220 0.004739 -0.003749 -0.003159 0.013132
# 3 0.005611 0.004739 0.032268 0.003709 -0.002388 0.018615
# 4 0.000355 -0.003749 0.003709 0.027792 0.006316 -0.003690
# 5 0.002774 -0.003159 -0.002388 0.006316 0.028685 -0.003943
# 6 0.010075 0.013132 0.018615 -0.003690 -0.003943 0.043296
#
#
# Mechanical properties :
#
#
# Convention : Reuss Voigt Hill
#
# Bulk Modulus (GPa) = 12.61821 36.40938 24.51380
# Shear Modulus (GPa) = 29.67676 41.40096 35.53886
#
# Velocity S-wave (km/s) = 3.45340 4.07891 3.77912
# Velocity P-wave (km/s) = 4.57953 6.06753 5.37527
#
# Compressibility (1/GPa) = 0.07925052
#
# Stress axis : x y z
#
# Youngs Moduli (GPa) = 75.28216 65.70433 30.99008
#
# Poissons Ratio (x) = 0.07293 -0.17389
# Poissons Ratio (y) = 0.08357 -0.14685
# Poissons Ratio (z) = -0.42241 -0.31134
#
# Static dielectric constant tensor:
#      x y z
#    x 5.129370 -0.884600 0.513010 
#    y -0.884600 4.605330 0.190560 
#    z 0.513010 0.190560 4.152040 
# 
# 
# High freq. dielectric constant tensor:
#      x y z
#    x 1.994280 -0.024460 0.007530 
#    y -0.024460 2.002400 0.000640 
#    z 0.007530 0.000640 1.989160 
# 
# From -- ./inp_files/274842.got.cif
#   From: 2010.06.25/outbox.cif.g09.slc.cpg/sg2_138_cif.got.tgz:274842.got - 2010.06.27 13:26:56.
