data_PCOD8016837
_publ_section_title
;
Structure prediction by ZEFSAII (Michael W. Deem and Ramdas Pophale) SiO2 
 PCOD8016837
Probable space group: P -1
;
_chemical_formula_sum "Si O2"
_cell_formula_units_Z 14
_cell_length_a 15.164258
_cell_length_b 25.136880
_cell_length_c 26.173497
_cell_angle_alpha 10.989531
_cell_angle_beta 158.805107
_cell_angle_gamma 158.032360
_cell_volume 676.865448
_symmetry_space_group_name_H-M "P -1"
_symmetry_group_IT_number 2
_symmetry_cell_setting 'triclinic'
loop_
_space_group_symop_operation_xyz
x,y,z
-x,-y,-z
loop_
_atom_site_type_symbol
_atom_site_label
_atom_site_fract_x
_atom_site_fract_y
_atom_site_fract_z
Si Si1 0.869422 0.616867 0.398621
Si Si2 0.275811 0.603601 0.753875
Si Si3 0.159551 0.928260 0.472177
Si Si4 0.212061 0.280450 0.848430
Si Si5 0.419775 0.182303 0.739594
Si Si6 0.186000 0.793178 0.152081
Si Si7 0.557590 0.483139 0.926848
O O1 0.685792 0.648663 0.221088
O O2 0.764644 0.368288 0.616329
O O3 0.111270 0.552284 0.560774
O O4 0.928358 0.922771 0.168715
O O5 0.234697 0.901344 0.477343
O O6 0.336762 0.596060 0.733456
O O7 0.010190 0.398318 0.810456
O O8 0.500000 0.500000 0.000000
O O9 0.869117 0.892275 0.357296
O O10 0.274738 0.230556 0.273207
O O11 0.263912 0.675204 0.794458
O O12 0.445071 0.268411 0.023073
O O13 0.000000 0.000000 0.000000
O O14 0.500000 0.500000 0.500000
O O15 0.554177 0.123297 0.815221
O O16 0.500000 0.000000 0.000000
#
# Coordination Sequence:
#
# PCOD8016837 Si02
#       7
#     2   2   2   2   2   2   2
#     4  11  24  38  64  97 127 158 217 263 329 370
#     4  10  22  36  60  91 136 163 205 245 329 389
#     4  11  25  41  59  95 130 174 211 258 315 385
#     4  11  23  41  68  98 133 164 215 265 332 396
#     4  12  25  44  68  89 128 180 228 260 300 373
#     4  12  24  41  64  95 128 173 211 272 310 378
#     4  11  24  38  65  92 134 164 204 265 334 381
#
# _framework density 20.683578000000001
#
# number of rings (size 3 to 8) (size 9 to 14) (size 15 to 20)
#    0.000    0.857    4.286    2.143   10.000    0.000 
#    0.000    0.000    0.000    5.143    0.000    0.000 
#    0.000    0.000    0.000    0.000    0.000    0.000 
#
# Total GULP energy -173496.630838 kJ/mol
# GULP energy per Si atom -12392.616488 kJ/mol
# Density = 2.063650 g / cm^3
# Si number density = 20.683578 Si / 1000 Ang^3
#
#
#
# Elastic Constant Matrix: (Units=GPa)
#
#
# Indices 1 2 3 4 5 6 
#
# 1 95.2807 41.6719 30.9412 4.4137 -15.1036 -1.9494
# 2 41.6719 133.3252 35.5890 -0.1193 5.3576 -1.4419
# 3 30.9412 35.5890 109.2401 -15.4661 -0.6645 2.5606
# 4 4.4137 -0.1193 -15.4661 32.5307 -2.1403 3.9666
# 5 -15.1036 5.3576 -0.6645 -2.1403 29.9508 -7.2932
# 6 -1.9494 -1.4419 2.5606 3.9666 -7.2932 31.3259
#
#
#
# Elastic Compliance Matrix: (Units=1/GPa)
#
#
# Indices 1 2 3 4 5 6 
#
# 1 0.015054 -0.004103 -0.003459 -0.003551 0.008857 0.003543
# 2 -0.004103 0.009475 -0.002017 -0.000567 -0.003973 -0.000507
# 3 -0.003459 -0.002017 0.011722 0.006239 -0.001249 -0.002347
# 4 -0.003551 -0.000567 0.006239 0.034803 -0.000341 -0.005243
# 5 0.008857 -0.003973 -0.001249 -0.000341 0.040961 0.010050
# 6 0.003543 -0.000507 -0.002347 -0.005243 0.010050 0.035315
#
#
# Mechanical properties :
#
#
# Convention : Reuss Voigt Hill
#
# Bulk Modulus (GPa) = 58.50595 61.58334 60.04464
# Shear Modulus (GPa) = 29.03842 34.07108 31.55475
#
# Velocity S-wave (km/s) = 3.75098 4.06304 3.91012
# Velocity P-wave (km/s) = 6.86348 7.20067 7.03410
#
# Compressibility (1/GPa) = 0.01709228
#
# Stress axis : x y z
#
# Youngs Moduli (GPa) = 66.42730 105.54183 85.31051
#
# Poissons Ratio (x) = 0.43300 0.29511
# Poissons Ratio (y) = 0.27253 0.17210
# Poissons Ratio (z) = 0.22979 0.21291
#
# Static dielectric constant tensor:
#      x y z
#    x 4.196510 -0.355780 -0.019060 
#    y -0.355780 3.279530 0.168990 
#    z -0.019060 0.168990 3.775750 
# 
# 
# High freq. dielectric constant tensor:
#      x y z
#    x 1.801710 -0.020360 -0.005430 
#    y -0.020360 1.793800 -0.004980 
#    z -0.005430 -0.004980 1.818610 
# 
# From -- ./inp_files/366299.got.cif
#   From: 2010.06.25/outbox.cif.g09.slc.cpg/sg2_184_cif.got.tgz:366299.got - 2010.06.27 13:26:56.
