data_PCOD8016872
_publ_section_title
;
Structure prediction by ZEFSAII (Michael W. Deem and Ramdas Pophale) SiO2 
 PCOD8016872
Probable space group: P -1
;
_chemical_formula_sum "Si O2"
_cell_formula_units_Z 16
_cell_length_a 11.673945
_cell_length_b 9.376740
_cell_length_c 11.562379
_cell_angle_alpha 131.315705
_cell_angle_beta 61.563008
_cell_angle_gamma 127.131467
_cell_volume 751.479497
_symmetry_space_group_name_H-M "P -1"
_symmetry_group_IT_number 2
_symmetry_cell_setting 'triclinic'
loop_
_space_group_symop_operation_xyz
x,y,z
-x,-y,-z
loop_
_atom_site_type_symbol
_atom_site_label
_atom_site_fract_x
_atom_site_fract_y
_atom_site_fract_z
Si Si1 0.362668 0.709883 0.966931
Si Si2 0.854129 0.454598 0.824913
Si Si3 0.606637 0.568345 0.375967
Si Si4 0.352862 0.974229 0.904806
Si Si5 0.207270 0.000205 0.440368
Si Si6 0.909657 0.844187 0.619158
Si Si7 0.173861 0.548714 0.681057
Si Si8 0.131800 0.155589 0.096813
O O1 0.446377 0.586445 0.793794
O O2 0.311207 0.842119 0.974582
O O3 0.221824 0.545739 0.015973
O O4 0.475646 0.873832 0.093122
O O5 0.823560 0.603039 0.829018
O O6 0.027212 0.540475 0.803492
O O7 0.778894 0.217121 0.684271
O O8 0.500000 0.500000 0.500000
O O9 0.650566 0.817048 0.466815
O O10 0.761489 0.566907 0.325522
O O11 0.296137 0.791450 0.734028
O O12 0.273660 0.119601 0.995708
O O13 0.197522 0.078534 0.355388
O O14 0.068642 0.977211 0.565486
O O15 0.860185 0.590045 0.494043
O O16 0.918573 0.894759 0.775338
O O17 0.000000 0.000000 0.000000
#
# Coordination Sequence:
#
# PCOD8016872 Si02
#       8
#     2   2   2   2   2   2   2   2
#     4  10  24  40  70  96 128 170 214 287 319 381
#     4  11  23  41  61 100 128 171 216 258 337 381
#     4  10  22  36  64 100 129 162 219 269 337 371
#     4  10  22  42  64  96 124 171 219 265 333 375
#     4   9  20  38  65  95 124 163 216 284 311 375
#     4   9  20  39  64  92 127 165 219 268 326 366
#     4   9  20  39  63  95 123 165 209 277 311 390
#     4  12  25  40  63  94 138 181 210 262 322 410
#
# _framework density 21.291332000000001
#
# number of rings (size 3 to 8) (size 9 to 14) (size 15 to 20)
#    0.000    2.000    1.250    1.500   10.500    4.500 
#    0.000    0.000    0.000    1.500    0.000    0.000 
#    0.000    0.000    0.000    0.000    0.000    0.000 
#
# Total GULP energy -198219.757536 kJ/mol
# GULP energy per Si atom -12388.734846 kJ/mol
# Density = 2.124287 g / cm^3
# Si number density = 21.291332 Si / 1000 Ang^3
#
#
#
# Elastic Constant Matrix: (Units=GPa)
#
#
# Indices 1 2 3 4 5 6 
#
# 1 69.4398 26.4423 5.7939 16.2907 -6.9664 -6.9809
# 2 26.4423 86.5239 31.0041 33.8277 -0.4102 -9.7058
# 3 5.7939 31.0041 64.4709 28.9418 3.0705 -1.0762
# 4 16.2907 33.8277 28.9418 40.9080 1.7979 5.7054
# 5 -6.9664 -0.4102 3.0705 1.7979 29.5857 9.0430
# 6 -6.9809 -9.7058 -1.0762 5.7054 9.0430 34.6837
#
#
#
# Elastic Compliance Matrix: (Units=1/GPa)
#
#
# Indices 1 2 3 4 5 6 
#
# 1 0.017719 -0.003458 0.003073 -0.006931 0.003319 0.002969
# 2 -0.003458 0.019989 -0.002710 -0.014220 -0.001715 0.007600
# 3 0.003073 -0.002710 0.024093 -0.016476 -0.001985 0.003836
# 4 -0.006931 -0.014220 -0.016476 0.052640 0.001225 -0.014864
# 5 0.003319 -0.001715 -0.001985 0.001225 0.037718 -0.009909
# 6 0.002969 0.007600 0.003836 -0.014864 -0.009909 0.036704
#
#
# Mechanical properties :
#
#
# Convention : Reuss Voigt Hill
#
# Bulk Modulus (GPa) = 17.98173 38.54613 28.26393
# Shear Modulus (GPa) = 23.40953 31.51511 27.46232
#
# Velocity S-wave (km/s) = 3.31945 3.85149 3.59532
# Velocity P-wave (km/s) = 4.81202 6.15809 5.52619
#
# Compressibility (1/GPa) = 0.05561201
#
# Stress axis : x y z
#
# Youngs Moduli (GPa) = 56.43767 50.02731 41.50618
#
# Poissons Ratio (x) = 0.17298 -0.12757
# Poissons Ratio (y) = 0.19514 0.11249
# Poissons Ratio (z) = -0.17346 0.13558
#
# Static dielectric constant tensor:
#      x y z
#    x 3.727230 0.146390 0.049880 
#    y 0.146390 3.894320 0.456570 
#    z 0.049880 0.456570 4.204460 
# 
# 
# High freq. dielectric constant tensor:
#      x y z
#    x 1.807360 0.021150 -0.009690 
#    y 0.021150 1.825400 0.029530 
#    z -0.009690 0.029530 1.838520 
# 
# From -- ./inp_files/398798.got.cif
#   From: 2010.06.25/outbox.cif.g09.slc.cpg/sg2_200_cif.got.tgz:398798.got - 2010.06.27 13:26:56.
