data_PCOD8016505
_publ_section_title
;
Structure prediction by ZEFSAII (Michael W. Deem and Ramdas Pophale) SiO2 
 PCOD8016505
Probable space group: P -1
;
_chemical_formula_sum "Si O2"
_cell_formula_units_Z 16
_cell_length_a 16.635300
_cell_length_b 8.661811
_cell_length_c 8.842544
_cell_angle_alpha 45.739930
_cell_angle_beta 112.374347
_cell_angle_gamma 86.917246
_cell_volume 739.161934
_symmetry_space_group_name_H-M "P -1"
_symmetry_group_IT_number 2
_symmetry_cell_setting 'triclinic'
loop_
_space_group_symop_operation_xyz
x,y,z
-x,-y,-z
loop_
_atom_site_type_symbol
_atom_site_label
_atom_site_fract_x
_atom_site_fract_y
_atom_site_fract_z
Si Si1 0.982546 0.653833 0.536112
Si Si2 0.410321 0.656193 0.622529
Si Si3 0.371548 0.614163 0.966025
Si Si4 0.081428 0.866462 0.276451
Si Si5 0.784136 0.856965 0.420889
Si Si6 0.860409 0.735846 0.886464
Si Si7 0.327589 0.203419 0.125327
Si Si8 0.719161 0.566729 0.383127
O O1 0.866819 0.812052 0.384428
O O2 0.000000 0.500000 0.500000
O O3 0.028958 0.832762 0.411950
O O4 0.034291 0.488875 0.834010
O O5 0.370118 0.693497 0.738349
O O6 0.343048 0.577042 0.524252
O O7 0.402731 0.914218 0.392250
O O8 0.525001 0.446811 0.837628
O O9 0.281360 0.848498 0.819009
O O10 0.358273 0.371819 0.134593
O O11 0.164444 0.611180 0.441570
O O12 0.137913 0.010361 0.270725
O O13 0.000000 0.000000 0.000000
O O14 0.833256 0.717180 0.707515
O O15 0.714117 0.742154 0.397148
O O16 0.781904 0.736303 0.947698
O O17 0.332046 0.264861 0.912949
#
# Coordination Sequence:
#
# PCOD8016505 Si02
#       8
#     2   2   2   2   2   2   2   2
#     4  12  24  44  66  94 134 179 218 264 325 399
#     4  10  21  44  73  92 128 178 220 268 332 402
#     4  10  23  42  67 102 130 167 220 279 333 381
#     4  12  23  41  68  94 126 179 222 260 326 397
#     4  12  25  44  62 101 142 168 218 282 324 387
#     4  12  23  42  66  97 133 173 222 271 328 383
#     4  11  20  43  71  94 128 175 222 266 330 402
#     4  11  23  41  67  96 133 174 220 268 326 394
#
# _framework density 21.646137
#
# number of rings (size 3 to 8) (size 9 to 14) (size 15 to 20)
#    0.000    0.750    6.250    1.500    0.000    1.000 
#    6.750    0.625    0.000    0.000    0.000    0.000 
#    0.000    0.000    0.000    0.000    0.000    0.000 
#
# Total GULP energy -198441.794384 kJ/mol
# GULP energy per Si atom -12402.612149 kJ/mol
# Density = 2.159687 g / cm^3
# Si number density = 21.646137 Si / 1000 Ang^3
#
#
#
# Elastic Constant Matrix: (Units=GPa)
#
#
# Indices 1 2 3 4 5 6 
#
# 1 91.3239 51.5581 37.2230 -7.6435 7.7274 10.2759
# 2 51.5581 129.1122 56.1089 1.7699 3.4516 18.9506
# 3 37.2230 56.1089 109.7559 -11.7442 8.0251 2.3362
# 4 -7.6435 1.7699 -11.7442 32.4361 5.2911 3.0713
# 5 7.7274 3.4516 8.0251 5.2911 37.2153 -6.5561
# 6 10.2759 18.9506 2.3362 3.0713 -6.5561 37.0188
#
#
#
# Elastic Compliance Matrix: (Units=1/GPa)
#
#
# Indices 1 2 3 4 5 6 
#
# 1 0.015426 -0.004868 -0.002021 0.003957 -0.003333 -0.002581
# 2 -0.004868 0.012571 -0.005091 -0.003369 0.000652 -0.004368
# 3 -0.002021 -0.005091 0.013046 0.004759 -0.002327 0.001537
# 4 0.003957 -0.003369 0.004759 0.035215 -0.007225 -0.003875
# 5 -0.003333 0.000652 -0.002327 -0.007225 0.030209 0.006688
# 6 -0.002581 -0.004368 0.001537 -0.003875 0.006688 0.031375
#
#
# Mechanical properties :
#
#
# Convention : Reuss Voigt Hill
#
# Bulk Modulus (GPa) = 58.53715 68.88577 63.71146
# Shear Modulus (GPa) = 29.85151 33.68750 31.76951
#
# Velocity S-wave (km/s) = 3.71761 3.94925 3.83518
# Velocity P-wave (km/s) = 6.74752 7.25866 7.00775
#
# Compressibility (1/GPa) = 0.01708317
#
# Stress axis : x y z
#
# Youngs Moduli (GPa) = 64.82719 79.54584 76.65314
#
# Poissons Ratio (x) = 0.38723 0.15491
# Poissons Ratio (y) = 0.31558 0.39024
# Poissons Ratio (z) = 0.13101 0.40496
#
# Static dielectric constant tensor:
#      x y z
#    x 4.042080 0.356960 -0.039710 
#    y 0.356960 3.879430 -0.080420 
#    z -0.039710 -0.080420 3.928800 
# 
# 
# High freq. dielectric constant tensor:
#      x y z
#    x 1.850950 0.022770 0.007380 
#    y 0.022770 1.839030 -0.005700 
#    z 0.007380 -0.005700 1.856170 
# 
# From -- ./inp_files/49154.got.cif
#   From: 2010.06.25/outbox.cif.g09.slc.cpg/sg2_25_cif.got.tgz:49154.got - 2010.06.27 13:26:56.
