data_PCOD8016224
_publ_section_title
;
Structure prediction by ZEFSAII (Michael W. Deem and Ramdas Pophale) SiO2 
 PCOD8016224
Probable space group: P -1
;
_chemical_formula_sum "Si O2"
_cell_formula_units_Z 16
_cell_length_a 6.911184
_cell_length_b 5.342975
_cell_length_c 23.829532
_cell_angle_alpha 100.453194
_cell_angle_beta 124.298604
_cell_angle_gamma 91.440743
_cell_volume 706.019196
_symmetry_space_group_name_H-M "P -1"
_symmetry_group_IT_number 2
_symmetry_cell_setting 'triclinic'
loop_
_space_group_symop_operation_xyz
x,y,z
-x,-y,-z
loop_
_atom_site_type_symbol
_atom_site_label
_atom_site_fract_x
_atom_site_fract_y
_atom_site_fract_z
Si Si1 0.152955 0.478764 0.344333
Si Si2 0.204958 0.175705 0.678361
Si Si3 0.515732 0.056157 0.070947
Si Si4 0.741809 0.454555 0.931656
Si Si5 0.691681 0.649660 0.420279
Si Si6 0.262762 0.663938 0.200931
Si Si7 0.968659 0.702780 0.570489
Si Si8 0.961384 0.835164 0.789974
O O1 0.410021 0.601000 0.368047
O O2 0.186622 0.487215 0.418246
O O3 0.057047 0.218857 0.282275
O O4 0.954260 0.656202 0.305891
O O5 0.207155 0.202318 0.612076
O O6 0.461863 0.220539 0.748112
O O7 0.078359 0.884308 0.647453
O O8 0.374429 0.289742 0.069458
O O9 0.780097 0.149011 0.140095
O O10 0.412689 0.795824 0.076296
O O11 0.500000 0.000000 0.000000
O O12 0.795355 0.413976 0.874540
O O13 0.000000 0.500000 0.000000
O O14 0.791330 0.800851 0.499834
O O15 0.809967 0.387815 0.430036
O O16 0.206293 0.408420 0.219173
O O17 0.119179 0.889482 0.203826
#
# Coordination Sequence:
#
# PCOD8016224 Si02
#       8
#     2   2   2   2   2   2   2   2
#     4  11  24  39  64  95 132 174 230 282 348 408
#     4  11  24  39  64  94 130 176 227 284 347 412
#     4  12  25  45  72 105 142 180 234 280 340 407
#     4  12  25  45  72 104 143 183 230 281 342 404
#     4  10  21  44  59  95 126 176 221 288 346 416
#     4  12  26  45  70  98 139 182 229 282 349 402
#     4  10  23  38  67  88 132 171 228 283 348 417
#     4  12  26  45  70  99 138 183 228 286 345 402
#
# _framework density 22.662275999999999
#
# number of rings (size 3 to 8) (size 9 to 14) (size 15 to 20)
#    0.000    0.750    1.250    6.000    5.250    1.500 
#    0.000    0.000    0.000    0.000    0.000    0.000 
#    0.000    0.000    0.000    0.000    0.000    0.000 
#
# Total GULP energy -198241.691374 kJ/mol
# GULP energy per Si atom -12390.105711 kJ/mol
# Density = 2.261070 g / cm^3
# Si number density = 22.662276 Si / 1000 Ang^3
#
#
#
# Elastic Constant Matrix: (Units=GPa)
#
#
# Indices 1 2 3 4 5 6 
#
# 1 102.1917 12.4191 43.4883 3.6444 -4.8121 -18.1731
# 2 12.4191 73.5582 3.9338 5.9279 -10.6999 -13.4483
# 3 43.4883 3.9338 140.5837 8.1182 5.4189 -11.1255
# 4 3.6444 5.9279 8.1182 35.1183 0.6307 -0.5775
# 5 -4.8121 -10.6999 5.4189 0.6307 46.7339 -2.1282
# 6 -18.1731 -13.4483 -11.1255 -0.5775 -2.1282 35.0072
#
#
#
# Elastic Compliance Matrix: (Units=1/GPa)
#
#
# Indices 1 2 3 4 5 6 
#
# 1 0.012343 -0.000677 -0.003440 -0.000318 0.001754 0.005155
# 2 -0.000677 0.015525 0.000244 -0.002578 0.003759 0.005876
# 3 -0.003440 0.000244 0.008378 -0.001585 -0.001209 0.000871
# 4 -0.000318 -0.002578 -0.001585 0.029305 -0.000891 -0.001230
# 5 0.001754 0.003759 -0.001209 -0.000891 0.022743 0.003338
# 6 0.005155 0.005876 0.000871 -0.001230 0.003338 0.033959
#
#
# Mechanical properties :
#
#
# Convention : Reuss Voigt Hill
#
# Bulk Modulus (GPa) = 35.08930 48.44623 41.76776
# Shear Modulus (GPa) = 35.84291 40.47139 38.15715
#
# Velocity S-wave (km/s) = 3.98126 4.23051 4.10778
# Velocity P-wave (km/s) = 6.05402 6.72955 6.40070
#
# Compressibility (1/GPa) = 0.02849871
#
# Stress axis : x y z
#
# Youngs Moduli (GPa) = 81.02044 64.41366 119.36548
#
# Poissons Ratio (x) = 0.04358 0.41066
# Poissons Ratio (y) = 0.05481 -0.02911
# Poissons Ratio (z) = 0.27874 -0.01571
#
# Static dielectric constant tensor:
#      x y z
#    x 4.144590 -0.117410 -0.089300 
#    y -0.117410 4.197490 -0.043440 
#    z -0.089300 -0.043440 4.358690 
# 
# 
# High freq. dielectric constant tensor:
#      x y z
#    x 1.907050 0.000840 -0.008040 
#    y 0.000840 1.891110 0.001960 
#    z -0.008040 0.001960 1.920500 
# 
# From -- ./inp_files/11189.got.cif
#   From: 2010.06.25/outbox.cif.g09.slc.cpg/sg2_6_cif.got.tgz:11189.got - 2010.06.27 13:26:56.
