data_PCOD8016884
_publ_section_title
;
Structure prediction by ZEFSAII (Michael W. Deem and Ramdas Pophale) SiO2 
 PCOD8016884
Probable space group: P -1
;
_chemical_formula_sum "Si O2"
_cell_formula_units_Z 14
_cell_length_a 12.083221
_cell_length_b 22.478689
_cell_length_c 6.442637
_cell_angle_alpha 94.237147
_cell_angle_beta 65.181245
_cell_angle_gamma 148.932505
_cell_volume 649.560366
_symmetry_space_group_name_H-M "P -1"
_symmetry_group_IT_number 2
_symmetry_cell_setting 'triclinic'
loop_
_space_group_symop_operation_xyz
x,y,z
-x,-y,-z
loop_
_atom_site_type_symbol
_atom_site_label
_atom_site_fract_x
_atom_site_fract_y
_atom_site_fract_z
Si Si1 0.783761 0.593083 0.483413
Si Si2 0.888148 0.935347 0.793494
Si Si3 0.875408 0.046337 0.093410
Si Si4 0.791692 0.224443 0.419426
Si Si5 0.052575 0.430073 0.960742
Si Si6 0.869320 0.714732 0.092822
Si Si7 0.773000 0.392405 0.842237
O O1 0.897035 0.703672 0.306445
O O2 0.447737 0.448115 0.796703
O O3 0.009970 0.676064 0.506707
O O4 0.749009 0.527382 0.314088
O O5 0.073201 0.958777 0.720567
O O6 0.540862 0.765615 0.046836
O O7 0.000000 0.000000 0.500000
O O8 0.962164 0.028964 0.879853
O O9 0.549736 0.928314 0.281420
O O10 0.103533 0.201856 0.909178
O O11 0.822427 0.292399 0.252665
O O12 0.879458 0.201572 0.233539
O O13 0.256528 0.560137 0.988214
O O14 0.869305 0.385658 0.927563
O O15 0.000000 0.500000 0.500000
#
# Coordination Sequence:
#
# PCOD8016884 Si02
#       7
#     2   2   2   2   2   2   2
#     4  10  22  41  65  96 129 163 217 271 323 376
#     4  11  26  43  64  95 135 173 214 264 328 385
#     4  11  25  42  66  93 134 167 220 260 320 393
#     4  11  22  43  65  95 129 172 209 272 321 387
#     4  10  22  36  66  94 131 160 220 264 322 381
#     4  10  24  41  65  95 128 168 219 268 317 388
#     4  11  23  40  65  97 127 176 218 266 325 380
#
# _framework density 21.553038000000001
#
# number of rings (size 3 to 8) (size 9 to 14) (size 15 to 20)
#    0.000    1.429    0.000    4.286    6.000    5.143 
#    0.000    0.000    0.000    0.000    0.000    0.000 
#    0.000    0.000    0.000    0.000    0.000    0.000 
#
# Total GULP energy -173570.747614 kJ/mol
# GULP energy per Si atom -12397.910544 kJ/mol
# Density = 2.150398 g / cm^3
# Si number density = 21.553038 Si / 1000 Ang^3
#
#
#
# Elastic Constant Matrix: (Units=GPa)
#
#
# Indices 1 2 3 4 5 6 
#
# 1 137.3449 58.4773 51.4316 4.3991 17.3706 -8.6985
# 2 58.4773 91.5545 32.8656 0.8923 13.1913 -0.8958
# 3 51.4316 32.8656 93.9496 -5.2473 13.9835 5.7821
# 4 4.3991 0.8923 -5.2473 26.3205 6.0526 -2.2077
# 5 17.3706 13.1913 13.9835 6.0526 34.5721 -0.3074
# 6 -8.6985 -0.8958 5.7821 -2.2077 -0.3074 47.5022
#
#
#
# Elastic Compliance Matrix: (Units=1/GPa)
#
#
# Indices 1 2 3 4 5 6 
#
# 1 0.011802 -0.005644 -0.004527 -0.002117 -0.001552 0.002497
# 2 -0.005644 0.015559 -0.001932 0.000545 -0.002419 -0.000495
# 3 -0.004527 -0.001932 0.014756 0.004419 -0.003752 -0.002481
# 4 -0.002117 0.000545 0.004419 0.041158 -0.008129 0.000945
# 5 -0.001552 -0.002419 -0.003752 -0.008129 0.033569 -0.000034
# 6 0.002497 -0.000495 -0.002481 0.000945 -0.000034 0.021845
#
#
# Mechanical properties :
#
#
# Convention : Reuss Voigt Hill
#
# Bulk Modulus (GPa) = 55.83342 67.59976 61.71659
# Shear Modulus (GPa) = 29.60926 33.68391 31.64659
#
# Velocity S-wave (km/s) = 3.71048 3.95756 3.83601
# Velocity P-wave (km/s) = 6.65720 7.23295 6.95104
#
# Compressibility (1/GPa) = 0.01791042
#
# Stress axis : x y z
#
# Youngs Moduli (GPa) = 84.73466 64.26972 67.76796
#
# Poissons Ratio (x) = 0.36274 0.30680
# Poissons Ratio (y) = 0.47824 0.13094
# Poissons Ratio (z) = 0.38361 0.12418
#
# Static dielectric constant tensor:
#      x y z
#    x 4.065090 -0.211500 0.106470 
#    y -0.211500 3.559750 0.181980 
#    z 0.106470 0.181980 3.843210 
# 
# 
# High freq. dielectric constant tensor:
#      x y z
#    x 1.864090 -0.002060 0.005450 
#    y -0.002060 1.838670 0.005250 
#    z 0.005450 0.005250 1.846570 
# 
# From -- ./inp_files/71581.got.cif
#   From: 2010.06.25/outbox.cif.g09.slc.cpg/sg2_36_cif.got.tgz:71581.got - 2010.06.27 13:26:56.
