data_PCOD8016056
_publ_section_title
;
Structure prediction by ZEFSAII (Michael W. Deem and Ramdas Pophale) SiO2 
 PCOD8016056
Probable space group: P -1
;
_chemical_formula_sum "Si O2"
_cell_formula_units_Z 16
_cell_length_a 11.305155
_cell_length_b 11.780586
_cell_length_c 9.174096
_cell_angle_alpha 51.438508
_cell_angle_beta 126.135939
_cell_angle_gamma 130.958787
_cell_volume 686.729342
_symmetry_space_group_name_H-M "P -1"
_symmetry_group_IT_number 2
_symmetry_cell_setting 'triclinic'
loop_
_space_group_symop_operation_xyz
x,y,z
-x,-y,-z
loop_
_atom_site_type_symbol
_atom_site_label
_atom_site_fract_x
_atom_site_fract_y
_atom_site_fract_z
Si Si1 0.163415 0.163795 0.996930
Si Si2 0.370863 0.646621 0.118139
Si Si3 0.025253 0.192354 0.460809
Si Si4 0.710120 0.874478 0.153473
Si Si5 0.244398 0.297602 0.261437
Si Si6 0.340123 0.951931 0.764583
Si Si7 0.869661 0.552554 0.428009
Si Si8 0.571944 0.292798 0.574444
O O1 0.286274 0.117581 0.026816
O O2 0.151821 0.321461 0.797502
O O3 0.220054 0.195796 0.178688
O O4 0.000000 0.000000 0.000000
O O5 0.565398 0.692944 0.227525
O O6 0.264982 0.477420 0.094444
O O7 0.317175 0.637676 0.254971
O O8 0.349425 0.783565 0.899262
O O9 0.112740 0.101389 0.683716
O O10 0.089630 0.217829 0.321208
O O11 0.064189 0.360518 0.437103
O O12 0.830240 0.071587 0.414447
O O13 0.658978 0.999128 0.101472
O O14 0.411973 0.323923 0.439851
O O15 0.493143 0.093799 0.674439
O O16 0.695126 0.387514 0.455150
O O17 0.000000 0.500000 0.500000
#
# Coordination Sequence:
#
# PCOD8016056 Si02
#       8
#     2   2   2   2   2   2   2   2
#     4  11  27  44  68 103 140 186 232 296 347 414
#     4  11  23  41  71 109 140 180 235 304 347 405
#     4  11  22  42  74 103 133 189 242 282 338 432
#     4  10  21  43  69  95 141 184 235 283 346 415
#     4  12  23  42  76 103 140 183 248 279 351 424
#     4  11  24  39  75 109 140 178 246 293 346 409
#     4  11  27  47  70  97 150 184 227 291 369 412
#     4  11  23  45  73 101 137 194 233 287 345 429
#
# _framework density 23.298845
#
# number of rings (size 3 to 8) (size 9 to 14) (size 15 to 20)
#    0.000    1.000    3.750    4.500    5.250    5.500 
#    0.000    0.625    0.000    0.000    0.000    0.000 
#    0.000    0.000    0.000    0.000    0.000    0.000 
#
# Total GULP energy -198254.465311 kJ/mol
# GULP energy per Si atom -12390.904082 kJ/mol
# Density = 2.324582 g / cm^3
# Si number density = 23.298845 Si / 1000 Ang^3
#
#
#
# Elastic Constant Matrix: (Units=GPa)
#
#
# Indices 1 2 3 4 5 6 
#
# 1 103.0416 35.2913 30.0934 -3.7592 -15.9098 3.7750
# 2 35.2913 107.2196 28.3202 -1.1219 -13.2258 0.0340
# 3 30.0934 28.3202 76.1033 -7.3375 -13.9220 -3.8745
# 4 -3.7592 -1.1219 -7.3375 38.7763 -4.7079 -4.2919
# 5 -15.9098 -13.2258 -13.9220 -4.7079 31.4059 -0.0517
# 6 3.7750 0.0340 -3.8745 -4.2919 -0.0517 42.1823
#
#
#
# Elastic Compliance Matrix: (Units=1/GPa)
#
#
# Indices 1 2 3 4 5 6 
#
# 1 0.012206 -0.002721 -0.003107 0.000834 0.003783 -0.001286
# 2 -0.002721 0.011200 -0.002730 -0.000205 0.002097 -0.000035
# 3 -0.003107 -0.002730 0.016820 0.003689 0.005289 0.002207
# 4 0.000834 -0.000205 0.003689 0.027646 0.006120 0.003085
# 5 0.003783 0.002097 0.005289 0.006120 0.037904 0.000815
# 6 -0.001286 -0.000035 0.002207 0.003085 0.000815 0.024339
#
#
# Mechanical properties :
#
#
# Convention : Reuss Voigt Hill
#
# Bulk Modulus (GPa) = 43.27108 52.64156 47.95632
# Shear Modulus (GPa) = 32.27166 35.31689 33.79428
#
# Velocity S-wave (km/s) = 3.72576 3.89758 3.81264
# Velocity P-wave (km/s) = 6.09269 6.54965 6.32530
#
# Compressibility (1/GPa) = 0.02311012
#
# Stress axis : x y z
#
# Youngs Moduli (GPa) = 81.92824 89.28682 59.45269
#
# Poissons Ratio (x) = 0.24296 0.18472
# Poissons Ratio (y) = 0.22294 0.16229
# Poissons Ratio (z) = 0.25455 0.24373
#
# Static dielectric constant tensor:
#      x y z
#    x 4.692340 -0.172880 -0.558870 
#    y -0.172880 4.473490 0.094140 
#    z -0.558870 0.094140 4.382280 
# 
# 
# High freq. dielectric constant tensor:
#      x y z
#    x 1.914530 0.008540 -0.007080 
#    y 0.008540 1.933240 -0.009750 
#    z -0.007080 -0.009750 1.903460 
# 
# From -- ./inp_files/261755.got.cif
#   From: 2010.06.25/outbox.cif.g09.slc.cpg/sg2_131_cif.got.tgz:261755.got - 2010.06.27 13:26:56.
