data_PCOD8016606
_publ_section_title
;
Structure prediction by ZEFSAII (Michael W. Deem and Ramdas Pophale) SiO2 
 PCOD8016606
Probable space group: P -1
;
_chemical_formula_sum "Si O2"
_cell_formula_units_Z 16
_cell_length_a 11.501845
_cell_length_b 5.535548
_cell_length_c 13.957293
_cell_angle_alpha 95.326837
_cell_angle_beta 128.112979
_cell_angle_gamma 92.976171
_cell_volume 689.364595
_symmetry_space_group_name_H-M "P -1"
_symmetry_group_IT_number 2
_symmetry_cell_setting 'triclinic'
loop_
_space_group_symop_operation_xyz
x,y,z
-x,-y,-z
loop_
_atom_site_type_symbol
_atom_site_label
_atom_site_fract_x
_atom_site_fract_y
_atom_site_fract_z
Si Si1 0.954905 0.879348 0.723725
Si Si2 0.217498 0.117118 0.770238
Si Si3 0.113394 0.615127 0.932398
Si Si4 0.397100 0.365514 0.023940
Si Si5 0.862865 0.184113 0.852046
Si Si6 0.411177 0.764033 0.398122
Si Si7 0.315099 0.626144 0.725106
Si Si8 0.694873 0.531324 0.496773
O O1 0.820447 0.763567 0.583854
O O2 0.076901 0.703070 0.810038
O O3 0.895280 0.948477 0.800148
O O4 0.043842 0.099199 0.714044
O O5 0.253130 0.367306 0.735988
O O6 0.237734 0.864025 0.719218
O O7 0.313644 0.126054 0.918359
O O8 0.977112 0.413698 0.884565
O O9 0.272872 0.518793 0.007844
O O10 0.125894 0.834867 0.027211
O O11 0.506639 0.304756 0.162847
O O12 0.500000 0.500000 0.000000
O O13 0.689005 0.199270 0.743035
O O14 0.527214 0.593429 0.413553
O O15 0.293420 0.648360 0.414558
O O16 0.500000 0.000000 0.500000
O O17 0.279424 0.596913 0.594262
#
# Coordination Sequence:
#
# PCOD8016606 Si02
#       8
#     2   2   2   2   2   2   2   2
#     4  12  23  43  67  97 141 180 227 287 355 412
#     4  11  25  44  72 101 141 184 232 289 349 411
#     4  11  23  42  66 101 136 176 235 282 345 414
#     4  10  21  45  69  97 139 179 224 287 349 407
#     4  11  23  41  69  96 134 179 231 288 341 412
#     4  11  23  45  68  96 136 180 226 282 353 415
#     4  11  26  46  70 106 138 184 240 284 344 417
#     4  11  26  43  68  98 136 183 228 289 349 417
#
# _framework density 23.209779000000001
#
# number of rings (size 3 to 8) (size 9 to 14) (size 15 to 20)
#    0.000    1.000    3.750    3.000    1.750    2.000 
#    2.250    0.000    0.000    0.000    0.000    0.000 
#    0.000    0.000    0.000    0.000    0.000    0.000 
#
# Total GULP energy -198270.930649 kJ/mol
# GULP energy per Si atom -12391.933166 kJ/mol
# Density = 2.315695 g / cm^3
# Si number density = 23.209779 Si / 1000 Ang^3
#
#
#
# Elastic Constant Matrix: (Units=GPa)
#
#
# Indices 1 2 3 4 5 6 
#
# 1 104.4302 22.3823 51.6008 18.4941 -6.0484 -9.1286
# 2 22.3823 71.5930 14.3356 15.9232 -7.8138 -2.8350
# 3 51.6008 14.3356 138.2910 19.1356 -8.2760 1.1136
# 4 18.4941 15.9232 19.1356 35.8152 -4.1304 -0.2722
# 5 -6.0484 -7.8138 -8.2760 -4.1304 44.4141 14.2768
# 6 -9.1286 -2.8350 1.1136 -0.2722 14.2768 32.9621
#
#
#
# Elastic Compliance Matrix: (Units=1/GPa)
#
#
# Indices 1 2 3 4 5 6 
#
# 1 0.013103 -0.002421 -0.004247 -0.003510 -0.001041 0.003986
# 2 -0.002421 0.016202 0.000152 -0.005796 0.002085 -0.000233
# 3 -0.004247 0.000152 0.009284 -0.002663 0.001641 -0.002209
# 4 -0.003510 -0.005796 -0.002663 0.033922 0.001760 -0.001863
# 5 -0.001041 0.002085 0.001641 0.001760 0.027020 -0.011853
# 6 0.003986 -0.000233 -0.002209 -0.001863 -0.011853 0.036615
#
#
# Mechanical properties :
#
#
# Convention : Reuss Voigt Hill
#
# Bulk Modulus (GPa) = 39.12631 54.55019 46.83825
# Shear Modulus (GPa) = 31.70666 37.70465 34.70566
#
# Velocity S-wave (km/s) = 3.70008 4.03490 3.87111
# Velocity P-wave (km/s) = 5.92861 6.72766 6.34073
#
# Compressibility (1/GPa) = 0.02555825
#
# Stress axis : x y z
#
# Youngs Moduli (GPa) = 76.31918 61.72236 107.70749
#
# Poissons Ratio (x) = 0.14943 0.45741
# Poissons Ratio (y) = 0.18477 -0.01642
# Poissons Ratio (z) = 0.32411 -0.00941
#
# Static dielectric constant tensor:
#      x y z
#    x 4.374070 0.038450 0.133060 
#    y 0.038450 3.945660 0.140590 
#    z 0.133060 0.140590 4.622730 
# 
# 
# High freq. dielectric constant tensor:
#      x y z
#    x 1.926260 -0.003960 0.006310 
#    y -0.003960 1.897240 0.013980 
#    z 0.006310 0.013980 1.934460 
# 
# From -- ./inp_files/78401.got.cif
#   From: 2010.06.25/outbox.cif.g09.slc.cpg/sg2_40_cif.got.tgz:78401.got - 2010.06.27 13:26:56.
