data_PCOD8016908
_publ_section_title
;
Structure prediction by ZEFSAII (Michael W. Deem and Ramdas Pophale) SiO2 
 PCOD8016908
Probable space group: P -1
;
_chemical_formula_sum "Si O2"
_cell_formula_units_Z 12
_cell_length_a 11.347021
_cell_length_b 17.047519
_cell_length_c 14.185910
_cell_angle_alpha 156.063430
_cell_angle_beta 149.576847
_cell_angle_gamma 29.558119
_cell_volume 517.276591
_symmetry_space_group_name_H-M "P -1"
_symmetry_group_IT_number 2
_symmetry_cell_setting 'triclinic'
loop_
_space_group_symop_operation_xyz
x,y,z
-x,-y,-z
loop_
_atom_site_type_symbol
_atom_site_label
_atom_site_fract_x
_atom_site_fract_y
_atom_site_fract_z
Si Si1 0.260637 0.803185 0.278597
Si Si2 0.997552 0.254442 0.620403
Si Si3 0.995895 0.239494 0.119446
Si Si4 0.629079 0.221105 0.177712
Si Si5 0.064863 0.296940 0.919129
Si Si6 0.288842 0.517147 0.640181
O O1 0.504268 0.646869 0.328535
O O2 0.997349 0.829989 0.179286
O O3 0.244235 0.043504 0.530159
O O4 0.243369 0.724671 0.074972
O O5 0.933715 0.256250 0.689474
O O6 0.752051 0.274910 0.414051
O O7 0.064955 0.456274 0.870108
O O8 0.893592 0.287071 0.207740
O O9 0.123698 0.399496 0.351716
O O10 0.197446 0.001219 0.991667
O O11 0.585891 0.400487 0.266082
O O12 0.363967 0.218006 0.022612
#
# Coordination Sequence:
#
# PCOD8016908 Si02
#       6
#     2   2   2   2   2   2
#     4  11  23  39  61  88 119 153 193 240 290 346
#     4  10  22  37  56  87 120 153 191 232 287 347
#     4  10  24  41  61  87 115 155 199 239 288 341
#     4  11  23  39  61  88 119 153 193 240 290 346
#     4  11  22  37  60  89 120 153 190 237 294 347
#     4  11  22  41  63  85 117 154 196 243 287 340
#
# _framework density 23.198421
#
# number of rings (size 3 to 8) (size 9 to 14) (size 15 to 20)
#    0.000    1.333    0.000    6.000    0.000    5.333 
#    0.000    0.000    0.000   17.000    0.000    0.000 
#    0.000    0.000    0.000    0.000    0.000    0.000 
#
# Total GULP energy -148805.736020 kJ/mol
# GULP energy per Si atom -12400.478002 kJ/mol
# Density = 2.314562 g / cm^3
# Si number density = 23.198421 Si / 1000 Ang^3
#
#
#
# Elastic Constant Matrix: (Units=GPa)
#
#
# Indices 1 2 3 4 5 6 
#
# 1 45.2346 9.1059 22.9764 -9.8088 -1.5375 -1.8553
# 2 9.1059 109.5684 43.7360 2.0654 -16.0128 1.0786
# 3 22.9764 43.7360 123.3498 -1.5861 -39.3824 -0.6177
# 4 -9.8088 2.0654 -1.5861 27.7986 -0.5455 -2.2957
# 5 -1.5375 -16.0128 -39.3824 -0.5455 26.4722 -5.9653
# 6 -1.8553 1.0786 -0.6177 -2.2957 -5.9653 29.9419
#
#
#
# Elastic Compliance Matrix: (Units=1/GPa)
#
#
# Indices 1 2 3 4 5 6 
#
# 1 0.028178 -0.000791 -0.008399 0.009312 -0.011123 0.000099
# 2 -0.000791 0.010715 -0.003125 -0.001241 0.001703 -0.000255
# 3 -0.008399 -0.003125 0.019890 -0.000573 0.028468 0.005630
# 4 0.009312 -0.001241 -0.000573 0.039642 0.000604 0.003770
# 5 -0.011123 0.001703 0.028468 0.000604 0.084282 0.016674
# 6 0.000099 -0.000255 0.005630 0.003770 0.016674 0.037141
#
#
# Mechanical properties :
#
#
# Convention : Reuss Voigt Hill
#
# Bulk Modulus (GPa) = 29.28216 47.75438 38.51827
# Shear Modulus (GPa) = 19.54183 30.33149 24.93666
#
# Velocity S-wave (km/s) = 2.90552 3.61983 3.28217
# Velocity P-wave (km/s) = 4.88937 6.17258 5.56807
#
# Compressibility (1/GPa) = 0.03415049
#
# Stress axis : x y z
#
# Youngs Moduli (GPa) = 35.48893 93.32920 50.27697
#
# Poissons Ratio (x) = 0.07384 0.42229
# Poissons Ratio (y) = 0.02808 0.15714
# Poissons Ratio (z) = 0.29808 0.29169
#
# Static dielectric constant tensor:
#      x y z
#    x 3.906900 0.113870 -0.228150 
#    y 0.113870 4.084460 0.082740 
#    z -0.228150 0.082740 4.493460 
# 
# 
# High freq. dielectric constant tensor:
#      x y z
#    x 1.893640 0.008360 -0.020380 
#    y 0.008360 1.922990 0.005960 
#    z -0.020380 0.005960 1.938190 
# 
# From -- ./inp_files/432011.got.cif
#   From: 2010.06.25/outbox.cif.g09.slc.cpg/sg2_217_cif.got.tgz:432011.got - 2010.06.27 13:26:56.
