data_PCOD8016562
_publ_section_title
;
Structure prediction by ZEFSAII (Michael W. Deem and Ramdas Pophale) SiO2 
 PCOD8016562
Probable space group: P -1
;
_chemical_formula_sum "Si O2"
_cell_formula_units_Z 16
_cell_length_a 19.204027
_cell_length_b 12.394405
_cell_length_c 9.170450
_cell_angle_alpha 82.597795
_cell_angle_beta 128.568012
_cell_angle_gamma 141.416058
_cell_volume 721.456254
_symmetry_space_group_name_H-M "P -1"
_symmetry_group_IT_number 2
_symmetry_cell_setting 'triclinic'
loop_
_space_group_symop_operation_xyz
x,y,z
-x,-y,-z
loop_
_atom_site_type_symbol
_atom_site_label
_atom_site_fract_x
_atom_site_fract_y
_atom_site_fract_z
Si Si1 0.523713 0.068761 0.680804
Si Si2 0.913680 0.515246 0.317874
Si Si3 0.519499 0.739499 0.487143
Si Si4 0.457918 0.403059 0.709874
Si Si5 0.195924 0.048573 0.953430
Si Si6 0.853451 0.763492 0.752006
Si Si7 0.292285 0.058254 0.779145
Si Si8 0.398706 0.793631 0.809838
O O1 0.452315 0.115384 0.585008
O O2 0.500000 0.000000 0.500000
O O3 0.363375 0.813260 0.604118
O O4 0.759141 0.322017 0.012803
O O5 0.807004 0.464261 0.322211
O O6 0.000000 0.500000 0.500000
O O7 0.114188 0.810262 0.482767
O O8 0.582632 0.712765 0.465866
O O9 0.675908 0.900994 0.798548
O O10 0.280343 0.463861 0.278138
O O11 0.690215 0.708326 0.949784
O O12 0.299515 0.328525 0.523333
O O13 0.427591 0.298839 0.832907
O O14 0.169828 0.973730 0.770630
O O15 0.974181 0.822530 0.781962
O O16 0.000000 0.000000 0.000000
O O17 0.453559 0.146101 0.029910
O O18 0.500000 0.000000 0.000000
#
# Coordination Sequence:
#
# PCOD8016562 Si02
#       8
#     2   2   2   2   2   2   2   2
#     4  11  24  43  69  99 133 173 226 277 328 395
#     4  11  24  43  68  94 134 180 220 271 335 394
#     4  11  23  40  69  95 127 181 221 268 340 393
#     4  11  23  40  67  96 131 174 223 270 335 404
#     4  11  24  43  65  97 138 171 218 282 330 397
#     4  11  21  42  64  95 133 171 221 276 333 393
#     4  12  25  41  69 101 131 177 225 272 339 398
#     4  10  21  45  67  89 139 177 216 273 334 394
#
# _framework density 22.177365000000002
#
# number of rings (size 3 to 8) (size 9 to 14) (size 15 to 20)
#    0.000    1.000    5.000    3.375    1.750    4.500 
#    0.000    0.625    0.000    0.000    0.000    0.000 
#    0.000    0.000    0.000    0.000    0.000    0.000 
#
# Total GULP energy -198348.936339 kJ/mol
# GULP energy per Si atom -12396.808521 kJ/mol
# Density = 2.212689 g / cm^3
# Si number density = 22.177365 Si / 1000 Ang^3
#
#
#
# Elastic Constant Matrix: (Units=GPa)
#
#
# Indices 1 2 3 4 5 6 
#
# 1 107.1214 22.7600 31.4156 -7.0246 9.6423 17.4997
# 2 22.7600 110.3732 41.9682 -18.5934 16.6620 3.7218
# 3 31.4156 41.9682 81.7666 -9.2227 -0.9074 2.3984
# 4 -7.0246 -18.5934 -9.2227 31.9794 6.9810 3.4680
# 5 9.6423 16.6620 -0.9074 6.9810 35.4079 -1.7192
# 6 17.4997 3.7218 2.3984 3.4680 -1.7192 40.3804
#
#
#
# Elastic Compliance Matrix: (Units=1/GPa)
#
#
# Indices 1 2 3 4 5 6 
#
# 1 0.012043 0.000672 -0.004484 0.003352 -0.004639 -0.005500
# 2 0.000672 0.014374 -0.006674 0.008793 -0.008966 -0.002356
# 3 -0.004484 -0.006674 0.017244 -0.001214 0.005133 0.001857
# 4 0.003352 0.008793 -0.001214 0.040355 -0.013340 -0.006225
# 5 -0.004639 -0.008966 0.005133 -0.013340 0.036741 0.005242
# 6 -0.005500 -0.002356 0.001857 -0.006225 0.005242 0.028013
#
#
# Mechanical properties :
#
#
# Convention : Reuss Voigt Hill
#
# Bulk Modulus (GPa) = 44.07616 54.61654 49.34635
# Shear Modulus (GPa) = 28.19990 35.09472 31.64731
#
# Velocity S-wave (km/s) = 3.56977 3.98233 3.78168
# Velocity P-wave (km/s) = 6.07524 6.76948 6.43173
#
# Compressibility (1/GPa) = 0.02268800
#
# Stress axis : x y z
#
# Youngs Moduli (GPa) = 83.03309 69.57225 57.99109
#
# Poissons Ratio (x) = -0.04675 0.26004
# Poissons Ratio (y) = -0.05580 0.38705
# Poissons Ratio (z) = 0.37233 0.46435
#
# Static dielectric constant tensor:
#      x y z
#    x 4.338520 -0.454550 0.557040 
#    y -0.454550 0.519110 1.312540 
#    z 0.557040 1.312540 3.895660 
# 
# 
# High freq. dielectric constant tensor:
#      x y z
#    x 1.878040 0.001920 0.002800 
#    y 0.001920 1.881920 -0.001850 
#    z 0.002800 -0.001850 1.857650 
# 
# From -- ./inp_files/313288.got.cif
#   From: 2010.06.25/outbox.cif.g09.slc.cpg/sg2_157_cif.got.tgz:313288.got - 2010.06.27 13:26:56.
