data_PCOD8016423
_publ_section_title
;
Structure prediction by ZEFSAII (Michael W. Deem and Ramdas Pophale) SiO2 
 PCOD8016423
Probable space group: P -1
;
_chemical_formula_sum "Si O2"
_cell_formula_units_Z 14
_cell_length_a 17.807144
_cell_length_b 10.596411
_cell_length_c 8.306898
_cell_angle_alpha 64.599783
_cell_angle_beta 43.385434
_cell_angle_gamma 34.542643
_cell_volume 549.514240
_symmetry_space_group_name_H-M "P -1"
_symmetry_group_IT_number 2
_symmetry_cell_setting 'triclinic'
loop_
_space_group_symop_operation_xyz
x,y,z
-x,-y,-z
loop_
_atom_site_type_symbol
_atom_site_label
_atom_site_fract_x
_atom_site_fract_y
_atom_site_fract_z
Si Si1 0.908062 0.181813 0.402396
Si Si2 0.311242 0.040199 0.528566
Si Si3 0.980864 0.858253 0.255913
Si Si4 0.193377 0.116074 0.012710
Si Si5 0.079787 0.509941 0.508184
Si Si6 0.396133 0.474432 0.752849
Si Si7 0.540255 0.613297 0.920023
O O1 0.724219 0.463464 0.603535
O O2 0.073196 0.113966 0.123917
O O3 0.000000 0.000000 0.500000
O O4 0.859180 0.118620 0.373843
O O5 0.157140 0.092296 0.663654
O O6 0.288439 0.219290 0.386355
O O7 0.523492 0.751852 0.331452
O O8 0.285013 0.094914 0.728817
O O9 0.080326 0.668063 0.356073
O O10 0.164900 0.723857 0.941233
O O11 0.052534 0.366759 0.193911
O O12 0.357569 0.899804 0.002862
O O13 0.000000 0.500000 0.500000
O O14 0.500000 0.500000 0.500000
O O15 0.430998 0.416107 0.918721
O O16 0.500000 0.500000 0.000000
#
# Coordination Sequence:
#
# PCOD8016423 Si02
#       7
#     2   2   2   2   2   2   2
#     4  12  21  39  67  97 124 170 216 262 326 382
#     4  11  26  41  65  95 132 174 213 266 316 386
#     4  11  23  44  65  95 131 170 216 268 322 378
#     4  12  24  42  64  96 131 166 213 265 326 382
#     4  10  21  44  70  89 124 174 222 263 316 377
#     4  12  25  40  63  99 130 164 215 269 327 380
#     4  12  21  36  63  90 128 167 206 259 318 383
#
# _framework density 25.477049000000001
#
# number of rings (size 3 to 8) (size 9 to 14) (size 15 to 20)
#    0.000    0.571    4.286    4.714    0.000    5.143 
#    0.000    2.857    0.000    8.571    0.000    0.000 
#    0.000    0.000    0.000    0.000    0.000    0.000 
#
# Total GULP energy -173502.801960 kJ/mol
# GULP energy per Si atom -12393.057283 kJ/mol
# Density = 2.541906 g / cm^3
# Si number density = 25.477049 Si / 1000 Ang^3
#
#
#
# Elastic Constant Matrix: (Units=GPa)
#
#
# Indices 1 2 3 4 5 6 
#
# 1 77.1131 2.4822 16.1801 0.7410 21.1813 -0.7615
# 2 2.4822 73.5240 11.9953 9.1964 20.6603 8.9231
# 3 16.1801 11.9953 110.2194 13.3889 18.6266 1.1974
# 4 0.7410 9.1964 13.3889 41.7439 -1.4219 8.9271
# 5 21.1813 20.6603 18.6266 -1.4219 46.0525 10.3182
# 6 -0.7615 8.9231 1.1974 8.9271 10.3182 32.7412
#
#
#
# Elastic Compliance Matrix: (Units=1/GPa)
#
#
# Indices 1 2 3 4 5 6 
#
# 1 0.015388 0.001735 -0.000953 -0.001230 -0.008140 0.002821
# 2 0.001735 0.016384 -0.000241 -0.003638 -0.007958 -0.000916
# 3 -0.000953 -0.000241 0.010400 -0.003848 -0.004238 0.002048
# 4 -0.001230 -0.003638 -0.003848 0.028079 0.006552 -0.008617
# 5 -0.008140 -0.007958 -0.004238 0.006552 0.033212 -0.010119
# 6 0.002821 -0.000916 0.002048 -0.008617 -0.010119 0.036321
#
#
# Mechanical properties :
#
#
# Convention : Reuss Voigt Hill
#
# Bulk Modulus (GPa) = 23.11953 35.79685 29.45819
# Shear Modulus (GPa) = 32.65387 39.45409 36.05398
#
# Velocity S-wave (km/s) = 3.58396 3.93951 3.76594
# Velocity P-wave (km/s) = 5.12062 5.89696 5.52245
#
# Compressibility (1/GPa) = 0.04325347
#
# Stress axis : x y z
#
# Youngs Moduli (GPa) = 64.98677 61.03443 96.15092
#
# Poissons Ratio (x) = -0.10589 0.09166
# Poissons Ratio (y) = -0.11275 0.02318
# Poissons Ratio (z) = 0.06195 0.01471
#
# Static dielectric constant tensor:
#      x y z
#    x 4.339630 0.367780 0.388220 
#    y 0.367780 5.425810 0.079140 
#    z 0.388220 0.079140 4.460060 
# 
# 
# High freq. dielectric constant tensor:
#      x y z
#    x 2.014860 -0.005290 0.022270 
#    y -0.005290 2.022850 0.007560 
#    z 0.022270 0.007560 2.014760 
# 
# From -- ./inp_files/346023.got.cif
#   From: 2010.06.25/outbox.cif.g09.slc.cpg/sg2_174_cif.got.tgz:346023.got - 2010.06.27 13:26:56.
