data_PCOD8016927
_publ_section_title
;
Structure prediction by ZEFSAII (Michael W. Deem and Ramdas Pophale) SiO2 
 PCOD8016927
Probable space group: P -1
;
_chemical_formula_sum "Si O2"
_cell_formula_units_Z 14
_cell_length_a 5.059870
_cell_length_b 15.354129
_cell_length_c 9.549263
_cell_angle_alpha 92.820632
_cell_angle_beta 79.384027
_cell_angle_gamma 79.385909
_cell_volume 714.047780
_symmetry_space_group_name_H-M "P -1"
_symmetry_group_IT_number 2
_symmetry_cell_setting 'triclinic'
loop_
_space_group_symop_operation_xyz
x,y,z
-x,-y,-z
loop_
_atom_site_type_symbol
_atom_site_label
_atom_site_fract_x
_atom_site_fract_y
_atom_site_fract_z
Si Si1 0.971937 0.883644 0.413483
Si Si2 0.282300 0.399269 0.909859
Si Si3 0.709437 0.413817 0.097613
Si Si4 0.745513 0.858073 0.730311
Si Si5 0.745098 0.229661 0.154622
Si Si6 0.645872 0.218149 0.837646
Si Si7 0.533204 0.052001 0.712027
O O1 0.882712 0.845794 0.563487
O O2 0.722005 0.945426 0.363580
O O3 0.096469 0.798496 0.295818
O O4 0.204113 0.943937 0.414242
O O5 0.424330 0.413492 0.045432
O O6 0.966783 0.392909 0.962778
O O7 0.298051 0.488678 0.824147
O O8 0.441786 0.308610 0.816024
O O9 0.745641 0.333392 0.200870
O O10 0.523798 0.795517 0.754047
O O11 0.978877 0.832014 0.821658
O O12 0.591870 0.959247 0.782738
O O13 0.746088 0.221664 0.986270
O O14 0.489917 0.134285 0.832529
#
# Coordination Sequence:
#
# PCOD8016927 Si02
#       7
#     2   2   2   2   2   2   2
#     4  10  22  39  58  77 108 150 194 228 255 327
#     4   9  17  32  57  80 106 142 179 225 265 323
#     4   9  18  33  53  81 111 140 178 218 275 324
#     4  12  23  38  57  79 114 152 185 217 282 326
#     4  11  23  35  56  85 116 141 177 234 278 330
#     4   9  23  35  60  83 114 136 188 233 275 312
#     4  10  22  37  60  78 108 148 194 226 259 328
#
# _framework density 19.606528999999998
#
# number of rings (size 3 to 8) (size 9 to 14) (size 15 to 20)
#    0.857    1.143    0.000    4.286    6.000    1.143 
#    0.000    0.000    0.000    1.714    0.000    0.000 
#    0.000    0.000    0.000    0.000    0.000    0.000 
#
# Total GULP energy -173487.602580 kJ/mol
# GULP energy per Si atom -12391.971613 kJ/mol
# Density = 1.956190 g / cm^3
# Si number density = 19.606529 Si / 1000 Ang^3
#
#
#
# Elastic Constant Matrix: (Units=GPa)
#
#
# Indices 1 2 3 4 5 6 
#
# 1 105.3951 47.8655 14.7497 -1.7993 -9.9056 -7.6443
# 2 47.8655 146.7984 59.2039 -3.8652 1.1735 1.6118
# 3 14.7497 59.2039 41.7434 -1.8143 -2.0456 -0.2624
# 4 -1.7993 -3.8652 -1.8143 12.2144 -1.9796 -12.2177
# 5 -9.9056 1.1735 -2.0456 -1.9796 21.5788 -8.2156
# 6 -7.6443 1.6118 -0.2624 -12.2177 -8.2156 32.7409
#
#
#
# Elastic Compliance Matrix: (Units=1/GPa)
#
#
# Indices 1 2 3 4 5 6 
#
# 1 0.014482 -0.007234 0.006672 0.016907 0.014451 0.013726
# 2 -0.007234 0.019857 -0.026673 -0.010175 -0.011504 -0.009564
# 3 0.006672 -0.026673 0.061265 0.019816 0.017949 0.015260
# 4 0.016907 -0.010175 0.019816 0.181074 0.060018 0.087238
# 5 0.014451 -0.011504 0.017949 0.060018 0.078378 0.046148
# 6 0.013726 -0.009564 0.015260 0.087238 0.046148 0.078475
#
#
# Mechanical properties :
#
#
# Convention : Reuss Voigt Hill
#
# Bulk Modulus (GPa) = 24.31075 59.73054 42.02064
# Shear Modulus (GPa) = 9.96588 24.78133 17.37361
#
# Velocity S-wave (km/s) = 2.25698 3.55904 2.97999
# Velocity P-wave (km/s) = 4.38386 6.88620 5.77226
#
# Compressibility (1/GPa) = 0.04113407
#
# Stress axis : x y z
#
# Youngs Moduli (GPa) = 69.05118 50.36006 16.32256
#
# Poissons Ratio (x) = 0.36430 -0.10890
# Poissons Ratio (y) = 0.49951 0.43537
# Poissons Ratio (z) = -0.46070 1.34325
#
# Static dielectric constant tensor:
#      x y z
#    x 3.657200 -0.019030 -0.120480 
#    y -0.019030 4.099430 0.039540 
#    z -0.120480 0.039540 3.177060 
# 
# 
# High freq. dielectric constant tensor:
#      x y z
#    x 1.782730 -0.003730 -0.013240 
#    y -0.003730 1.782020 0.004060 
#    z -0.013240 0.004060 1.705990 
# 
# From -- ./inp_files/366257.got.cif
#   From: 2010.06.25/outbox.cif.g09.slc.cpg/sg2_184_cif.got.tgz:366257.got - 2010.06.27 13:26:56.
