data_PCOD8016237
_publ_section_title
;
Structure prediction by ZEFSAII (Michael W. Deem and Ramdas Pophale) SiO2 
 PCOD8016237
Probable space group: P -1
;
_chemical_formula_sum "Si O2"
_cell_formula_units_Z 16
_cell_length_a 13.862662
_cell_length_b 13.784034
_cell_length_c 13.887037
_cell_angle_alpha 32.314276
_cell_angle_beta 148.592004
_cell_angle_gamma 139.061125
_cell_volume 733.662201
_symmetry_space_group_name_H-M "P -1"
_symmetry_group_IT_number 2
_symmetry_cell_setting 'triclinic'
loop_
_space_group_symop_operation_xyz
x,y,z
-x,-y,-z
loop_
_atom_site_type_symbol
_atom_site_label
_atom_site_fract_x
_atom_site_fract_y
_atom_site_fract_z
Si Si1 0.467235 0.175667 0.648225
Si Si2 0.039152 0.188852 0.812310
Si Si3 0.781316 0.360813 0.866007
Si Si4 0.188918 0.380757 0.152083
Si Si5 0.804539 0.993358 0.284824
Si Si6 0.721621 0.874810 0.105227
Si Si7 0.725051 0.423215 0.292130
Si Si8 0.562866 0.434846 0.950489
O O1 0.609402 0.355865 0.648834
O O2 0.315904 0.214189 0.405952
O O3 0.363997 0.103183 0.716995
O O4 0.599480 0.034824 0.838322
O O5 0.106118 0.121310 0.823691
O O6 0.187960 0.360837 0.831827
O O7 0.853124 0.283573 0.562900
O O8 0.000000 0.000000 0.000000
O O9 0.792808 0.542164 0.787256
O O10 0.968431 0.333632 0.986445
O O11 0.752737 0.196106 0.055720
O O12 0.266135 0.500603 0.028034
O O13 0.810890 0.890156 0.274740
O O14 0.000000 0.000000 0.500000
O O15 0.583180 0.690128 0.134001
O O16 0.551127 0.411397 0.228192
O O17 0.655043 0.340050 0.198774
#
# Coordination Sequence:
#
# PCOD8016237 Si02
#       8
#     2   2   2   2   2   2   2   2
#     4  11  22  39  60  89 127 165 214 274 310 391
#     4  10  22  43  68 101 130 168 222 281 332 400
#     4  10  22  39  55  91 124 163 215 260 323 387
#     4  11  22  37  61  89 124 168 213 262 326 390
#     4  11  21  40  62  88 130 169 211 269 319 393
#     4  10  23  39  63  92 125 174 220 260 339 393
#     4   9  22  44  66  94 133 168 216 280 340 389
#     4  10  21  44  63  89 128 174 215 272 334 397
#
# _framework density 21.808401
#
# number of rings (size 3 to 8) (size 9 to 14) (size 15 to 20)
#    0.000    1.750    1.250    3.375    1.750    4.000 
#    6.750    1.875    0.000    0.000    0.000    0.000 
#    0.000    0.000    0.000    0.000    0.000    0.000 
#
# Total GULP energy -198227.284577 kJ/mol
# GULP energy per Si atom -12389.205286 kJ/mol
# Density = 2.175876 g / cm^3
# Si number density = 21.808401 Si / 1000 Ang^3
#
#
#
# Elastic Constant Matrix: (Units=GPa)
#
#
# Indices 1 2 3 4 5 6 
#
# 1 88.5672 33.2604 18.6820 6.4048 6.5979 7.5389
# 2 33.2604 70.5750 24.2648 9.0438 -4.1978 8.2689
# 3 18.6820 24.2648 89.2934 7.1633 7.4460 4.4104
# 4 6.4048 9.0438 7.1633 32.6868 6.4692 2.6735
# 5 6.5979 -4.1978 7.4460 6.4692 28.6938 4.0134
# 6 7.5389 8.2689 4.4104 2.6735 4.0134 37.2818
#
#
#
# Elastic Compliance Matrix: (Units=1/GPa)
#
#
# Indices 1 2 3 4 5 6 
#
# 1 0.014307 -0.006589 -0.000835 0.000053 -0.003921 -0.000915
# 2 -0.006589 0.020042 -0.004138 -0.004474 0.006956 -0.003051
# 3 -0.000835 -0.004138 0.012860 -0.000804 -0.003570 0.000007
# 4 0.000053 -0.004474 -0.000804 0.033613 -0.007970 -0.000476
# 5 -0.003921 0.006956 -0.003570 -0.007970 0.040063 -0.004069
# 6 -0.000915 -0.003051 0.000007 -0.000476 -0.004069 0.028156
#
#
# Mechanical properties :
#
#
# Convention : Reuss Voigt Hill
#
# Bulk Modulus (GPa) = 41.51849 44.53888 43.02869
# Shear Modulus (GPa) = 27.74800 31.21438 29.48119
#
# Velocity S-wave (km/s) = 3.57088 3.78736 3.68071
# Velocity P-wave (km/s) = 6.00672 6.29226 6.15115
#
# Compressibility (1/GPa) = 0.02408565
#
# Stress axis : x y z
#
# Youngs Moduli (GPa) = 69.89403 49.89581 77.75983
#
# Poissons Ratio (x) = 0.32874 0.06494
# Poissons Ratio (y) = 0.46050 0.32178
# Poissons Ratio (z) = 0.05837 0.20648
#
# Static dielectric constant tensor:
#      x y z
#    x 3.954100 0.045120 0.233510 
#    y 0.045120 4.124270 0.172410 
#    z 0.233510 0.172410 4.093750 
# 
# 
# High freq. dielectric constant tensor:
#      x y z
#    x 1.859070 0.006980 0.019060 
#    y 0.006980 1.853170 0.015770 
#    z 0.019060 0.015770 1.855030 
# 
# From -- ./inp_files/534176.got.cif
#   From: 2010.06.25/outbox.cif.g09.slc.cpg/sg2_268_cif.got.tgz:534176.got - 2010.06.27 13:26:56.
