data_PCOD8016088
_publ_section_title
;
Structure prediction by ZEFSAII (Michael W. Deem and Ramdas Pophale) SiO2 
 PCOD8016088
Probable space group: P -1
;
_chemical_formula_sum "Si O2"
_cell_formula_units_Z 14
_cell_length_a 12.060011
_cell_length_b 10.631651
_cell_length_c 7.714156
_cell_angle_alpha 45.208486
_cell_angle_beta 115.487953
_cell_angle_gamma 116.529219
_cell_volume 617.521740
_symmetry_space_group_name_H-M "P -1"
_symmetry_group_IT_number 2
_symmetry_cell_setting 'triclinic'
loop_
_space_group_symop_operation_xyz
x,y,z
-x,-y,-z
loop_
_atom_site_type_symbol
_atom_site_label
_atom_site_fract_x
_atom_site_fract_y
_atom_site_fract_z
Si Si1 0.858656 0.590014 0.386152
Si Si2 0.275307 0.101471 0.913096
Si Si3 0.663367 0.221952 0.552381
Si Si4 0.287179 0.732450 0.839046
Si Si5 0.097562 0.888264 0.733307
Si Si6 0.482108 0.702522 0.297803
Si Si7 0.044011 0.459301 0.850447
O O1 0.758894 0.715281 0.218832
O O2 0.784972 0.379294 0.527031
O O3 0.938638 0.650562 0.206932
O O4 0.957137 0.603009 0.600847
O O5 0.391295 0.154457 0.806673
O O6 0.154934 0.977207 0.862848
O O7 0.311169 0.978944 0.209987
O O8 0.629031 0.229834 0.316974
O O9 0.549787 0.247406 0.576259
O O10 0.209205 0.889770 0.667601
O O11 0.183225 0.545679 0.929677
O O12 0.371371 0.718883 0.075439
O O13 0.000000 0.000000 0.500000
O O14 0.027649 0.677381 0.919380
O O15 0.500000 0.500000 0.500000
#
# Coordination Sequence:
#
# PCOD8016088 Si02
#       7
#     2   2   2   2   2   2   2
#     4  10  21  43  70 106 133 187 225 286 350 409
#     4  12  25  44  74  99 143 183 232 286 351 406
#     4  11  24  48  71 103 140 178 235 290 342 414
#     4  11  26  46  71 103 139 185 232 285 345 414
#     4  12  26  41  68 108 140 183 231 281 348 413
#     4  12  26  48  74 100 141 187 230 289 350 408
#     4  10  22  43  70  97 148 176 230 288 344 410
#
# _framework density 22.671264999999998
#
# number of rings (size 3 to 8) (size 9 to 14) (size 15 to 20)
#    0.000    0.857    4.286    1.714    4.000    1.714 
#    0.000    0.000    0.000    0.000    0.000    0.000 
#    0.000    0.000    0.000    0.000    0.000    0.000 
#
# Total GULP energy -173594.507000 kJ/mol
# GULP energy per Si atom -12399.607643 kJ/mol
# Density = 2.261966 g / cm^3
# Si number density = 22.671265 Si / 1000 Ang^3
#
#
#
# Elastic Constant Matrix: (Units=GPa)
#
#
# Indices 1 2 3 4 5 6 
#
# 1 141.0934 16.7548 64.2134 2.0486 2.4006 -24.6377
# 2 16.7548 42.2557 25.5463 -5.5826 3.5575 -3.7048
# 3 64.2134 25.5463 112.3976 -9.7213 7.9856 -17.0702
# 4 2.0486 -5.5826 -9.7213 34.0589 -4.3761 -4.5833
# 5 2.4006 3.5575 7.9856 -4.3761 44.4111 -0.6204
# 6 -24.6377 -3.7048 -17.0702 -4.5833 -0.6204 40.6124
#
#
#
# Elastic Compliance Matrix: (Units=1/GPa)
#
#
# Indices 1 2 3 4 5 6 
#
# 1 0.010259 -0.000800 -0.005283 -0.001708 0.000343 0.003743
# 2 -0.000800 0.027795 -0.005539 0.002913 -0.000900 0.000037
# 3 -0.005283 -0.005539 0.013967 0.003559 -0.001396 0.002541
# 4 -0.001708 0.002913 0.003559 0.031854 0.002419 0.004357
# 5 0.000343 -0.000900 -0.001396 0.002419 0.023062 0.000165
# 6 0.003743 0.000037 0.002541 0.004357 0.000165 0.028459
#
#
# Mechanical properties :
#
#
# Convention : Reuss Voigt Hill
#
# Bulk Modulus (GPa) = 34.74987 56.53063 45.64025
# Shear Modulus (GPa) = 29.72058 36.43196 33.07627
#
# Velocity S-wave (km/s) = 3.62461 4.01305 3.82377
# Velocity P-wave (km/s) = 5.73394 6.81629 6.29841
#
# Compressibility (1/GPa) = 0.02877709
#
# Stress axis : x y z
#
# Youngs Moduli (GPa) = 97.47065 35.97754 71.59749
#
# Poissons Ratio (x) = 0.02880 0.37826
# Poissons Ratio (y) = 0.07802 0.39655
# Poissons Ratio (z) = 0.51495 0.19927
#
# Static dielectric constant tensor:
#      x y z
#    x 4.126380 -0.169870 -0.325700 
#    y -0.169870 3.990700 -0.041580 
#    z -0.325700 -0.041580 4.005380 
# 
# 
# High freq. dielectric constant tensor:
#      x y z
#    x 1.909680 -0.004220 -0.005100 
#    y -0.004220 1.893190 0.001020 
#    z -0.005100 0.001020 1.885890 
# 
# From -- ./inp_files/256153.got.cif
#   From: 2010.06.25/outbox.cif.g09.slc.cpg/sg2_129_cif.got.tgz:256153.got - 2010.06.27 13:26:56.
