data_PCOD8016811
_publ_section_title
;
Structure prediction by ZEFSAII (Michael W. Deem and Ramdas Pophale) SiO2 
 PCOD8016811
Probable space group: P -1
;
_chemical_formula_sum "Si O2"
_cell_formula_units_Z 16
_cell_length_a 19.471438
_cell_length_b 9.351727
_cell_length_c 9.722866
_cell_angle_alpha 41.155834
_cell_angle_beta 127.476914
_cell_angle_gamma 137.256927
_cell_volume 784.675245
_symmetry_space_group_name_H-M "P -1"
_symmetry_group_IT_number 2
_symmetry_cell_setting 'triclinic'
loop_
_space_group_symop_operation_xyz
x,y,z
-x,-y,-z
loop_
_atom_site_type_symbol
_atom_site_label
_atom_site_fract_x
_atom_site_fract_y
_atom_site_fract_z
Si Si1 0.289623 0.849814 0.052493
Si Si2 0.206912 0.770705 0.301250
Si Si3 0.962372 0.101731 0.001781
Si Si4 0.353889 0.476044 0.325645
Si Si5 0.878236 0.332402 0.231051
Si Si6 0.716876 0.060489 0.443261
Si Si7 0.041685 0.196855 0.531329
Si Si8 0.560438 0.789026 0.233320
O O1 0.275871 0.901547 0.155914
O O2 0.287377 0.585530 0.223399
O O3 0.198221 0.837068 0.862306
O O4 0.397151 0.083057 0.956719
O O5 0.141756 0.466215 0.416102
O O6 0.284027 0.849696 0.467492
O O7 0.134022 0.877362 0.170972
O O8 0.928741 0.916632 0.224538
O O9 0.058033 0.379888 0.955483
O O10 0.000000 0.000000 0.000000
O O11 0.277862 0.199005 0.362878
O O12 0.439404 0.675806 0.175701
O O13 0.416393 0.438918 0.552606
O O14 0.951037 0.235154 0.435845
O O15 0.814640 0.299657 0.315066
O O16 0.617298 0.995348 0.279050
O O17 0.000000 0.000000 0.500000
#
# Coordination Sequence:
#
# PCOD8016811 Si02
#       8
#     2   2   2   2   2   2   2   2
#     4  11  21  34  61  84 113 142 190 237 275 335
#     4  11  24  37  51  93 118 139 194 242 277 327
#     4  11  23  37  58  76 116 156 188 231 282 327
#     4   9  19  37  65  81 107 152 188 223 286 339
#     4  10  22  36  55  85 104 150 202 225 262 345
#     4   9  19  38  58  78 118 142 183 239 269 336
#     4  11  23  38  56  75 119 154 184 232 285 325
#     4   8  19  39  62  83 110 144 194 224 271 353
#
# _framework density 20.390601
#
# number of rings (size 3 to 8) (size 9 to 14) (size 15 to 20)
#    0.750    1.250    0.000    3.375    5.250    5.000 
#    0.000    1.250    0.000    0.000    0.000    0.000 
#    0.000    0.000    0.000    0.000    0.000    0.000 
#
# Total GULP energy -198312.988157 kJ/mol
# GULP energy per Si atom -12394.561760 kJ/mol
# Density = 2.034419 g / cm^3
# Si number density = 20.390601 Si / 1000 Ang^3
#
#
#
# Elastic Constant Matrix: (Units=GPa)
#
#
# Indices 1 2 3 4 5 6 
#
# 1 72.4012 27.7854 32.8930 -4.2779 -21.7279 -2.9284
# 2 27.7854 48.8798 24.8748 -2.0110 -10.1754 -7.0427
# 3 32.8930 24.8748 88.2221 -1.1852 -23.9850 -2.7223
# 4 -4.2779 -2.0110 -1.1852 27.3518 -7.5977 -4.9728
# 5 -21.7279 -10.1754 -23.9850 -7.5977 38.9426 3.8157
# 6 -2.9284 -7.0427 -2.7223 -4.9728 3.8157 28.1930
#
#
#
# Elastic Compliance Matrix: (Units=1/GPa)
#
#
# Indices 1 2 3 4 5 6 
#
# 1 0.021463 -0.008658 -0.003117 0.004931 0.008810 -0.000557
# 2 -0.008658 0.028643 -0.004807 0.001488 -0.000618 0.006138
# 3 -0.003117 -0.004807 0.015793 0.001703 0.007129 -0.000664
# 4 0.004931 0.001488 0.001703 0.042019 0.011713 0.006874
# 5 0.008810 -0.000618 0.007129 0.011713 0.037259 -0.001528
# 6 -0.000557 0.006138 -0.000664 0.006874 -0.001528 0.038300
#
#
# Mechanical properties :
#
#
# Convention : Reuss Voigt Hill
#
# Bulk Modulus (GPa) = 30.54717 42.28992 36.41855
# Shear Modulus (GPa) = 21.97296 27.16081 24.56688
#
# Velocity S-wave (km/s) = 3.28625 3.65365 3.47481
# Velocity P-wave (km/s) = 5.42335 6.21159 5.83081
#
# Compressibility (1/GPa) = 0.03273625
#
# Stress axis : x y z
#
# Youngs Moduli (GPa) = 46.59083 34.91276 63.31869
#
# Poissons Ratio (x) = 0.30227 0.19737
# Poissons Ratio (y) = 0.40337 0.30435
# Poissons Ratio (z) = 0.14523 0.16781
#
# Static dielectric constant tensor:
#      x y z
#    x 3.730780 -0.148470 -0.046280 
#    y -0.148470 3.745080 -0.197400 
#    z -0.046280 -0.197400 3.675020 
# 
# 
# High freq. dielectric constant tensor:
#      x y z
#    x 1.779850 0.012310 -0.004310 
#    y 0.012310 1.774160 -0.017080 
#    z -0.004310 -0.017080 1.803820 
# 
# From -- ./inp_files/343333.got.cif
#   From: 2010.06.25/outbox.cif.g09.slc.cpg/sg2_172_cif.got.tgz:343333.got - 2010.06.27 13:26:56.
