data_PCOD8016192
_publ_section_title
;
Structure prediction by ZEFSAII (Michael W. Deem and Ramdas Pophale) SiO2 
 PCOD8016192
Probable space group: P -1
;
_chemical_formula_sum "Si O2"
_cell_formula_units_Z 16
_cell_length_a 18.527943
_cell_length_b 13.205031
_cell_length_c 4.948002
_cell_angle_alpha 88.343143
_cell_angle_beta 80.866196
_cell_angle_gamma 147.533968
_cell_volume 610.566681
_symmetry_space_group_name_H-M "P -1"
_symmetry_group_IT_number 2
_symmetry_cell_setting 'triclinic'
loop_
_space_group_symop_operation_xyz
x,y,z
-x,-y,-z
loop_
_atom_site_type_symbol
_atom_site_label
_atom_site_fract_x
_atom_site_fract_y
_atom_site_fract_z
Si Si1 0.364819 0.046451 0.666663
Si Si2 0.004891 0.346328 0.425075
Si Si3 0.633013 0.633625 0.602028
Si Si4 0.826799 0.570221 0.050349
Si Si5 0.339123 0.568061 0.330533
Si Si6 0.047333 0.992025 0.726667
Si Si7 0.127955 0.627934 0.721862
Si Si8 0.721539 0.931218 0.782402
O O1 0.525454 0.212054 0.647185
O O2 0.365198 0.100669 0.371302
O O3 0.284289 0.840875 0.734148
O O4 0.289472 0.036715 0.914019
O O5 0.102801 0.455973 0.075385
O O6 0.119871 0.507427 0.588028
O O7 0.895091 0.309893 0.493753
O O8 0.892493 0.121767 0.591080
O O9 0.500000 0.500000 0.500000
O O10 0.626331 0.509703 0.713509
O O11 0.642197 0.725590 0.838756
O O12 0.784557 0.830176 0.346555
O O13 0.688403 0.424609 0.955789
O O14 0.955468 0.781390 0.810479
O O15 0.794935 0.564481 0.378267
O O16 0.000000 0.000000 0.500000
O O17 0.000000 0.000000 0.000000
O O18 0.000000 0.500000 0.000000
#
# Coordination Sequence:
#
# PCOD8016192 Si02
#       8
#     2   2   2   2   2   2   2   2
#     4  11  24  43  65  98 135 171 221 280 351 399
#     4  10  23  41  69 105 127 168 227 284 343 411
#     4  12  25  44  68 106 143 184 238 289 344 398
#     4  12  25  45  67  96 136 187 231 271 342 423
#     4  12  27  44  65  96 143 188 223 280 337 413
#     4  12  24  45  67  95 137 188 237 280 339 415
#     4  10  21  43  73 100 130 164 221 298 353 402
#     4  11  23  39  68  98 131 173 220 282 338 399
#
# _framework density 26.205166999999999
#
# number of rings (size 3 to 8) (size 9 to 14) (size 15 to 20)
#    0.000    0.750    6.250    0.750    1.750    2.500 
#    0.000    1.250    0.000    0.000    0.000    0.000 
#    0.000    0.000    0.000    0.000    0.000    0.000 
#
# Total GULP energy -198223.614212 kJ/mol
# GULP energy per Si atom -12388.975888 kJ/mol
# Density = 2.614552 g / cm^3
# Si number density = 26.205167 Si / 1000 Ang^3
#
#
#
# Elastic Constant Matrix: (Units=GPa)
#
#
# Indices 1 2 3 4 5 6 
#
# 1 72.7793 12.4355 -7.8671 3.4429 -16.7316 12.3312
# 2 12.4355 164.1642 -16.4129 2.2469 -2.3076 7.5234
# 3 -7.8671 -16.4129 77.1609 19.8673 -8.3531 4.7344
# 4 3.4429 2.2469 19.8673 38.0263 0.9149 -6.8474
# 5 -16.7316 -2.3076 -8.3531 0.9149 27.7718 -3.7757
# 6 12.3312 7.5234 4.7344 -6.8474 -3.7757 29.1689
#
#
#
# Elastic Compliance Matrix: (Units=1/GPa)
#
#
# Indices 1 2 3 4 5 6 
#
# 1 0.018896 -0.000241 0.005344 -0.006350 0.011994 -0.008732
# 2 -0.000241 0.006452 0.002042 -0.001846 0.000763 -0.002228
# 3 0.005344 0.002042 0.018305 -0.011706 0.008270 -0.007435
# 4 -0.006350 -0.001846 -0.011706 0.035515 -0.006971 0.012495
# 5 0.011994 0.000763 0.008270 -0.006971 0.045697 -0.002331
# 6 -0.008732 -0.002228 -0.007435 0.012495 -0.002331 0.042387
#
#
# Mechanical properties :
#
#
# Convention : Reuss Voigt Hill
#
# Bulk Modulus (GPa) = 17.25820 32.26837 24.76329
# Shear Modulus (GPa) = 29.02312 40.72332 34.87322
#
# Velocity S-wave (km/s) = 3.33157 3.94638 3.65194
# Velocity P-wave (km/s) = 4.62594 5.75376 5.22039
#
# Compressibility (1/GPa) = 0.05794346
#
# Stress axis : x y z
#
# Youngs Moduli (GPa) = 52.92068 154.98942 54.63092
#
# Poissons Ratio (x) = 0.03742 -0.29196
# Poissons Ratio (y) = 0.01278 -0.11158
# Poissons Ratio (z) = -0.28282 -0.31655
#
# Static dielectric constant tensor:
#      x y z
#    x 11.427660 -2.515080 1.721510 
#    y -2.515080 6.232070 -0.613100 
#    z 1.721510 -0.613100 5.225400 
# 
# 
# High freq. dielectric constant tensor:
#      x y z
#    x 2.041840 -0.004290 -0.006210 
#    y -0.004290 2.068600 0.008600 
#    z -0.006210 0.008600 2.052910 
# 
# From -- ./inp_files/119462.got.cif
#   From: 2010.06.25/outbox.cif.g09.slc.cpg/sg2_60_cif.got.tgz:119462.got - 2010.06.27 13:26:56.
