data_PCOD8016382
_publ_section_title
;
Structure prediction by ZEFSAII (Michael W. Deem and Ramdas Pophale) SiO2 
 PCOD8016382
Probable space group: P -1
;
_chemical_formula_sum "Si O2"
_cell_formula_units_Z 14
_cell_length_a 16.977787
_cell_length_b 7.585892
_cell_length_c 12.186145
_cell_angle_alpha 112.524260
_cell_angle_beta 142.414214
_cell_angle_gamma 42.387717
_cell_volume 561.919929
_symmetry_space_group_name_H-M "P -1"
_symmetry_group_IT_number 2
_symmetry_cell_setting 'triclinic'
loop_
_space_group_symop_operation_xyz
x,y,z
-x,-y,-z
loop_
_atom_site_type_symbol
_atom_site_label
_atom_site_fract_x
_atom_site_fract_y
_atom_site_fract_z
Si Si1 0.809668 0.012911 0.390811
Si Si2 0.397449 0.322632 0.958554
Si Si3 0.457482 0.187849 0.599326
Si Si4 0.004132 0.737688 0.758872
Si Si5 0.692625 0.390211 0.639898
Si Si6 0.146694 0.400103 0.041744
Si Si7 0.837225 0.403917 0.457367
O O1 0.880732 0.151997 0.505480
O O2 0.572998 0.274625 0.165687
O O3 0.860876 0.845954 0.522656
O O4 0.948722 0.751339 0.386528
O O5 0.225680 0.545625 0.914564
O O6 0.308516 0.466908 0.775989
O O7 0.500000 0.000000 0.000000
O O8 0.380724 0.474683 0.532442
O O9 0.278832 0.324849 0.519160
O O10 0.500000 0.000000 0.500000
O O11 0.668924 0.964305 0.846641
O O12 0.029994 0.537109 0.828867
O O13 0.895757 0.032945 0.774940
O O14 0.500000 0.500000 0.500000
O O15 0.751209 0.509609 0.803281
O O16 0.000000 0.500000 0.000000
#
# Coordination Sequence:
#
# PCOD8016382 Si02
#       7
#     2   2   2   2   2   2   2
#     4  10  23  44  72 102 138 186 239 299 355 424
#     4  11  25  45  65 108 141 183 238 300 369 419
#     4  10  22  44  68 102 142 186 233 294 363 431
#     4  11  24  44  73 103 137 191 242 299 358 437
#     4  11  24  45  70 102 141 192 244 292 356 441
#     4  11  25  45  65 107 148 186 241 300 364 426
#     4  10  21  44  69 101 138 183 239 286 358 427
#
# _framework density 24.914583
#
# number of rings (size 3 to 8) (size 9 to 14) (size 15 to 20)
#    0.000    1.429    1.429    2.571    2.000    3.429 
#   20.571    0.000    0.000    0.000    0.000    0.000 
#    0.000    0.000    0.000    0.000    0.000    0.000 
#
# Total GULP energy -173503.335626 kJ/mol
# GULP energy per Si atom -12393.095402 kJ/mol
# Density = 2.485788 g / cm^3
# Si number density = 24.914583 Si / 1000 Ang^3
#
#
#
# Elastic Constant Matrix: (Units=GPa)
#
#
# Indices 1 2 3 4 5 6 
#
# 1 153.1083 37.6339 66.4470 -11.7569 -12.3552 -35.6306
# 2 37.6339 76.4921 27.5181 -27.8260 0.6316 -35.0924
# 3 66.4470 27.5181 127.1518 -31.5400 -3.8944 -11.0775
# 4 -11.7569 -27.8260 -31.5400 45.4642 6.0419 3.1595
# 5 -12.3552 0.6316 -3.8944 6.0419 60.9645 -12.8160
# 6 -35.6306 -35.0924 -11.0775 3.1595 -12.8160 52.4474
#
#
#
# Elastic Compliance Matrix: (Units=1/GPa)
#
#
# Indices 1 2 3 4 5 6 
#
# 1 0.010700 -0.001607 -0.005296 -0.002764 0.003397 0.006072
# 2 -0.001607 0.026515 0.000179 0.014636 0.001353 0.016136
# 3 -0.005296 0.000179 0.012280 0.007561 -0.001393 -0.001681
# 4 -0.002764 0.014636 0.007561 0.035314 -0.002294 0.006824
# 5 0.003397 0.001353 -0.001393 -0.002294 0.018825 0.007657
# 6 0.006072 0.016136 -0.001681 0.006824 0.007657 0.035093
#
#
# Mechanical properties :
#
#
# Convention : Reuss Voigt Hill
#
# Bulk Modulus (GPa) = 27.74185 68.88336 48.31261
# Shear Modulus (GPa) = 30.45207 46.78542 38.61875
#
# Velocity S-wave (km/s) = 3.49987 4.33810 3.94133
# Velocity P-wave (km/s) = 5.24320 7.26636 6.33605
#
# Compressibility (1/GPa) = 0.03604663
#
# Stress axis : x y z
#
# Youngs Moduli (GPa) = 93.46062 37.71385 81.43301
#
# Poissons Ratio (x) = 0.06060 0.43130
# Poissons Ratio (y) = 0.15019 -0.01458
# Poissons Ratio (z) = 0.49500 -0.00675
#
# Static dielectric constant tensor:
#      x y z
#    x 4.740020 -0.234920 -0.349510 
#    y -0.234920 4.744840 -0.630080 
#    z -0.349510 -0.630080 5.077480 
# 
# 
# High freq. dielectric constant tensor:
#      x y z
#    x 2.006210 -0.018310 -0.016260 
#    y -0.018310 1.991680 -0.035890 
#    z -0.016260 -0.035890 1.990380 
# 
# From -- ./inp_files/462311.got.cif
#   From: 2010.06.25/outbox.cif.g09.slc.cpg/sg2_232_cif.got.tgz:462311.got - 2010.06.27 13:26:56.
