data_PCOD8016848
_publ_section_title
;
Structure prediction by ZEFSAII (Michael W. Deem and Ramdas Pophale) SiO2 
 PCOD8016848
Probable space group: P -1
;
_chemical_formula_sum "Si O2"
_cell_formula_units_Z 16
_cell_length_a 11.866408
_cell_length_b 16.110452
_cell_length_c 16.391873
_cell_angle_alpha 25.850821
_cell_angle_beta 144.392920
_cell_angle_gamma 136.433751
_cell_volume 795.227825
_symmetry_space_group_name_H-M "P -1"
_symmetry_group_IT_number 2
_symmetry_cell_setting 'triclinic'
loop_
_space_group_symop_operation_xyz
x,y,z
-x,-y,-z
loop_
_atom_site_type_symbol
_atom_site_label
_atom_site_fract_x
_atom_site_fract_y
_atom_site_fract_z
Si Si1 0.023269 0.351646 0.853558
Si Si2 0.570568 0.979027 0.969909
Si Si3 0.653874 0.461110 0.023394
Si Si4 0.012157 0.077364 0.772137
Si Si5 0.585870 0.404285 0.553502
Si Si6 0.399591 0.798685 0.635705
Si Si7 0.869866 0.674756 0.242119
Si Si8 0.532474 0.366981 0.871599
O O1 0.811586 0.452040 0.633151
O O2 0.143584 0.481403 0.869488
O O3 0.132582 0.316220 0.864319
O O4 0.014540 0.141925 0.070860
O O5 0.567434 0.177638 0.744848
O O6 0.500000 0.000000 0.000000
O O7 0.426305 0.840370 0.960167
O O8 0.782898 0.873060 0.193476
O O9 0.577571 0.274675 0.192312
O O10 0.499665 0.638153 0.779702
O O11 0.695094 0.413811 0.993717
O O12 0.829399 0.195639 0.524176
O O13 0.041879 0.133323 0.835623
O O14 0.500000 0.500000 0.500000
O O15 0.473611 0.478705 0.341284
O O16 0.500000 0.000000 0.500000
O O17 0.656239 0.636934 0.179763
O O18 0.000000 0.500000 0.500000
#
# Coordination Sequence:
#
# PCOD8016848 Si02
#       8
#     2   2   2   2   2   2   2   2
#     4  11  22  40  59  94 125 166 201 251 312 375
#     4  10  22  41  66  91 117 155 213 266 311 358
#     4  11  24  39  60  89 132 168 205 244 310 379
#     4  10  22  36  61  92 121 161 209 258 301 369
#     4  11  23  41  69  89 118 160 212 264 310 360
#     4  11  22  39  58  88 134 175 200 243 308 378
#     4  11  19  34  59  90 123 154 204 252 305 364
#     4  11  23  39  61  94 122 162 202 260 308 368
#
# _framework density 20.120021000000001
#
# number of rings (size 3 to 8) (size 9 to 14) (size 15 to 20)
#    0.000    1.250    3.750    3.375    1.750    1.000 
#    0.000    0.625    0.000    1.500    0.000    0.000 
#    0.000    0.000    0.000    0.000    0.000    0.000 
#
# Total GULP energy -198316.593356 kJ/mol
# GULP energy per Si atom -12394.787085 kJ/mol
# Density = 2.007423 g / cm^3
# Si number density = 20.120021 Si / 1000 Ang^3
#
#
#
# Elastic Constant Matrix: (Units=GPa)
#
#
# Indices 1 2 3 4 5 6 
#
# 1 99.2931 50.6267 26.3517 8.7399 -12.6070 -24.1588
# 2 50.6267 140.1887 52.9978 2.8644 -15.7911 -23.4589
# 3 26.3517 52.9978 88.6826 -5.4877 -16.9454 -4.4326
# 4 8.7399 2.8644 -5.4877 32.6205 -1.9391 -6.6224
# 5 -12.6070 -15.7911 -16.9454 -1.9391 30.5145 3.2239
# 6 -24.1588 -23.4589 -4.4326 -6.6224 3.2239 29.8692
#
#
#
# Elastic Compliance Matrix: (Units=1/GPa)
#
#
# Indices 1 2 3 4 5 6 
#
# 1 0.014587 -0.002792 -0.001889 -0.002088 0.002492 0.008593
# 2 -0.002792 0.011254 -0.005402 0.000068 0.001074 0.005677
# 3 -0.001889 -0.005402 0.016265 0.003415 0.006016 -0.003250
# 4 -0.002088 0.000068 0.003415 0.033142 0.002546 0.005944
# 5 0.002492 0.001074 0.006016 0.002546 0.037835 0.000233
# 6 0.008593 0.005677 -0.003250 0.005944 0.000233 0.045699
#
#
# Mechanical properties :
#
#
# Convention : Reuss Voigt Hill
#
# Bulk Modulus (GPa) = 45.58434 65.34631 55.46533
# Shear Modulus (GPa) = 26.84397 31.81338 29.32868
#
# Velocity S-wave (km/s) = 3.65662 3.98072 3.82211
# Velocity P-wave (km/s) = 6.36657 7.32645 6.86331
#
# Compressibility (1/GPa) = 0.02193736
#
# Stress axis : x y z
#
# Youngs Moduli (GPa) = 68.55251 88.85995 61.48356
#
# Poissons Ratio (x) = 0.24813 0.11617
# Poissons Ratio (y) = 0.19143 0.33215
# Poissons Ratio (z) = 0.12952 0.48005
#
# Static dielectric constant tensor:
#      x y z
#    x 2.854300 -0.170420 0.102560 
#    y -0.170420 3.984520 -0.138480 
#    z 0.102560 -0.138480 3.733980 
# 
# 
# High freq. dielectric constant tensor:
#      x y z
#    x 1.769930 -0.003600 -0.004110 
#    y -0.003600 1.790850 -0.012120 
#    z -0.004110 -0.012120 1.787060 
# 
# From -- ./inp_files/446653.got.cif
#   From: 2010.06.25/outbox.cif.g09.slc.cpg/sg2_224_cif.got.tgz:446653.got - 2010.06.27 13:26:56.
