data_PCOD8016171
_publ_section_title
;
Structure prediction by ZEFSAII (Michael W. Deem and Ramdas Pophale) SiO2 
 PCOD8016171
Probable space group: P -1
;
_chemical_formula_sum "Si O2"
_cell_formula_units_Z 14
_cell_length_a 9.142274
_cell_length_b 5.040812
_cell_length_c 15.093664
_cell_angle_alpha 79.220824
_cell_angle_beta 85.953936
_cell_angle_gamma 119.036193
_cell_volume 586.792930
_symmetry_space_group_name_H-M "P -1"
_symmetry_group_IT_number 2
_symmetry_cell_setting 'triclinic'
loop_
_space_group_symop_operation_xyz
x,y,z
-x,-y,-z
loop_
_atom_site_type_symbol
_atom_site_label
_atom_site_fract_x
_atom_site_fract_y
_atom_site_fract_z
Si Si1 0.096787 0.354631 0.553155
Si Si2 0.987061 0.532743 0.273081
Si Si3 0.229168 0.072619 0.115923
Si Si4 0.203396 0.328361 0.375607
Si Si5 0.807254 0.391413 0.996529
Si Si6 0.306931 0.929008 0.797784
Si Si7 0.518347 0.649803 0.757851
O O1 0.250161 0.430831 0.471881
O O2 0.000000 0.500000 0.500000
O O3 0.144791 0.498669 0.641145
O O4 0.978480 0.986502 0.595921
O O5 0.159915 0.551008 0.303166
O O6 0.879538 0.244691 0.228895
O O7 0.061652 0.861389 0.196768
O O8 0.390884 0.294103 0.155164
O O9 0.198591 0.295138 0.039116
O O10 0.265463 0.840824 0.069965
O O11 0.350923 0.282234 0.332045
O O12 0.695594 0.216628 0.097723
O O13 0.000000 0.500000 0.000000
O O14 0.440467 0.877591 0.736604
O O15 0.365234 0.291457 0.780805
#
# Coordination Sequence:
#
# PCOD8016171 Si02
#       7
#     2   2   2   2   2   2   2
#     4   9  20  38  74 103 128 171 243 277 321 406
#     4  11  23  42  73 102 131 185 235 280 337 408
#     4  12  25  44  75  94 136 187 235 275 339 410
#     4  10  21  43  72 100 135 178 233 277 332 418
#     4  12  26  44  70 102 133 178 242 292 327 395
#     4  12  29  43  68 103 146 176 228 290 352 395
#     4  12  27  45  67 104 143 183 218 286 354 409
#
# _framework density 23.858499999999999
#
# number of rings (size 3 to 8) (size 9 to 14) (size 15 to 20)
#    0.000    0.857    2.857    3.857    6.000    3.429 
#    0.000    1.429    0.000    0.000    0.000    0.000 
#    0.000    0.000    0.000    0.000    0.000    0.000 
#
# Total GULP energy -173553.453553 kJ/mol
# GULP energy per Si atom -12396.675254 kJ/mol
# Density = 2.380420 g / cm^3
# Si number density = 23.858500 Si / 1000 Ang^3
#
#
#
# Elastic Constant Matrix: (Units=GPa)
#
#
# Indices 1 2 3 4 5 6 
#
# 1 46.3267 -1.2659 4.0568 6.9945 -18.4149 -4.9695
# 2 -1.2659 108.0161 20.9939 17.9073 2.9060 3.6827
# 3 4.0568 20.9939 125.8395 20.1608 -21.3657 -1.7381
# 4 6.9945 17.9073 20.1608 33.1543 -8.3112 0.4615
# 5 -18.4149 2.9060 -21.3657 -8.3112 31.4985 4.3954
# 6 -4.9695 3.6827 -1.7381 0.4615 4.3954 34.3593
#
#
#
# Elastic Compliance Matrix: (Units=1/GPa)
#
#
# Indices 1 2 3 4 5 6 
#
# 1 0.029089 -0.000182 0.002641 -0.003248 0.017658 0.002145
# 2 -0.000182 0.010594 -0.001453 -0.005658 -0.003462 -0.000716
# 3 0.002641 -0.001453 0.010001 -0.004005 0.007384 0.000153
# 4 -0.003248 -0.005658 -0.004005 0.037885 0.006092 -0.001354
# 5 0.017658 -0.003462 0.007384 0.006092 0.049440 -0.003108
# 6 0.002145 -0.000716 0.000153 -0.001354 -0.003108 0.029915
#
#
# Mechanical properties :
#
#
# Convention : Reuss Voigt Hill
#
# Bulk Modulus (GPa) = 19.34401 36.41689 27.88045
# Shear Modulus (GPa) = 27.45086 36.89558 32.17322
#
# Velocity S-wave (km/s) = 3.39568 3.93674 3.67618
# Velocity P-wave (km/s) = 4.84764 5.99672 5.45254
#
# Compressibility (1/GPa) = 0.05169558
#
# Stress axis : x y z
#
# Youngs Moduli (GPa) = 34.37708 94.39607 99.98706
#
# Poissons Ratio (x) = 0.01719 -0.26403
# Poissons Ratio (y) = 0.00626 0.14526
# Poissons Ratio (z) = -0.09078 0.13713
#
# Static dielectric constant tensor:
#      x y z
#    x 3.930850 -0.206860 -0.348830 
#    y -0.206860 4.354310 0.417850 
#    z -0.348830 0.417850 4.930870 
# 
# 
# High freq. dielectric constant tensor:
#      x y z
#    x 1.913970 -0.023240 -0.009940 
#    y -0.023240 1.951360 0.006910 
#    z -0.009940 0.006910 1.962950 
# 
# From -- ./inp_files/488193.got.cif
#   From: 2010.06.25/outbox.cif.g09.slc.cpg/sg2_245_cif.got.tgz:488193.got - 2010.06.27 13:26:56.
