data_PCOD8016370
_publ_section_title
;
Structure prediction by ZEFSAII (Michael W. Deem and Ramdas Pophale) SiO2 
 PCOD8016370
Probable space group: P -1
;
_chemical_formula_sum "Si O2"
_cell_formula_units_Z 14
_cell_length_a 15.364759
_cell_length_b 8.927513
_cell_length_c 8.101024
_cell_angle_alpha 49.618484
_cell_angle_beta 60.667182
_cell_angle_gamma 92.809620
_cell_volume 615.451452
_symmetry_space_group_name_H-M "P -1"
_symmetry_group_IT_number 2
_symmetry_cell_setting 'triclinic'
loop_
_space_group_symop_operation_xyz
x,y,z
-x,-y,-z
loop_
_atom_site_type_symbol
_atom_site_label
_atom_site_fract_x
_atom_site_fract_y
_atom_site_fract_z
Si Si1 0.710289 0.066150 0.367440
Si Si2 0.602551 0.575429 0.720866
Si Si3 0.563143 0.873248 0.976256
Si Si4 0.066215 0.775002 0.749849
Si Si5 0.791405 0.091249 0.806482
Si Si6 0.787915 0.461515 0.761184
Si Si7 0.978921 0.046562 0.803059
O O1 0.837617 0.124292 0.265134
O O2 0.658377 0.851787 0.434879
O O3 0.624949 0.992799 0.658384
O O4 0.725083 0.288490 0.100266
O O5 0.704387 0.548628 0.722282
O O6 0.500000 0.500000 0.000000
O O7 0.539093 0.406067 0.743214
O O8 0.656040 0.901321 0.009614
O O9 0.500000 0.000000 0.000000
O O10 0.123505 0.866779 0.454434
O O11 0.978385 0.860820 0.811134
O O12 0.000000 0.500000 0.000000
O O13 0.803071 0.327262 0.690581
O O14 0.845916 0.000982 0.956564
O O15 0.917722 0.684116 0.535226
O O16 0.000000 0.000000 0.000000
#
# Coordination Sequence:
#
# PCOD8016370 Si02
#       7
#     2   2   2   2   2   2   2
#     4  10  23  42  71  99 131 181 229 271 343 405
#     4  10  22  43  70  93 136 177 233 272 335 400
#     4  10  21  44  68  97 138 175 223 288 332 396
#     4  11  22  43  65  99 140 169 219 286 343 403
#     4  11  24  40  68 101 133 176 227 276 348 399
#     4  12  23  44  71  99 136 178 231 280 336 412
#     4  12  25  44  71 100 138 180 225 279 342 416
#
# _framework density 22.747529
#
# number of rings (size 3 to 8) (size 9 to 14) (size 15 to 20)
#    0.000    1.143    2.857    3.429    0.000    2.286 
#    0.000    2.143    3.143    0.000    0.000    0.000 
#    0.000    0.000    0.000    0.000    0.000    0.000 
#
# Total GULP energy -173569.937747 kJ/mol
# GULP energy per Si atom -12397.852696 kJ/mol
# Density = 2.269575 g / cm^3
# Si number density = 22.747529 Si / 1000 Ang^3
#
#
#
# Elastic Constant Matrix: (Units=GPa)
#
#
# Indices 1 2 3 4 5 6 
#
# 1 150.9347 47.4341 37.0186 -9.3404 -11.9766 -3.1715
# 2 47.4341 144.1454 31.0153 -22.8506 -14.2931 -0.7127
# 3 37.0186 31.0153 89.6756 -25.5674 -0.7428 7.0384
# 4 -9.3404 -22.8506 -25.5674 41.0090 7.1816 -7.2148
# 5 -11.9766 -14.2931 -0.7428 7.1816 34.9563 -2.1027
# 6 -3.1715 -0.7127 7.0384 -7.2148 -2.1027 42.9699
#
#
#
# Elastic Compliance Matrix: (Units=1/GPa)
#
#
# Indices 1 2 3 4 5 6 
#
# 1 0.008132 -0.002003 -0.003132 -0.001444 0.002255 0.000948
# 2 -0.002003 0.008615 -0.001252 0.003335 0.002177 0.000867
# 3 -0.003132 -0.001252 0.015380 0.008454 -0.003085 -0.001503
# 4 -0.001444 0.003335 0.008454 0.032811 -0.005464 0.003806
# 5 0.002255 0.002177 -0.003085 -0.005464 0.031406 0.001327
# 6 0.000948 0.000867 -0.001503 0.003806 0.001327 0.024306
#
#
# Mechanical properties :
#
#
# Convention : Reuss Voigt Hill
#
# Bulk Modulus (GPa) = 51.67062 68.41020 60.04041
# Shear Modulus (GPa) = 35.74614 41.73954 38.74284
#
# Velocity S-wave (km/s) = 3.96843 4.28823 4.13142
# Velocity P-wave (km/s) = 6.61529 7.39307 7.01497
#
# Compressibility (1/GPa) = 0.01935336
#
# Stress axis : x y z
#
# Youngs Moduli (GPa) = 122.96452 116.08089 65.02054
#
# Poissons Ratio (x) = 0.23251 0.20364
# Poissons Ratio (y) = 0.24630 0.08139
# Poissons Ratio (z) = 0.38511 0.14531
#
# Static dielectric constant tensor:
#      x y z
#    x 4.168750 0.107010 -0.139410 
#    y 0.107010 4.364030 -0.119600 
#    z -0.139410 -0.119600 4.075420 
# 
# 
# High freq. dielectric constant tensor:
#      x y z
#    x 1.904660 -0.000400 -0.012710 
#    y -0.000400 1.918540 -0.000640 
#    z -0.012710 -0.000640 1.887830 
# 
# From -- ./inp_files/52405.got.cif
#   From: 2010.06.25/outbox.cif.g09.slc.cpg/sg2_27_cif.got.tgz:52405.got - 2010.06.27 13:26:56.
