data_PCOD8016125
_publ_section_title
;
Structure prediction by ZEFSAII (Michael W. Deem and Ramdas Pophale) SiO2 
 PCOD8016125
Probable space group: P -1
;
_chemical_formula_sum "Si O2"
_cell_formula_units_Z 16
_cell_length_a 15.184202
_cell_length_b 10.283514
_cell_length_c 8.449305
_cell_angle_alpha 72.993979
_cell_angle_beta 51.103486
_cell_angle_gamma 108.260862
_cell_volume 730.900667
_symmetry_space_group_name_H-M "P -1"
_symmetry_group_IT_number 2
_symmetry_cell_setting 'triclinic'
loop_
_space_group_symop_operation_xyz
x,y,z
-x,-y,-z
loop_
_atom_site_type_symbol
_atom_site_label
_atom_site_fract_x
_atom_site_fract_y
_atom_site_fract_z
Si Si1 0.679477 0.964600 0.630992
Si Si2 0.555662 0.414428 0.061129
Si Si3 0.869126 0.293401 0.067359
Si Si4 0.338504 0.387883 0.803190
Si Si5 0.185890 0.499022 0.756047
Si Si6 0.367742 0.750720 0.185281
Si Si7 0.864455 0.993145 0.689817
Si Si8 0.129194 0.718266 0.280552
O O1 0.768687 0.146917 0.368368
O O2 0.548228 0.934054 0.898528
O O3 0.597346 0.797078 0.658677
O O4 0.791871 0.969312 0.611633
O O5 0.642287 0.517898 0.086875
O O6 0.500000 0.500000 0.000000
O O7 0.665527 0.411275 0.826673
O O8 0.865195 0.450918 0.053741
O O9 0.801184 0.213703 0.998573
O O10 0.040583 0.371563 0.848900
O O11 0.500000 0.500000 0.500000
O O12 0.230268 0.387011 0.810184
O O13 0.261111 0.179833 0.994906
O O14 0.326579 0.678808 0.437655
O O15 0.261160 0.786524 0.230940
O O16 0.929764 0.180860 0.634166
O O17 0.000000 0.000000 0.500000
O O18 0.000000 0.500000 0.500000
#
# Coordination Sequence:
#
# PCOD8016125 Si02
#       8
#     2   2   2   2   2   2   2   2
#     4  10  24  44  68 103 135 176 235 285 343 408
#     4  10  21  43  70  99 139 181 227 281 350 410
#     4  11  25  43  68 102 134 177 231 291 339 412
#     4  12  25  43  68 102 141 182 230 281 348 413
#     4  11  23  43  70  97 139 180 227 282 349 404
#     4  10  23  44  73  99 131 189 226 288 342 409
#     4  12  28  45  71 103 140 187 229 286 349 418
#     4  12  27  47  73 101 142 182 239 285 351 413
#
# _framework density 21.890798
#
# number of rings (size 3 to 8) (size 9 to 14) (size 15 to 20)
#    0.750    0.250    2.500    3.750    7.000    3.500 
#    2.250    1.250    0.000    0.000    0.000    0.000 
#    0.000    0.000    0.000    0.000    0.000    0.000 
#
# Total GULP energy -198399.099050 kJ/mol
# GULP energy per Si atom -12399.943691 kJ/mol
# Density = 2.184097 g / cm^3
# Si number density = 21.890798 Si / 1000 Ang^3
#
#
#
# Elastic Constant Matrix: (Units=GPa)
#
#
# Indices 1 2 3 4 5 6 
#
# 1 102.0971 39.6491 22.9158 1.3693 9.3926 -8.2561
# 2 39.6491 94.5848 39.5229 2.0092 -5.9831 -16.8050
# 3 22.9158 39.5229 111.5468 -10.1045 3.5703 -4.6962
# 4 1.3693 2.0092 -10.1045 39.1162 -0.0192 -0.9468
# 5 9.3926 -5.9831 3.5703 -0.0192 37.8643 1.1918
# 6 -8.2561 -16.8050 -4.6962 -0.9468 1.1918 34.4406
#
#
#
# Elastic Compliance Matrix: (Units=1/GPa)
#
#
# Indices 1 2 3 4 5 6 
#
# 1 0.012284 -0.005026 -0.000628 -0.000323 -0.003799 0.000529
# 2 -0.005026 0.015937 -0.004655 -0.001704 0.004022 0.005751
# 3 -0.000628 -0.004655 0.011042 0.003094 -0.001595 -0.000776
# 4 -0.000323 -0.001704 0.003094 0.026469 -0.000475 0.000257
# 5 -0.003799 0.004022 -0.001595 -0.000475 0.028143 -0.000153
# 6 0.000529 0.005751 -0.000776 0.000257 -0.000153 0.031875
#
#
# Mechanical properties :
#
#
# Convention : Reuss Voigt Hill
#
# Bulk Modulus (GPa) = 53.63693 56.93382 55.28537
# Shear Modulus (GPa) = 32.76886 36.02694 34.39790
#
# Velocity S-wave (km/s) = 3.87321 4.06119 3.96831
# Velocity P-wave (km/s) = 6.67514 6.93222 6.80489
#
# Compressibility (1/GPa) = 0.01864387
#
# Stress axis : x y z
#
# Youngs Moduli (GPa) = 81.40548 62.74666 90.56402
#
# Poissons Ratio (x) = 0.31539 0.05688
# Poissons Ratio (y) = 0.40918 0.42159
# Poissons Ratio (z) = 0.05113 0.29210
#
# Static dielectric constant tensor:
#      x y z
#    x 4.088580 0.026350 0.122730 
#    y 0.026350 4.176630 0.026610 
#    z 0.122730 0.026610 3.981620 
# 
# 
# High freq. dielectric constant tensor:
#      x y z
#    x 1.865270 -0.007600 0.001280 
#    y -0.007600 1.866230 -0.001200 
#    z 0.001280 -0.001200 1.859660 
# 
# From -- ./inp_files/297796.got.cif
#   From: 2010.06.25/outbox.cif.g09.slc.cpg/sg2_149_cif.got.tgz:297796.got - 2010.06.27 13:26:56.
