data_PCOD8016391
_publ_section_title
;
Structure prediction by ZEFSAII (Michael W. Deem and Ramdas Pophale) SiO2 
 PCOD8016391
Probable space group: P -1
;
_chemical_formula_sum "Si O2"
_cell_formula_units_Z 16
_cell_length_a 15.924637
_cell_length_b 8.609905
_cell_length_c 11.347760
_cell_angle_alpha 43.671533
_cell_angle_beta 123.939017
_cell_angle_gamma 95.917445
_cell_volume 758.643830
_symmetry_space_group_name_H-M "P -1"
_symmetry_group_IT_number 2
_symmetry_cell_setting 'triclinic'
loop_
_space_group_symop_operation_xyz
x,y,z
-x,-y,-z
loop_
_atom_site_type_symbol
_atom_site_label
_atom_site_fract_x
_atom_site_fract_y
_atom_site_fract_z
Si Si1 0.779383 0.541146 0.026144
Si Si2 0.283932 0.528292 0.412876
Si Si3 0.077003 0.611374 0.550841
Si Si4 0.855562 0.136556 0.099210
Si Si5 0.262617 0.207138 0.759328
Si Si6 0.472460 0.895470 0.255007
Si Si7 0.649254 0.136362 0.601442
Si Si8 0.533334 0.663922 0.853266
O O1 0.885408 0.466467 0.241462
O O2 0.833728 0.347147 0.065533
O O3 0.674192 0.519004 0.017596
O O4 0.730786 0.839005 0.779704
O O5 0.258379 0.309017 0.566444
O O6 0.413366 0.384606 0.532936
O O7 0.281672 0.706635 0.423833
O O8 0.187076 0.713596 0.140118
O O9 0.196027 0.471432 0.642777
O O10 0.000000 0.500000 0.500000
O O11 0.997231 0.930368 0.306855
O O12 0.793388 0.975927 0.177814
O O13 0.399563 0.040269 0.000031
O O14 0.383262 0.865054 0.286402
O O15 0.517033 0.060828 0.270309
O O16 0.530522 0.290618 0.346917
O O17 0.500000 0.500000 0.000000
#
# Coordination Sequence:
#
# PCOD8016391 Si02
#       8
#     2   2   2   2   2   2   2   2
#     4  11  22  42  66  90 126 168 213 258 323 377
#     4  12  24  38  66  96 132 167 212 259 316 383
#     4  10  21  44  69  90 122 166 221 266 316 364
#     4  11  24  42  66  91 127 168 215 266 313 372
#     4  11  23  41  64  95 125 169 210 265 316 376
#     4  11  21  40  58  92 132 165 215 251 319 385
#     4  11  21  38  61  91 130 175 203 253 319 384
#     4  11  23  35  59  94 135 169 203 258 320 387
#
# _framework density 21.090267000000001
#
# number of rings (size 3 to 8) (size 9 to 14) (size 15 to 20)
#    0.000    1.000    3.750    5.625    3.500    0.500 
#    0.000    0.000    0.000    4.500    0.000    0.000 
#    0.000    0.000    0.000    0.000    0.000    0.000 
#
# Total GULP energy -198371.232207 kJ/mol
# GULP energy per Si atom -12398.202013 kJ/mol
# Density = 2.104226 g / cm^3
# Si number density = 21.090267 Si / 1000 Ang^3
#
#
#
# Elastic Constant Matrix: (Units=GPa)
#
#
# Indices 1 2 3 4 5 6 
#
# 1 25.3290 12.6649 25.4375 -3.5894 -11.7407 -1.1288
# 2 12.6649 115.8131 37.8753 4.0828 0.9187 -11.4593
# 3 25.4375 37.8753 139.4844 9.9934 1.1841 -6.3496
# 4 -3.5894 4.0828 9.9934 43.0695 -5.5049 11.6271
# 5 -11.7407 0.9187 1.1841 -5.5049 39.0545 -9.8726
# 6 -1.1288 -11.4593 -6.3496 11.6271 -9.8726 23.2404
#
#
#
# Elastic Compliance Matrix: (Units=1/GPa)
#
#
# Indices 1 2 3 4 5 6 
#
# 1 0.064829 -0.003600 -0.011698 0.010682 0.021983 0.002172
# 2 -0.003600 0.010212 -0.001693 -0.002388 -0.000217 0.005500
# 3 -0.011698 -0.001693 0.010175 -0.004161 -0.003918 0.001794
# 4 0.010682 -0.002388 -0.004161 0.029869 0.003778 -0.015133
# 5 0.021983 -0.000217 -0.003918 0.003778 0.036259 0.013403
# 6 0.002172 0.005500 0.001794 -0.015133 0.013403 0.059601
#
#
# Mechanical properties :
#
#
# Convention : Reuss Voigt Hill
#
# Bulk Modulus (GPa) = 19.51815 48.06466 33.79141
# Shear Modulus (GPa) = 19.08355 34.71612 26.89984
#
# Velocity S-wave (km/s) = 3.01134 4.06158 3.57524
# Velocity P-wave (km/s) = 4.62229 6.69587 5.75327
#
# Compressibility (1/GPa) = 0.05123437
#
# Stress axis : x y z
#
# Youngs Moduli (GPa) = 15.42511 97.92270 98.27582
#
# Poissons Ratio (x) = 0.35249 1.14967
# Poissons Ratio (y) = 0.05553 0.16640
# Poissons Ratio (z) = 0.18045 0.16580
#
# Static dielectric constant tensor:
#      x y z
#    x 7.279580 4.910050 -1.189580 
#    y 4.910050 10.682930 -1.914440 
#    z -1.189580 -1.914440 4.631230 
# 
# 
# High freq. dielectric constant tensor:
#      x y z
#    x 1.794780 -0.005990 0.000740 
#    y -0.005990 1.836640 -0.003050 
#    z 0.000740 -0.003050 1.840480 
# 
# From -- ./inp_files/255815.got.cif
#   From: 2010.06.25/outbox.cif.g09.slc.cpg/sg2_128_cif.got.tgz:255815.got - 2010.06.27 13:26:56.
