data_PCOD8016944
_publ_section_title
;
Structure prediction by ZEFSAII (Michael W. Deem and Ramdas Pophale) SiO2 
 PCOD8016944
Probable space group: P -1
;
_chemical_formula_sum "Si O2"
_cell_formula_units_Z 16
_cell_length_a 13.568606
_cell_length_b 13.947662
_cell_length_c 13.240366
_cell_angle_alpha 148.816256
_cell_angle_beta 45.310814
_cell_angle_gamma 146.119481
_cell_volume 723.059786
_symmetry_space_group_name_H-M "P -1"
_symmetry_group_IT_number 2
_symmetry_cell_setting 'triclinic'
loop_
_space_group_symop_operation_xyz
x,y,z
-x,-y,-z
loop_
_atom_site_type_symbol
_atom_site_label
_atom_site_fract_x
_atom_site_fract_y
_atom_site_fract_z
Si Si1 0.733744 0.536845 0.891284
Si Si2 0.901538 0.400084 0.110277
Si Si3 0.930636 0.755612 0.276750
Si Si4 0.716747 0.177695 0.700760
Si Si5 0.088167 0.984135 0.019400
Si Si6 0.670323 0.130576 0.227025
Si Si7 0.672166 0.729671 0.288206
Si Si8 0.290713 0.476352 0.341420
O O1 0.670570 0.279364 0.734330
O O2 0.700779 0.536441 0.797157
O O3 0.942585 0.732378 0.949143
O O4 0.642585 0.623608 0.100941
O O5 0.837032 0.536971 0.226230
O O6 0.754727 0.230120 0.145903
O O7 0.105493 0.606728 0.180398
O O8 0.907600 0.226537 0.874634
O O9 0.790085 0.690922 0.234167
O O10 0.000000 0.000000 0.500000
O O11 0.543939 0.038613 0.774132
O O12 0.750647 0.002435 0.472124
O O13 0.264670 0.008730 0.895810
O O14 0.147753 0.210520 0.248544
O O15 0.000000 0.000000 0.000000
O O16 0.758284 0.358603 0.441416
O O17 0.480850 0.582072 0.345694
#
# Coordination Sequence:
#
# PCOD8016944 Si02
#       8
#     2   2   2   2   2   2   2   2
#     4  11  22  40  65  96 134 185 214 271 328 393
#     4  11  24  45  69  97 130 175 218 278 339 386
#     4  11  23  43  74  95 127 173 223 273 337 400
#     4  11  23  41  69  96 135 175 222 268 335 390
#     4  10  22  37  60  93 128 174 220 265 317 383
#     4  11  24  43  67  99 137 174 220 278 324 397
#     4  11  22  40  67  95 131 173 223 278 322 392
#     4  10  25  40  63 100 137 175 225 265 332 396
#
# _framework density 22.128184999999998
#
# number of rings (size 3 to 8) (size 9 to 14) (size 15 to 20)
#    0.000    1.250    3.750    1.125    1.750    8.000 
#    0.000    5.000    2.750    0.000    0.000    0.000 
#    0.000    0.000    0.000    0.000    0.000    0.000 
#
# Total GULP energy -198247.526231 kJ/mol
# GULP energy per Si atom -12390.470389 kJ/mol
# Density = 2.207782 g / cm^3
# Si number density = 22.128185 Si / 1000 Ang^3
#
#
#
# Elastic Constant Matrix: (Units=GPa)
#
#
# Indices 1 2 3 4 5 6 
#
# 1 63.2192 29.4760 36.3612 -4.8473 -15.8570 -17.2469
# 2 29.4760 104.5836 30.8283 7.5344 -6.2841 -8.6865
# 3 36.3612 30.8283 129.8302 15.1972 -15.5948 -18.2592
# 4 -4.8473 7.5344 15.1972 31.0625 -3.9052 2.4679
# 5 -15.8570 -6.2841 -15.5948 -3.9052 35.5843 2.5622
# 6 -17.2469 -8.6865 -18.2592 2.4679 2.5622 24.5836
#
#
#
# Elastic Compliance Matrix: (Units=1/GPa)
#
#
# Indices 1 2 3 4 5 6 
#
# 1 0.027044 -0.005331 -0.004435 0.007878 0.009163 0.012049
# 2 -0.005331 0.011528 -0.000989 -0.003291 -0.001138 0.000048
# 3 -0.004435 -0.000989 0.010756 -0.005913 0.001557 0.004959
# 4 0.007878 -0.003291 -0.005913 0.038067 0.004829 -0.004353
# 5 0.009163 -0.001138 0.001557 0.004829 0.032962 0.003262
# 6 0.012049 0.000048 0.004959 -0.004353 0.003262 0.052928
#
#
# Mechanical properties :
#
#
# Convention : Reuss Voigt Hill
#
# Bulk Modulus (GPa) = 35.94798 54.55157 45.24977
# Shear Modulus (GPa) = 24.50163 31.64392 28.07277
#
# Velocity S-wave (km/s) = 3.33116 3.78567 3.56567
# Velocity P-wave (km/s) = 5.57459 6.61925 6.11926
#
# Compressibility (1/GPa) = 0.02781797
#
# Stress axis : x y z
#
# Youngs Moduli (GPa) = 36.97668 86.74171 92.97190
#
# Poissons Ratio (x) = 0.46241 0.41235
# Poissons Ratio (y) = 0.19712 0.09196
# Poissons Ratio (z) = 0.16400 0.08580
#
# Static dielectric constant tensor:
#      x y z
#    x 3.852730 0.051470 -0.151270 
#    y 0.051470 4.410570 0.364020 
#    z -0.151270 0.364020 4.367280 
# 
# 
# High freq. dielectric constant tensor:
#      x y z
#    x 1.860970 0.005290 -0.018210 
#    y 0.005290 1.864140 0.015520 
#    z -0.018210 0.015520 1.887880 
# 
# From -- ./inp_files/534560.got.cif
#   From: 2010.06.25/outbox.cif.g09.slc.cpg/sg2_268_cif.got.tgz:534560.got - 2010.06.27 13:26:56.
