data_PCOD8016465
_publ_section_title
;
Structure prediction by ZEFSAII (Michael W. Deem and Ramdas Pophale) SiO2 
 PCOD8016465
Probable space group: P -1
;
_chemical_formula_sum "Si O2"
_cell_formula_units_Z 16
_cell_length_a 10.066328
_cell_length_b 13.414477
_cell_length_c 18.337756
_cell_angle_alpha 33.305591
_cell_angle_beta 34.115105
_cell_angle_gamma 34.016136
_cell_volume 683.053527
_symmetry_space_group_name_H-M "P -1"
_symmetry_group_IT_number 2
_symmetry_cell_setting 'triclinic'
loop_
_space_group_symop_operation_xyz
x,y,z
-x,-y,-z
loop_
_atom_site_type_symbol
_atom_site_label
_atom_site_fract_x
_atom_site_fract_y
_atom_site_fract_z
Si Si1 0.563181 0.122692 0.619078
Si Si2 0.784282 0.210719 0.700153
Si Si3 0.057036 0.765404 0.816075
Si Si4 0.980351 0.272947 0.315788
Si Si5 0.770290 0.995201 0.057918
Si Si6 0.208689 0.282886 0.897016
Si Si7 0.915831 0.550940 0.425162
Si Si8 0.391325 0.605384 0.175497
O O1 0.734148 0.246232 0.478839
O O2 0.378290 0.130325 0.766183
O O3 0.352486 0.234998 0.582187
O O4 0.759901 0.885067 0.661983
O O5 0.520415 0.206795 0.791879
O O6 0.855191 0.373795 0.525142
O O7 0.739483 0.278844 0.761995
O O8 0.023933 0.987593 0.717114
O O9 0.997746 0.770549 0.754417
O O10 0.351946 0.601852 0.801187
O O11 0.859581 0.708996 0.990101
O O12 0.945829 0.498403 0.204800
O O13 0.882167 0.873623 0.005202
O O14 0.559717 0.230768 0.995613
O O15 0.000000 0.000000 0.000000
O O16 0.000000 0.500000 0.500000
O O17 0.162981 0.563156 0.264453
#
# Coordination Sequence:
#
# PCOD8016465 Si02
#       8
#     2   2   2   2   2   2   2   2
#     4  11  23  45  69  99 149 186 232 292 352 424
#     4  11  23  42  73 109 136 183 238 291 359 406
#     4  12  24  42  73 113 143 178 241 298 349 426
#     4  11  24  43  70 112 141 183 232 304 360 408
#     4  12  26  46  70  99 143 200 230 286 362 419
#     4  12  24  44  73 106 143 186 239 295 354 424
#     4  10  21  44  71  95 141 190 234 287 342 423
#     4  11  23  45  71 103 145 187 234 288 352 419
#
# _framework density 23.424226999999998
#
# number of rings (size 3 to 8) (size 9 to 14) (size 15 to 20)
#    0.000    0.750    5.000    3.000    1.750    1.000 
#    4.500    6.250    0.000    0.000    0.000    0.000 
#    0.000    0.000    0.000    0.000    0.000    0.000 
#
# Total GULP energy -198251.872125 kJ/mol
# GULP energy per Si atom -12390.742008 kJ/mol
# Density = 2.337091 g / cm^3
# Si number density = 23.424227 Si / 1000 Ang^3
#
#
#
# Elastic Constant Matrix: (Units=GPa)
#
#
# Indices 1 2 3 4 5 6 
#
# 1 93.1258 63.8325 38.3775 -8.8895 -12.9597 -23.7370
# 2 63.8325 178.8607 55.7938 -33.7506 -5.8739 -34.3582
# 3 38.3775 55.7938 135.8734 -22.7567 -5.3441 -3.2436
# 4 -8.8895 -33.7506 -22.7567 40.9515 -5.2182 9.1630
# 5 -12.9597 -5.8739 -5.3441 -5.2182 28.7719 -7.9849
# 6 -23.7370 -34.3582 -3.2436 9.1630 -7.9849 43.8981
#
#
#
# Elastic Compliance Matrix: (Units=1/GPa)
#
#
# Indices 1 2 3 4 5 6 
#
# 1 0.017856 -0.003812 -0.003246 -0.001844 0.008656 0.008392
# 2 -0.003812 0.009397 -0.001719 0.005230 0.002066 0.004451
# 3 -0.003246 -0.001719 0.009545 0.003880 -0.000238 -0.003248
# 4 -0.001844 0.005230 0.003880 0.031741 0.006124 -0.002129
# 5 0.008656 0.002066 -0.000238 0.006124 0.043740 0.012958
# 6 0.008392 0.004451 -0.003248 -0.002129 0.012958 0.033363
#
#
# Mechanical properties :
#
#
# Convention : Reuss Voigt Hill
#
# Bulk Modulus (GPa) = 51.96087 80.42971 66.19529
# Shear Modulus (GPa) = 29.47920 39.38137 34.43028
#
# Velocity S-wave (km/s) = 3.55137 4.10472 3.83803
# Velocity P-wave (km/s) = 6.24876 7.54159 6.92541
#
# Compressibility (1/GPa) = 0.01924525
#
# Stress axis : x y z
#
# Youngs Moduli (GPa) = 56.00281 106.41606 104.76277
#
# Poissons Ratio (x) = 0.40561 0.34010
# Poissons Ratio (y) = 0.21346 0.18006
# Poissons Ratio (z) = 0.18181 0.18290
#
# Static dielectric constant tensor:
#      x y z
#    x 4.136200 -0.219060 -0.331550 
#    y -0.219060 4.257350 -0.352320 
#    z -0.331550 -0.352320 5.586790 
# 
# 
# High freq. dielectric constant tensor:
#      x y z
#    x 1.899440 -0.025860 0.002430 
#    y -0.025860 1.922710 -0.021370 
#    z 0.002430 -0.021370 1.950150 
# 
# From -- ./inp_files/595448.got.cif
#   From: 2010.06.25/outbox.cif.g09.slc.cpg/sg2_298_cif.got.tgz:595448.got - 2010.06.27 13:26:56.
