data_PCOD8016832
_publ_section_title
;
Structure prediction by ZEFSAII (Michael W. Deem and Ramdas Pophale) SiO2 
 PCOD8016832
Probable space group: P -1
;
_chemical_formula_sum "Si O2"
_cell_formula_units_Z 12
_cell_length_a 11.854777
_cell_length_b 13.210627
_cell_length_c 5.009950
_cell_angle_alpha 77.947402
_cell_angle_beta 100.209586
_cell_angle_gamma 134.351162
_cell_volume 548.128767
_symmetry_space_group_name_H-M "P -1"
_symmetry_group_IT_number 2
_symmetry_cell_setting 'triclinic'
loop_
_space_group_symop_operation_xyz
x,y,z
-x,-y,-z
loop_
_atom_site_type_symbol
_atom_site_label
_atom_site_fract_x
_atom_site_fract_y
_atom_site_fract_z
Si Si1 0.659658 0.154812 0.907196
Si Si2 0.137774 0.331911 0.265810
Si Si3 0.342844 0.627322 0.485278
Si Si4 0.120482 0.598583 0.758053
Si Si5 0.053681 0.736729 0.301423
Si Si6 0.568868 0.600502 0.721191
O O1 0.620057 0.239064 0.702042
O O2 0.760680 0.139545 0.764767
O O3 0.761813 0.239513 0.168519
O O4 0.500000 0.000000 0.000000
O O5 0.255873 0.497517 0.311246
O O6 0.008710 0.228478 0.503763
O O7 0.239775 0.291165 0.269622
O O8 0.050272 0.311382 0.975456
O O9 0.228110 0.568962 0.725982
O O10 0.507903 0.681207 0.634530
O O11 0.968015 0.398061 0.533991
O O12 0.000000 0.500000 0.000000
O O13 0.500000 0.500000 0.500000
O O14 0.500000 0.500000 0.000000
#
# Coordination Sequence:
#
# PCOD8016832 Si02
#       6
#     2   2   2   2   2   2
#     4  11  25  43  64  92 131 173 209 259 321 380
#     4  11  21  39  62  95 129 160 206 267 317 367
#     4  10  24  37  62  94 131 167 210 258 316 380
#     4  11  23  39  65  94 127 160 210 265 322 372
#     4  11  23  39  62  91 125 162 209 259 314 374
#     4  10  22  36  59  92 131 166 203 258 324 370
#
# _framework density 21.892668
#
# number of rings (size 3 to 8) (size 9 to 14) (size 15 to 20)
#    0.000    1.333    1.667    4.000    9.333    7.333 
#    0.000    0.000    0.000    2.000    0.000    0.000 
#    0.000    0.000    0.000    0.000    0.000    0.000 
#
# Total GULP energy -148698.348664 kJ/mol
# GULP energy per Si atom -12391.529055 kJ/mol
# Density = 2.184284 g / cm^3
# Si number density = 21.892668 Si / 1000 Ang^3
#
#
#
# Elastic Constant Matrix: (Units=GPa)
#
#
# Indices 1 2 3 4 5 6 
#
# 1 225.6888 43.9679 87.1820 -12.7385 -9.2756 43.8559
# 2 43.9679 81.3996 42.7900 -19.3442 -0.6560 23.7975
# 3 87.1820 42.7900 171.2202 -0.8754 -8.1665 25.1561
# 4 -12.7385 -19.3442 -0.8754 27.8388 7.4738 -7.5318
# 5 -9.2756 -0.6560 -8.1665 7.4738 38.9614 -3.7950
# 6 43.8559 23.7975 25.1561 -7.5318 -3.7950 27.7311
#
#
#
# Elastic Compliance Matrix: (Units=1/GPa)
#
#
# Indices 1 2 3 4 5 6 
#
# 1 0.007102 0.000246 -0.002332 0.000850 0.000159 -0.009074
# 2 0.000246 0.020297 -0.003577 0.011916 -0.003789 -0.011844
# 3 -0.002332 -0.003577 0.008219 -0.004198 0.001757 -0.001597
# 4 0.000850 0.011916 -0.004198 0.048041 -0.009302 0.004014
# 5 0.000159 -0.003789 0.001757 -0.009302 0.028058 0.002719
# 6 -0.009074 -0.011844 -0.001597 0.004014 0.002719 0.063486
#
#
# Mechanical properties :
#
#
# Convention : Reuss Voigt Hill
#
# Bulk Modulus (GPa) = 41.16929 91.79870 66.48399
# Shear Modulus (GPa) = 25.69025 39.19749 32.44387
#
# Velocity S-wave (km/s) = 3.42930 4.23595 3.85379
# Velocity P-wave (km/s) = 5.87589 8.12075 7.08776
#
# Compressibility (1/GPa) = 0.02428995
#
# Stress axis : x y z
#
# Youngs Moduli (GPa) = 140.81185 49.26938 121.66790
#
# Poissons Ratio (x) = -0.01213 0.28378
# Poissons Ratio (y) = -0.03466 0.43525
# Poissons Ratio (z) = 0.32844 0.17626
#
# Static dielectric constant tensor:
#      x y z
#    x 8.343440 0.721530 -0.148520 
#    y 0.721530 3.486470 0.317790 
#    z -0.148520 0.317790 4.456250 
# 
# 
# High freq. dielectric constant tensor:
#      x y z
#    x 1.881480 0.038970 -0.009210 
#    y 0.038970 1.787220 0.017080 
#    z -0.009210 0.017080 1.893280 
# 
# From -- ./inp_files/74283.got.cif
#   From: 2010.06.25/outbox.cif.g09.slc.cpg/sg2_38_cif.got.tgz:74283.got - 2010.06.27 13:26:56.
