data_PCOD8016604
_publ_section_title
;
Structure prediction by ZEFSAII (Michael W. Deem and Ramdas Pophale) SiO2 
 PCOD8016604
Probable space group: P -1
;
_chemical_formula_sum "Si O2"
_cell_formula_units_Z 14
_cell_length_a 16.780052
_cell_length_b 6.548720
_cell_length_c 8.689112
_cell_angle_alpha 66.765530
_cell_angle_beta 113.602515
_cell_angle_gamma 68.153788
_cell_volume 624.693076
_symmetry_space_group_name_H-M "P -1"
_symmetry_group_IT_number 2
_symmetry_cell_setting 'triclinic'
loop_
_space_group_symop_operation_xyz
x,y,z
-x,-y,-z
loop_
_atom_site_type_symbol
_atom_site_label
_atom_site_fract_x
_atom_site_fract_y
_atom_site_fract_z
Si Si1 0.269951 0.970791 0.840696
Si Si2 0.531279 0.087267 0.849978
Si Si3 0.807388 0.727239 0.892527
Si Si4 0.672436 0.393962 0.614184
Si Si5 0.164892 0.469554 0.364065
Si Si6 0.647631 0.597012 0.871083
Si Si7 0.053494 0.298465 0.746305
O O1 0.226639 0.194164 0.604655
O O2 0.172955 0.015955 0.862878
O O3 0.351115 0.979901 0.011688
O O4 0.330227 0.649331 0.923037
O O5 0.433341 0.419463 0.637730
O O6 0.541959 0.898996 0.769972
O O7 0.500000 0.000000 0.000000
O O8 0.845561 0.637427 0.773754
O O9 0.753444 0.588536 0.953261
O O10 0.719067 0.071346 0.734721
O O11 0.918098 0.583482 0.124737
O O12 0.769375 0.406579 0.630458
O O13 0.624178 0.535546 0.702330
O O14 0.039364 0.726882 0.255022
O O15 0.000000 0.500000 0.500000
#
# Coordination Sequence:
#
# PCOD8016604 Si02
#       7
#     2   2   2   2   2   2   2
#     4  11  23  45  65 101 131 172 219 270 319 390
#     4  12  25  42  69  96 134 171 218 270 326 384
#     4  11  23  45  67 101 132 171 217 267 328 386
#     4  11  24  44  66  99 133 173 215 270 322 387
#     4  10  24  41  69  97 134 170 221 265 324 380
#     4  11  24  43  69  94 136 168 222 262 331 385
#     4  10  21  45  69  93 133 171 217 270 320 388
#
# _framework density 22.411007000000001
#
# number of rings (size 3 to 8) (size 9 to 14) (size 15 to 20)
#    0.000    1.143    4.286    0.857    2.000    5.714 
#    2.571    1.429    0.000    0.000    0.000    0.000 
#    0.000    0.000    0.000    0.000    0.000    0.000 
#
# Total GULP energy -173494.124334 kJ/mol
# GULP energy per Si atom -12392.437452 kJ/mol
# Density = 2.236000 g / cm^3
# Si number density = 22.411007 Si / 1000 Ang^3
#
#
#
# Elastic Constant Matrix: (Units=GPa)
#
#
# Indices 1 2 3 4 5 6 
#
# 1 84.4896 32.8986 28.8063 -0.9589 -4.6970 -9.0234
# 2 32.8986 87.3763 30.4654 -1.0014 -6.3074 1.2182
# 3 28.8063 30.4654 111.1694 12.8613 9.4700 7.9744
# 4 -0.9589 -1.0014 12.8613 31.7275 1.0832 -7.9549
# 5 -4.6970 -6.3074 9.4700 1.0832 32.7442 -7.5650
# 6 -9.0234 1.2182 7.9744 -7.9549 -7.5650 32.0851
#
#
#
# Elastic Compliance Matrix: (Units=1/GPa)
#
#
# Indices 1 2 3 4 5 6 
#
# 1 0.016130 -0.004282 -0.004401 0.003945 0.004437 0.007817
# 2 -0.004282 0.014456 -0.003321 0.001619 0.003126 0.000211
# 3 -0.004401 -0.003321 0.012988 -0.007203 -0.006562 -0.007673
# 4 0.003945 0.001619 -0.007203 0.037789 0.004792 0.013337
# 5 0.004437 0.003126 -0.006562 0.004792 0.036413 0.012534
# 6 0.007817 0.000211 -0.007673 0.013337 0.012534 0.041526
#
#
# Mechanical properties :
#
#
# Convention : Reuss Voigt Hill
#
# Bulk Modulus (GPa) = 51.10814 51.93066 51.51940
# Shear Modulus (GPa) = 26.33897 32.03571 29.18734
#
# Velocity S-wave (km/s) = 3.43194 3.78493 3.61275
# Velocity P-wave (km/s) = 6.20957 6.50562 6.35932
#
# Compressibility (1/GPa) = 0.01956636
#
# Stress axis : x y z
#
# Youngs Moduli (GPa) = 61.99630 69.17480 76.99198
#
# Poissons Ratio (x) = 0.29621 0.33886
# Poissons Ratio (y) = 0.26547 0.25567
# Poissons Ratio (z) = 0.27286 0.22971
#
# Static dielectric constant tensor:
#      x y z
#    x 4.470540 -0.170200 0.114960 
#    y -0.170200 4.084660 0.029350 
#    z 0.114960 0.029350 4.259080 
# 
# 
# High freq. dielectric constant tensor:
#      x y z
#    x 1.898150 -0.005360 -0.004380 
#    y -0.005360 1.868350 0.005620 
#    z -0.004380 0.005620 1.893550 
# 
# From -- ./inp_files/36857.got.cif
#   From: 2010.06.25/outbox.cif.g09.slc.cpg/sg2_19_cif.got.tgz:36857.got - 2010.06.27 13:26:56.
