data_PCOD8016089
_publ_section_title
;
Structure prediction by ZEFSAII (Michael W. Deem and Ramdas Pophale) SiO2 
 PCOD8016089
Probable space group: P -1
;
_chemical_formula_sum "Si O2"
_cell_formula_units_Z 14
_cell_length_a 9.496548
_cell_length_b 8.597626
_cell_length_c 8.825384
_cell_angle_alpha 92.342817
_cell_angle_beta 49.620172
_cell_angle_gamma 94.901560
_cell_volume 546.801392
_symmetry_space_group_name_H-M "P -1"
_symmetry_group_IT_number 2
_symmetry_cell_setting 'triclinic'
loop_
_space_group_symop_operation_xyz
x,y,z
-x,-y,-z
loop_
_atom_site_type_symbol
_atom_site_label
_atom_site_fract_x
_atom_site_fract_y
_atom_site_fract_z
Si Si1 0.109537 0.132261 0.527470
Si Si2 0.816167 0.199725 0.169344
Si Si3 0.808328 0.847599 0.196620
Si Si4 0.296638 0.673277 0.060121
Si Si5 0.376929 0.929427 0.215107
Si Si6 0.690756 0.587682 0.737398
Si Si7 0.440363 0.686990 0.394383
O O1 0.067284 0.137769 0.735318
O O2 0.132367 0.302579 0.439908
O O3 0.313210 0.063839 0.373421
O O4 0.000000 0.000000 0.500000
O O5 0.766827 0.307688 0.066234
O O6 0.730160 0.275265 0.379442
O O7 0.738917 0.016717 0.202800
O O8 0.040590 0.206305 0.032484
O O9 0.641858 0.711842 0.337270
O O10 0.522137 0.686592 0.914592
O O11 0.219330 0.813203 0.226788
O O12 0.230254 0.508646 0.179729
O O13 0.483619 0.811920 0.236676
O O14 0.500000 0.000000 0.000000
O O15 0.605428 0.482094 0.652725
#
# Coordination Sequence:
#
# PCOD8016089 Si02
#       7
#     2   2   2   2   2   2   2
#     4  12  25  45  71 104 143 186 242 303 352 430
#     4  11  23  45  73 107 149 185 246 297 358 432
#     4  11  25  44  73 112 139 190 247 302 354 428
#     4  10  21  43  70 106 142 192 236 298 353 430
#     4  11  21  40  71 103 133 192 241 284 355 419
#     4  10  24  45  71 108 145 188 244 288 369 432
#     4  11  24  45  76 103 147 192 232 303 363 431
#
# _framework density 25.603446000000002
#
# number of rings (size 3 to 8) (size 9 to 14) (size 15 to 20)
#    0.000    1.143    2.857    3.000    0.000    3.429 
#    0.000   10.714    0.000    0.000    0.000    0.000 
#    0.000    0.000    0.000    0.000    0.000    0.000 
#
# Total GULP energy -173469.850622 kJ/mol
# GULP energy per Si atom -12390.703616 kJ/mol
# Density = 2.554517 g / cm^3
# Si number density = 25.603446 Si / 1000 Ang^3
#
#
#
# Elastic Constant Matrix: (Units=GPa)
#
#
# Indices 1 2 3 4 5 6 
#
# 1 68.7720 34.1784 24.2990 -17.1051 19.8786 6.6899
# 2 34.1784 127.4089 51.0552 -25.8251 12.2347 10.6805
# 3 24.2990 51.0552 127.4666 1.9890 4.1639 5.0423
# 4 -17.1051 -25.8251 1.9890 49.4738 -2.9245 2.6020
# 5 19.8786 12.2347 4.1639 -2.9245 33.4423 -10.9685
# 6 6.6899 10.6805 5.0423 2.6020 -10.9685 42.4863
#
#
#
# Elastic Compliance Matrix: (Units=1/GPa)
#
#
# Indices 1 2 3 4 5 6 
#
# 1 0.022926 -0.001578 -0.003099 0.006744 -0.014359 -0.006965
# 2 -0.001578 0.011761 -0.004250 0.005741 -0.003465 -0.003450
# 3 -0.003099 -0.004250 0.010077 -0.003625 0.002202 0.001151
# 4 0.006744 0.005741 -0.003625 0.025649 -0.005037 -0.004946
# 5 -0.014359 -0.003465 0.002202 -0.005037 0.043736 0.014470
# 6 -0.006965 -0.003450 0.001151 -0.004946 0.014470 0.029403
#
#
# Mechanical properties :
#
#
# Convention : Reuss Voigt Hill
#
# Bulk Modulus (GPa) = 37.16131 60.30141 48.73136
# Shear Modulus (GPa) = 29.34702 39.35483 34.35092
#
# Velocity S-wave (km/s) = 3.38925 3.92483 3.66683
# Velocity P-wave (km/s) = 5.46459 6.64396 6.08292
#
# Compressibility (1/GPa) = 0.02690971
#
# Stress axis : x y z
#
# Youngs Moduli (GPa) = 43.61930 85.03013 99.23456
#
# Poissons Ratio (x) = 0.13421 0.30750
# Poissons Ratio (y) = 0.06885 0.42171
# Poissons Ratio (z) = 0.13517 0.36134
#
# Static dielectric constant tensor:
#      x y z
#    x 4.683790 0.328800 -0.124360 
#    y 0.328800 7.341380 0.938580 
#    z -0.124360 0.938580 5.386390 
# 
# 
# High freq. dielectric constant tensor:
#      x y z
#    x 2.004310 -0.015090 0.000360 
#    y -0.015090 2.026480 0.004330 
#    z 0.000360 0.004330 2.044360 
# 
# From -- ./inp_files/158449.got.cif
#   From: 2010.06.25/outbox.cif.g09.slc.cpg/sg2_80_cif.got.tgz:158449.got - 2010.06.27 13:26:56.
