data_PCOD8016281
_publ_section_title
;
Structure prediction by ZEFSAII (Michael W. Deem and Ramdas Pophale) SiO2 
 PCOD8016281
Probable space group: P -1
;
_chemical_formula_sum "Si O2"
_cell_formula_units_Z 16
_cell_length_a 7.612978
_cell_length_b 18.608914
_cell_length_c 5.388549
_cell_angle_alpha 85.820302
_cell_angle_beta 119.126292
_cell_angle_gamma 85.293779
_cell_volume 659.007639
_symmetry_space_group_name_H-M "P -1"
_symmetry_group_IT_number 2
_symmetry_cell_setting 'triclinic'
loop_
_space_group_symop_operation_xyz
x,y,z
-x,-y,-z
loop_
_atom_site_type_symbol
_atom_site_label
_atom_site_fract_x
_atom_site_fract_y
_atom_site_fract_z
Si Si1 0.201775 0.803936 0.684491
Si Si2 0.045677 0.184841 0.986543
Si Si3 0.730168 0.575502 0.405563
Si Si4 0.707798 0.041552 0.379651
Si Si5 0.189255 0.328150 0.166285
Si Si6 0.416430 0.647590 0.857187
Si Si7 0.749525 0.974159 0.924921
Si Si8 0.106658 0.573545 0.346994
O O1 0.078514 0.825087 0.846116
O O2 0.322317 0.871408 0.689932
O O3 0.350202 0.730974 0.869897
O O4 0.078544 0.788767 0.354169
O O5 0.196014 0.243058 0.143266
O O6 0.181654 0.110580 0.032615
O O7 0.790474 0.650842 0.538965
O O8 0.760048 0.503499 0.622981
O O9 0.889281 0.555264 0.299512
O O10 0.494178 0.595253 0.156620
O O11 0.493808 0.011341 0.247634
O O12 0.825091 0.019133 0.728893
O O13 0.829710 0.003134 0.235037
O O14 0.383048 0.356424 0.170176
O O15 0.963061 0.369986 0.935037
O O16 0.233965 0.613951 0.617922
#
# Coordination Sequence:
#
# PCOD8016281 Si02
#       8
#     2   2   2   2   2   2   2   2
#     4  12  26  43  68  98 139 182 228 288 337 410
#     4  12  26  43  68  97 140 181 227 289 340 404
#     4  10  23  40  69  96 131 183 221 292 345 412
#     4  10  22  43  67  98 133 176 228 280 341 406
#     4  11  24  41  65  97 134 182 227 286 349 407
#     4  11  24  41  65  98 136 180 231 283 345 414
#     4  10  22  43  67  97 135 176 225 284 338 407
#     4  10  21  44  65  97 136 169 234 284 348 415
#
# _framework density 24.278932000000001
#
# number of rings (size 3 to 8) (size 9 to 14) (size 15 to 20)
#    0.000    1.250    1.250    3.750    3.500    4.500 
#    6.750    0.000    0.000    0.000    0.000    0.000 
#    0.000    0.000    0.000    0.000    0.000    0.000 
#
# Total GULP energy -198271.039912 kJ/mol
# GULP energy per Si atom -12391.939995 kJ/mol
# Density = 2.422367 g / cm^3
# Si number density = 24.278932 Si / 1000 Ang^3
#
#
#
# Elastic Constant Matrix: (Units=GPa)
#
#
# Indices 1 2 3 4 5 6 
#
# 1 53.5581 19.8195 29.3785 -3.0944 -4.5955 -7.7449
# 2 19.8195 150.3578 26.4326 -5.9587 -0.9662 -17.6255
# 3 29.3785 26.4326 125.1692 0.2441 -9.4098 -15.5571
# 4 -3.0944 -5.9587 0.2441 42.0017 -6.6885 1.9242
# 5 -4.5955 -0.9662 -9.4098 -6.6885 28.8658 2.4913
# 6 -7.7449 -17.6255 -15.5571 1.9242 2.4913 34.3675
#
#
#
# Elastic Compliance Matrix: (Units=1/GPa)
#
#
# Indices 1 2 3 4 5 6 
#
# 1 0.022365 -0.001871 -0.004462 0.001689 0.002279 0.001801
# 2 -0.001871 0.007414 -0.000783 0.000717 -0.000399 0.003015
# 3 -0.004462 -0.000783 0.009716 -0.000290 0.002117 0.002854
# 4 0.001689 0.000717 -0.000290 0.025066 0.006113 -0.001230
# 5 0.002279 -0.000399 0.002117 0.006113 0.037252 -0.001775
# 6 0.001801 0.003015 0.002854 -0.001230 -0.001775 0.032539
#
#
# Mechanical properties :
#
#
# Convention : Reuss Voigt Hill
#
# Bulk Modulus (GPa) = 39.58406 53.37180 46.47793
# Shear Modulus (GPa) = 31.84577 37.94397 34.89487
#
# Velocity S-wave (km/s) = 3.62562 3.95756 3.79522
# Velocity P-wave (km/s) = 5.81946 6.55084 6.19595
#
# Compressibility (1/GPa) = 0.02526270
#
# Stress axis : x y z
#
# Youngs Moduli (GPa) = 44.71288 134.87270 102.91916
#
# Poissons Ratio (x) = 0.25233 0.45926
# Poissons Ratio (y) = 0.08365 0.08061
# Poissons Ratio (z) = 0.19952 0.10564
#
# Static dielectric constant tensor:
#      x y z
#    x 4.191920 -0.109070 -0.070860 
#    y -0.109070 4.480260 -0.129650 
#    z -0.070860 -0.129650 4.745000 
# 
# 
# High freq. dielectric constant tensor:
#      x y z
#    x 1.959850 -0.005520 0.005490 
#    y -0.005520 1.975820 -0.000950 
#    z 0.005490 -0.000950 1.971180 
# 
# From -- ./inp_files/44395.got.cif
#   From: 2010.06.25/outbox.cif.g09.slc.cpg/sg2_23_cif.got.tgz:44395.got - 2010.06.27 13:26:56.
