data_PCOD8016826
_publ_section_title
;
Structure prediction by ZEFSAII (Michael W. Deem and Ramdas Pophale) SiO2 
 PCOD8016826
Probable space group: P -1
;
_chemical_formula_sum "Si O2"
_cell_formula_units_Z 16
_cell_length_a 5.284407
_cell_length_b 14.556710
_cell_length_c 12.663848
_cell_angle_alpha 90.104513
_cell_angle_beta 99.566027
_cell_angle_gamma 126.885977
_cell_volume 761.922529
_symmetry_space_group_name_H-M "P -1"
_symmetry_group_IT_number 2
_symmetry_cell_setting 'triclinic'
loop_
_space_group_symop_operation_xyz
x,y,z
-x,-y,-z
loop_
_atom_site_type_symbol
_atom_site_label
_atom_site_fract_x
_atom_site_fract_y
_atom_site_fract_z
Si Si1 0.557529 0.906559 0.036623
Si Si2 0.889987 0.024157 0.795316
Si Si3 0.604760 0.681258 0.455185
Si Si4 0.185859 0.085850 0.607016
Si Si5 0.795674 0.200906 0.770614
Si Si6 0.680368 0.207032 0.190992
Si Si7 0.096624 0.411557 0.658041
Si Si8 0.595685 0.678080 0.703495
O O1 0.393475 0.831702 0.132279
O O2 0.941625 0.982851 0.089106
O O3 0.425812 0.807407 0.938943
O O4 0.500000 0.000000 0.000000
O O5 0.003114 0.154254 0.795043
O O6 0.995150 0.002825 0.693086
O O7 0.504626 0.925200 0.780252
O O8 0.814309 0.804121 0.409507
O O9 0.748583 0.615359 0.426112
O O10 0.646364 0.703691 0.582870
O O11 0.223652 0.605945 0.403887
O O12 0.558269 0.137851 0.651538
O O13 0.000000 0.000000 0.500000
O O14 0.027614 0.337138 0.759440
O O15 0.551153 0.264480 0.249944
O O16 0.060591 0.274265 0.223082
O O17 0.353988 0.542838 0.711291
#
# Coordination Sequence:
#
# PCOD8016826 Si02
#       8
#     2   2   2   2   2   2   2   2
#     4  11  23  42  67  94 127 170 217 265 326 398
#     4  11  22  40  64  92 130 168 210 260 326 401
#     4  11  22  41  67  95 127 178 216 255 317 395
#     4  10  22  36  58  97 137 164 202 265 328 382
#     4  10  23  40  65  94 122 176 213 257 318 397
#     4  12  26  41  65  98 130 163 218 276 333 365
#     4  11  23  46  67  92 130 175 223 255 314 392
#     4  12  26  43  65  97 131 170 218 276 313 374
#
# _framework density 20.999510000000001
#
# number of rings (size 3 to 8) (size 9 to 14) (size 15 to 20)
#    0.000    1.000    2.500    4.125    5.250    1.500 
#    0.000    1.250    0.000    0.000    0.000    0.000 
#    0.000    0.000    0.000    0.000    0.000    0.000 
#
# Total GULP energy -198281.694779 kJ/mol
# GULP energy per Si atom -12392.605924 kJ/mol
# Density = 2.095171 g / cm^3
# Si number density = 20.999510 Si / 1000 Ang^3
#
#
#
# Elastic Constant Matrix: (Units=GPa)
#
#
# Indices 1 2 3 4 5 6 
#
# 1 88.7273 23.0381 25.5987 8.1704 5.8608 0.6494
# 2 23.0381 105.7574 53.0002 1.5137 8.8362 13.0194
# 3 25.5987 53.0002 127.8560 -1.3074 0.8486 5.4027
# 4 8.1704 1.5137 -1.3074 28.4991 3.5949 2.6490
# 5 5.8608 8.8362 0.8486 3.5949 32.7640 6.5460
# 6 0.6494 13.0194 5.4027 2.6490 6.5460 31.5833
#
#
#
# Elastic Compliance Matrix: (Units=1/GPa)
#
#
# Indices 1 2 3 4 5 6 
#
# 1 0.012710 -0.001818 -0.001878 -0.003562 -0.001633 0.001447
# 2 -0.001818 0.012946 -0.004814 0.000273 -0.002266 -0.004029
# 3 -0.001878 -0.004814 0.010199 0.001110 0.001264 -0.000076
# 4 -0.003562 0.000273 0.001110 0.036771 -0.002960 -0.002700
# 5 -0.001633 -0.002266 0.001264 -0.002960 0.032878 -0.005814
# 6 0.001447 -0.004029 -0.000076 -0.002700 -0.005814 0.034738
#
#
# Mechanical properties :
#
#
# Convention : Reuss Voigt Hill
#
# Bulk Modulus (GPa) = 53.09557 58.40163 55.74860
# Shear Modulus (GPa) = 30.57355 33.28285 31.92820
#
# Velocity S-wave (km/s) = 3.81979 3.98544 3.90349
# Velocity P-wave (km/s) = 6.69279 7.00355 6.84993
#
# Compressibility (1/GPa) = 0.01883396
#
# Stress axis : x y z
#
# Youngs Moduli (GPa) = 78.68081 77.24502 98.04808
#
# Poissons Ratio (x) = 0.14046 0.18409
# Poissons Ratio (y) = 0.14307 0.47203
# Poissons Ratio (z) = 0.14773 0.37188
#
# Static dielectric constant tensor:
#      x y z
#    x 3.956590 0.099920 -0.046800 
#    y 0.099920 3.971850 -0.142510 
#    z -0.046800 -0.142510 3.946020 
# 
# 
# High freq. dielectric constant tensor:
#      x y z
#    x 1.832800 0.008620 -0.002140 
#    y 0.008620 1.821080 -0.013200 
#    z -0.002140 -0.013200 1.826540 
# 
# From -- ./inp_files/66881.got.cif
#   From: 2010.06.25/outbox.cif.g09.slc.cpg/sg2_34_cif.got.tgz:66881.got - 2010.06.27 13:26:56.
