data_PCOD8016801
_publ_section_title
;
Structure prediction by ZEFSAII (Michael W. Deem and Ramdas Pophale) SiO2 
 PCOD8016801
Probable space group: P -1
;
_chemical_formula_sum "Si O2"
_cell_formula_units_Z 16
_cell_length_a 16.382492
_cell_length_b 11.171302
_cell_length_c 5.211523
_cell_angle_alpha 115.418984
_cell_angle_beta 89.641823
_cell_angle_gamma 76.701335
_cell_volume 832.345915
_symmetry_space_group_name_H-M "P -1"
_symmetry_group_IT_number 2
_symmetry_cell_setting 'triclinic'
loop_
_space_group_symop_operation_xyz
x,y,z
-x,-y,-z
loop_
_atom_site_type_symbol
_atom_site_label
_atom_site_fract_x
_atom_site_fract_y
_atom_site_fract_z
Si Si1 0.928440 0.140018 0.155931
Si Si2 0.843153 0.088714 0.616153
Si Si3 0.381892 0.180487 0.373310
Si Si4 0.039398 0.339899 0.353540
Si Si5 0.680637 0.802394 0.112034
Si Si6 0.577747 0.114526 0.303599
Si Si7 0.345190 0.891261 0.206778
Si Si8 0.868592 0.779303 0.269970
O O1 0.859061 0.136695 0.373672
O O2 0.966544 0.264983 0.350684
O O3 0.884521 0.165033 0.901180
O O4 0.000000 0.000000 0.000000
O O5 0.745031 0.124822 0.721920
O O6 0.884618 0.925824 0.472239
O O7 0.363693 0.264517 0.720107
O O8 0.480055 0.133614 0.260359
O O9 0.344082 0.051540 0.334118
O O10 0.327367 0.272399 0.228999
O O11 0.111229 0.306636 0.544661
O O12 0.000000 0.500000 0.500000
O O13 0.072078 0.293172 0.026795
O O14 0.774931 0.796866 0.183593
O O15 0.625193 0.954034 0.169779
O O16 0.590452 0.182759 0.637430
O O17 0.620778 0.180438 0.130714
#
# Coordination Sequence:
#
# PCOD8016801 Si02
#       8
#     2   2   2   2   2   2   2   2
#     4  12  23  37  59  82 107 137 184 232 280 338
#     4  12  21  34  55  84 107 140 185 233 267 321
#     4  10  17  26  41  67 107 153 182 203 257 326
#     4  12  27  43  59  80 109 146 185 236 291 331
#     4  10  18  27  44  71  98 141 189 209 257 320
#     4  10  17  26  41  66 107 156 179 204 255 330
#     4  10  18  27  41  66 104 141 186 202 263 312
#     4  12  21  37  60  79 109 144 189 227 278 335
#
# _framework density 19.222777000000001
#
# number of rings (size 3 to 8) (size 9 to 14) (size 15 to 20)
#    0.000    1.000    5.000    6.750    3.500    0.000 
#    0.000    0.000    0.000    0.000    0.000    0.000 
#    0.000    0.000    0.000  130.500    0.000    0.000 
#
# Total GULP energy -198223.973418 kJ/mol
# GULP energy per Si atom -12388.998339 kJ/mol
# Density = 1.917903 g / cm^3
# Si number density = 19.222777 Si / 1000 Ang^3
#
#
#
# Elastic Constant Matrix: (Units=GPa)
#
#
# Indices 1 2 3 4 5 6 
#
# 1 109.5144 31.8111 43.1865 -4.7418 -7.1833 -9.2821
# 2 31.8111 60.4105 41.8053 -11.4043 12.5422 -3.0899
# 3 43.1865 41.8053 129.0656 -49.6290 -8.4676 -2.1293
# 4 -4.7418 -11.4043 -49.6290 35.3960 -2.7014 5.7607
# 5 -7.1833 12.5422 -8.4676 -2.7014 35.2952 -14.5351
# 6 -9.2821 -3.0899 -2.1293 5.7607 -14.5351 19.9468
#
#
#
# Elastic Compliance Matrix: (Units=1/GPa)
#
#
# Indices 1 2 3 4 5 6 
#
# 1 0.014876 -0.007052 -0.005598 -0.009852 0.009662 0.015118
# 2 -0.007052 0.031093 -0.012261 -0.007606 -0.021445 -0.013204
# 3 -0.005598 -0.012261 0.028265 0.036410 0.011205 -0.003838
# 4 -0.009852 -0.007606 0.036410 0.079242 0.007573 -0.019243
# 5 0.009662 -0.021445 0.011205 0.007573 0.058954 0.043143
# 6 0.015118 -0.013204 -0.003838 -0.019243 0.043143 0.091708
#
#
# Mechanical properties :
#
#
# Convention : Reuss Voigt Hill
#
# Bulk Modulus (GPa) = 40.96467 59.17734 50.07101
# Shear Modulus (GPa) = 13.80843 30.27347 22.04095
#
# Velocity S-wave (km/s) = 2.68309 3.97277 3.38983
# Velocity P-wave (km/s) = 5.56375 7.20387 6.43627
#
# Compressibility (1/GPa) = 0.02441128
#
# Stress axis : x y z
#
# Youngs Moduli (GPa) = 67.22291 32.16174 35.37933
#
# Poissons Ratio (x) = 0.22680 0.19807
# Poissons Ratio (y) = 0.47404 0.43379
# Poissons Ratio (z) = 0.37635 0.39434
#
# Static dielectric constant tensor:
#      x y z
#    x 3.599550 -0.132400 -0.074610 
#    y -0.132400 3.253610 -0.902360 
#    z -0.074610 -0.902360 4.721260 
# 
# 
# High freq. dielectric constant tensor:
#      x y z
#    x 1.751450 -0.028060 -0.013450 
#    y -0.028060 1.680160 -0.058880 
#    z -0.013450 -0.058880 1.770430 
# 
# From -- ./inp_files/93908.got.cif
#   From: 2010.06.25/outbox.cif.g09.slc.cpg/sg2_47_cif.got.tgz:93908.got - 2010.06.27 13:26:56.
