data_PCOD8016488
_publ_section_title
;
Structure prediction by ZEFSAII (Michael W. Deem and Ramdas Pophale) SiO2 
 PCOD8016488
Probable space group: P -1
;
_chemical_formula_sum "Si O2"
_cell_formula_units_Z 16
_cell_length_a 12.077797
_cell_length_b 11.053841
_cell_length_c 9.027120
_cell_angle_alpha 96.153061
_cell_angle_beta 34.561173
_cell_angle_gamma 91.136994
_cell_volume 674.719296
_symmetry_space_group_name_H-M "P -1"
_symmetry_group_IT_number 2
_symmetry_cell_setting 'triclinic'
loop_
_space_group_symop_operation_xyz
x,y,z
-x,-y,-z
loop_
_atom_site_type_symbol
_atom_site_label
_atom_site_fract_x
_atom_site_fract_y
_atom_site_fract_z
Si Si1 0.741129 0.700668 0.866094
Si Si2 0.304158 0.482849 0.883962
Si Si3 0.330713 0.824734 0.464022
Si Si4 0.979661 0.919070 0.656079
Si Si5 0.704551 0.718739 0.321974
Si Si6 0.355071 0.398593 0.354276
Si Si7 0.210302 0.019529 0.836826
Si Si8 0.141563 0.611170 0.798542
O O1 0.903869 0.791751 0.674177
O O2 0.700243 0.634718 0.751504
O O3 0.828001 0.593805 0.871712
O O4 0.536185 0.772251 0.159789
O O5 0.432639 0.369381 0.631305
O O6 0.439441 0.545813 0.858648
O O7 0.206624 0.587730 0.895449
O O8 0.212645 0.730555 0.666308
O O9 0.192356 0.891010 0.495980
O O10 0.370737 0.921227 0.565586
O O11 0.817195 0.991708 0.956552
O O12 0.000000 0.000000 0.500000
O O13 0.636153 0.725140 0.569079
O O14 0.723268 0.848336 0.249735
O O15 0.907333 0.629132 0.066350
O O16 0.192562 0.498080 0.617188
O O17 0.000000 0.000000 0.000000
#
# Coordination Sequence:
#
# PCOD8016488 Si02
#       8
#     2   2   2   2   2   2   2   2
#     4  12  26  47  68 101 150 182 223 292 351 404
#     4  11  22  42  66  99 138 177 228 282 340 415
#     4  11  25  46  73 102 139 186 234 280 347 413
#     4  11  26  49  70 102 143 178 231 293 340 412
#     4  11  21  43  70 101 132 182 236 288 341 409
#     4  11  25  40  66  98 144 180 222 286 347 409
#     4  10  21  44  72  95 136 179 234 290 335 405
#     4  11  21  42  71 104 134 179 235 286 340 418
#
# _framework density 23.713566
#
# number of rings (size 3 to 8) (size 9 to 14) (size 15 to 20)
#    0.000    1.000    5.000    3.375    3.500    1.000 
#    6.750    3.125    0.000    0.000    0.000    0.000 
#    0.000    0.000    0.000    0.000    0.000    0.000 
#
# Total GULP energy -198210.030464 kJ/mol
# GULP energy per Si atom -12388.126904 kJ/mol
# Density = 2.365959 g / cm^3
# Si number density = 23.713566 Si / 1000 Ang^3
#
#
#
# Elastic Constant Matrix: (Units=GPa)
#
#
# Indices 1 2 3 4 5 6 
#
# 1 126.8679 50.8456 37.3635 -5.3173 38.7500 -3.6592
# 2 50.8456 120.0018 41.0045 -24.9951 26.6508 -7.4476
# 3 37.3635 41.0045 69.6698 1.1518 23.3061 -12.0239
# 4 -5.3173 -24.9951 1.1518 36.5617 -1.2782 20.8431
# 5 38.7500 26.6508 23.3061 -1.2782 45.1485 -7.0988
# 6 -3.6592 -7.4476 -12.0239 20.8431 -7.0988 41.6912
#
#
#
# Elastic Compliance Matrix: (Units=1/GPa)
#
#
# Indices 1 2 3 4 5 6 
#
# 1 0.012002 -0.002235 -0.002908 0.001256 -0.007781 -0.002137
# 2 -0.002235 0.015611 -0.008335 0.015021 -0.003823 -0.007971
# 3 -0.002908 -0.008335 0.024237 -0.013491 -0.003691 0.011362
# 4 0.001256 0.015021 -0.013491 0.054868 -0.006075 -0.029562
# 5 -0.007781 -0.003823 -0.003691 -0.006075 0.033818 0.006365
# 6 -0.002137 -0.007971 0.011362 -0.029562 0.006365 0.041514
#
#
# Mechanical properties :
#
#
# Convention : Reuss Voigt Hill
#
# Bulk Modulus (GPa) = 40.16832 63.88518 52.02675
# Shear Modulus (GPa) = 23.00932 37.16867 30.08900
#
# Velocity S-wave (km/s) = 3.11835 3.96334 3.56596
# Velocity P-wave (km/s) = 5.47185 6.92408 6.24036
#
# Compressibility (1/GPa) = 0.02489524
#
# Stress axis : x y z
#
# Youngs Moduli (GPa) = 83.32048 64.05788 41.25906
#
# Poissons Ratio (x) = 0.14314 0.11998
# Poissons Ratio (y) = 0.18619 0.34388
# Poissons Ratio (z) = 0.24229 0.53391
#
# Static dielectric constant tensor:
#      x y z
#    x 4.587110 0.042420 -0.016520 
#    y 0.042420 4.645730 -0.051680 
#    z -0.016520 -0.051680 4.387140 
# 
# 
# High freq. dielectric constant tensor:
#      x y z
#    x 1.956190 0.006370 0.001400 
#    y 0.006370 1.951400 -0.022510 
#    z 0.001400 -0.022510 1.925310 
# 
# From -- ./inp_files/253881.got.cif
#   From: 2010.06.25/outbox.cif.g09.slc.cpg/sg2_127_cif.got.tgz:253881.got - 2010.06.27 13:26:56.
