data_PCOD8016575
_publ_section_title
;
Structure prediction by ZEFSAII (Michael W. Deem and Ramdas Pophale) SiO2 
 PCOD8016575
Probable space group: P -1
;
_chemical_formula_sum "Si O2"
_cell_formula_units_Z 14
_cell_length_a 15.371606
_cell_length_b 11.089944
_cell_length_c 7.006122
_cell_angle_alpha 134.321029
_cell_angle_beta 123.699787
_cell_angle_gamma 46.632147
_cell_volume 614.660955
_symmetry_space_group_name_H-M "P -1"
_symmetry_group_IT_number 2
_symmetry_cell_setting 'triclinic'
loop_
_space_group_symop_operation_xyz
x,y,z
-x,-y,-z
loop_
_atom_site_type_symbol
_atom_site_label
_atom_site_fract_x
_atom_site_fract_y
_atom_site_fract_z
Si Si1 0.362796 0.026995 0.706314
Si Si2 0.408289 0.989019 0.140937
Si Si3 0.962184 0.339393 0.266179
Si Si4 0.253759 0.490784 0.092861
Si Si5 0.571449 0.589850 0.089137
Si Si6 0.223375 0.000924 0.173580
Si Si7 0.226332 0.620355 0.634213
O O1 0.500522 0.925502 0.675052
O O2 0.279234 0.968969 0.419413
O O3 0.300186 0.260883 0.898013
O O4 0.376295 0.941472 0.840663
O O5 0.280996 0.108239 0.233236
O O6 0.476214 0.807773 0.163973
O O7 0.903459 0.327408 0.381315
O O8 0.000000 0.500000 0.500000
O O9 0.079686 0.130701 0.145434
O O10 0.873560 0.386224 0.032069
O O11 0.354586 0.520461 0.136329
O O12 0.233692 0.576440 0.372885
O O13 0.500000 0.500000 0.000000
O O14 0.671859 0.573495 0.346263
O O15 0.255454 0.793400 0.896035
#
# Coordination Sequence:
#
# PCOD8016575 Si02
#       7
#     2   2   2   2   2   2   2
#     4  10  23  43  66 101 139 175 227 272 335 409
#     4  10  23  40  68 102 134 181 224 274 331 405
#     4  11  25  46  72  97 133 181 230 280 341 401
#     4  10  24  44  71 100 133 177 229 277 336 405
#     4  10  21  45  67  99 140 178 216 273 340 406
#     4  12  24  44  69  99 138 179 224 282 338 393
#     4  11  26  44  68 101 139 175 223 287 338 398
#
# _framework density 22.776783999999999
#
# number of rings (size 3 to 8) (size 9 to 14) (size 15 to 20)
#    0.000    1.429    2.857    0.857    2.000    8.571 
#    0.000    0.000    0.000    0.000    0.000    0.000 
#    0.000    0.000    0.000    0.000    0.000    0.000 
#
# Total GULP energy -173518.782646 kJ/mol
# GULP energy per Si atom -12394.198760 kJ/mol
# Density = 2.272494 g / cm^3
# Si number density = 22.776784 Si / 1000 Ang^3
#
#
#
# Elastic Constant Matrix: (Units=GPa)
#
#
# Indices 1 2 3 4 5 6 
#
# 1 145.3879 41.3982 53.4884 -17.4919 -22.7016 -18.0865
# 2 41.3982 69.4398 34.0572 -18.5700 -16.8141 -12.7484
# 3 53.4884 34.0572 151.6916 -18.5448 -21.1996 -1.8468
# 4 -17.4919 -18.5700 -18.5448 32.9147 9.2792 -1.0309
# 5 -22.7016 -16.8141 -21.1996 9.2792 34.1758 -2.6644
# 6 -18.0865 -12.7484 -1.8468 -1.0309 -2.6644 37.2134
#
#
#
# Elastic Compliance Matrix: (Units=1/GPa)
#
#
# Indices 1 2 3 4 5 6 
#
# 1 0.009661 -0.002724 -0.002042 0.001526 0.003705 0.003969
# 2 -0.002724 0.021930 -0.002028 0.008304 0.005993 0.006747
# 3 -0.002042 -0.002028 0.008282 0.001778 0.002217 -0.001068
# 4 0.001526 0.008304 0.001778 0.038088 -0.003791 0.004459
# 5 0.003705 0.005993 0.002217 -0.003791 0.037586 0.006550
# 6 0.003969 0.006747 -0.001068 0.004459 0.006550 0.031652
#
#
# Mechanical properties :
#
#
# Convention : Reuss Voigt Hill
#
# Bulk Modulus (GPa) = 38.04546 69.37855 53.71201
# Shear Modulus (GPa) = 29.48991 36.69915 33.09453
#
# Velocity S-wave (km/s) = 3.60215 4.01840 3.81595
# Velocity P-wave (km/s) = 5.83442 7.21501 6.56113
#
# Compressibility (1/GPa) = 0.02628435
#
# Stress axis : x y z
#
# Youngs Moduli (GPa) = 103.50826 45.59872 120.74337
#
# Poissons Ratio (x) = 0.12421 0.24659
# Poissons Ratio (y) = 0.28196 0.24490
# Poissons Ratio (z) = 0.21139 0.09249
#
# Static dielectric constant tensor:
#      x y z
#    x 3.096930 0.581230 0.254340 
#    y 0.581230 4.162960 -0.488830 
#    z 0.254340 -0.488830 3.821480 
# 
# 
# High freq. dielectric constant tensor:
#      x y z
#    x 1.916350 -0.007210 -0.010890 
#    y -0.007210 1.902890 -0.015450 
#    z -0.010890 -0.015450 1.887590 
# 
# From -- ./inp_files/27488.got.cif
#   From: 2010.06.25/outbox.cif.g09.slc.cpg/sg2_14_cif.got.tgz:27488.got - 2010.06.27 13:26:56.
