data_PCOD8016555
_publ_section_title
;
Structure prediction by ZEFSAII (Michael W. Deem and Ramdas Pophale) SiO2 
 PCOD8016555
Probable space group: P -1
;
_chemical_formula_sum "Si O2"
_cell_formula_units_Z 14
_cell_length_a 17.667518
_cell_length_b 8.649330
_cell_length_c 5.324506
_cell_angle_alpha 104.180361
_cell_angle_beta 115.755852
_cell_angle_gamma 52.303458
_cell_volume 579.603216
_symmetry_space_group_name_H-M "P -1"
_symmetry_group_IT_number 2
_symmetry_cell_setting 'triclinic'
loop_
_space_group_symop_operation_xyz
x,y,z
-x,-y,-z
loop_
_atom_site_type_symbol
_atom_site_label
_atom_site_fract_x
_atom_site_fract_y
_atom_site_fract_z
Si Si1 0.969113 0.838253 0.181181
Si Si2 0.583698 0.327416 0.877229
Si Si3 0.241952 0.095177 0.965559
Si Si4 0.067225 0.753991 0.789329
Si Si5 0.700028 0.806644 0.393296
Si Si6 0.503675 0.851234 0.633690
Si Si7 0.300438 0.485730 0.984511
O O1 0.856040 0.905200 0.116904
O O2 0.043829 0.698199 0.462127
O O3 0.972720 0.023245 0.219168
O O4 0.008459 0.727197 0.923614
O O5 0.523432 0.295668 0.565574
O O6 0.500000 0.500000 0.000000
O O7 0.654691 0.388043 0.893955
O O8 0.661593 0.124348 0.051211
O O9 0.225046 0.221165 0.741761
O O10 0.262776 0.175048 0.276208
O O11 0.186721 0.619291 0.987262
O O12 0.702846 0.607889 0.324444
O O13 0.585674 0.003198 0.238417
O O14 0.500000 0.000000 0.500000
O O15 0.621512 0.717879 0.837753
#
# Coordination Sequence:
#
# PCOD8016555 Si02
#       7
#     2   2   2   2   2   2   2
#     4  10  21  45  66  99 134 178 223 281 349 396
#     4  11  23  39  66 104 132 176 230 284 327 406
#     4  11  23  46  68  98 136 188 219 276 350 405
#     4  10  23  40  70 100 132 174 228 287 336 391
#     4  11  25  42  68  97 141 183 221 270 349 409
#     4  11  24  45  68  99 145 185 218 276 347 413
#     4  12  23  43  65 104 133 180 231 287 324 405
#
# _framework density 24.154457000000001
#
# number of rings (size 3 to 8) (size 9 to 14) (size 15 to 20)
#    0.000    1.143    1.429    5.143    0.000    4.571 
#    2.571    4.286    0.000    0.000    0.000    0.000 
#    0.000    0.000    0.000    0.000    0.000    0.000 
#
# Total GULP energy -173446.500055 kJ/mol
# GULP energy per Si atom -12389.035718 kJ/mol
# Density = 2.409948 g / cm^3
# Si number density = 24.154457 Si / 1000 Ang^3
#
#
#
# Elastic Constant Matrix: (Units=GPa)
#
#
# Indices 1 2 3 4 5 6 
#
# 1 121.6231 18.0418 55.1565 3.8330 -13.4841 -15.4720
# 2 18.0418 59.1820 32.5012 15.2124 -2.7491 -1.7229
# 3 55.1565 32.5012 104.6472 -1.0477 -16.9687 -1.9639
# 4 3.8330 15.2124 -1.0477 35.8348 -3.5608 6.8311
# 5 -13.4841 -2.7491 -16.9687 -3.5608 37.8127 -0.7880
# 6 -15.4720 -1.7229 -1.9639 6.8311 -0.7880 42.7289
#
#
#
# Elastic Compliance Matrix: (Units=1/GPa)
#
#
# Indices 1 2 3 4 5 6 
#
# 1 0.011659 0.000560 -0.006041 -0.002359 0.001356 0.004369
# 2 0.000560 0.024144 -0.008311 -0.011316 -0.002787 0.002552
# 3 -0.006041 -0.008311 0.016133 0.005632 0.004958 -0.002590
# 4 -0.002359 -0.011316 0.005632 0.034770 0.004002 -0.006537
# 5 0.001356 -0.002787 0.004958 0.004002 0.029339 0.000508
# 6 0.004369 0.002552 -0.002590 -0.006537 0.000508 0.026024
#
#
# Mechanical properties :
#
#
# Convention : Reuss Voigt Hill
#
# Bulk Modulus (GPa) = 41.06448 55.20571 48.13509
# Shear Modulus (GPa) = 28.12620 35.25880 31.69250
#
# Velocity S-wave (km/s) = 3.41608 3.82478 3.62619
# Velocity P-wave (km/s) = 5.70939 6.51231 6.12402
#
# Compressibility (1/GPa) = 0.02435195
#
# Stress axis : x y z
#
# Youngs Moduli (GPa) = 85.77006 41.41810 61.98599
#
# Poissons Ratio (x) = -0.02318 0.37444
# Poissons Ratio (y) = -0.04801 0.51516
# Poissons Ratio (z) = 0.51811 0.34422
#
# Static dielectric constant tensor:
#      x y z
#    x 4.727530 -0.152700 0.191100 
#    y -0.152700 4.581220 0.115930 
#    z 0.191100 0.115930 4.541090 
# 
# 
# High freq. dielectric constant tensor:
#      x y z
#    x 1.966260 -0.005830 0.009120 
#    y -0.005830 1.958750 0.007660 
#    z 0.009120 0.007660 1.955130 
# 
# From -- ./inp_files/107419.got.cif
#   From: 2010.06.25/outbox.cif.g09.slc.cpg/sg2_54_cif.got.tgz:107419.got - 2010.06.27 13:26:56.
