data_PCOD8016818
_publ_section_title
;
Structure prediction by ZEFSAII (Michael W. Deem and Ramdas Pophale) SiO2 
 PCOD8016818
Probable space group: P -1
;
_chemical_formula_sum "Si O2"
_cell_formula_units_Z 16
_cell_length_a 5.096130
_cell_length_b 10.944005
_cell_length_c 15.382879
_cell_angle_alpha 59.542288
_cell_angle_beta 87.953510
_cell_angle_gamma 77.131625
_cell_volume 717.921509
_symmetry_space_group_name_H-M "P -1"
_symmetry_group_IT_number 2
_symmetry_cell_setting 'triclinic'
loop_
_space_group_symop_operation_xyz
x,y,z
-x,-y,-z
loop_
_atom_site_type_symbol
_atom_site_label
_atom_site_fract_x
_atom_site_fract_y
_atom_site_fract_z
Si Si1 0.100481 0.389669 0.115690
Si Si2 0.252577 0.117250 0.682587
Si Si3 0.666423 0.843134 0.141169
Si Si4 0.660599 0.267200 0.569918
Si Si5 0.950254 0.429993 0.777798
Si Si6 0.300331 0.789863 0.853393
Si Si7 0.758130 0.126465 0.990516
Si Si8 0.442337 0.486395 0.643944
O O1 0.385455 0.285684 0.125467
O O2 0.140907 0.475635 0.170669
O O3 0.878672 0.296194 0.169612
O O4 0.000000 0.500000 0.000000
O O5 0.315055 0.193623 0.744014
O O6 0.492610 0.140465 0.607295
O O7 0.963754 0.201140 0.620273
O O8 0.250881 0.949381 0.754631
O O9 0.964246 0.747703 0.132611
O O10 0.430337 0.781601 0.116908
O O11 0.580147 0.018082 0.072557
O O12 0.488928 0.381674 0.598479
O O13 0.667073 0.347466 0.448516
O O14 0.232148 0.449853 0.728515
O O15 0.726011 0.472999 0.692673
O O16 0.194587 0.783318 0.957293
O O17 0.000000 0.000000 0.000000
#
# Coordination Sequence:
#
# PCOD8016818 Si02
#       8
#     2   2   2   2   2   2   2   2
#     4  12  27  47  66  91 129 183 222 272 304 369
#     4  11  22  39  68  93 135 166 204 268 325 403
#     4  10  22  36  56  97 120 169 207 256 332 374
#     4  11  21  40  64 104 137 162 202 262 356 383
#     4  12  24  41  68  91 132 170 223 263 315 387
#     4  11  26  44  64  93 127 174 227 258 327 373
#     4  10  24  36  63  87 133 163 205 277 314 398
#     4  11  23  39  66 101 136 165 206 271 323 415
#
# _framework density 22.286560000000001
#
# number of rings (size 3 to 8) (size 9 to 14) (size 15 to 20)
#    0.000    1.000    2.500    3.375   12.250    2.000 
#    0.000    0.000    0.000   15.000    0.000    0.000 
#    0.000    0.000    0.000    0.000    0.000    0.000 
#
# Total GULP energy -198307.191105 kJ/mol
# GULP energy per Si atom -12394.199444 kJ/mol
# Density = 2.223584 g / cm^3
# Si number density = 22.286560 Si / 1000 Ang^3
#
#
#
# Elastic Constant Matrix: (Units=GPa)
#
#
# Indices 1 2 3 4 5 6 
#
# 1 103.5223 0.7563 27.6202 -16.9267 17.2312 -15.2405
# 2 0.7563 69.9728 35.6424 -11.5702 3.5113 -6.1621
# 3 27.6202 35.6424 85.9402 -22.6680 23.1906 -9.8172
# 4 -16.9267 -11.5702 -22.6680 26.9737 -9.7810 -0.1700
# 5 17.2312 3.5113 23.1906 -9.7810 27.4183 -10.4827
# 6 -15.2405 -6.1621 -9.8172 -0.1700 -10.4827 35.5881
#
#
#
# Elastic Compliance Matrix: (Units=1/GPa)
#
#
# Indices 1 2 3 4 5 6 
#
# 1 0.012271 0.002538 -0.002279 0.006089 -0.002242 0.004435
# 2 0.002538 0.019718 -0.009084 0.004932 0.006868 0.004042
# 3 -0.002279 -0.009084 0.021789 0.008264 -0.013013 -0.000332
# 4 0.006089 0.004932 0.008264 0.054169 0.011461 0.009376
# 5 -0.002242 0.006868 -0.013013 0.011461 0.057283 0.013567
# 6 0.004435 0.004042 -0.000332 0.009376 0.013567 0.034648
#
#
# Mechanical properties :
#
#
# Convention : Reuss Voigt Hill
#
# Bulk Modulus (GPa) = 27.67917 43.05256 35.36586
# Shear Modulus (GPa) = 21.77982 31.02377 26.40180
#
# Velocity S-wave (km/s) = 3.12951 3.73505 3.44561
# Velocity P-wave (km/s) = 5.05026 6.16121 5.63319
#
# Compressibility (1/GPa) = 0.03612825
#
# Stress axis : x y z
#
# Youngs Moduli (GPa) = 81.49455 50.71545 45.89467
#
# Poissons Ratio (x) = -0.12871 0.10458
# Poissons Ratio (y) = -0.20683 0.41690
# Poissons Ratio (z) = 0.18570 0.46070
#
# Static dielectric constant tensor:
#      x y z
#    x 2.749860 0.388870 0.828860 
#    y 0.388870 4.695000 -0.864380 
#    z 0.828860 -0.864380 4.100530 
# 
# 
# High freq. dielectric constant tensor:
#      x y z
#    x 1.901190 0.005010 0.000310 
#    y 0.005010 1.856490 -0.025070 
#    z 0.000310 -0.025070 1.887850 
# 
# From -- ./inp_files/482091.got.cif
#   From: 2010.06.25/outbox.cif.g09.slc.cpg/sg2_242_cif.got.tgz:482091.got - 2010.06.27 13:26:56.
