data_PCOD8016101
_publ_section_title
;
Structure prediction by ZEFSAII (Michael W. Deem and Ramdas Pophale) SiO2 
 PCOD8016101
Probable space group: P -1
;
_chemical_formula_sum "Si O2"
_cell_formula_units_Z 10
_cell_length_a 15.228206
_cell_length_b 12.011928
_cell_length_c 8.952844
_cell_angle_alpha 36.769214
_cell_angle_beta 40.555089
_cell_angle_gamma 27.128808
_cell_volume 440.368847
_symmetry_space_group_name_H-M "P -1"
_symmetry_group_IT_number 2
_symmetry_cell_setting 'triclinic'
loop_
_space_group_symop_operation_xyz
x,y,z
-x,-y,-z
loop_
_atom_site_type_symbol
_atom_site_label
_atom_site_fract_x
_atom_site_fract_y
_atom_site_fract_z
Si Si1 0.103166 0.390962 0.707158
Si Si2 0.298845 0.158178 0.401417
Si Si3 0.840862 0.036332 0.751060
Si Si4 0.649456 0.571637 0.484167
Si Si5 0.513748 0.791336 0.123132
O O1 0.270721 0.216933 0.550545
O O2 0.187994 0.433810 0.684097
O O3 0.908021 0.679233 0.585214
O O4 0.059160 0.226680 0.998744
O O5 0.440034 0.839936 0.533887
O O6 0.384967 0.265529 0.106324
O O7 0.721243 0.295196 0.740508
O O8 0.697390 0.086162 0.761981
O O9 0.000000 0.000000 0.500000
O O10 0.637138 0.548274 0.344108
O O11 0.500000 0.000000 0.000000
#
# Coordination Sequence:
#
# PCOD8016101 Si02
#       5
#     2   2   2   2   2
#     4  11  24  46  67 100 136 181 214 282 328 405
#     4  10  23  45  70  94 140 177 222 265 347 389
#     4  12  26  41  71 104 133 174 229 275 333 394
#     4  11  24  42  72  98 134 175 222 277 331 391
#     4  10  21  43  70  94 133 179 216 276 330 393
#
# _framework density 22.708235999999999
#
# number of rings (size 3 to 8) (size 9 to 14) (size 15 to 20)
#    0.000    1.200    4.000    2.400    5.600    2.400 
#    0.000    2.000    0.000    0.000    0.000    0.000 
#    0.000    0.000    0.000    0.000    0.000    0.000 
#
# Total GULP energy -123939.187283 kJ/mol
# GULP energy per Si atom -12393.918728 kJ/mol
# Density = 2.265655 g / cm^3
# Si number density = 22.708236 Si / 1000 Ang^3
#
#
#
# Elastic Constant Matrix: (Units=GPa)
#
#
# Indices 1 2 3 4 5 6 
#
# 1 102.5899 28.0511 44.8826 5.3845 -15.4153 -11.4967
# 2 28.0511 103.2460 15.2914 -11.8815 -23.2385 -1.4288
# 3 44.8826 15.2914 87.8303 11.9313 -9.8747 3.8133
# 4 5.3845 -11.8815 11.9313 46.7393 2.8165 -6.5090
# 5 -15.4153 -23.2385 -9.8747 2.8165 35.4912 1.4158
# 6 -11.4967 -1.4288 3.8133 -6.5090 1.4158 25.5012
#
#
#
# Elastic Compliance Matrix: (Units=1/GPa)
#
#
# Indices 1 2 3 4 5 6 
#
# 1 0.014733 -0.002178 -0.007253 0.000500 0.002613 0.007587
# 2 -0.002178 0.012241 -0.000719 0.003184 0.006606 0.000257
# 3 -0.007253 -0.000719 0.016320 -0.004583 0.001563 -0.007007
# 4 0.000500 0.003184 -0.004583 0.024419 -0.001206 0.007389
# 5 0.002613 0.006606 0.001563 -0.001206 0.034202 -0.000892
# 6 0.007587 0.000257 -0.007007 0.007389 -0.000892 0.045632
#
#
# Mechanical properties :
#
#
# Convention : Reuss Voigt Hill
#
# Bulk Modulus (GPa) = 43.49180 52.23514 47.86347
# Shear Modulus (GPa) = 28.48828 35.24240 31.86534
#
# Velocity S-wave (km/s) = 3.54578 3.94377 3.75006
# Velocity P-wave (km/s) = 5.99645 6.61744 6.31458
#
# Compressibility (1/GPa) = 0.02299284
#
# Stress axis : x y z
#
# Youngs Moduli (GPa) = 67.87551 81.69505 61.27550
#
# Poissons Ratio (x) = 0.17793 0.44443
# Poissons Ratio (y) = 0.14783 0.04407
# Poissons Ratio (z) = 0.49230 0.05875
#
# Static dielectric constant tensor:
#      x y z
#    x 4.197040 -0.152960 0.495950 
#    y -0.152960 4.357170 -0.296090 
#    z 0.495950 -0.296090 4.978520 
# 
# 
# High freq. dielectric constant tensor:
#      x y z
#    x 1.895340 -0.017520 0.001420 
#    y -0.017520 1.904810 -0.007780 
#    z 0.001420 -0.007780 1.882870 
# 
# From -- ./inp_files/249148.got.cif
#   From: 2010.06.25/outbox.cif.g09.slc.cpg/sg2_125_cif.got.tgz:249148.got - 2010.06.27 13:26:56.
