data_PCOD8016528
_publ_section_title
;
Structure prediction by ZEFSAII (Michael W. Deem and Ramdas Pophale) SiO2 
 PCOD8016528
Probable space group: P -1
;
_chemical_formula_sum "Si O2"
_cell_formula_units_Z 14
_cell_length_a 19.995067
_cell_length_b 11.953677
_cell_length_c 8.271817
_cell_angle_alpha 147.858990
_cell_angle_beta 53.140301
_cell_angle_gamma 141.658306
_cell_volume 640.006216
_symmetry_space_group_name_H-M "P -1"
_symmetry_group_IT_number 2
_symmetry_cell_setting 'triclinic'
loop_
_space_group_symop_operation_xyz
x,y,z
-x,-y,-z
loop_
_atom_site_type_symbol
_atom_site_label
_atom_site_fract_x
_atom_site_fract_y
_atom_site_fract_z
Si Si1 0.003880 0.938611 0.169092
Si Si2 0.619745 0.431241 0.917159
Si Si3 0.458568 0.904014 0.703213
Si Si4 0.514241 0.457984 0.612004
Si Si5 0.162926 0.409794 0.281618
Si Si6 0.284801 0.945850 0.952170
Si Si7 0.923355 0.188781 0.789470
O O1 0.039533 0.817035 0.092379
O O2 0.113603 0.224331 0.287914
O O3 0.929423 0.997614 0.430689
O O4 0.934211 0.708377 0.849580
O O5 0.571268 0.291709 0.644047
O O6 0.750030 0.608001 0.946489
O O7 0.565213 0.211165 0.874713
O O8 0.588709 0.623220 0.232985
O O9 0.483255 0.791270 0.681488
O O10 0.355111 0.885056 0.874025
O O11 0.500000 0.500000 0.500000
O O12 0.628400 0.743885 0.865773
O O13 0.219581 0.724909 0.629898
O O14 0.201251 0.928511 0.171520
O O15 0.000000 0.500000 0.000000
#
# Coordination Sequence:
#
# PCOD8016528 Si02
#       7
#     2   2   2   2   2   2   2
#     4  10  24  42  67  91 132 163 212 264 304 376
#     4   9  20  38  62  90 122 163 206 254 307 374
#     4   9  20  42  62  89 125 161 206 259 306 376
#     4  11  24  40  62  96 127 164 208 255 320 378
#     4  10  21  45  63  95 125 168 211 258 311 368
#     4  10  23  39  67  90 127 166 206 256 316 369
#     4  11  23  44  63  97 125 167 209 261 319 365
#
# _framework density 21.874787000000001
#
# number of rings (size 3 to 8) (size 9 to 14) (size 15 to 20)
#    0.000    2.000    1.429    1.286    6.000    2.857 
#    2.571    0.000    0.000    0.000    0.000    0.000 
#    0.000    0.000    0.000    0.000    0.000    0.000 
#
# Total GULP energy -173601.627834 kJ/mol
# GULP energy per Si atom -12400.116274 kJ/mol
# Density = 2.182500 g / cm^3
# Si number density = 21.874787 Si / 1000 Ang^3
#
#
#
# Elastic Constant Matrix: (Units=GPa)
#
#
# Indices 1 2 3 4 5 6 
#
# 1 103.7483 56.1339 33.5282 -1.0590 -24.3095 -10.9872
# 2 56.1339 125.9970 36.7000 -19.1328 -17.8046 16.9997
# 3 33.5282 36.7000 77.4581 -1.4219 -22.2970 9.2075
# 4 -1.0590 -19.1328 -1.4219 38.5757 13.4169 -11.0048
# 5 -24.3095 -17.8046 -22.2970 13.4169 41.3870 -1.8196
# 6 -10.9872 16.9997 9.2075 -11.0048 -1.8196 40.6486
#
#
#
# Elastic Compliance Matrix: (Units=1/GPa)
#
#
# Indices 1 2 3 4 5 6 
#
# 1 0.016830 -0.007256 -0.002908 -0.003373 0.006626 0.007626
# 2 -0.007256 0.013319 -0.003055 0.005506 -0.002203 -0.005447
# 3 -0.002908 -0.003055 0.018508 -0.005192 0.008424 -0.004729
# 4 -0.003373 0.005506 -0.005192 0.035000 -0.013456 0.006835
# 5 0.006626 -0.002203 0.008424 -0.013456 0.035953 -0.001229
# 6 0.007626 -0.005447 -0.004729 0.006835 -0.001229 0.031807
#
#
# Mechanical properties :
#
#
# Convention : Reuss Voigt Hill
#
# Bulk Modulus (GPa) = 45.00670 62.21416 53.61043
# Shear Modulus (GPa) = 26.98875 36.17835 31.58355
#
# Velocity S-wave (km/s) = 3.51634 4.07121 3.80390
# Velocity P-wave (km/s) = 6.09143 7.11354 6.62223
#
# Compressibility (1/GPa) = 0.02221892
#
# Stress axis : x y z
#
# Youngs Moduli (GPa) = 59.41747 75.08043 54.02929
#
# Poissons Ratio (x) = 0.54476 0.15713
# Poissons Ratio (y) = 0.43112 0.16508
# Poissons Ratio (z) = 0.17280 0.22940
#
# Static dielectric constant tensor:
#      x y z
#    x 3.767250 0.151810 -0.159410 
#    y 0.151810 4.057700 -0.090650 
#    z -0.159410 -0.090650 4.128050 
# 
# 
# High freq. dielectric constant tensor:
#      x y z
#    x 1.845240 0.009470 -0.006300 
#    y 0.009470 1.859640 -0.010410 
#    z -0.006300 -0.010410 1.867020 
# 
# From -- ./inp_files/96829.got.cif
#   From: 2010.06.25/outbox.cif.g09.slc.cpg/sg2_49_cif.got.tgz:96829.got - 2010.06.27 13:26:56.
