data_PCOD8016378
_publ_section_title
;
Structure prediction by ZEFSAII (Michael W. Deem and Ramdas Pophale) SiO2 
 PCOD8016378
Probable space group: P -1
;
_chemical_formula_sum "Si O2"
_cell_formula_units_Z 16
_cell_length_a 11.121931
_cell_length_b 11.786193
_cell_length_c 9.185589
_cell_angle_alpha 57.895476
_cell_angle_beta 124.665338
_cell_angle_gamma 87.029909
_cell_volume 722.477855
_symmetry_space_group_name_H-M "P -1"
_symmetry_group_IT_number 2
_symmetry_cell_setting 'triclinic'
loop_
_space_group_symop_operation_xyz
x,y,z
-x,-y,-z
loop_
_atom_site_type_symbol
_atom_site_label
_atom_site_fract_x
_atom_site_fract_y
_atom_site_fract_z
Si Si1 0.355958 0.145837 0.387658
Si Si2 0.822905 0.112179 0.232722
Si Si3 0.493398 0.595237 0.072829
Si Si4 0.556894 0.612115 0.595256
Si Si5 0.330823 0.085623 0.737223
Si Si6 0.775439 0.311567 0.803802
Si Si7 0.800307 0.638288 0.357628
Si Si8 0.938663 0.696618 0.152668
O O1 0.404577 0.277780 0.356508
O O2 0.338703 0.074184 0.575439
O O3 0.500000 0.000000 0.500000
O O4 0.181275 0.234851 0.117213
O O5 0.771947 0.991570 0.217719
O O6 0.675739 0.233005 0.160664
O O7 0.865151 0.202076 0.077629
O O8 0.000000 0.000000 0.500000
O O9 0.480425 0.503079 0.261003
O O10 0.663298 0.605092 0.206166
O O11 0.500000 0.500000 0.000000
O O12 0.708441 0.494878 0.670164
O O13 0.378445 0.719074 0.317286
O O14 0.261242 0.265705 0.601262
O O15 0.500000 0.000000 0.000000
O O16 0.910787 0.264514 0.796234
O O17 0.832628 0.752148 0.192359
O O18 0.973684 0.488858 0.633566
#
# Coordination Sequence:
#
# PCOD8016378 Si02
#       8
#     2   2   2   2   2   2   2   2
#     4  12  27  43  66 103 143 182 225 288 349 410
#     4  11  25  42  68 102 139 181 232 284 350 411
#     4  11  23  43  72  97 139 179 230 291 347 418
#     4  10  22  41  71  95 128 174 224 274 348 403
#     4  12  24  44  71  98 145 188 230 278 350 425
#     4  10  21  44  68  99 129 176 227 279 336 411
#     4  11  24  44  73 103 134 186 233 287 352 417
#     4  11  24  44  70 102 140 173 239 286 341 416
#
# _framework density 22.146007000000001
#
# number of rings (size 3 to 8) (size 9 to 14) (size 15 to 20)
#    0.000    1.000    2.500    3.750    3.500    6.000 
#    0.000    1.250    0.000    0.000    0.000    0.000 
#    0.000    0.000    0.000    0.000    0.000    0.000 
#
# Total GULP energy -198217.392938 kJ/mol
# GULP energy per Si atom -12388.587059 kJ/mol
# Density = 2.209560 g / cm^3
# Si number density = 22.146007 Si / 1000 Ang^3
#
#
#
# Elastic Constant Matrix: (Units=GPa)
#
#
# Indices 1 2 3 4 5 6 
#
# 1 90.0198 14.1343 34.0489 -1.7035 7.3560 10.0767
# 2 14.1343 105.6343 20.7798 0.2464 15.1302 4.1251
# 3 34.0489 20.7798 149.7614 -6.3258 13.4354 -4.3472
# 4 -1.7035 0.2464 -6.3258 25.2982 1.3001 -4.8431
# 5 7.3560 15.1302 13.4354 1.3001 35.7471 1.9095
# 6 10.0767 4.1251 -4.3472 -4.8431 1.9095 32.4967
#
#
#
# Elastic Compliance Matrix: (Units=1/GPa)
#
#
# Indices 1 2 3 4 5 6 
#
# 1 0.012878 -0.000851 -0.002875 -0.000619 -0.000957 -0.004306
# 2 -0.000851 0.010349 -0.000950 -0.000395 -0.003780 -0.001014
# 3 -0.002875 -0.000950 0.007831 0.002372 -0.002172 0.002541
# 4 -0.000619 -0.000395 0.002372 0.041531 -0.002476 0.006894
# 5 -0.000957 -0.003780 -0.002172 -0.002476 0.030768 -0.001691
# 6 -0.004306 -0.001014 0.002541 0.006894 -0.001691 0.033703
#
#
# Mechanical properties :
#
#
# Convention : Reuss Voigt Hill
#
# Bulk Modulus (GPa) = 46.06662 53.70459 49.88561
# Shear Modulus (GPa) = 32.54200 37.13856 34.84028
#
# Velocity S-wave (km/s) = 3.83747 4.09955 3.97067
# Velocity P-wave (km/s) = 6.36250 6.83456 6.60275
#
# Compressibility (1/GPa) = 0.02170769
#
# Stress axis : x y z
#
# Youngs Moduli (GPa) = 77.65036 96.62602 127.68948
#
# Poissons Ratio (x) = 0.08222 0.36712
# Poissons Ratio (y) = 0.06608 0.12125
# Poissons Ratio (z) = 0.22326 0.09175
#
# Static dielectric constant tensor:
#      x y z
#    x 4.008780 0.000870 -0.075800 
#    y 0.000870 3.758810 -0.139960 
#    z -0.075800 -0.139960 4.161810 
# 
# 
# High freq. dielectric constant tensor:
#      x y z
#    x 1.885700 0.003250 -0.004780 
#    y 0.003250 1.854140 -0.009150 
#    z -0.004780 -0.009150 1.888930 
# 
# From -- ./inp_files/262146.got.cif
#   From: 2010.06.25/outbox.cif.g09.slc.cpg/sg2_132_cif.got.tgz:262146.got - 2010.06.27 13:26:56.
