data_PCOD8016076
_publ_section_title
;
Structure prediction by ZEFSAII (Michael W. Deem and Ramdas Pophale) SiO2 
 PCOD8016076
Probable space group: P -1
;
_chemical_formula_sum "Si O2"
_cell_formula_units_Z 16
_cell_length_a 7.509004
_cell_length_b 5.610043
_cell_length_c 22.011118
_cell_angle_alpha 84.347840
_cell_angle_beta 55.183811
_cell_angle_gamma 116.016683
_cell_volume 602.769583
_symmetry_space_group_name_H-M "P -1"
_symmetry_group_IT_number 2
_symmetry_cell_setting 'triclinic'
loop_
_space_group_symop_operation_xyz
x,y,z
-x,-y,-z
loop_
_atom_site_type_symbol
_atom_site_label
_atom_site_fract_x
_atom_site_fract_y
_atom_site_fract_z
Si Si1 0.144935 0.791283 0.311014
Si Si2 0.650192 0.224058 0.374121
Si Si3 0.517205 0.700652 0.181731
Si Si4 0.697455 0.843774 0.930010
Si Si5 0.021467 0.129477 0.236961
Si Si6 0.943341 0.228936 0.479051
Si Si7 0.607520 0.668504 0.677508
Si Si8 0.224077 0.832027 0.973531
O O1 0.882827 0.435983 0.373934
O O2 0.431766 0.869287 0.234598
O O3 0.054800 0.917138 0.274713
O O4 0.205694 0.966872 0.358221
O O5 0.741831 0.074095 0.313231
O O6 0.592683 0.419986 0.337701
O O7 0.376814 0.973992 0.470939
O O8 0.568660 0.514094 0.223271
O O9 0.268544 0.477010 0.191010
O O10 0.767133 0.945025 0.083586
O O11 0.514304 0.889748 0.920541
O O12 0.955992 0.916478 0.838675
O O13 0.500000 0.500000 0.000000
O O14 0.836149 0.090591 0.950993
O O15 0.168606 0.395418 0.376208
O O16 0.000000 0.500000 0.500000
O O17 0.000000 0.000000 0.500000
O O18 0.000000 0.500000 0.000000
#
# Coordination Sequence:
#
# PCOD8016076 Si02
#       8
#     2   2   2   2   2   2   2   2
#     4  10  22  43  66 101 139 181 229 295 347 427
#     4  10  24  43  72 103 139 184 244 286 357 435
#     4  10  21  44  68  98 145 175 233 300 351 427
#     4  11  23  47  72  93 139 183 226 296 364 416
#     4  10  21  43  70 100 136 185 233 292 352 427
#     4  10  24  45  71 107 150 187 244 311 357 435
#     4  10  24  44  72 101 138 192 231 293 367 416
#     4  11  25  46  68 106 137 179 240 294 362 439
#
# _framework density 26.544138
#
# number of rings (size 3 to 8) (size 9 to 14) (size 15 to 20)
#    0.000    1.750    2.500    0.000    7.000    1.000 
#    6.750    6.875    0.000    0.000    0.000    0.000 
#    0.000    0.000    0.000    0.000    0.000    0.000 
#
# Total GULP energy -198249.791969 kJ/mol
# GULP energy per Si atom -12390.611998 kJ/mol
# Density = 2.648372 g / cm^3
# Si number density = 26.544138 Si / 1000 Ang^3
#
#
#
# Elastic Constant Matrix: (Units=GPa)
#
#
# Indices 1 2 3 4 5 6 
#
# 1 63.8055 6.4644 -13.9009 -7.9553 -2.6948 2.0310
# 2 6.4644 131.6858 -0.1899 11.3146 -8.4988 19.7101
# 3 -13.9009 -0.1899 53.4352 -2.8490 -9.8239 -3.0609
# 4 -7.9553 11.3146 -2.8490 47.6108 -13.6335 -1.0349
# 5 -2.6948 -8.4988 -9.8239 -13.6335 36.9296 -2.7596
# 6 2.0310 19.7101 -3.0609 -1.0349 -2.7596 44.0859
#
#
#
# Elastic Compliance Matrix: (Units=1/GPa)
#
#
# Indices 1 2 3 4 5 6 
#
# 1 0.017801 -0.001064 0.005718 0.004837 0.004394 0.000441
# 2 -0.001064 0.008432 -0.000447 -0.002092 0.000691 -0.003758
# 3 0.005718 -0.000447 0.022060 0.004743 0.008090 0.002086
# 4 0.004837 -0.002092 0.004743 0.025739 0.010809 0.002323
# 5 0.004394 0.000691 0.008090 0.010809 0.033882 0.002425
# 6 0.000441 -0.003758 0.002086 0.002323 0.002425 0.024694
#
#
# Mechanical properties :
#
#
# Convention : Reuss Voigt Hill
#
# Bulk Modulus (GPa) = 17.63407 25.96375 21.79891
# Shear Modulus (GPa) = 34.94205 42.82879 38.88542
#
# Velocity S-wave (km/s) = 3.63212 4.02119 3.83160
# Velocity P-wave (km/s) = 4.92417 5.60023 5.27305
#
# Compressibility (1/GPa) = 0.05670842
#
# Stress axis : x y z
#
# Youngs Moduli (GPa) = 56.17745 118.59298 45.33129
#
# Poissons Ratio (x) = 0.12614 -0.25920
# Poissons Ratio (y) = 0.05975 0.02024
# Poissons Ratio (z) = -0.32122 0.05295
#
# Static dielectric constant tensor:
#      x y z
#    x 4.674670 -0.106120 0.030640 
#    y -0.106120 5.181190 0.192980 
#    z 0.030640 0.192980 5.118610 
# 
# 
# High freq. dielectric constant tensor:
#      x y z
#    x 2.066800 -0.010640 0.006560 
#    y -0.010640 2.075840 -0.000770 
#    z 0.006560 -0.000770 2.067300 
# 
# From -- ./inp_files/605864.got.cif
#   From: 2010.06.25/outbox.cif.g09.slc.cpg/sg2_303_cif.got.tgz:605864.got - 2010.06.27 13:26:56.
