data_PCOD8016686
_publ_section_title
;
Structure prediction by ZEFSAII (Michael W. Deem and Ramdas Pophale) SiO2 
 PCOD8016686
Probable space group: P -1
;
_chemical_formula_sum "Si O2"
_cell_formula_units_Z 16
_cell_length_a 18.149598
_cell_length_b 10.102725
_cell_length_c 5.304095
_cell_angle_alpha 53.785107
_cell_angle_beta 58.906421
_cell_angle_gamma 50.038868
_cell_volume 586.493853
_symmetry_space_group_name_H-M "P -1"
_symmetry_group_IT_number 2
_symmetry_cell_setting 'triclinic'
loop_
_space_group_symop_operation_xyz
x,y,z
-x,-y,-z
loop_
_atom_site_type_symbol
_atom_site_label
_atom_site_fract_x
_atom_site_fract_y
_atom_site_fract_z
Si Si1 0.151720 0.689238 0.396424
Si Si2 0.312691 0.748385 0.773051
Si Si3 0.482162 0.763183 0.705227
Si Si4 0.319546 0.458850 0.709965
Si Si5 0.428242 0.136463 0.175944
Si Si6 0.087888 0.531655 0.214877
Si Si7 0.055764 0.106303 0.171787
Si Si8 0.161808 0.130941 0.454535
O O1 0.209818 0.542998 0.688671
O O2 0.128480 0.595278 0.309005
O O3 0.056296 0.900007 0.393924
O O4 0.234581 0.742999 0.107428
O O5 0.412935 0.677236 0.841123
O O6 0.331876 0.622030 0.637155
O O7 0.272058 0.959899 0.500174
O O8 0.587299 0.658711 0.498581
O O9 0.516763 0.746656 0.950871
O O10 0.416561 0.993826 0.543832
O O11 0.323137 0.303907 0.077921
O O12 0.500000 0.000000 0.000000
O O13 0.166546 0.324001 0.210856
O O14 0.000000 0.500000 0.500000
O O15 0.050683 0.690439 0.870735
O O16 0.123231 0.100693 0.287938
O O17 0.092909 0.128110 0.806067
#
# Coordination Sequence:
#
# PCOD8016686 Si02
#       8
#     2   2   2   2   2   2   2   2
#     4  11  24  43  67 100 142 178 227 295 348 424
#     4  11  24  41  63 100 134 183 229 285 351 409
#     4  10  22  42  67  91 138 179 232 281 341 406
#     4  11  22  41  64  96 133 177 234 279 349 404
#     4   9  21  40  62  93 123 175 226 285 337 404
#     4  10  23  46  71 102 134 181 230 286 360 430
#     4  10  21  46  69 100 138 181 231 287 360 424
#     4  10  22  43  68 103 139 179 231 294 349 421
#
# _framework density 27.280763
#
# number of rings (size 3 to 8) (size 9 to 14) (size 15 to 20)
#    0.000    1.750    1.250    1.875    0.000    8.000 
#   13.500    3.750    0.000    0.000    0.000    0.000 
#    0.000    0.000    0.000    0.000    0.000    0.000 
#
# Total GULP energy -198255.707668 kJ/mol
# GULP energy per Si atom -12390.981729 kJ/mol
# Density = 2.721867 g / cm^3
# Si number density = 27.280763 Si / 1000 Ang^3
#
#
#
# Elastic Constant Matrix: (Units=GPa)
#
#
# Indices 1 2 3 4 5 6 
#
# 1 143.5038 40.0018 14.1976 3.2266 16.1158 -3.6214
# 2 40.0018 161.6255 35.1730 -25.9694 17.0910 8.8788
# 3 14.1976 35.1730 106.6688 -31.5993 24.6253 0.0474
# 4 3.2266 -25.9694 -31.5993 39.7844 4.5364 12.3610
# 5 16.1158 17.0910 24.6253 4.5364 46.8831 0.4080
# 6 -3.6214 8.8788 0.0474 12.3610 0.4080 50.9313
#
#
#
# Elastic Compliance Matrix: (Units=1/GPa)
#
#
# Indices 1 2 3 4 5 6 
#
# 1 0.007947 -0.002275 -0.001097 -0.003447 -0.001009 0.001807
# 2 -0.002275 0.008370 0.000504 0.007476 -0.003228 -0.003410
# 3 -0.001097 0.000504 0.016271 0.015677 -0.009836 -0.003907
# 4 -0.003447 0.007476 0.015677 0.048490 -0.014352 -0.013216
# 5 -0.001009 -0.003228 -0.009836 -0.014352 0.029376 0.003748
# 6 0.001807 -0.003410 -0.003907 -0.013216 0.003748 0.023539
#
#
# Mechanical properties :
#
#
# Convention : Reuss Voigt Hill
#
# Bulk Modulus (GPa) = 37.23802 65.61587 51.42695
# Shear Modulus (GPa) = 33.62947 49.01482 41.32215
#
# Velocity S-wave (km/s) = 3.51482 4.24333 3.89614
# Velocity P-wave (km/s) = 5.49104 6.93628 6.25554
#
# Compressibility (1/GPa) = 0.02685427
#
# Stress axis : x y z
#
# Youngs Moduli (GPa) = 125.82633 119.46940 61.45831
#
# Poissons Ratio (x) = 0.27177 0.06741
# Poissons Ratio (y) = 0.28623 -0.03099
# Poissons Ratio (z) = 0.13801 -0.06024
#
# Static dielectric constant tensor:
#      x y z
#    x 2.899650 -0.243480 -1.331970 
#    y -0.243480 0.360830 5.245440 
#    z -1.331970 5.245440 -2.224000 
# 
# 
# High freq. dielectric constant tensor:
#      x y z
#    x 2.104830 -0.013330 0.009240 
#    y -0.013330 2.135240 -0.019020 
#    z 0.009240 -0.019020 2.123240 
# 
# From -- ./inp_files/106282.got.cif
#   From: 2010.06.25/outbox.cif.g09.slc.cpg/sg2_54_cif.got.tgz:106282.got - 2010.06.27 13:26:56.
