data_PCOD8016151
_publ_section_title
;
Structure prediction by ZEFSAII (Michael W. Deem and Ramdas Pophale) SiO2 
 PCOD8016151
Probable space group: P -1
;
_chemical_formula_sum "Si O2"
_cell_formula_units_Z 16
_cell_length_a 11.682103
_cell_length_b 9.073881
_cell_length_c 15.196131
_cell_angle_alpha 105.053049
_cell_angle_beta 151.860003
_cell_angle_gamma 77.354864
_cell_volume 733.458050
_symmetry_space_group_name_H-M "P -1"
_symmetry_group_IT_number 2
_symmetry_cell_setting 'triclinic'
loop_
_space_group_symop_operation_xyz
x,y,z
-x,-y,-z
loop_
_atom_site_type_symbol
_atom_site_label
_atom_site_fract_x
_atom_site_fract_y
_atom_site_fract_z
Si Si1 0.992243 0.825603 0.273617
Si Si2 0.621579 0.810873 0.880776
Si Si3 0.332738 0.745316 0.185444
Si Si4 0.115128 0.329798 0.649443
Si Si5 0.300987 0.049206 0.627970
Si Si6 0.628489 0.475049 0.277998
Si Si7 0.358312 0.677576 0.378046
Si Si8 0.213762 0.337838 0.210567
O O1 0.190603 0.713961 0.352052
O O2 0.849527 0.722515 0.234154
O O3 0.122181 0.975991 0.423699
O O4 0.827741 0.890881 0.093286
O O5 0.566564 0.661808 0.880346
O O6 0.710512 0.766792 0.836661
O O7 0.386882 0.917529 0.732956
O O8 0.443883 0.889403 0.230599
O O9 0.522524 0.609355 0.285722
O O10 0.323613 0.791131 0.289742
O O11 0.066937 0.698046 0.961228
O O12 0.144243 0.176915 0.588056
O O13 0.311251 0.458250 0.768563
O O14 0.856515 0.405710 0.472704
O O15 0.269680 0.514109 0.252350
O O16 0.633722 0.692520 0.601913
#
# Coordination Sequence:
#
# PCOD8016151 Si02
#       8
#     2   2   2   2   2   2   2   2
#     4  12  24  41  68  95 130 176 216 256 329 383
#     4  12  23  42  69  96 131 170 217 260 325 388
#     4  11  23  42  67  97 133 167 215 264 321 384
#     4  10  23  45  69  91 130 170 215 276 316 372
#     4  11  26  45  63  94 136 173 215 266 316 382
#     4  10  21  43  71  95 123 167 217 270 323 371
#     4  11  22  39  69  97 129 170 213 264 322 389
#     4  11  22  40  66  99 131 170 207 268 324 377
#
# _framework density 21.814471999999999
#
# number of rings (size 3 to 8) (size 9 to 14) (size 15 to 20)
#    0.000    1.000    5.000    1.500    1.750    3.000 
#    0.000    0.000    0.000    0.000    0.000    0.000 
#    0.000    0.000    0.000    0.000    0.000    0.000 
#
# Total GULP energy -198332.855530 kJ/mol
# GULP energy per Si atom -12395.803471 kJ/mol
# Density = 2.176482 g / cm^3
# Si number density = 21.814472 Si / 1000 Ang^3
#
#
#
# Elastic Constant Matrix: (Units=GPa)
#
#
# Indices 1 2 3 4 5 6 
#
# 1 98.1574 23.3515 37.7839 9.5117 0.2407 4.7536
# 2 23.3515 86.7799 33.6480 1.9305 -1.1329 -4.1997
# 3 37.7839 33.6480 92.4607 13.6759 -5.3540 -9.9592
# 4 9.5117 1.9305 13.6759 16.5230 -2.6589 9.0379
# 5 0.2407 -1.1329 -5.3540 -2.6589 28.3386 -1.2760
# 6 4.7536 -4.1997 -9.9592 9.0379 -1.2760 27.8780
#
#
#
# Elastic Compliance Matrix: (Units=1/GPa)
#
#
# Indices 1 2 3 4 5 6 
#
# 1 0.012799 -0.001712 -0.004930 -0.001190 -0.001395 -0.003880
# 2 -0.001712 0.013789 -0.004955 0.003820 -0.000041 -0.000641
# 3 -0.004930 -0.004955 0.019027 -0.019203 0.002232 0.013219
# 4 -0.001190 0.003820 -0.019203 0.097886 0.004025 -0.037632
# 5 -0.001395 -0.000041 0.002232 0.004025 0.036159 0.001379
# 6 -0.003880 -0.000641 0.013219 -0.037632 0.001379 0.053421
#
#
# Mechanical properties :
#
#
# Convention : Reuss Voigt Hill
#
# Bulk Modulus (GPa) = 44.60116 51.88498 48.24307
# Shear Modulus (GPa) = 18.95747 26.72220 22.83983
#
# Velocity S-wave (km/s) = 2.95113 3.50376 3.23925
# Velocity P-wave (km/s) = 5.66589 6.34072 6.01278
#
# Compressibility (1/GPa) = 0.02242094
#
# Stress axis : x y z
#
# Youngs Moduli (GPa) = 78.12886 72.52308 52.55823
#
# Poissons Ratio (x) = 0.12417 0.25912
# Poissons Ratio (y) = 0.13376 0.26041
# Poissons Ratio (z) = 0.38518 0.35933
#
# Static dielectric constant tensor:
#      x y z
#    x 4.087030 0.117550 0.179800 
#    y 0.117550 3.917950 0.030900 
#    z 0.179800 0.030900 3.840360 
# 
# 
# High freq. dielectric constant tensor:
#      x y z
#    x 1.863270 0.000290 0.009560 
#    y 0.000290 1.852270 -0.004680 
#    z 0.009560 -0.004680 1.853440 
# 
# From -- ./inp_files/400130.got.cif
#   From: 2010.06.25/outbox.cif.g09.slc.cpg/sg2_201_cif.got.tgz:400130.got - 2010.06.27 13:26:56.
