data_PCOD8016295
_publ_section_title
;
Structure prediction by ZEFSAII (Michael W. Deem and Ramdas Pophale) SiO2 
 PCOD8016295
Probable space group: P -1
;
_chemical_formula_sum "Si O2"
_cell_formula_units_Z 16
_cell_length_a 15.296079
_cell_length_b 13.267858
_cell_length_c 9.758055
_cell_angle_alpha 97.292034
_cell_angle_beta 53.039753
_cell_angle_gamma 140.136933
_cell_volume 767.898555
_symmetry_space_group_name_H-M "P -1"
_symmetry_group_IT_number 2
_symmetry_cell_setting 'triclinic'
loop_
_space_group_symop_operation_xyz
x,y,z
-x,-y,-z
loop_
_atom_site_type_symbol
_atom_site_label
_atom_site_fract_x
_atom_site_fract_y
_atom_site_fract_z
Si Si1 0.772114 0.459541 0.661477
Si Si2 0.533642 0.598557 0.111781
Si Si3 0.527941 0.051258 0.824079
Si Si4 0.969428 0.386564 0.813196
Si Si5 0.997470 0.042762 0.859246
Si Si6 0.065948 0.686513 0.685224
Si Si7 0.892752 0.647390 0.095175
Si Si8 0.456638 0.392446 0.397834
O O1 0.641481 0.453162 0.740524
O O2 0.605140 0.229582 0.768945
O O3 0.976692 0.613686 0.388929
O O4 0.866285 0.542301 0.740437
O O5 0.481562 0.481865 0.260871
O O6 0.500000 0.500000 0.000000
O O7 0.780007 0.844446 0.939843
O O8 0.701531 0.122096 0.585692
O O9 0.500000 0.000000 0.000000
O O10 0.287770 0.842389 0.944742
O O11 0.027967 0.552374 0.782732
O O12 0.112785 0.449857 0.808854
O O13 0.027564 0.188457 0.869267
O O14 0.198755 0.147976 0.607053
O O15 0.000000 0.000000 0.000000
O O16 0.053162 0.760901 0.830236
O O17 0.638011 0.448809 0.242478
O O18 0.500000 0.500000 0.500000
#
# Coordination Sequence:
#
# PCOD8016295 Si02
#       8
#     2   2   2   2   2   2   2   2
#     4  11  22  38  68  87 126 171 210 260 330 373
#     4  12  25  43  67 101 130 165 224 275 314 384
#     4  11  20  42  64  90 128 168 212 264 319 386
#     4  11  22  41  64  90 125 171 212 260 325 385
#     4  11  23  44  68  93 133 176 215 261 330 392
#     4  11  23  41  61  96 128 163 214 273 313 380
#     4  11  23  42  66  94 130 170 217 265 326 381
#     4  10  21  44  66  89 133 172 210 263 325 384
#
# _framework density 20.836082000000001
#
# number of rings (size 3 to 8) (size 9 to 14) (size 15 to 20)
#    0.000    1.000    5.000    4.125    0.000    1.000 
#    2.250    1.250    0.000    0.000    0.000    0.000 
#    0.000    0.000    0.000    0.000    0.000    0.000 
#
# Total GULP energy -198338.777359 kJ/mol
# GULP energy per Si atom -12396.173585 kJ/mol
# Density = 2.078866 g / cm^3
# Si number density = 20.836082 Si / 1000 Ang^3
#
#
#
# Elastic Constant Matrix: (Units=GPa)
#
#
# Indices 1 2 3 4 5 6 
#
# 1 125.9220 29.0893 29.5920 -12.6433 1.3051 47.1201
# 2 29.0893 85.3829 53.1676 -0.6599 -9.5765 6.9808
# 3 29.5920 53.1676 118.9195 -13.6671 -2.5662 37.8483
# 4 -12.6433 -0.6599 -13.6671 38.1987 7.7317 10.7614
# 5 1.3051 -9.5765 -2.5662 7.7317 35.7860 1.1818
# 6 47.1201 6.9808 37.8483 10.7614 1.1818 -33.6246
#
#
#
# Elastic Compliance Matrix: (Units=1/GPa)
#
#
# Indices 1 2 3 4 5 6 
#
# 1 0.006754 -0.000916 -0.003119 -0.000315 -0.000833 0.005635
# 2 -0.000916 0.016478 -0.005739 -0.001669 0.004547 -0.004696
# 3 -0.003119 -0.005739 0.009956 0.000989 -0.001117 0.005921
# 4 -0.000315 -0.001669 0.000989 0.025321 -0.006106 0.008214
# 5 -0.000833 0.004547 -0.001117 -0.006106 0.030508 -0.002363
# 6 0.005635 -0.004696 0.005921 0.008214 -0.002363 -0.013608
#
#
# Mechanical properties :
#
#
# Convention : Reuss Voigt Hill
#
# Bulk Modulus (GPa) = 73.30132 61.54689 67.42410
# Shear Modulus (GPa) = 50.24930 22.63041 36.43985
#
# Velocity S-wave (km/s) = 4.91618 3.29920 4.18650
# Velocity P-wave (km/s) = 8.21471 6.64197 7.46985
#
# Compressibility (1/GPa) = 0.01364232
#
# Stress axis : x y z
#
# Youngs Moduli (GPa) = 148.05092 60.68576 100.44455
#
# Poissons Ratio (x) = 0.05556 0.31328
# Poissons Ratio (y) = 0.13556 0.57641
# Poissons Ratio (z) = 0.46175 0.34825
#
# Static dielectric constant tensor:
#      x y z
#    x 4.035590 0.058890 -0.275950 
#    y 0.058890 3.542670 -0.096620 
#    z -0.275950 -0.096620 4.292950 
# 
# 
# High freq. dielectric constant tensor:
#      x y z
#    x 1.832580 0.009760 -0.000200 
#    y 0.009760 1.795320 0.002370 
#    z -0.000200 0.002370 1.830870 
# 
# From -- ./inp_files/313315.got.cif
#   From: 2010.06.25/outbox.cif.g09.slc.cpg/sg2_157_cif.got.tgz:313315.got - 2010.06.27 13:26:56.
