data_PCOD8016413
_publ_section_title
;
Structure prediction by ZEFSAII (Michael W. Deem and Ramdas Pophale) SiO2 
 PCOD8016413
Probable space group: P -1
;
_chemical_formula_sum "Si O2"
_cell_formula_units_Z 12
_cell_length_a 7.896772
_cell_length_b 11.392706
_cell_length_c 9.834926
_cell_angle_alpha 114.559369
_cell_angle_beta 101.311049
_cell_angle_gamma 34.531772
_cell_volume 437.443971
_symmetry_space_group_name_H-M "P -1"
_symmetry_group_IT_number 2
_symmetry_cell_setting 'triclinic'
loop_
_space_group_symop_operation_xyz
x,y,z
-x,-y,-z
loop_
_atom_site_type_symbol
_atom_site_label
_atom_site_fract_x
_atom_site_fract_y
_atom_site_fract_z
Si Si1 0.271978 0.735069 0.458164
Si Si2 0.769001 0.964550 0.960299
Si Si3 0.847880 0.854558 0.620946
Si Si4 0.532252 0.379893 0.118736
Si Si5 0.077669 0.558943 0.932659
Si Si6 0.670542 0.704768 0.428253
O O1 0.306104 0.602039 0.286493
O O2 0.582239 0.631688 0.467326
O O3 0.185279 0.717592 0.580945
O O4 0.000000 0.000000 0.500000
O O5 0.141683 0.754483 0.916773
O O6 0.758066 0.844292 0.999368
O O7 0.682648 0.998957 0.804371
O O8 0.584367 0.201989 0.104724
O O9 0.869469 0.684062 0.539583
O O10 0.641732 0.029198 0.545061
O O11 0.366594 0.464922 0.986665
O O12 0.133739 0.462567 0.749618
O O13 0.000000 0.500000 0.000000
#
# Coordination Sequence:
#
# PCOD8016413 Si02
#       6
#     2   2   2   2   2   2
#     4  10  22  42  76 103 140 196 237 294 369 430
#     4  11  25  44  75 103 146 192 237 309 356 436
#     4  10  22  44  68 107 142 189 240 293 373 419
#     4  11  24  47  70 105 145 185 246 295 364 436
#     4  12  25  45  72 104 145 195 240 302 371 423
#     4  10  21  44  70 100 149 184 237 307 345 444
#
# _framework density 27.432081
#
# number of rings (size 3 to 8) (size 9 to 14) (size 15 to 20)
#    0.000    1.333    3.333    1.500    0.000    3.333 
#    3.000    0.000    0.000    0.000    0.000    0.000 
#    0.000    0.000    0.000    0.000    0.000    0.000 
#
# Total GULP energy -148792.350547 kJ/mol
# GULP energy per Si atom -12399.362546 kJ/mol
# Density = 2.736964 g / cm^3
# Si number density = 27.432081 Si / 1000 Ang^3
#
#
#
# Elastic Constant Matrix: (Units=GPa)
#
#
# Indices 1 2 3 4 5 6 
#
# 1 133.9892 38.1270 49.0415 -0.9634 7.5862 30.7761
# 2 38.1270 95.7720 40.9452 17.1266 6.8284 36.6891
# 3 49.0415 40.9452 115.7021 30.0169 14.6202 17.5738
# 4 -0.9634 17.1266 30.0169 45.8101 10.6295 9.2547
# 5 7.5862 6.8284 14.6202 10.6295 46.8816 -1.3639
# 6 30.7761 36.6891 17.5738 9.2547 -1.3639 63.4947
#
#
#
# Elastic Compliance Matrix: (Units=1/GPa)
#
#
# Indices 1 2 3 4 5 6 
#
# 1 0.010474 -0.001673 -0.004365 0.004731 -0.001268 -0.003619
# 2 -0.001673 0.015558 -0.003050 -0.002264 -0.000735 -0.007021
# 3 -0.004365 -0.003050 0.013569 -0.007795 -0.001278 0.001231
# 4 0.004731 -0.002264 -0.007795 0.029660 -0.004824 -0.003254
# 5 -0.001268 -0.000735 -0.001278 -0.004824 0.023210 0.002595
# 6 -0.003619 -0.007021 0.001231 -0.003254 0.002595 0.021749
#
#
# Mechanical properties :
#
#
# Convention : Reuss Voigt Hill
#
# Bulk Modulus (GPa) = 46.67346 66.85452 56.76399
# Shear Modulus (GPa) = 35.83233 45.72725 40.77979
#
# Velocity S-wave (km/s) = 3.61809 4.08723 3.85979
# Velocity P-wave (km/s) = 5.87411 6.83358 6.37193
#
# Compressibility (1/GPa) = 0.02142545
#
# Stress axis : x y z
#
# Youngs Moduli (GPa) = 95.47469 64.27423 73.69673
#
# Poissons Ratio (x) = 0.10752 0.32169
# Poissons Ratio (y) = 0.15972 0.22478
# Poissons Ratio (z) = 0.41675 0.19604
#
# Static dielectric constant tensor:
#      x y z
#    x 6.030890 0.228910 0.027470 
#    y 0.228910 5.736540 -0.071650 
#    z 0.027470 -0.071650 4.521370 
# 
# 
# High freq. dielectric constant tensor:
#      x y z
#    x 2.132210 0.010660 0.005250 
#    y 0.010660 2.153420 0.009970 
#    z 0.005250 0.009970 2.072050 
# 
# From -- ./inp_files/172212.got.cif
#   From: 2010.06.25/outbox.cif.g09.slc.cpg/sg2_87_cif.got.tgz:172212.got - 2010.06.27 13:26:56.
