data_PCOD8016756
_publ_section_title
;
Structure prediction by ZEFSAII (Michael W. Deem and Ramdas Pophale) SiO2 
 PCOD8016756
Probable space group: P -1
;
_chemical_formula_sum "Si O2"
_cell_formula_units_Z 16
_cell_length_a 14.595580
_cell_length_b 11.819703
_cell_length_c 9.131419
_cell_angle_alpha 101.024304
_cell_angle_beta 121.901322
_cell_angle_gamma 41.430310
_cell_volume 823.929458
_symmetry_space_group_name_H-M "P -1"
_symmetry_group_IT_number 2
_symmetry_cell_setting 'triclinic'
loop_
_space_group_symop_operation_xyz
x,y,z
-x,-y,-z
loop_
_atom_site_type_symbol
_atom_site_label
_atom_site_fract_x
_atom_site_fract_y
_atom_site_fract_z
Si Si1 0.838967 0.972551 0.175092
Si Si2 0.915336 0.856111 0.532744
Si Si3 0.519675 0.859640 0.060775
Si Si4 0.636339 0.920469 0.407331
Si Si5 0.983627 0.354176 0.932830
Si Si6 0.815325 0.448071 0.114305
Si Si7 0.736305 0.733728 0.737881
Si Si8 0.076492 0.882372 0.887354
O O1 0.818616 0.117310 0.128745
O O2 0.929112 0.896155 0.391364
O O3 0.973959 0.805743 0.133333
O O4 0.659073 0.055740 0.043448
O O5 0.740487 0.927336 0.403234
O O6 0.075540 0.639021 0.661460
O O7 0.916171 0.961042 0.677317
O O8 0.607293 0.821343 0.279165
O O9 0.642045 0.666805 0.032871
O O10 0.500000 0.000000 0.000000
O O11 0.738031 0.810189 0.613691
O O12 0.454991 0.132815 0.336709
O O13 0.833860 0.531332 0.746655
O O14 0.157661 0.286091 0.051774
O O15 0.928038 0.404749 0.067162
O O16 0.786109 0.336113 0.020175
O O17 0.000000 0.000000 0.000000
#
# Coordination Sequence:
#
# PCOD8016756 Si02
#       8
#     2   2   2   2   2   2   2   2
#     4  12  23  40  69  91 131 164 217 260 323 365
#     4  10  23  39  64  94 125 167 214 264 316 372
#     4  12  25  39  63 100 132 168 199 266 327 379
#     4  11  21  39  57  94 133 168 203 264 323 379
#     4  11  21  38  59  93 120 175 206 259 313 382
#     4  10  24  42  64  92 129 168 217 250 324 375
#     4  10  22  33  60  89 133 163 217 250 313 393
#     4  10  22  45  68  90 122 174 222 260 307 375
#
# _framework density 19.419136000000002
#
# number of rings (size 3 to 8) (size 9 to 14) (size 15 to 20)
#    0.750    0.500    5.000    1.125    3.500    1.000 
#    0.000    0.000    0.000    1.500    0.000    0.000 
#    0.000    0.000    0.000    0.000    0.000    0.000 
#
# Total GULP energy -198230.721380 kJ/mol
# GULP energy per Si atom -12389.420086 kJ/mol
# Density = 1.937494 g / cm^3
# Si number density = 19.419136 Si / 1000 Ang^3
#
#
#
# Elastic Constant Matrix: (Units=GPa)
#
#
# Indices 1 2 3 4 5 6 
#
# 1 108.0251 42.1421 34.2626 -10.1085 -3.1857 11.6664
# 2 42.1421 132.7556 45.8403 -6.1571 -2.8622 6.9674
# 3 34.2626 45.8403 86.7331 -0.2579 -1.2514 -2.5166
# 4 -10.1085 -6.1571 -0.2579 33.0769 5.0655 -3.7298
# 5 -3.1857 -2.8622 -1.2514 5.0655 25.7121 4.1232
# 6 11.6664 6.9674 -2.5166 -3.7298 4.1232 26.5453
#
#
#
# Elastic Compliance Matrix: (Units=1/GPa)
#
#
# Indices 1 2 3 4 5 6 
#
# 1 0.012096 -0.002131 -0.003769 0.002497 0.001384 -0.004978
# 2 -0.002131 0.009907 -0.004441 0.000799 0.000801 -0.002097
# 3 -0.003769 -0.004441 0.015475 -0.001287 -0.000629 0.004206
# 4 0.002497 0.000799 -0.001287 0.032646 -0.006771 0.004210
# 5 0.001384 0.000801 -0.000629 -0.006771 0.041791 -0.008321
# 6 -0.004978 -0.002097 0.004206 0.004210 -0.008321 0.042692
#
#
# Mechanical properties :
#
#
# Convention : Reuss Voigt Hill
#
# Bulk Modulus (GPa) = 59.54074 63.55598 61.54836
# Shear Modulus (GPa) = 27.64137 30.75144 29.19641
#
# Velocity S-wave (km/s) = 3.77690 3.98372 3.88169
# Velocity P-wave (km/s) = 7.05318 7.34572 7.20094
#
# Compressibility (1/GPa) = 0.01679522
#
# Stress axis : x y z
#
# Youngs Moduli (GPa) = 82.67098 100.93750 64.62126
#
# Poissons Ratio (x) = 0.21515 0.24355
# Poissons Ratio (y) = 0.17621 0.28698
# Poissons Ratio (z) = 0.31158 0.44826
#
# Static dielectric constant tensor:
#      x y z
#    x 3.422860 0.135260 -0.124940 
#    y 0.135260 3.556480 0.020140 
#    z -0.124940 0.020140 3.584040 
# 
# 
# High freq. dielectric constant tensor:
#      x y z
#    x 1.754720 0.004770 -0.014250 
#    y 0.004770 1.745010 -0.001150 
#    z -0.014250 -0.001150 1.754760 
# 
# From -- ./inp_files/307814.got.cif
#   From: 2010.06.25/outbox.cif.g09.slc.cpg/sg2_154_cif.got.tgz:307814.got - 2010.06.27 13:26:56.
