data_PCOD8016600
_publ_section_title
;
Structure prediction by ZEFSAII (Michael W. Deem and Ramdas Pophale) SiO2 
 PCOD8016600
Probable space group: P -1
;
_chemical_formula_sum "Si O2"
_cell_formula_units_Z 16
_cell_length_a 6.519943
_cell_length_b 9.170818
_cell_length_c 17.589233
_cell_angle_alpha 123.485889
_cell_angle_beta 120.169382
_cell_angle_gamma 65.912741
_cell_volume 745.746868
_symmetry_space_group_name_H-M "P -1"
_symmetry_group_IT_number 2
_symmetry_cell_setting 'triclinic'
loop_
_space_group_symop_operation_xyz
x,y,z
-x,-y,-z
loop_
_atom_site_type_symbol
_atom_site_label
_atom_site_fract_x
_atom_site_fract_y
_atom_site_fract_z
Si Si1 0.572697 0.897038 0.602293
Si Si2 0.590914 0.604247 0.782017
Si Si3 0.818319 0.936353 0.312450
Si Si4 0.085004 0.835333 0.741286
Si Si5 0.718565 0.549535 0.960942
Si Si6 0.124630 0.088818 0.117107
Si Si7 0.516212 0.760565 0.116447
Si Si8 0.663389 0.217350 0.616900
O O1 0.824789 0.790900 0.653508
O O2 0.513093 0.778593 0.486618
O O3 0.359285 0.914803 0.629807
O O4 0.581537 0.098695 0.635280
O O5 0.596323 0.579285 0.865676
O O6 0.788399 0.726856 0.834145
O O7 0.668419 0.415764 0.701598
O O8 0.313710 0.676995 0.727442
O O9 0.706920 0.760392 0.220974
O O10 0.067727 0.875594 0.386415
O O11 0.867568 0.005195 0.257073
O O12 0.064577 0.886232 0.841230
O O13 0.645858 0.383765 0.941978
O O14 0.638355 0.727168 0.046817
O O15 0.000000 0.500000 0.000000
O O16 0.363828 0.957817 0.148860
O O17 0.000000 0.000000 0.000000
#
# Coordination Sequence:
#
# PCOD8016600 Si02
#       8
#     2   2   2   2   2   2   2   2
#     4  10  21  45  69 101 128 179 222 269 342 400
#     4  12  25  42  63 103 133 173 221 278 334 391
#     4  11  21  41  69  94 130 175 223 269 330 400
#     4  11  24  42  66  94 136 175 217 276 331 402
#     4  11  25  40  63  95 132 169 223 276 328 389
#     4  12  26  42  65  92 135 180 224 267 334 400
#     4  11  23  40  63  94 124 176 218 266 330 398
#     4  10  24  40  71 100 135 170 224 280 329 397
#
# _framework density 21.454999999999998
#
# number of rings (size 3 to 8) (size 9 to 14) (size 15 to 20)
#    0.000    1.000    2.500    3.375    5.250    5.500 
#    0.000    2.500    0.000    0.000    0.000    0.000 
#    0.000    0.000    0.000    0.000    0.000    0.000 
#
# Total GULP energy -198357.592035 kJ/mol
# GULP energy per Si atom -12397.349502 kJ/mol
# Density = 2.140617 g / cm^3
# Si number density = 21.455000 Si / 1000 Ang^3
#
#
#
# Elastic Constant Matrix: (Units=GPa)
#
#
# Indices 1 2 3 4 5 6 
#
# 1 115.5125 26.9548 27.0496 -6.0278 -0.6156 -6.2752
# 2 26.9548 73.0482 28.6023 2.2703 2.5742 -4.9207
# 3 27.0496 28.6023 97.6317 -13.0660 4.7268 7.3448
# 4 -6.0278 2.2703 -13.0660 37.3010 -4.7519 8.0606
# 5 -0.6156 2.5742 4.7268 -4.7519 36.2966 -8.7611
# 6 -6.2752 -4.9207 7.3448 8.0606 -8.7611 27.8091
#
#
#
# Elastic Compliance Matrix: (Units=1/GPa)
#
#
# Indices 1 2 3 4 5 6 
#
# 1 0.009976 -0.002741 -0.002132 0.000649 0.001345 0.002565
# 2 -0.002741 0.017250 -0.005279 -0.004443 0.000077 0.005140
# 3 -0.002132 -0.005279 0.013907 0.006186 -0.002515 -0.007674
# 4 0.000649 -0.004443 0.006186 0.031899 0.000992 -0.011207
# 5 0.001345 0.000077 -0.002515 0.000992 0.030513 0.010307
# 6 0.002565 0.005140 -0.007674 -0.011207 0.010307 0.045970
#
#
# Mechanical properties :
#
#
# Convention : Reuss Voigt Hill
#
# Bulk Modulus (GPa) = 48.01210 50.15620 49.08415
# Shear Modulus (GPa) = 28.28648 33.85374 31.07011
#
# Velocity S-wave (km/s) = 3.63493 3.97658 3.80959
# Velocity P-wave (km/s) = 6.32800 6.67176 6.50215
#
# Compressibility (1/GPa) = 0.02082808
#
# Stress axis : x y z
#
# Youngs Moduli (GPa) = 100.23635 57.97189 71.90756
#
# Poissons Ratio (x) = 0.15892 0.15332
# Poissons Ratio (y) = 0.27477 0.37960
# Poissons Ratio (z) = 0.21372 0.30603
#
# Static dielectric constant tensor:
#      x y z
#    x 4.053810 -0.139850 0.209040 
#    y -0.139850 3.616060 -0.038220 
#    z 0.209040 -0.038220 3.829060 
# 
# 
# High freq. dielectric constant tensor:
#      x y z
#    x 1.859880 -0.004580 0.005620 
#    y -0.004580 1.822440 -0.011750 
#    z 0.005620 -0.011750 1.850950 
# 
# From -- ./inp_files/53685.got.cif
#   From: 2010.06.25/outbox.cif.g09.slc.cpg/sg2_27_cif.got.tgz:53685.got - 2010.06.27 13:26:56.
