data_PCOD8016131
_publ_section_title
;
Structure prediction by ZEFSAII (Michael W. Deem and Ramdas Pophale) SiO2 
 PCOD8016131
Probable space group: P -1
;
_chemical_formula_sum "Si O2"
_cell_formula_units_Z 16
_cell_length_a 22.247251
_cell_length_b 22.126604
_cell_length_c 5.043605
_cell_angle_alpha 82.912252
_cell_angle_beta 74.608204
_cell_angle_gamma 19.150595
_cell_volume 718.802192
_symmetry_space_group_name_H-M "P -1"
_symmetry_group_IT_number 2
_symmetry_cell_setting 'triclinic'
loop_
_space_group_symop_operation_xyz
x,y,z
-x,-y,-z
loop_
_atom_site_type_symbol
_atom_site_label
_atom_site_fract_x
_atom_site_fract_y
_atom_site_fract_z
Si Si1 0.474372 0.327929 0.492134
Si Si2 0.741653 0.773437 0.408605
Si Si3 0.965556 0.610105 0.736675
Si Si4 0.190734 0.831347 0.552111
Si Si5 0.542189 0.576047 0.026232
Si Si6 0.051171 0.669154 0.597743
Si Si7 0.926122 0.166985 0.983024
Si Si8 0.886626 0.883900 0.154545
O O1 0.447079 0.381818 0.784787
O O2 0.271171 0.481971 0.559468
O O3 0.655541 0.109518 0.405565
O O4 0.531412 0.327770 0.216308
O O5 0.789184 0.756501 0.651534
O O6 0.831062 0.621608 0.383909
O O7 0.500000 0.000000 0.500000
O O8 0.862169 0.702659 0.095064
O O9 0.044078 0.604283 0.589215
O O10 0.388135 0.665416 0.241091
O O11 0.219886 0.739754 0.714417
O O12 0.000000 0.000000 0.500000
O O13 0.128787 0.943781 0.762480
O O14 0.768495 0.335883 0.846316
O O15 0.015853 0.735278 0.324981
O O16 0.881880 0.845365 0.922203
O O17 0.009132 0.149525 0.046043
#
# Coordination Sequence:
#
# PCOD8016131 Si02
#       8
#     2   2   2   2   2   2   2   2
#     4  12  25  44  67  95 126 176 218 269 328 402
#     4  10  21  43  71 101 140 184 211 274 322 368
#     4  10  23  40  67 105 138 172 231 264 315 386
#     4  11  26  41  65  94 122 164 221 285 336 409
#     4  12  25  43  68  91 125 165 219 271 344 404
#     4  12  25  44  67 100 134 178 221 271 320 389
#     4  11  24  43  63  93 122 167 214 280 339 401
#     4  12  25  44  69  91 135 177 220 273 342 394
#
# _framework density 22.259252
#
# number of rings (size 3 to 8) (size 9 to 14) (size 15 to 20)
#    0.000    0.750    3.750    3.000    5.250    2.500 
#    0.000    0.000    0.000    0.000    0.000    0.000 
#    0.000    0.000    0.000    0.000    0.000    0.000 
#
# Total GULP energy -198419.923277 kJ/mol
# GULP energy per Si atom -12401.245205 kJ/mol
# Density = 2.220859 g / cm^3
# Si number density = 22.259252 Si / 1000 Ang^3
#
#
#
# Elastic Constant Matrix: (Units=GPa)
#
#
# Indices 1 2 3 4 5 6 
#
# 1 93.7524 34.3515 19.0976 -5.6083 -10.1659 16.7960
# 2 34.3515 107.0984 14.8766 9.9420 -5.8814 2.0254
# 3 19.0976 14.8766 63.3992 -6.4327 0.8230 10.8650
# 4 -5.6083 9.9420 -6.4327 31.7207 -5.1237 -0.8084
# 5 -10.1659 -5.8814 0.8230 -5.1237 29.5727 -5.0775
# 6 16.7960 2.0254 10.8650 -0.8084 -5.0775 27.4461
#
#
#
# Elastic Compliance Matrix: (Units=1/GPa)
#
#
# Indices 1 2 3 4 5 6 
#
# 1 0.014570 -0.004468 -0.001763 0.004027 0.003649 -0.007095
# 2 -0.004468 0.011503 -0.002309 -0.004717 0.000470 0.002747
# 3 -0.001763 -0.002309 0.018316 0.003640 -0.002021 -0.006268
# 4 0.004027 -0.004717 0.003640 0.035429 0.006250 -0.001358
# 5 0.003649 0.000470 -0.002021 0.006250 0.037265 0.005610
# 6 -0.007095 0.002747 -0.006268 -0.001358 0.005610 0.044053
#
#
# Mechanical properties :
#
#
# Convention : Reuss Voigt Hill
#
# Bulk Modulus (GPa) = 36.61852 44.54460 40.58156
# Shear Modulus (GPa) = 26.69242 30.80950 28.75096
#
# Velocity S-wave (km/s) = 3.46665 3.72441 3.59784
# Velocity P-wave (km/s) = 5.70177 6.20888 5.96072
#
# Compressibility (1/GPa) = 0.02730859
#
# Stress axis : x y z
#
# Youngs Moduli (GPa) = 68.63286 86.93596 54.59797
#
# Poissons Ratio (x) = 0.38841 0.09628
# Poissons Ratio (y) = 0.30663 0.12606
# Poissons Ratio (z) = 0.12103 0.20072
#
# Static dielectric constant tensor:
#      x y z
#    x 4.062710 0.396720 0.498320 
#    y 0.396720 4.617010 0.355120 
#    z 0.498320 0.355120 4.051940 
# 
# 
# High freq. dielectric constant tensor:
#      x y z
#    x 1.869140 -0.002200 0.005190 
#    y -0.002200 1.891370 -0.002390 
#    z 0.005190 -0.002390 1.874350 
# 
# From -- ./inp_files/120396.got.cif
#   From: 2010.06.25/outbox.cif.g09.slc.cpg/sg2_61_cif.got.tgz:120396.got - 2010.06.27 13:26:56.
