data_PCOD8016864
_publ_section_title
;
Structure prediction by ZEFSAII (Michael W. Deem and Ramdas Pophale) SiO2 
 PCOD8016864
Probable space group: P -1
;
_chemical_formula_sum "Si O2"
_cell_formula_units_Z 16
_cell_length_a 10.479536
_cell_length_b 11.363592
_cell_length_c 11.986727
_cell_angle_alpha 48.611041
_cell_angle_beta 61.964925
_cell_angle_gamma 47.026301
_cell_volume 783.072175
_symmetry_space_group_name_H-M "P -1"
_symmetry_group_IT_number 2
_symmetry_cell_setting 'triclinic'
loop_
_space_group_symop_operation_xyz
x,y,z
-x,-y,-z
loop_
_atom_site_type_symbol
_atom_site_label
_atom_site_fract_x
_atom_site_fract_y
_atom_site_fract_z
Si Si1 0.427203 0.549945 0.669975
Si Si2 0.679588 0.729891 0.701997
Si Si3 0.749837 0.465672 0.457896
Si Si4 0.006416 0.137575 0.682715
Si Si5 0.048109 0.352985 0.729024
Si Si6 0.352174 0.900234 0.577006
Si Si7 0.149033 0.987411 0.017116
Si Si8 0.492645 0.366749 0.994382
O O1 0.623149 0.467328 0.601649
O O2 0.328772 0.496981 0.656927
O O3 0.329854 0.776912 0.572399
O O4 0.415669 0.477333 0.841166
O O5 0.540397 0.761552 0.645208
O O6 0.871125 0.549862 0.709555
O O7 0.672952 0.921769 0.588798
O O8 0.629892 0.694505 0.866460
O O9 0.926376 0.255190 0.527359
O O10 0.794645 0.619157 0.371103
O O11 0.882908 0.065212 0.813919
O O12 0.009354 0.279397 0.679990
O O13 0.205368 0.964827 0.691477
O O14 0.119172 0.193216 0.897528
O O15 0.325821 0.826117 0.987360
O O16 0.000000 0.000000 0.000000
O O17 0.500000 0.500000 0.000000
#
# Coordination Sequence:
#
# PCOD8016864 Si02
#       8
#     2   2   2   2   2   2   2   2
#     4  11  26  43  66  90 130 172 212 257 317 386
#     4  11  23  37  62 101 127 156 209 268 324 366
#     4  11  24  46  64  89 128 176 214 255 314 380
#     4  11  21  40  66  95 124 165 216 264 311 370
#     4  11  23  39  66  95 128 166 214 266 311 376
#     4  11  24  38  65  98 125 163 209 270 319 371
#     4  10  22  36  62  98 125 162 206 265 319 368
#     4  12  22  40  64  96 128 164 206 267 319 373
#
# _framework density 20.432342999999999
#
# number of rings (size 3 to 8) (size 9 to 14) (size 15 to 20)
#    0.000    1.000    3.750    4.125    7.000    0.500 
#    0.000    2.500    0.000    0.000    0.000    0.000 
#    0.000    0.000    0.000    0.000    0.000    0.000 
#
# Total GULP energy -198311.826338 kJ/mol
# GULP energy per Si atom -12394.489146 kJ/mol
# Density = 2.038584 g / cm^3
# Si number density = 20.432343 Si / 1000 Ang^3
#
#
#
# Elastic Constant Matrix: (Units=GPa)
#
#
# Indices 1 2 3 4 5 6 
#
# 1 72.2437 33.9536 50.5560 -1.5584 -7.2573 -8.9320
# 2 33.9536 100.2907 40.9895 -12.0239 -3.2058 -8.6500
# 3 50.5560 40.9895 135.7926 -3.7014 -4.3675 4.3303
# 4 -1.5584 -12.0239 -3.7014 37.0556 -1.3971 -2.7852
# 5 -7.2573 -3.2058 -4.3675 -1.3971 26.5478 2.4466
# 6 -8.9320 -8.6500 4.3303 -2.7852 2.4466 19.2148
#
#
#
# Elastic Compliance Matrix: (Units=1/GPa)
#
#
# Indices 1 2 3 4 5 6 
#
# 1 0.022302 -0.003544 -0.007441 -0.000072 0.003520 0.009990
# 2 -0.003544 0.013293 -0.002758 0.004306 -0.000106 0.005596
# 3 -0.007441 -0.002758 0.011187 -0.000637 0.000115 -0.007328
# 4 -0.000072 0.004306 -0.000637 0.028823 0.001354 0.006054
# 5 0.003520 -0.000106 0.000115 0.001354 0.039003 -0.003207
# 6 0.009990 0.005596 -0.007328 0.006054 -0.003207 0.062143
#
#
# Mechanical properties :
#
#
# Convention : Reuss Voigt Hill
#
# Bulk Modulus (GPa) = 51.81999 62.14724 56.98362
# Shear Modulus (GPa) = 23.73400 28.75217 26.24309
#
# Velocity S-wave (km/s) = 3.41191 3.75532 3.58773
# Velocity P-wave (km/s) = 6.39830 7.02036 6.71654
#
# Compressibility (1/GPa) = 0.01929757
#
# Stress axis : x y z
#
# Youngs Moduli (GPa) = 44.83982 75.22562 89.39088
#
# Poissons Ratio (x) = 0.26658 0.66512
# Poissons Ratio (y) = 0.15890 0.24653
# Poissons Ratio (z) = 0.33363 0.20746
#
# Static dielectric constant tensor:
#      x y z
#    x 3.689340 0.216990 -1.576140 
#    y 0.216990 4.299000 -2.258980 
#    z -1.576140 -2.258980 11.870250 
# 
# 
# High freq. dielectric constant tensor:
#      x y z
#    x 1.766130 -0.020170 -0.018790 
#    y -0.020170 1.804610 -0.011690 
#    z -0.018790 -0.011690 1.815330 
# 
# From -- ./inp_files/389058.got.cif
#   From: 2010.06.25/outbox.cif.g09.slc.cpg/sg2_195_cif.got.tgz:389058.got - 2010.06.27 13:26:56.
