data_PCOD8016119
_publ_section_title
;
Structure prediction by ZEFSAII (Michael W. Deem and Ramdas Pophale) SiO2 
 PCOD8016119
Probable space group: P -1
;
_chemical_formula_sum "Si O2"
_cell_formula_units_Z 14
_cell_length_a 20.492467
_cell_length_b 9.090410
_cell_length_c 6.650639
_cell_angle_alpha 101.080651
_cell_angle_beta 79.317498
_cell_angle_gamma 36.690245
_cell_volume 592.299048
_symmetry_space_group_name_H-M "P -1"
_symmetry_group_IT_number 2
_symmetry_cell_setting 'triclinic'
loop_
_space_group_symop_operation_xyz
x,y,z
-x,-y,-z
loop_
_atom_site_type_symbol
_atom_site_label
_atom_site_fract_x
_atom_site_fract_y
_atom_site_fract_z
Si Si1 0.998435 0.643309 0.806452
Si Si2 0.344159 0.882124 0.961981
Si Si3 0.390153 0.519308 0.138740
Si Si4 0.375797 0.329481 0.748836
Si Si5 0.725420 0.211758 0.319072
Si Si6 0.898421 0.307805 0.021285
Si Si7 0.054475 0.575098 0.315127
O O1 0.012256 0.436107 0.770676
O O2 0.122078 0.494636 0.791177
O O3 0.976467 0.738064 0.613064
O O4 0.871676 0.954839 0.080257
O O5 0.471580 0.738918 0.880998
O O6 0.330432 0.843434 0.731564
O O7 0.361175 0.708311 0.052194
O O8 0.209810 0.235082 0.186473
O O9 0.271874 0.766625 0.436594
O O10 0.394211 0.353690 0.973982
O O11 0.369462 0.478207 0.639352
O O12 0.246122 0.478826 0.863848
O O13 0.500000 0.000000 0.500000
O O14 0.957082 0.246298 0.753700
O O15 0.000000 0.000000 0.000000
#
# Coordination Sequence:
#
# PCOD8016119 Si02
#       7
#     2   2   2   2   2   2   2
#     4  10  23  46  68 106 134 179 230 291 348 409
#     4   9  21  41  67 109 129 181 233 287 354 406
#     4  10  22  42  69  96 144 183 223 294 351 408
#     4  11  27  45  64 102 139 182 243 279 342 426
#     4  10  21  43  70  98 138 178 231 286 349 409
#     4  12  26  47  69 100 139 191 229 287 355 414
#     4  10  24  43  74 103 138 173 241 293 340 417
#
# _framework density 23.636707000000001
#
# number of rings (size 3 to 8) (size 9 to 14) (size 15 to 20)
#    0.000    1.714    1.429    0.857    4.000    9.143 
#    2.571    0.000    0.000    0.000    0.000    0.000 
#    0.000    0.000    0.000    0.000    0.000    0.000 
#
# Total GULP energy -173526.449972 kJ/mol
# GULP energy per Si atom -12394.746427 kJ/mol
# Density = 2.358291 g / cm^3
# Si number density = 23.636707 Si / 1000 Ang^3
#
#
#
# Elastic Constant Matrix: (Units=GPa)
#
#
# Indices 1 2 3 4 5 6 
#
# 1 172.4763 42.0531 66.4787 3.9461 5.0572 -17.2929
# 2 42.0531 77.0457 37.4906 2.4471 -3.1037 5.9986
# 3 66.4787 37.4906 173.3180 10.1637 16.1964 -1.6765
# 4 3.9461 2.4471 10.1637 26.0576 3.9574 0.9848
# 5 5.0572 -3.1037 16.1964 3.9574 39.4428 -8.6350
# 6 -17.2929 5.9986 -1.6765 0.9848 -8.6350 24.0004
#
#
#
# Elastic Compliance Matrix: (Units=1/GPa)
#
#
# Indices 1 2 3 4 5 6 
#
# 1 0.008380 -0.003918 -0.002387 -0.000435 0.001242 0.007316
# 2 -0.003918 0.016825 -0.002322 -0.000026 0.001312 -0.006718
# 3 -0.002387 -0.002322 0.007575 -0.001830 -0.003170 -0.001676
# 4 -0.000435 -0.000026 -0.001830 0.039893 -0.003963 -0.003498
# 5 0.001242 0.001312 -0.003170 -0.003963 0.029426 0.011095
# 6 0.007316 -0.006718 -0.001676 -0.003498 0.011095 0.052634
#
#
# Mechanical properties :
#
#
# Convention : Reuss Voigt Hill
#
# Bulk Modulus (GPa) = 64.41219 79.43164 71.92191
# Shear Modulus (GPa) = 28.22260 36.35466 32.28863
#
# Velocity S-wave (km/s) = 3.45920 3.92606 3.70000
# Velocity P-wave (km/s) = 6.57760 7.36411 6.98194
#
# Compressibility (1/GPa) = 0.01552501
#
# Stress axis : x y z
#
# Youngs Moduli (GPa) = 119.32932 59.43571 132.01480
#
# Poissons Ratio (x) = 0.23290 0.31506
# Poissons Ratio (y) = 0.46759 0.30660
# Poissons Ratio (z) = 0.28478 0.13804
#
# Static dielectric constant tensor:
#      x y z
#    x 4.617470 -0.172010 0.154360 
#    y -0.172010 4.215660 -0.054840 
#    z 0.154360 -0.054840 4.457280 
# 
# 
# High freq. dielectric constant tensor:
#      x y z
#    x 1.941310 -0.010530 0.004500 
#    y -0.010530 1.929650 -0.008890 
#    z 0.004500 -0.008890 1.938100 
# 
# From -- ./inp_files/117011.got.cif
#   From: 2010.06.25/outbox.cif.g09.slc.cpg/sg2_59_cif.got.tgz:117011.got - 2010.06.27 13:26:56.
