data_PCOD8016034
_publ_section_title
;
Structure prediction by ZEFSAII (Michael W. Deem and Ramdas Pophale) SiO2 
 PCOD8016034
Probable space group: P -1
;
_chemical_formula_sum "Si O2"
_cell_formula_units_Z 14
_cell_length_a 12.260679
_cell_length_b 14.329159
_cell_length_c 9.327700
_cell_angle_alpha 56.838541
_cell_angle_beta 49.938612
_cell_angle_gamma 28.734485
_cell_volume 602.295936
_symmetry_space_group_name_H-M "P -1"
_symmetry_group_IT_number 2
_symmetry_cell_setting 'triclinic'
loop_
_space_group_symop_operation_xyz
x,y,z
-x,-y,-z
loop_
_atom_site_type_symbol
_atom_site_label
_atom_site_fract_x
_atom_site_fract_y
_atom_site_fract_z
Si Si1 0.894205 0.327644 0.475450
Si Si2 0.152586 0.844415 0.713692
Si Si3 0.336481 0.755819 0.326475
Si Si4 0.918870 0.314979 0.916521
Si Si5 0.897952 0.446665 0.089827
Si Si6 0.754731 0.998807 0.332803
Si Si7 0.759774 0.581936 0.602345
O O1 0.720186 0.329737 0.621204
O O2 0.967854 0.311309 0.265207
O O3 0.757454 0.520475 0.502988
O O4 0.150530 0.141360 0.501468
O O5 0.340917 0.745150 0.505599
O O6 0.171385 0.922435 0.758677
O O7 0.873256 0.022908 0.734875
O O8 0.226322 0.681178 0.864310
O O9 0.600418 0.635681 0.155527
O O10 0.732578 0.501202 0.812380
O O11 0.131297 0.114538 0.818362
O O12 0.032488 0.329168 0.924468
O O13 0.000000 0.500000 0.000000
O O14 0.458605 0.186815 0.405298
O O15 0.000000 0.500000 0.500000
#
# Coordination Sequence:
#
# PCOD8016034 Si02
#       7
#     2   2   2   2   2   2   2
#     4  10  22  45  71  97 133 191 230 274 346 402
#     4  10  21  43  69 105 132 180 237 282 344 395
#     4  10  22  42  73  99 142 178 232 287 337 412
#     4  11  25  41  67 105 136 175 230 282 347 395
#     4  12  25  44  69 107 141 179 231 285 345 409
#     4  10  24  44  68  99 140 177 226 286 340 413
#     4  11  25  46  68  99 140 186 228 277 347 413
#
# _framework density 23.244385999999999
#
# number of rings (size 3 to 8) (size 9 to 14) (size 15 to 20)
#    0.000    1.429    1.429    2.571    4.000    2.857 
#    2.571    3.571    0.000    0.000    0.000    0.000 
#    0.000    0.000    0.000    0.000    0.000    0.000 
#
# Total GULP energy -173579.819642 kJ/mol
# GULP energy per Si atom -12398.558546 kJ/mol
# Density = 2.319148 g / cm^3
# Si number density = 23.244386 Si / 1000 Ang^3
#
#
#
# Elastic Constant Matrix: (Units=GPa)
#
#
# Indices 1 2 3 4 5 6 
#
# 1 145.3649 33.2036 35.0762 23.8986 13.0861 8.5624
# 2 33.2036 91.6764 39.6934 13.8313 8.5236 -6.1474
# 3 35.0762 39.6934 67.6295 -0.2236 11.8524 -15.0522
# 4 23.8986 13.8313 -0.2236 34.1704 3.9801 6.1737
# 5 13.0861 8.5236 11.8524 3.9801 47.5585 5.1766
# 6 8.5624 -6.1474 -15.0522 6.1737 5.1766 38.8566
#
#
#
# Elastic Compliance Matrix: (Units=1/GPa)
#
#
# Indices 1 2 3 4 5 6 
#
# 1 0.009444 -0.000413 -0.005333 -0.005847 -0.000354 -0.003236
# 2 -0.000413 0.015974 -0.009181 -0.006252 0.000057 0.000047
# 3 -0.005333 -0.009181 0.025911 0.006493 -0.004909 0.009383
# 4 -0.005847 -0.006252 0.006493 0.036623 -0.001651 -0.002784
# 5 -0.000354 0.000057 -0.004909 -0.001651 0.022978 -0.004614
# 6 -0.003236 0.000047 0.009383 -0.002784 -0.004614 0.031148
#
#
# Mechanical properties :
#
#
# Convention : Reuss Voigt Hill
#
# Bulk Modulus (GPa) = 46.56829 57.84632 52.20731
# Shear Modulus (GPa) = 27.91859 37.23028 32.57444
#
# Velocity S-wave (km/s) = 3.46943 4.00645 3.74757
# Velocity P-wave (km/s) = 6.01057 6.80752 6.42142
#
# Compressibility (1/GPa) = 0.02147384
#
# Stress axis : x y z
#
# Youngs Moduli (GPa) = 105.88359 62.60172 38.59309
#
# Poissons Ratio (x) = 0.02588 0.20583
# Poissons Ratio (y) = 0.04377 0.35433
# Poissons Ratio (z) = 0.56471 0.57476
#
# Static dielectric constant tensor:
#      x y z
#    x 4.373550 0.140400 0.328710 
#    y 0.140400 4.414150 -0.246670 
#    z 0.328710 -0.246670 4.079670 
# 
# 
# High freq. dielectric constant tensor:
#      x y z
#    x 1.933940 0.011400 0.025210 
#    y 0.011400 1.922330 -0.014530 
#    z 0.025210 -0.014530 1.898000 
# 
# From -- ./inp_files/272077.got.cif
#   From: 2010.06.25/outbox.cif.g09.slc.cpg/sg2_137_cif.got.tgz:272077.got - 2010.06.27 13:26:56.
