data_PCOD8016850
_publ_section_title
;
Structure prediction by ZEFSAII (Michael W. Deem and Ramdas Pophale) SiO2 
 PCOD8016850
Probable space group: P -1
;
_chemical_formula_sum "Si O2"
_cell_formula_units_Z 16
_cell_length_a 14.394613
_cell_length_b 4.780064
_cell_length_c 11.903436
_cell_angle_alpha 81.362312
_cell_angle_beta 116.688436
_cell_angle_gamma 71.850404
_cell_volume 653.523050
_symmetry_space_group_name_H-M "P -1"
_symmetry_group_IT_number 2
_symmetry_cell_setting 'triclinic'
loop_
_space_group_symop_operation_xyz
x,y,z
-x,-y,-z
loop_
_atom_site_type_symbol
_atom_site_label
_atom_site_fract_x
_atom_site_fract_y
_atom_site_fract_z
Si Si1 0.365330 0.386221 0.138444
Si Si2 0.789871 0.280103 0.364122
Si Si3 0.937411 0.976471 0.254394
Si Si4 0.724530 0.948115 0.042023
Si Si5 0.846822 0.655765 0.543654
Si Si6 0.066345 0.084729 0.128619
Si Si7 0.418975 0.758332 0.853725
Si Si8 0.215087 0.405106 0.245607
O O1 0.497785 0.160400 0.189982
O O2 0.335624 0.284865 0.250292
O O3 0.276618 0.349828 0.003455
O O4 0.343410 0.747660 0.092914
O O5 0.777953 0.585502 0.408415
O O6 0.659350 0.352639 0.258445
O O7 0.868553 0.219752 0.299849
O O8 0.855813 0.974113 0.496883
O O9 0.853958 0.898636 0.131670
O O10 0.028758 0.636858 0.366649
O O11 0.996344 0.156403 0.203022
O O12 0.664668 0.955787 0.130369
O O13 0.774223 0.739953 0.615737
O O14 0.114154 0.350980 0.122098
O O15 0.181797 0.768075 0.224601
O O16 0.000000 0.000000 0.000000
O O17 0.500000 0.500000 0.000000
#
# Coordination Sequence:
#
# PCOD8016850 Si02
#       8
#     2   2   2   2   2   2   2   2
#     4  11  21  39  61  88 121 158 197 249 302 351
#     4  11  24  41  63  89 118 155 203 249 297 355
#     4  10  22  38  62  89 121 162 197 240 299 356
#     4  10  22  36  61  94 122 151 197 246 302 361
#     4  11  24  41  58  86 125 163 201 245 287 350
#     4  11  22  37  57  88 123 157 198 245 292 351
#     4   9  22  42  66  93 119 149 194 255 310 354
#     4  11  23  38  57  83 120 163 201 241 291 350
#
# _framework density 24.482686000000001
#
# number of rings (size 3 to 8) (size 9 to 14) (size 15 to 20)
#    0.000    1.500    0.000    5.250    0.000   14.000 
#    0.000    1.250    0.000    0.000    0.000    0.000 
#    0.000    0.000    0.000    0.000    0.000    0.000 
#
# Total GULP energy -198337.176922 kJ/mol
# GULP energy per Si atom -12396.073558 kJ/mol
# Density = 2.442696 g / cm^3
# Si number density = 24.482686 Si / 1000 Ang^3
#
#
#
# Elastic Constant Matrix: (Units=GPa)
#
#
# Indices 1 2 3 4 5 6 
#
# 1 183.5182 22.2953 18.7371 9.9397 -22.5282 -19.8825
# 2 22.2953 53.3014 0.8216 22.3341 -2.7613 6.2803
# 3 18.7371 0.8216 53.9574 11.3641 -6.8111 -9.9529
# 4 9.9397 22.3341 11.3641 28.2815 -8.1227 -2.2695
# 5 -22.5282 -2.7613 -6.8111 -8.1227 36.6265 4.3118
# 6 -19.8825 6.2803 -9.9529 -2.2695 4.3118 26.5413
#
#
#
# Elastic Compliance Matrix: (Units=1/GPa)
#
#
# Indices 1 2 3 4 5 6 
#
# 1 0.007086 -0.004889 -0.001634 0.003570 0.003826 0.005536
# 2 -0.004889 0.034224 0.004613 -0.029462 -0.004716 -0.011784
# 3 -0.001634 0.004613 0.022446 -0.011581 0.000354 0.005054
# 4 0.003570 -0.029462 -0.011581 0.066026 0.011393 0.009098
# 5 0.003826 -0.004716 0.000354 0.011393 0.031904 -0.000094
# 6 0.005536 -0.011784 0.005054 0.009098 -0.000094 0.047301
#
#
# Mechanical properties :
#
#
# Convention : Reuss Voigt Hill
#
# Bulk Modulus (GPa) = 16.68423 41.60945 29.14684
# Shear Modulus (GPa) = 21.47896 34.88474 28.18185
#
# Velocity S-wave (km/s) = 2.96516 3.77885 3.39646
# Velocity P-wave (km/s) = 4.30725 6.00599 5.22610
#
# Compressibility (1/GPa) = 0.05993685
#
# Stress axis : x y z
#
# Youngs Moduli (GPa) = 141.12629 29.21897 44.55090
#
# Poissons Ratio (x) = 0.14284 0.07279
# Poissons Ratio (y) = 0.68991 -0.20550
# Poissons Ratio (z) = 0.23059 -0.13478
#
# Static dielectric constant tensor:
#      x y z
#    x 4.827940 -0.003400 -0.178580 
#    y -0.003400 4.397920 0.082450 
#    z -0.178580 0.082450 4.316270 
# 
# 
# High freq. dielectric constant tensor:
#      x y z
#    x 1.978520 0.004180 -0.010410 
#    y 0.004180 1.969050 0.017160 
#    z -0.010410 0.017160 1.952950 
# 
# From -- ./inp_files/441968.got.cif
#   From: 2010.06.25/outbox.cif.g09.slc.cpg/sg2_221_cif.got.tgz:441968.got - 2010.06.27 13:26:56.
