data_PCOD8016120
_publ_section_title
;
Structure prediction by ZEFSAII (Michael W. Deem and Ramdas Pophale) SiO2 
 PCOD8016120
Probable space group: P -1
;
_chemical_formula_sum "Si O2"
_cell_formula_units_Z 14
_cell_length_a 11.788516
_cell_length_b 14.858766
_cell_length_c 9.283487
_cell_angle_alpha 78.118307
_cell_angle_beta 128.924744
_cell_angle_gamma 58.913070
_cell_volume 655.824208
_symmetry_space_group_name_H-M "P -1"
_symmetry_group_IT_number 2
_symmetry_cell_setting 'triclinic'
loop_
_space_group_symop_operation_xyz
x,y,z
-x,-y,-z
loop_
_atom_site_type_symbol
_atom_site_label
_atom_site_fract_x
_atom_site_fract_y
_atom_site_fract_z
Si Si1 0.284222 0.102308 0.668508
Si Si2 0.715314 0.817923 0.660986
Si Si3 0.905194 0.984577 0.558448
Si Si4 0.471316 0.599263 0.150879
Si Si5 0.674934 0.498291 0.637943
Si Si6 0.286004 0.515022 0.908942
Si Si7 0.534956 0.720248 0.667057
O O1 0.336974 0.143459 0.563909
O O2 0.292656 0.990900 0.666101
O O3 0.987004 0.289361 0.431931
O O4 0.500000 0.000000 0.000000
O O5 0.662013 0.745197 0.700663
O O6 0.500000 0.000000 0.500000
O O7 0.027389 0.678101 0.995550
O O8 0.748063 0.119064 0.520749
O O9 0.000000 0.000000 0.500000
O O10 0.175322 0.793508 0.904834
O O11 0.697239 0.507730 0.481134
O O12 0.544702 0.608042 0.055224
O O13 0.459958 0.494560 0.151911
O O14 0.500000 0.500000 0.500000
O O15 0.499479 0.672640 0.517415
O O16 0.239862 0.448969 0.991479
#
# Coordination Sequence:
#
# PCOD8016120 Si02
#       7
#     2   2   2   2   2   2   2
#     4  11  25  46  71 100 136 187 236 287 353 425
#     4  12  27  49  69 100 152 187 224 297 362 417
#     4  11  23  44  67 103 145 176 233 298 350 409
#     4  10  22  41  68 103 135 181 231 298 342 412
#     4  12  25  45  73 104 136 183 247 288 347 425
#     4  10  21  43  70  98 140 181 231 289 353 404
#     4  12  24  45  73  99 148 190 225 294 363 417
#
# _framework density 21.347183000000001
#
# number of rings (size 3 to 8) (size 9 to 14) (size 15 to 20)
#    0.000    0.857    5.714    1.286    2.000    1.714 
#    0.000    1.429    0.000    0.000    0.000    0.000 
#    0.000    0.000    0.000    0.000    0.000    0.000 
#
# Total GULP energy -173544.578808 kJ/mol
# GULP energy per Si atom -12396.041343 kJ/mol
# Density = 2.129860 g / cm^3
# Si number density = 21.347183 Si / 1000 Ang^3
#
#
#
# Elastic Constant Matrix: (Units=GPa)
#
#
# Indices 1 2 3 4 5 6 
#
# 1 152.2677 53.7496 47.9064 12.3289 -15.9071 11.0354
# 2 53.7496 151.0201 64.0611 3.4979 -2.1966 -13.0040
# 3 47.9064 64.0611 131.9848 19.3404 -18.8326 -13.2459
# 4 12.3289 3.4979 19.3404 26.2477 -6.1038 -0.7141
# 5 -15.9071 -2.1966 -18.8326 -6.1038 31.8159 -4.5068
# 6 11.0354 -13.0040 -13.2459 -0.7141 -4.5068 40.9426
#
#
#
# Elastic Compliance Matrix: (Units=1/GPa)
#
#
# Indices 1 2 3 4 5 6 
#
# 1 0.008653 -0.002628 -0.001572 -0.002111 0.002320 -0.003457
# 2 -0.002628 0.009381 -0.004078 0.002515 -0.002292 0.002160
# 3 -0.001572 -0.004078 0.012188 -0.006338 0.005435 0.003559
# 4 -0.002111 0.002515 -0.006338 0.044358 0.003951 0.000526
# 5 0.002320 -0.002292 0.005435 0.003951 0.037053 0.004553
# 6 -0.003457 0.002160 0.003559 0.000526 0.004553 0.027704
#
#
# Mechanical properties :
#
#
# Convention : Reuss Voigt Hill
#
# Bulk Modulus (GPa) = 73.17261 85.18966 79.18114
# Shear Modulus (GPa) = 31.16233 37.77160 34.46697
#
# Velocity S-wave (km/s) = 3.82486 4.21098 4.02256
# Velocity P-wave (km/s) = 7.33879 7.97725 7.66467
#
# Compressibility (1/GPa) = 0.01366632
#
# Stress axis : x y z
#
# Youngs Moduli (GPa) = 115.56055 106.59410 82.04674
#
# Poissons Ratio (x) = 0.28014 0.12898
# Poissons Ratio (y) = 0.30370 0.33461
# Poissons Ratio (z) = 0.18166 0.43472
#
# Static dielectric constant tensor:
#      x y z
#    x 3.807270 -0.381440 -0.368530 
#    y -0.381440 4.061910 -0.021120 
#    z -0.368530 -0.021120 4.058520 
# 
# 
# High freq. dielectric constant tensor:
#      x y z
#    x 1.848860 -0.011050 -0.019210 
#    y -0.011050 1.850280 -0.012520 
#    z -0.019210 -0.012520 1.819080 
# 
# From -- ./inp_files/238017.got.cif
#   From: 2010.06.25/outbox.cif.g09.slc.cpg/sg2_120_cif.got.tgz:238017.got - 2010.06.27 13:26:56.
