data_PCOD8016124
_publ_section_title
;
Structure prediction by ZEFSAII (Michael W. Deem and Ramdas Pophale) SiO2 
 PCOD8016124
Probable space group: P -1
;
_chemical_formula_sum "Si O2"
_cell_formula_units_Z 14
_cell_length_a 8.260605
_cell_length_b 12.509590
_cell_length_c 10.004447
_cell_angle_alpha 42.688420
_cell_angle_beta 120.971406
_cell_angle_gamma 104.947620
_cell_volume 587.993119
_symmetry_space_group_name_H-M "P -1"
_symmetry_group_IT_number 2
_symmetry_cell_setting 'triclinic'
loop_
_space_group_symop_operation_xyz
x,y,z
-x,-y,-z
loop_
_atom_site_type_symbol
_atom_site_label
_atom_site_fract_x
_atom_site_fract_y
_atom_site_fract_z
Si Si1 0.782368 0.596427 0.336924
Si Si2 0.367520 0.219293 0.159345
Si Si3 0.871108 0.102281 0.139304
Si Si4 0.699325 0.818965 0.341666
Si Si5 0.736985 0.107493 0.568050
Si Si6 0.693407 0.279488 0.657336
Si Si7 0.068723 0.312668 0.186719
O O1 0.769232 0.746201 0.293718
O O2 0.660302 0.473820 0.463556
O O3 0.000000 0.500000 0.500000
O O4 0.689170 0.657688 0.099295
O O5 0.589312 0.212064 0.303114
O O6 0.232369 0.273476 0.179606
O O7 0.350665 0.039572 0.274242
O O8 0.889730 0.227192 0.151099
O O9 0.687931 0.014351 0.155866
O O10 0.857932 0.204330 0.902923
O O11 0.059451 0.958753 0.354693
O O12 0.499423 0.778457 0.335779
O O13 0.857536 0.749149 0.581660
O O14 0.772473 0.220749 0.599862
O O15 0.000000 0.500000 0.000000
#
# Coordination Sequence:
#
# PCOD8016124 Si02
#       7
#     2   2   2   2   2   2   2
#     4  12  25  44  72 103 140 186 233 282 354 419
#     4  10  22  43  71 101 138 180 229 285 344 414
#     4  11  24  43  72 102 136 190 231 282 347 416
#     4  12  25  46  66 104 140 181 233 288 348 414
#     4  10  21  43  70  99 139 178 233 281 340 417
#     4  12  24  44  70 104 142 176 234 296 347 405
#     4  11  23  45  70 103 145 177 228 291 352 409
#
# _framework density 23.809805000000001
#
# number of rings (size 3 to 8) (size 9 to 14) (size 15 to 20)
#    0.000    0.857    1.429    6.857    0.000    0.571 
#    5.143    0.000    0.000    0.000    0.000    0.000 
#    0.000    0.000    0.000    0.000    0.000    0.000 
#
# Total GULP energy -173635.477044 kJ/mol
# GULP energy per Si atom -12402.534075 kJ/mol
# Density = 2.375561 g / cm^3
# Si number density = 23.809805 Si / 1000 Ang^3
#
#
#
# Elastic Constant Matrix: (Units=GPa)
#
#
# Indices 1 2 3 4 5 6 
#
# 1 69.5739 18.2839 12.6368 -6.5436 -4.3897 19.2113
# 2 18.2839 123.2244 26.0275 -9.4924 1.2205 5.4467
# 3 12.6368 26.0275 161.1829 3.7722 -8.7377 7.7236
# 4 -6.5436 -9.4924 3.7722 37.9724 3.5380 -4.6925
# 5 -4.3897 1.2205 -8.7377 3.5380 29.5517 1.0817
# 6 19.2113 5.4467 7.7236 -4.6925 1.0817 31.4918
#
#
#
# Elastic Compliance Matrix: (Units=1/GPa)
#
#
# Indices 1 2 3 4 5 6 
#
# 1 0.018209 -0.002084 -0.000452 0.001083 0.002915 -0.010576
# 2 -0.002084 0.008886 -0.001419 0.002188 -0.001375 0.000456
# 3 -0.000452 -0.001419 0.006690 -0.001477 0.002198 -0.001416
# 4 0.001083 0.002188 -0.001477 0.028023 -0.003854 0.003631
# 5 0.002915 -0.001375 0.002198 -0.003854 0.035582 -0.003876
# 6 -0.010576 0.000456 -0.001416 0.003631 -0.003876 0.039148
#
#
# Mechanical properties :
#
#
# Convention : Reuss Voigt Hill
#
# Bulk Modulus (GPa) = 38.64673 51.98638 45.31656
# Shear Modulus (GPa) = 32.66386 39.60538 36.13462
#
# Velocity S-wave (km/s) = 3.70789 4.08291 3.89991
# Velocity P-wave (km/s) = 5.88200 6.64141 6.27321
#
# Compressibility (1/GPa) = 0.02587541
#
# Stress axis : x y z
#
# Youngs Moduli (GPa) = 54.91776 112.53293 149.47119
#
# Poissons Ratio (x) = 0.23457 0.06750
# Poissons Ratio (y) = 0.11447 0.21211
# Poissons Ratio (z) = 0.02480 0.15969
#
# Static dielectric constant tensor:
#      x y z
#    x 4.476380 -0.015510 -0.471360 
#    y -0.015510 4.906720 0.358150 
#    z -0.471360 0.358150 5.167200 
# 
# 
# High freq. dielectric constant tensor:
#      x y z
#    x 1.931230 0.010180 0.001220 
#    y 0.010180 1.957600 0.007300 
#    z 0.001220 0.007300 1.957250 
# 
# From -- ./inp_files/157861.got.cif
#   From: 2010.06.25/outbox.cif.g09.slc.cpg/sg2_79_cif.got.tgz:157861.got - 2010.06.27 13:26:56.
