data_PCOD8016693
_publ_section_title
;
Structure prediction by ZEFSAII (Michael W. Deem and Ramdas Pophale) SiO2 
 PCOD8016693
Probable space group: P -1
;
_chemical_formula_sum "Si O2"
_cell_formula_units_Z 16
_cell_length_a 8.694675
_cell_length_b 19.365160
_cell_length_c 6.080371
_cell_angle_alpha 123.803876
_cell_angle_beta 75.819359
_cell_angle_gamma 124.742210
_cell_volume 695.137570
_symmetry_space_group_name_H-M "P -1"
_symmetry_group_IT_number 2
_symmetry_cell_setting 'triclinic'
loop_
_space_group_symop_operation_xyz
x,y,z
-x,-y,-z
loop_
_atom_site_type_symbol
_atom_site_label
_atom_site_fract_x
_atom_site_fract_y
_atom_site_fract_z
Si Si1 0.528759 0.548387 0.322894
Si Si2 0.241492 0.894483 0.509700
Si Si3 0.446715 0.113496 0.847222
Si Si4 0.168222 0.289534 0.737491
Si Si5 0.254276 0.567756 0.680613
Si Si6 0.490939 0.276577 0.815630
Si Si7 0.005431 0.641004 0.735258
Si Si8 0.662424 0.193267 0.317419
O O1 0.500000 0.500000 0.500000
O O2 0.742173 0.644811 0.400734
O O3 0.377935 0.581886 0.442805
O O4 0.500000 0.500000 0.000000
O O5 0.353351 0.875742 0.251040
O O6 0.336785 0.892089 0.699556
O O7 0.022619 0.811377 0.432462
O O8 0.271907 0.002152 0.666423
O O9 0.409597 0.188687 0.868010
O O10 0.475056 0.141791 0.142993
O O11 0.313074 0.262348 0.727406
O O12 0.140405 0.353555 0.043744
O O13 0.150141 0.625970 0.799662
O O14 0.106729 0.450444 0.557338
O O15 0.394750 0.613871 0.922023
O O16 0.641891 0.269566 0.606859
O O17 0.131080 0.743939 0.750807
#
# Coordination Sequence:
#
# PCOD8016693 Si02
#       8
#     2   2   2   2   2   2   2   2
#     4  12  27  48  72 103 149 196 244 303 377 440
#     4  10  23  40  74 104 138 183 240 301 364 441
#     4  10  21  46  70 103 140 185 237 303 370 432
#     4  12  25  46  69 108 139 194 238 301 364 442
#     4  11  24  45  67 101 140 196 232 306 358 436
#     4  11  25  43  71  98 150 192 238 297 372 441
#     4  11  23  42  72 101 140 177 260 293 354 434
#     4  11  21  44  70 103 139 188 236 304 370 433
#
# _framework density 23.017023999999999
#
# number of rings (size 3 to 8) (size 9 to 14) (size 15 to 20)
#    0.000    1.000    3.750    2.625    1.750    1.000 
#    0.000    0.625    0.000    0.000    0.000    0.000 
#    0.000    0.000    0.000    0.000    0.000    0.000 
#
# Total GULP energy -198222.688012 kJ/mol
# GULP energy per Si atom -12388.918001 kJ/mol
# Density = 2.296464 g / cm^3
# Si number density = 23.017024 Si / 1000 Ang^3
#
#
#
# Elastic Constant Matrix: (Units=GPa)
#
#
# Indices 1 2 3 4 5 6 
#
# 1 90.5333 45.0332 23.8047 -8.4844 4.2727 1.1237
# 2 45.0332 123.0191 47.2574 2.3173 14.5150 10.9040
# 3 23.8047 47.2574 91.2967 0.6777 10.8686 -3.2159
# 4 -8.4844 2.3173 0.6777 31.8878 5.0278 8.3537
# 5 4.2727 14.5150 10.8686 5.0278 33.1684 -0.4308
# 6 1.1237 10.9040 -3.2159 8.3537 -0.4308 36.1329
#
#
#
# Elastic Compliance Matrix: (Units=1/GPa)
#
#
# Indices 1 2 3 4 5 6 
#
# 1 0.014135 -0.004770 -0.001256 0.004145 0.000049 -0.000070
# 2 -0.004770 0.012539 -0.005002 -0.000521 -0.003207 -0.003999
# 3 -0.001256 -0.005002 0.014237 -0.000705 -0.002169 0.002953
# 4 0.004145 -0.000521 -0.000705 0.035576 -0.005576 -0.008326
# 5 0.000049 -0.003207 -0.002169 -0.005576 0.033134 0.002457
# 6 -0.000070 -0.003999 0.002953 -0.008326 0.002457 0.031101
#
#
# Mechanical properties :
#
#
# Convention : Reuss Voigt Hill
#
# Bulk Modulus (GPa) = 53.03152 59.67107 56.35129
# Shear Modulus (GPa) = 29.57459 32.82141 31.19800
#
# Velocity S-wave (km/s) = 3.58844 3.78029 3.68561
# Velocity P-wave (km/s) = 6.34503 6.71082 6.53049
#
# Compressibility (1/GPa) = 0.01885671
#
# Stress axis : x y z
#
# Youngs Moduli (GPa) = 70.74417 79.75124 70.23758
#
# Poissons Ratio (x) = 0.38040 0.08820
# Poissons Ratio (y) = 0.33743 0.35133
# Poissons Ratio (z) = 0.08884 0.39892
#
# Static dielectric constant tensor:
#      x y z
#    x 4.200840 0.061020 -0.140760 
#    y 0.061020 4.367100 -0.239790 
#    z -0.140760 -0.239790 4.359500 
# 
# 
# High freq. dielectric constant tensor:
#      x y z
#    x 1.906080 0.000470 -0.000760 
#    y 0.000470 1.911190 0.002600 
#    z -0.000760 0.002600 1.912200 
# 
# From -- ./inp_files/53682.got.cif
#   From: 2010.06.25/outbox.cif.g09.slc.cpg/sg2_27_cif.got.tgz:53682.got - 2010.06.27 13:26:56.
