data_PCOD8016738
_publ_section_title
;
Structure prediction by ZEFSAII (Michael W. Deem and Ramdas Pophale) SiO2 
 PCOD8016738
Probable space group: P -1
;
_chemical_formula_sum "Si O2"
_cell_formula_units_Z 16
_cell_length_a 8.603161
_cell_length_b 11.981137
_cell_length_c 14.545983
_cell_angle_alpha 140.222550
_cell_angle_beta 48.112649
_cell_angle_gamma 129.031527
_cell_volume 692.412672
_symmetry_space_group_name_H-M "P -1"
_symmetry_group_IT_number 2
_symmetry_cell_setting 'triclinic'
loop_
_space_group_symop_operation_xyz
x,y,z
-x,-y,-z
loop_
_atom_site_type_symbol
_atom_site_label
_atom_site_fract_x
_atom_site_fract_y
_atom_site_fract_z
Si Si1 0.550137 0.336410 0.435776
Si Si2 0.233246 0.537613 0.386040
Si Si3 0.786657 0.031791 0.644327
Si Si4 0.131749 0.697866 0.049534
Si Si5 0.290315 0.876914 0.461351
Si Si6 0.388038 0.205925 0.086885
Si Si7 0.008584 0.006813 0.786302
Si Si8 0.209893 0.945044 0.846391
O O1 0.500000 0.500000 0.500000
O O2 0.584818 0.402135 0.568882
O O3 0.760337 0.257925 0.274375
O O4 0.354922 0.162538 0.391771
O O5 0.260325 0.674435 0.378427
O O6 0.265977 0.360180 0.210384
O O7 0.000000 0.500000 0.500000
O O8 0.836450 0.179058 0.796123
O O9 0.674925 0.112356 0.654954
O O10 0.000000 0.000000 0.500000
O O11 0.990873 0.781889 0.085725
O O12 0.368969 0.706554 0.919126
O O13 0.000000 0.500000 0.000000
O O14 0.074778 0.939123 0.618690
O O15 0.500000 0.000000 0.500000
O O16 0.240701 0.089067 0.150939
O O17 0.401681 0.087793 0.914008
O O18 0.193423 0.971876 0.760208
O O19 0.000000 0.000000 0.000000
#
# Coordination Sequence:
#
# PCOD8016738 Si02
#       8
#     2   2   2   2   2   2   2   2
#     4  12  27  46  76 111 146 189 257 305 364 448
#     4  12  25  45  73 113 140 189 254 302 364 443
#     4  12  27  50  72 105 149 200 241 304 377 441
#     4  12  29  48  71 109 149 194 250 303 382 443
#     4  12  24  45  75 103 150 191 247 302 361 447
#     4  11  25  45  74 106 146 188 248 312 374 435
#     4  11  23  47  76 100 146 196 241 306 370 440
#     4  10  21  47  71 107 143 188 241 304 380 428
#
# _framework density 23.107606000000001
#
# number of rings (size 3 to 8) (size 9 to 14) (size 15 to 20)
#    0.000    0.500    6.250    1.125    7.000    3.000 
#    0.000    1.250    0.000    0.000    0.000    0.000 
#    0.000    0.000    0.000    0.000    0.000    0.000 
#
# Total GULP energy -198251.163868 kJ/mol
# GULP energy per Si atom -12390.697742 kJ/mol
# Density = 2.305501 g / cm^3
# Si number density = 23.107606 Si / 1000 Ang^3
#
#
#
# Elastic Constant Matrix: (Units=GPa)
#
#
# Indices 1 2 3 4 5 6 
#
# 1 97.3980 49.1924 33.1248 13.4299 -17.9240 -13.7443
# 2 49.1924 162.2821 47.8069 30.4871 -14.6169 -13.0493
# 3 33.1248 47.8069 114.2173 21.2369 -16.3758 -12.8170
# 4 13.4299 30.4871 21.2369 43.1614 -5.9386 -13.1617
# 5 -17.9240 -14.6169 -16.3758 -5.9386 44.2416 12.6635
# 6 -13.7443 -13.0493 -12.8170 -13.1617 12.6635 46.2864
#
#
#
# Elastic Compliance Matrix: (Units=1/GPa)
#
#
# Indices 1 2 3 4 5 6 
#
# 1 0.013281 -0.003018 -0.001926 -0.000110 0.003181 0.001658
# 2 -0.003018 0.008410 -0.001855 -0.004132 0.000408 -0.000325
# 3 -0.001926 -0.001855 0.011022 -0.003068 0.002131 0.000502
# 4 -0.000110 -0.004132 -0.003068 0.029545 -0.000432 0.006473
# 5 0.003181 0.000408 0.002131 -0.000432 0.026387 -0.005692
# 6 0.001658 -0.000325 0.000502 0.006473 -0.005692 0.025542
#
#
# Mechanical properties :
#
#
# Convention : Reuss Voigt Hill
#
# Bulk Modulus (GPa) = 52.31100 70.46062 61.38581
# Shear Modulus (GPa) = 37.26968 42.98943 40.12955
#
# Velocity S-wave (km/s) = 4.02042 4.31792 4.17182
# Velocity P-wave (km/s) = 6.65123 7.44431 7.05892
#
# Compressibility (1/GPa) = 0.01911644
#
# Stress axis : x y z
#
# Youngs Moduli (GPa) = 75.29556 118.90387 90.72450
#
# Poissons Ratio (x) = 0.35885 0.17473
# Poissons Ratio (y) = 0.22724 0.16826
# Poissons Ratio (z) = 0.14501 0.22052
#
# Static dielectric constant tensor:
#      x y z
#    x 5.542230 -0.463720 0.559180 
#    y -0.463720 4.733120 -0.441000 
#    z 0.559180 -0.441000 5.149770 
# 
# 
# High freq. dielectric constant tensor:
#      x y z
#    x 1.926890 0.000790 -0.015580 
#    y 0.000790 1.902800 0.000160 
#    z -0.015580 0.000160 1.926990 
# 
# From -- ./inp_files/500944.got.cif
#   From: 2010.06.25/outbox.cif.g09.slc.cpg/sg2_251_cif.got.tgz:500944.got - 2010.06.27 13:26:56.
