data_PCOD8016039
_publ_section_title
;
Structure prediction by ZEFSAII (Michael W. Deem and Ramdas Pophale) SiO2 
 PCOD8016039
Probable space group: P -1
;
_chemical_formula_sum "Si O2"
_cell_formula_units_Z 16
_cell_length_a 15.086274
_cell_length_b 12.877623
_cell_length_c 22.657143
_cell_angle_alpha 24.450576
_cell_angle_beta 155.872143
_cell_angle_gamma 140.439447
_cell_volume 696.619947
_symmetry_space_group_name_H-M "P -1"
_symmetry_group_IT_number 2
_symmetry_cell_setting 'triclinic'
loop_
_space_group_symop_operation_xyz
x,y,z
-x,-y,-z
loop_
_atom_site_type_symbol
_atom_site_label
_atom_site_fract_x
_atom_site_fract_y
_atom_site_fract_z
Si Si1 0.568150 0.015155 0.101230
Si Si2 0.055509 0.769282 0.735210
Si Si3 0.403062 0.413747 0.044121
Si Si4 0.321405 0.596036 0.671136
Si Si5 0.016997 0.891131 0.835297
Si Si6 0.534609 0.858547 0.373959
Si Si7 0.596877 0.302549 0.747748
Si Si8 0.266928 0.436312 0.137421
O O1 0.816784 0.045663 0.250683
O O2 0.567398 0.758331 0.271029
O O3 0.358194 0.281412 0.859194
O O4 0.500000 0.000000 0.000000
O O5 0.780395 0.905384 0.490084
O O6 0.172696 0.655178 0.801871
O O7 0.102409 0.516177 0.938178
O O8 0.600385 0.327582 0.258348
O O9 0.352739 0.139821 0.141885
O O10 0.500000 0.500000 0.000000
O O11 0.468425 0.648187 0.678180
O O12 0.060399 0.801569 0.394243
O O13 0.789689 0.804374 0.741021
O O14 0.135850 0.861615 0.986937
O O15 0.213650 0.693037 0.015072
O O16 0.547932 0.621463 0.550454
O O17 0.444705 0.802335 0.286073
#
# Coordination Sequence:
#
# PCOD8016039 Si02
#       8
#     2   2   2   2   2   2   2   2
#     4  10  22  43  61  99 135 165 213 271 328 395
#     4  10  21  43  69  91 123 170 221 259 316 395
#     4  10  22  40  66  98 125 162 223 269 310 391
#     4  10  22  38  65  93 125 166 215 261 316 389
#     4  11  20  37  62  93 126 165 202 263 331 372
#     4  11  23  45  66  93 127 177 218 268 330 373
#     4  11  24  40  64  93 136 168 217 275 321 386
#     4   9  19  36  62  94 124 155 207 265 313 387
#
# _framework density 22.968048
#
# number of rings (size 3 to 8) (size 9 to 14) (size 15 to 20)
#    0.000    2.000    1.250    4.125    1.750    2.500 
#    4.500    7.500    0.000    0.000    0.000    0.000 
#    0.000    0.000    0.000    0.000    0.000    0.000 
#
# Total GULP energy -198229.103178 kJ/mol
# GULP energy per Si atom -12389.318949 kJ/mol
# Density = 2.291577 g / cm^3
# Si number density = 22.968048 Si / 1000 Ang^3
#
#
#
# Elastic Constant Matrix: (Units=GPa)
#
#
# Indices 1 2 3 4 5 6 
#
# 1 105.6894 44.9892 23.1312 -7.1050 -15.1045 -1.4147
# 2 44.9892 110.4984 36.5084 -2.1698 1.2457 1.5197
# 3 23.1312 36.5084 77.6620 -1.5134 -8.4597 0.0618
# 4 -7.1050 -2.1698 -1.5134 32.1818 3.6506 -1.5208
# 5 -15.1045 1.2457 -8.4597 3.6506 30.4149 -1.7879
# 6 -1.4147 1.5197 0.0618 -1.5208 -1.7879 32.1967
#
#
#
# Elastic Compliance Matrix: (Units=1/GPa)
#
#
# Indices 1 2 3 4 5 6 
#
# 1 0.012781 -0.005010 -0.000742 0.001804 0.006202 0.001229
# 2 -0.005010 0.012812 -0.005017 -0.000022 -0.004468 -0.001064
# 3 -0.000742 -0.005017 0.015921 -0.000224 0.004316 0.000403
# 4 0.001804 -0.000022 -0.000224 0.031857 -0.002906 0.001424
# 5 0.006202 -0.004468 0.004316 -0.002906 0.037834 0.002439
# 6 0.001229 -0.001064 0.000403 0.001424 0.002439 0.031365
#
#
# Mechanical properties :
#
#
# Convention : Reuss Voigt Hill
#
# Bulk Modulus (GPa) = 50.05905 55.90083 52.97994
# Shear Modulus (GPa) = 29.27990 31.57340 30.42665
#
# Velocity S-wave (km/s) = 3.57432 3.71167 3.64364
# Velocity P-wave (km/s) = 6.23512 6.53912 6.38893
#
# Compressibility (1/GPa) = 0.01997641
#
# Stress axis : x y z
#
# Youngs Moduli (GPa) = 78.24329 78.05275 62.80963
#
# Poissons Ratio (x) = 0.39104 0.04659
# Poissons Ratio (y) = 0.39199 0.31511
# Poissons Ratio (z) = 0.05804 0.39158
#
# Static dielectric constant tensor:
#      x y z
#    x 4.186910 -0.017980 -0.188120 
#    y -0.017980 4.250560 -0.162490 
#    z -0.188120 -0.162490 3.983490 
# 
# 
# High freq. dielectric constant tensor:
#      x y z
#    x 1.904790 -0.004940 -0.020510 
#    y -0.004940 1.911820 -0.006120 
#    z -0.020510 -0.006120 1.890290 
# 
# From -- ./inp_files/597951.got.cif
#   From: 2010.06.25/outbox.cif.g09.slc.cpg/sg2_299_cif.got.tgz:597951.got - 2010.06.27 13:26:56.
