data_PCOD8016612
_publ_section_title
;
Structure prediction by ZEFSAII (Michael W. Deem and Ramdas Pophale) SiO2 
 PCOD8016612
Probable space group: P -1
;
_chemical_formula_sum "Si O2"
_cell_formula_units_Z 16
_cell_length_a 15.200141
_cell_length_b 9.485188
_cell_length_c 11.568521
_cell_angle_alpha 79.412641
_cell_angle_beta 27.069805
_cell_angle_gamma 87.269775
_cell_volume 720.590878
_symmetry_space_group_name_H-M "P -1"
_symmetry_group_IT_number 2
_symmetry_cell_setting 'triclinic'
loop_
_space_group_symop_operation_xyz
x,y,z
-x,-y,-z
loop_
_atom_site_type_symbol
_atom_site_label
_atom_site_fract_x
_atom_site_fract_y
_atom_site_fract_z
Si Si1 0.087874 0.896466 0.767554
Si Si2 0.070857 0.828587 0.052089
Si Si3 0.207473 0.475736 0.625294
Si Si4 0.349754 0.443203 0.949334
Si Si5 0.099107 0.164251 0.410785
Si Si6 0.398837 0.054835 0.219522
Si Si7 0.254821 0.741474 0.069057
Si Si8 0.158586 0.410451 0.948316
O O1 0.895258 0.764708 0.983461
O O2 0.269441 0.910544 0.462193
O O3 0.170552 0.876688 0.802490
O O4 0.006413 0.039993 0.823307
O O5 0.233313 0.784768 0.952938
O O6 0.871409 0.696269 0.289080
O O7 0.415282 0.541267 0.304549
O O8 0.042092 0.557992 0.766204
O O9 0.230534 0.500923 0.733190
O O10 0.218803 0.278606 0.158012
O O11 0.276135 0.573371 0.080693
O O12 0.334728 0.462743 0.826203
O O13 0.256313 0.154767 0.327435
O O14 0.938292 0.242264 0.638682
O O15 0.000000 0.000000 0.500000
O O16 0.553201 0.148332 0.116157
O O17 0.500000 0.000000 0.000000
#
# Coordination Sequence:
#
# PCOD8016612 Si02
#       8
#     2   2   2   2   2   2   2   2
#     4  10  22  42  73  98 135 182 224 281 344 403
#     4  10  21  45  70 100 136 177 221 286 351 394
#     4  10  22  43  66  99 139 176 223 282 336 410
#     4  12  26  41  70 102 132 185 227 276 344 407
#     4  12  27  49  69  96 139 179 231 283 337 408
#     4  12  26  44  69 102 136 180 232 279 332 413
#     4  12  26  45  70  99 142 176 227 291 338 404
#     4  10  22  41  68  97 139 176 222 283 339 399
#
# _framework density 22.204000000000001
#
# number of rings (size 3 to 8) (size 9 to 14) (size 15 to 20)
#    0.000    1.000    3.750    2.250    1.750    1.000 
#    0.000    0.000    0.000    0.000    0.000    0.000 
#    0.000    0.000    0.000    0.000    0.000    0.000 
#
# Total GULP energy -198382.879886 kJ/mol
# GULP energy per Si atom -12398.929993 kJ/mol
# Density = 2.215346 g / cm^3
# Si number density = 22.204000 Si / 1000 Ang^3
#
#
#
# Elastic Constant Matrix: (Units=GPa)
#
#
# Indices 1 2 3 4 5 6 
#
# 1 86.7734 2.0690 27.9109 0.8069 -7.1328 -1.2622
# 2 2.0690 109.4181 32.8304 2.1513 -1.1959 0.7723
# 3 27.9109 32.8304 105.1694 7.7261 1.6918 -5.2698
# 4 0.8069 2.1513 7.7261 32.0907 -1.3170 1.9790
# 5 -7.1328 -1.1959 1.6918 -1.3170 36.2468 1.5481
# 6 -1.2622 0.7723 -5.2698 1.9790 1.5481 29.1996
#
#
#
# Elastic Compliance Matrix: (Units=1/GPa)
#
#
# Indices 1 2 3 4 5 6 
#
# 1 0.012956 0.000927 -0.003840 0.000673 0.002799 -0.000351
# 2 0.000927 0.010181 -0.003498 0.000223 0.000729 -0.000914
# 3 -0.003840 -0.003498 0.011967 -0.002763 -0.001631 0.002360
# 4 0.000673 0.000223 -0.002763 0.032027 0.001549 -0.002728
# 5 0.002799 0.000729 -0.001631 0.001549 0.028373 -0.001802
# 6 -0.000351 -0.000914 0.002360 -0.002728 -0.001802 0.034962
#
#
# Mechanical properties :
#
#
# Convention : Reuss Voigt Hill
#
# Bulk Modulus (GPa) = 44.87885 47.44238 46.16062
# Shear Modulus (GPa) = 33.17505 35.41080 34.29293
#
# Velocity S-wave (km/s) = 3.86956 3.99782 3.93421
# Velocity P-wave (km/s) = 6.34197 6.53629 6.43986
#
# Compressibility (1/GPa) = 0.02228221
#
# Stress axis : x y z
#
# Youngs Moduli (GPa) = 77.18461 98.21846 83.56335
#
# Poissons Ratio (x) = -0.09105 0.32087
# Poissons Ratio (y) = -0.07155 0.29232
# Poissons Ratio (z) = 0.29638 0.34359
#
# Static dielectric constant tensor:
#      x y z
#    x 4.160320 0.012980 -0.039320 
#    y 0.012980 4.066460 0.073570 
#    z -0.039320 0.073570 4.025960 
# 
# 
# High freq. dielectric constant tensor:
#      x y z
#    x 1.878440 0.005160 0.002370 
#    y 0.005160 1.882040 0.000930 
#    z 0.002370 0.000930 1.864700 
# 
# From -- ./inp_files/447323.got.cif
#   From: 2010.06.25/outbox.cif.g09.slc.cpg/sg2_224_cif.got.tgz:447323.got - 2010.06.27 13:26:56.
