data_PCOD8016937
_publ_section_title
;
Structure prediction by ZEFSAII (Michael W. Deem and Ramdas Pophale) SiO2 
 PCOD8016937
Probable space group: P -1
;
_chemical_formula_sum "Si O2"
_cell_formula_units_Z 16
_cell_length_a 8.714508
_cell_length_b 22.130412
_cell_length_c 21.717523
_cell_angle_alpha 19.298623
_cell_angle_beta 143.678837
_cell_angle_gamma 133.626437
_cell_volume 764.895967
_symmetry_space_group_name_H-M "P -1"
_symmetry_group_IT_number 2
_symmetry_cell_setting 'triclinic'
loop_
_space_group_symop_operation_xyz
x,y,z
-x,-y,-z
loop_
_atom_site_type_symbol
_atom_site_label
_atom_site_fract_x
_atom_site_fract_y
_atom_site_fract_z
Si Si1 0.106173 0.951143 0.454359
Si Si2 0.623103 0.436989 0.033454
Si Si3 0.728504 0.559897 0.196625
Si Si4 0.506287 0.847518 0.567373
Si Si5 0.522809 0.920239 0.870808
Si Si6 0.316360 0.058551 0.963943
Si Si7 0.370297 0.331993 0.618612
Si Si8 0.700516 0.184961 0.596700
O O1 0.112462 0.759406 0.679436
O O2 0.266197 0.907940 0.483009
O O3 0.264354 0.054916 0.448546
O O4 0.785040 0.081340 0.215214
O O5 0.500000 0.500000 0.000000
O O6 0.417455 0.384007 0.970879
O O7 0.692180 0.615343 0.854759
O O8 0.613248 0.419560 0.335642
O O9 0.045954 0.439011 0.399686
O O10 0.689947 0.752501 0.038116
O O11 0.339079 0.906443 0.393408
O O12 0.696265 0.877262 0.031132
O O13 0.509459 0.129904 0.637882
O O14 0.509618 0.828229 0.242774
O O15 0.435931 0.203632 0.826072
O O16 0.016334 0.081192 0.819906
O O17 0.500000 0.500000 0.500000
#
# Coordination Sequence:
#
# PCOD8016937 Si02
#       8
#     2   2   2   2   2   2   2   2
#     4  10  22  37  60  91 123 160 207 253 309 367
#     4   9  19  37  61  85 117 159 205 253 299 359
#     4  10  23  40  61  92 126 164 206 257 314 371
#     4   9  20  40  62  87 119 162 208 259 301 364
#     4  12  25  39  62  96 130 164 202 257 317 376
#     4  10  24  40  64  93 126 163 212 256 305 375
#     4  10  22  41  65  94 121 164 212 258 305 368
#     4  10  22  41  65  83 128 168 203 256 315 361
#
# _framework density 20.917878000000002
#
# number of rings (size 3 to 8) (size 9 to 14) (size 15 to 20)
#    0.000    2.000    0.000    1.875    8.750    6.000 
#    4.500    2.500    0.000    0.000    0.000    0.000 
#    0.000    0.000    0.000    0.000    0.000    0.000 
#
# Total GULP energy -198313.352162 kJ/mol
# GULP energy per Si atom -12394.584510 kJ/mol
# Density = 2.087027 g / cm^3
# Si number density = 20.917878 Si / 1000 Ang^3
#
#
#
# Elastic Constant Matrix: (Units=GPa)
#
#
# Indices 1 2 3 4 5 6 
#
# 1 66.3335 48.3730 26.9092 2.5399 -13.4619 1.2625
# 2 48.3730 136.1485 43.2915 9.0354 -10.6760 -17.0368
# 3 26.9092 43.2915 83.4616 3.2574 -4.1146 -3.0069
# 4 2.5399 9.0354 3.2574 36.6398 3.1509 -5.0346
# 5 -13.4619 -10.6760 -4.1146 3.1509 27.2719 3.1139
# 6 1.2625 -17.0368 -3.0069 -5.0346 3.1139 39.1129
#
#
#
# Elastic Compliance Matrix: (Units=1/GPa)
#
#
# Indices 1 2 3 4 5 6 
#
# 1 0.023716 -0.007112 -0.003651 -0.001032 0.009062 -0.004998
# 2 -0.007112 0.011714 -0.003545 -0.001425 0.000149 0.004864
# 3 -0.003651 -0.003545 0.014951 -0.000157 -0.000890 -0.000226
# 4 -0.001032 -0.001425 -0.000157 0.028618 -0.004793 0.003466
# 5 0.009062 0.000149 -0.000890 -0.004793 0.042106 -0.004265
# 6 -0.004998 0.004864 -0.000226 0.003466 -0.004265 0.028615
#
#
# Mechanical properties :
#
#
# Convention : Reuss Voigt Hill
#
# Bulk Modulus (GPa) = 45.94131 58.12123 52.03127
# Shear Modulus (GPa) = 26.94104 31.76292 29.35198
#
# Velocity S-wave (km/s) = 3.59269 3.90097 3.75000
# Velocity P-wave (km/s) = 6.26261 6.93800 6.60894
#
# Compressibility (1/GPa) = 0.02176690
#
# Stress axis : x y z
#
# Youngs Moduli (GPa) = 42.16531 85.36925 66.88379
#
# Poissons Ratio (x) = 0.60714 0.24416
# Poissons Ratio (y) = 0.29987 0.23709
# Poissons Ratio (z) = 0.15393 0.30261
#
# Static dielectric constant tensor:
#      x y z
#    x 3.637230 0.011280 -0.289200 
#    y 0.011280 3.868250 -0.136940 
#    z -0.289200 -0.136940 4.033280 
# 
# 
# High freq. dielectric constant tensor:
#      x y z
#    x 1.803090 -0.003130 -0.016860 
#    y -0.003130 1.828210 -0.002060 
#    z -0.016860 -0.002060 1.824800 
# 
# From -- ./inp_files/591632.got.cif
#   From: 2010.06.25/outbox.cif.g09.slc.cpg/sg2_296_cif.got.tgz:591632.got - 2010.06.27 13:26:56.
