data_PCOD8016806
_publ_section_title
;
Structure prediction by ZEFSAII (Michael W. Deem and Ramdas Pophale) SiO2 
 PCOD8016806
Probable space group: P -1
;
_chemical_formula_sum "Si O2"
_cell_formula_units_Z 14
_cell_length_a 9.899710
_cell_length_b 5.189744
_cell_length_c 18.432978
_cell_angle_alpha 111.681833
_cell_angle_beta 125.296425
_cell_angle_gamma 75.341258
_cell_volume 717.276258
_symmetry_space_group_name_H-M "P -1"
_symmetry_group_IT_number 2
_symmetry_cell_setting 'triclinic'
loop_
_space_group_symop_operation_xyz
x,y,z
-x,-y,-z
loop_
_atom_site_type_symbol
_atom_site_label
_atom_site_fract_x
_atom_site_fract_y
_atom_site_fract_z
Si Si1 0.860709 0.233059 0.994017
Si Si2 0.921502 0.486300 0.806173
Si Si3 0.733511 0.083907 0.794239
Si Si4 0.610263 0.241097 0.035908
Si Si5 0.345446 0.034507 0.674951
Si Si6 0.162190 0.510533 0.598998
Si Si7 0.171225 0.463755 0.757270
O O1 0.768840 0.289124 0.894541
O O2 0.727421 0.118506 0.995953
O O3 0.943190 0.500379 0.084157
O O4 0.000000 0.000000 0.000000
O O5 0.793530 0.250165 0.759590
O O6 0.014438 0.394968 0.751213
O O7 0.830596 0.787084 0.799143
O O8 0.541162 0.030788 0.724554
O O9 0.719420 0.315426 0.146404
O O10 0.500000 0.500000 0.000000
O O11 0.500000 0.000000 0.000000
O O12 0.259084 0.206992 0.599019
O O13 0.286992 0.184338 0.748006
O O14 0.286073 0.723278 0.624450
O O15 0.110320 0.594665 0.674552
O O16 0.000000 0.500000 0.500000
#
# Coordination Sequence:
#
# PCOD8016806 Si02
#       7
#     2   2   2   2   2   2   2
#     4   9  21  36  53  78 116 163 199 228 274 341
#     4  10  22  36  54  83 118 159 194 232 283 338
#     4  11  21  36  57  82 119 155 195 237 281 339
#     4  11  24  36  55  85 123 154 194 245 287 330
#     4  10  22  37  64  89 114 145 199 242 301 342
#     4  10  22  40  66  90 113 145 198 249 299 359
#     4   9  24  36  63  85 118 153 202 234 294 348
#
# _framework density 19.518281999999999
#
# number of rings (size 3 to 8) (size 9 to 14) (size 15 to 20)
#    0.857    1.143    0.000    2.571    6.000    9.143 
#    0.000    0.000    0.000    5.143    0.000    0.000 
#    0.000    0.000    0.000    0.000    0.000    0.000 
#
# Total GULP energy -173510.465695 kJ/mol
# GULP energy per Si atom -12393.604693 kJ/mol
# Density = 1.947386 g / cm^3
# Si number density = 19.518282 Si / 1000 Ang^3
#
#
#
# Elastic Constant Matrix: (Units=GPa)
#
#
# Indices 1 2 3 4 5 6 
#
# 1 160.3313 57.0907 64.8982 2.7852 29.4438 14.9028
# 2 57.0907 97.0502 29.6545 -3.3246 10.0651 23.4625
# 3 64.8982 29.6545 97.8616 -17.8601 10.7696 14.6743
# 4 2.7852 -3.3246 -17.8601 23.4040 3.0151 6.8296
# 5 29.4438 10.0651 10.7696 3.0151 27.2746 4.9076
# 6 14.9028 23.4625 14.6743 6.8296 4.9076 36.7123
#
#
#
# Elastic Compliance Matrix: (Units=1/GPa)
#
#
# Indices 1 2 3 4 5 6 
#
# 1 0.012762 -0.005501 -0.008101 -0.008661 -0.008365 0.004303
# 2 -0.005501 0.015581 0.001562 0.006816 0.000563 -0.009692
# 3 -0.008101 0.001562 0.020033 0.019202 -0.000197 -0.009263
# 4 -0.008661 0.006816 0.019202 0.065834 -0.004395 -0.020175
# 5 -0.008365 0.000563 -0.000197 -0.004395 0.046460 -0.002278
# 6 0.004303 -0.009692 -0.009263 -0.020175 -0.002278 0.039447
#
#
# Mechanical properties :
#
#
# Convention : Reuss Voigt Hill
#
# Bulk Modulus (GPa) = 41.16155 73.16999 57.16577
# Shear Modulus (GPa) = 21.52435 31.05149 26.28792
#
# Velocity S-wave (km/s) = 3.32441 3.99293 3.67391
# Velocity P-wave (km/s) = 5.98917 7.66989 6.88104
#
# Compressibility (1/GPa) = 0.02429452
#
# Stress axis : x y z
#
# Youngs Moduli (GPa) = 78.35860 64.18044 49.91823
#
# Poissons Ratio (x) = 0.35307 0.40441
# Poissons Ratio (y) = 0.43107 -0.07798
# Poissons Ratio (z) = 0.63482 -0.10026
#
# Static dielectric constant tensor:
#      x y z
#    x 3.701190 -0.012890 0.036710 
#    y -0.012890 3.364530 -0.052650 
#    z 0.036710 -0.052650 3.497430 
# 
# 
# High freq. dielectric constant tensor:
#      x y z
#    x 1.770760 0.005160 0.012130 
#    y 0.005160 1.752270 -0.005050 
#    z 0.012130 -0.005050 1.735940 
# 
# From -- ./inp_files/81260.got.cif
#   From: 2010.06.25/outbox.cif.g09.slc.cpg/sg2_41_cif.got.tgz:81260.got - 2010.06.27 13:26:56.
