data_PCOD8016500
_publ_section_title
;
Structure prediction by ZEFSAII (Michael W. Deem and Ramdas Pophale) SiO2 
 PCOD8016500
Probable space group: P -1
;
_chemical_formula_sum "Si O2"
_cell_formula_units_Z 12
_cell_length_a 6.204126
_cell_length_b 17.797339
_cell_length_c 4.938754
_cell_angle_alpha 100.529896
_cell_angle_beta 80.823930
_cell_angle_gamma 82.565090
_cell_volume 522.168655
_symmetry_space_group_name_H-M "P -1"
_symmetry_group_IT_number 2
_symmetry_cell_setting 'triclinic'
loop_
_space_group_symop_operation_xyz
x,y,z
-x,-y,-z
loop_
_atom_site_type_symbol
_atom_site_label
_atom_site_fract_x
_atom_site_fract_y
_atom_site_fract_z
Si Si1 0.414533 0.619733 0.464109
Si Si2 0.983047 0.724508 0.641308
Si Si3 0.051871 0.096741 0.296421
Si Si4 0.225610 0.334419 0.871878
Si Si5 0.772679 0.524666 0.715793
Si Si6 0.733442 0.980830 0.290902
O O1 0.203820 0.671670 0.681260
O O2 0.519913 0.678990 0.287695
O O3 0.598823 0.585894 0.622130
O O4 0.339617 0.550748 0.251794
O O5 0.015438 0.812407 0.668017
O O6 0.936682 0.690535 0.336725
O O7 0.789504 0.715862 0.887637
O O8 0.114538 0.078483 0.582021
O O9 0.257413 0.063071 0.030729
O O10 0.832965 0.058868 0.259303
O O11 0.168918 0.428284 0.998152
O O12 0.000000 0.500000 0.500000
O O13 0.500000 0.000000 0.500000
#
# Coordination Sequence:
#
# PCOD8016500 Si02
#       6
#     2   2   2   2   2   2
#     4  11  25  43  70  96 129 182 231 279 344 386
#     4  12  27  43  67  99 144 172 218 280 340 397
#     4  10  23  42  67 103 135 171 217 270 320 395
#     4  12  25  46  63  99 133 178 225 279 338 395
#     4  11  23  47  69  94 130 179 236 289 324 398
#     4  10  21  44  73 100 130 175 220 260 321 394
#
# _framework density 22.981078
#
# number of rings (size 3 to 8) (size 9 to 14) (size 15 to 20)
#    0.000    1.000    3.333    2.000    2.333    5.333 
#    0.000    0.000    0.000    0.000    0.000    0.000 
#    0.000    0.000    0.000    0.000    0.000    0.000 
#
# Total GULP energy -148750.686967 kJ/mol
# GULP energy per Si atom -12395.890581 kJ/mol
# Density = 2.292877 g / cm^3
# Si number density = 22.981078 Si / 1000 Ang^3
#
#
#
# Elastic Constant Matrix: (Units=GPa)
#
#
# Indices 1 2 3 4 5 6 
#
# 1 80.2261 51.6577 34.3076 13.2778 -9.5445 14.9709
# 2 51.6577 163.9314 41.8941 4.3939 -6.4115 15.0190
# 3 34.3076 41.8941 113.7295 -1.2440 0.3388 12.9071
# 4 13.2778 4.3939 -1.2440 33.9986 4.3010 -3.4314
# 5 -9.5445 -6.4115 0.3388 4.3010 32.5783 -6.4877
# 6 14.9709 15.0190 12.9071 -3.4314 -6.4877 23.4078
#
#
#
# Elastic Compliance Matrix: (Units=1/GPa)
#
#
# Indices 1 2 3 4 5 6 
#
# 1 0.020425 -0.004295 -0.003756 -0.008988 0.004722 -0.008245
# 2 -0.004295 0.007950 -0.001458 0.000451 -0.000036 -0.001493
# 3 -0.003756 -0.001458 0.010832 0.002049 -0.002366 -0.002990
# 4 -0.008988 0.000451 0.002049 0.034433 -0.005551 0.007839
# 5 0.004722 -0.000036 -0.002366 -0.005551 0.034219 0.006978
# 6 -0.008245 -0.001493 -0.002990 0.007839 0.006978 0.053684
#
#
# Mechanical properties :
#
#
# Convention : Reuss Voigt Hill
#
# Bulk Modulus (GPa) = 49.53545 68.17844 58.85695
# Shear Modulus (GPa) = 26.69658 33.33211 30.01435
#
# Velocity S-wave (km/s) = 3.41204 3.81256 3.61785
# Velocity P-wave (km/s) = 6.09297 7.00803 6.56646
#
# Compressibility (1/GPa) = 0.02018756
#
# Stress axis : x y z
#
# Youngs Moduli (GPa) = 48.96042 125.79183 92.32156
#
# Poissons Ratio (x) = 0.54032 0.34673
# Poissons Ratio (y) = 0.21030 0.13462
# Poissons Ratio (z) = 0.18388 0.18342
#
# Static dielectric constant tensor:
#      x y z
#    x 4.162370 0.316460 -0.008600 
#    y 0.316460 4.068590 -0.058720 
#    z -0.008600 -0.058720 4.336000 
# 
# 
# High freq. dielectric constant tensor:
#      x y z
#    x 1.901170 0.023460 -0.004350 
#    y 0.023460 1.897420 -0.008860 
#    z -0.004350 -0.008860 1.918250 
# 
# From -- ./inp_files/6995.got.cif
#   From: 2010.06.25/outbox.cif.g09.slc.cpg/sg2_4_cif.got.tgz:6995.got - 2010.06.27 13:26:56.
