data_PCOD8016770
_publ_section_title
;
Structure prediction by ZEFSAII (Michael W. Deem and Ramdas Pophale) SiO2 
 PCOD8016770
Probable space group: P -1
;
_chemical_formula_sum "Si O2"
_cell_formula_units_Z 16
_cell_length_a 11.806325
_cell_length_b 7.788451
_cell_length_c 13.302843
_cell_angle_alpha 43.514546
_cell_angle_beta 120.413705
_cell_angle_gamma 101.342437
_cell_volume 695.776507
_symmetry_space_group_name_H-M "P -1"
_symmetry_group_IT_number 2
_symmetry_cell_setting 'triclinic'
loop_
_space_group_symop_operation_xyz
x,y,z
-x,-y,-z
loop_
_atom_site_type_symbol
_atom_site_label
_atom_site_fract_x
_atom_site_fract_y
_atom_site_fract_z
Si Si1 0.580990 0.622775 0.206249
Si Si2 0.074443 0.231481 0.593496
Si Si3 0.955762 0.725039 0.016053
Si Si4 0.701261 0.040689 0.047704
Si Si5 0.780158 0.194975 0.816359
Si Si6 0.929895 0.846681 0.727858
Si Si7 0.322504 0.309452 0.558911
Si Si8 0.381341 0.979610 0.533202
O O1 0.593265 0.702784 0.295425
O O2 0.618290 0.318781 0.330828
O O3 0.683387 0.753386 0.137198
O O4 0.430309 0.772309 0.033492
O O5 0.170055 0.275647 0.526354
O O6 0.000000 0.500000 0.500000
O O7 0.165081 0.012048 0.802163
O O8 0.957971 0.088222 0.575095
O O9 0.073827 0.750845 0.133100
O O10 0.966920 0.421778 0.151525
O O11 0.966947 0.852174 0.859150
O O12 0.807609 0.896130 0.918296
O O13 0.707192 0.218548 0.879865
O O14 0.687837 0.404597 0.610172
O O15 0.769860 0.853087 0.642854
O O16 0.402440 0.093251 0.604886
O O17 0.500000 0.000000 0.500000
#
# Coordination Sequence:
#
# PCOD8016770 Si02
#       8
#     2   2   2   2   2   2   2   2
#     4  10  24  45  66  95 133 177 228 267 333 392
#     4  11  23  42  72  98 139 173 213 281 347 397
#     4  10  22  34  62  93 129 162 217 271 328 399
#     4  10  22  42  68  93 130 178 215 273 327 401
#     4  11  20  39  62  95 130 169 216 268 336 389
#     4  11  22  41  60  99 130 172 219 271 340 395
#     4  11  25  44  68 105 133 176 227 277 329 404
#     4  12  26  43  67  97 137 179 225 278 330 396
#
# _framework density 22.995891
#
# number of rings (size 3 to 8) (size 9 to 14) (size 15 to 20)
#    0.000    1.250    2.500    3.750    1.750    4.500 
#    0.000    5.625    0.000    0.000    0.000    0.000 
#    0.000    0.000    0.000    0.000    0.000    0.000 
#
# Total GULP energy -198243.847225 kJ/mol
# GULP energy per Si atom -12390.240452 kJ/mol
# Density = 2.294355 g / cm^3
# Si number density = 22.995891 Si / 1000 Ang^3
#
#
#
# Elastic Constant Matrix: (Units=GPa)
#
#
# Indices 1 2 3 4 5 6 
#
# 1 90.6319 17.0084 17.2060 -6.5823 -9.4451 -5.7186
# 2 17.0084 88.5449 22.5529 -19.4959 8.5150 -15.4689
# 3 17.2060 22.5529 101.1792 -8.2313 -4.6231 -1.0861
# 4 -6.5823 -19.4959 -8.2313 33.9001 5.0485 1.3161
# 5 -9.4451 8.5150 -4.6231 5.0485 35.0084 -4.2248
# 6 -5.7186 -15.4689 -1.0861 1.3161 -4.2248 30.9662
#
#
#
# Elastic Compliance Matrix: (Units=1/GPa)
#
#
# Indices 1 2 3 4 5 6 
#
# 1 0.012194 -0.001987 -0.001420 0.000255 0.003755 0.001711
# 2 -0.001987 0.015872 -0.002668 0.008624 -0.005222 0.006389
# 3 -0.001420 -0.002668 0.010828 0.000639 0.001478 -0.001041
# 4 0.000255 0.008624 0.000639 0.035607 -0.006847 0.001930
# 5 0.003755 -0.005222 0.001478 -0.006847 0.032374 0.002845
# 6 0.001711 0.006389 -0.001041 0.001930 0.002845 0.036071
#
#
# Mechanical properties :
#
#
# Convention : Reuss Voigt Hill
#
# Bulk Modulus (GPa) = 37.39218 43.76563 40.57891
# Shear Modulus (GPa) = 30.48575 34.88084 32.68330
#
# Velocity S-wave (km/s) = 3.64497 3.89887 3.77406
# Velocity P-wave (km/s) = 5.83182 6.27228 6.05606
#
# Compressibility (1/GPa) = 0.02674356
#
# Stress axis : x y z
#
# Youngs Moduli (GPa) = 82.00822 63.00319 92.35216
#
# Poissons Ratio (x) = 0.12517 0.13115
# Poissons Ratio (y) = 0.16293 0.24644
# Poissons Ratio (z) = 0.11646 0.16812
#
# Static dielectric constant tensor:
#      x y z
#    x 4.233090 -0.007410 0.057560 
#    y -0.007410 4.129160 -0.175580 
#    z 0.057560 -0.175580 4.188410 
# 
# 
# High freq. dielectric constant tensor:
#      x y z
#    x 1.904940 0.005980 0.001750 
#    y 0.005980 1.890710 -0.016140 
#    z 0.001750 -0.016140 1.919580 
# 
# From -- ./inp_files/513968.got.cif
#   From: 2010.06.25/outbox.cif.g09.slc.cpg/sg2_257_cif.got.tgz:513968.got - 2010.06.27 13:26:56.
