data_PCOD8016157
_publ_section_title
;
Structure prediction by ZEFSAII (Michael W. Deem and Ramdas Pophale) SiO2 
 PCOD8016157
Probable space group: P -1
;
_chemical_formula_sum "Si O2"
_cell_formula_units_Z 12
_cell_length_a 11.574047
_cell_length_b 5.027203
_cell_length_c 14.261380
_cell_angle_alpha 81.570889
_cell_angle_beta 50.873135
_cell_angle_gamma 116.678983
_cell_volume 451.188147
_symmetry_space_group_name_H-M "P -1"
_symmetry_group_IT_number 2
_symmetry_cell_setting 'triclinic'
loop_
_space_group_symop_operation_xyz
x,y,z
-x,-y,-z
loop_
_atom_site_type_symbol
_atom_site_label
_atom_site_fract_x
_atom_site_fract_y
_atom_site_fract_z
Si Si1 0.943334 0.576592 0.367706
Si Si2 0.728821 0.355712 0.090358
Si Si3 0.764753 0.637708 0.608353
Si Si4 0.612218 0.643651 0.272271
Si Si5 0.889528 0.064118 0.272379
Si Si6 0.607209 0.754385 0.842263
O O1 0.785125 0.382655 0.550892
O O2 0.859899 0.276018 0.346378
O O3 0.966143 0.907334 0.299696
O O4 0.179124 0.805179 0.268675
O O5 0.730133 0.534875 0.175044
O O6 0.535299 0.199658 0.133160
O O7 0.693031 0.003485 0.153860
O O8 0.945233 0.654991 0.908362
O O9 0.644873 0.686415 0.591174
O O10 0.632388 0.517261 0.776974
O O11 0.000000 0.000000 0.500000
O O12 0.669211 0.733542 0.348475
O O13 0.500000 0.500000 0.000000
#
# Coordination Sequence:
#
# PCOD8016157 Si02
#       6
#     2   2   2   2   2   2
#     4  11  25  42  66 101 137 175 217 272 331 395
#     4  11  23  41  68 100 136 169 225 279 328 384
#     4   9  23  45  67  97 135 174 220 274 332 391
#     4  11  24  43  68  98 133 180 218 273 334 388
#     4  12  24  41  68  98 139 175 221 268 329 404
#     4  10  21  43  71  96 130 172 225 274 326 384
#
# _framework density 26.596444000000002
#
# number of rings (size 3 to 8) (size 9 to 14) (size 15 to 20)
#    0.000    1.333    1.667    3.000    2.333    8.667 
#    0.000    8.333    0.000    0.000    0.000    0.000 
#    0.000    0.000    0.000    0.000    0.000    0.000 
#
# Total GULP energy -148665.344073 kJ/mol
# GULP energy per Si atom -12388.778673 kJ/mol
# Density = 2.653591 g / cm^3
# Si number density = 26.596444 Si / 1000 Ang^3
#
#
#
# Elastic Constant Matrix: (Units=GPa)
#
#
# Indices 1 2 3 4 5 6 
#
# 1 88.0911 19.1661 10.3294 6.6869 -9.3138 39.0861
# 2 19.1661 123.8508 46.5159 50.5075 -2.0512 19.8964
# 3 10.3294 46.5159 104.2218 36.2325 -23.3549 14.7778
# 4 6.6869 50.5075 36.2325 50.9514 -3.4334 14.0161
# 5 -9.3138 -2.0512 -23.3549 -3.4334 31.0973 -0.9483
# 6 39.0861 19.8964 14.7778 14.0161 -0.9483 61.0840
#
#
#
# Elastic Compliance Matrix: (Units=1/GPa)
#
#
# Indices 1 2 3 4 5 6 
#
# 1 0.016970 -0.002296 0.001342 0.002494 0.005881 -0.010917
# 2 -0.002296 0.014356 -0.002602 -0.012342 -0.003052 0.000207
# 3 0.001342 -0.002602 0.016177 -0.007789 0.011460 -0.001959
# 4 0.002494 -0.012342 -0.007789 0.038181 -0.001838 -0.004481
# 5 0.005881 -0.003052 0.011460 -0.001838 0.041985 -0.004468
# 6 -0.010917 0.000207 -0.001959 -0.004481 -0.004468 0.024722
#
#
# Mechanical properties :
#
#
# Convention : Reuss Voigt Hill
#
# Bulk Modulus (GPa) = 24.75875 52.02070 38.38973
# Shear Modulus (GPa) = 28.90701 44.63668 36.77185
#
# Velocity S-wave (km/s) = 3.30036 4.10114 3.72235
# Velocity P-wave (km/s) = 4.88389 6.48287 5.73934
#
# Compressibility (1/GPa) = 0.04038976
#
# Stress axis : x y z
#
# Youngs Moduli (GPa) = 58.92641 69.65599 61.81579
#
# Poissons Ratio (x) = 0.15993 -0.08293
# Poissons Ratio (y) = 0.13530 0.16087
# Poissons Ratio (z) = -0.07905 0.18128
#
# Static dielectric constant tensor:
#      x y z
#    x 6.374060 -0.356110 0.019610 
#    y -0.356110 5.544280 -0.006470 
#    z 0.019610 -0.006470 5.354150 
# 
# 
# High freq. dielectric constant tensor:
#      x y z
#    x 2.081700 0.017910 -0.007200 
#    y 0.017910 2.069960 0.018080 
#    z -0.007200 0.018080 2.081350 
# 
# From -- ./inp_files/30070.got.cif
#   From: 2010.06.25/outbox.cif.g09.slc.cpg/sg2_16_cif.got.tgz:30070.got - 2010.06.27 13:26:56.
