data_PCOD8016004
_publ_section_title
;
Structure prediction by ZEFSAII (Michael W. Deem and Ramdas Pophale) SiO2 
 PCOD8016004
Probable space group: P -1
;
_chemical_formula_sum "Si O2"
_cell_formula_units_Z 16
_cell_length_a 17.442758
_cell_length_b 8.520387
_cell_length_c 6.873197
_cell_angle_alpha 103.868350
_cell_angle_beta 135.442192
_cell_angle_gamma 76.296264
_cell_volume 692.527630
_symmetry_space_group_name_H-M "P -1"
_symmetry_group_IT_number 2
_symmetry_cell_setting 'triclinic'
loop_
_space_group_symop_operation_xyz
x,y,z
-x,-y,-z
loop_
_atom_site_type_symbol
_atom_site_label
_atom_site_fract_x
_atom_site_fract_y
_atom_site_fract_z
Si Si1 0.862730 0.210146 0.174496
Si Si2 0.674850 0.624286 0.550700
Si Si3 0.980402 0.698373 0.818248
Si Si4 0.805348 0.901943 0.791329
Si Si5 0.642265 0.358575 0.701835
Si Si6 0.151679 0.587934 0.419376
Si Si7 0.549690 0.334015 0.943034
Si Si8 0.602376 0.092820 0.277627
O O1 0.849397 0.260653 0.390541
O O2 0.979210 0.247442 0.304639
O O3 0.771287 0.305421 0.901590
O O4 0.842554 0.020586 0.061490
O O5 0.769265 0.743763 0.794679
O O6 0.628057 0.534765 0.627363
O O7 0.724055 0.484842 0.441605
O O8 0.567230 0.742332 0.325830
O O9 0.910424 0.851936 0.833414
O O10 0.905013 0.551923 0.609492
O O11 0.085313 0.643636 0.124178
O O12 0.709408 0.974969 0.493460
O O13 0.612986 0.376938 0.878401
O O14 0.572636 0.221723 0.437766
O O15 0.500000 0.500000 0.000000
O O16 0.628899 0.207983 0.176826
O O17 0.500000 0.000000 0.000000
#
# Coordination Sequence:
#
# PCOD8016004 Si02
#       8
#     2   2   2   2   2   2   2   2
#     4  11  22  41  66 101 135 173 223 275 339 389
#     4  11  21  44  66  97 136 174 229 271 330 397
#     4  10  21  43  68  96 136 171 223 274 334 398
#     4  10  24  42  69 102 137 178 217 281 338 399
#     4  11  25  42  70  99 133 180 228 277 326 402
#     4  10  22  40  71  96 130 178 221 279 327 397
#     4  12  24  42  70  96 129 179 231 274 333 396
#     4  11  24  46  67  97 139 177 220 282 342 391
#
# _framework density 23.103773
#
# number of rings (size 3 to 8) (size 9 to 14) (size 15 to 20)
#    0.000    1.250    3.750    1.875    0.000    1.000 
#    0.000    2.500    5.500    0.000    0.000    0.000 
#    0.000    0.000    0.000    0.000    0.000    0.000 
#
# Total GULP energy -198298.907688 kJ/mol
# GULP energy per Si atom -12393.681730 kJ/mol
# Density = 2.305119 g / cm^3
# Si number density = 23.103773 Si / 1000 Ang^3
#
#
#
# Elastic Constant Matrix: (Units=GPa)
#
#
# Indices 1 2 3 4 5 6 
#
# 1 108.3487 39.8696 25.6477 5.6036 -16.7435 3.1553
# 2 39.8696 105.5649 27.3363 10.0169 -14.0856 -0.6926
# 3 25.6477 27.3363 53.8504 9.9395 -17.1411 2.3229
# 4 5.6036 10.0169 9.9395 35.4282 -8.0955 3.8512
# 5 -16.7435 -14.0856 -17.1411 -8.0955 35.3460 -4.1020
# 6 3.1553 -0.6926 2.3229 3.8512 -4.1020 34.9204
#
#
#
# Elastic Compliance Matrix: (Units=1/GPa)
#
#
# Indices 1 2 3 4 5 6 
#
# 1 0.011572 -0.003275 -0.003061 0.000658 0.002767 -0.000655
# 2 -0.003275 0.012041 -0.003952 -0.001651 0.001081 0.001107
# 3 -0.003061 -0.003952 0.025391 -0.003578 0.008457 -0.000103
# 4 0.000658 -0.001651 -0.003578 0.030961 0.004694 -0.002717
# 5 0.002767 0.001081 0.008457 0.004694 0.035542 0.002866
# 6 -0.000655 0.001107 -0.000103 -0.002717 0.002866 0.029361
#
#
# Mechanical properties :
#
#
# Convention : Reuss Voigt Hill
#
# Bulk Modulus (GPa) = 35.17708 50.38571 42.78139
# Shear Modulus (GPa) = 28.58453 32.79961 30.69207
#
# Velocity S-wave (km/s) = 3.52123 3.77193 3.64874
# Velocity P-wave (km/s) = 5.63834 6.38950 6.02564
#
# Compressibility (1/GPa) = 0.02842760
#
# Stress axis : x y z
#
# Youngs Moduli (GPa) = 86.41606 83.04762 39.38443
#
# Poissons Ratio (x) = 0.27201 0.12057
# Poissons Ratio (y) = 0.28304 0.15563
# Poissons Ratio (z) = 0.26455 0.32816
#
# Static dielectric constant tensor:
#      x y z
#    x 4.427850 -0.146010 0.586950 
#    y -0.146010 4.234450 -0.039620 
#    z 0.586950 -0.039620 4.345590 
# 
# 
# High freq. dielectric constant tensor:
#      x y z
#    x 1.918980 0.000630 0.018650 
#    y 0.000630 1.915000 0.004520 
#    z 0.018650 0.004520 1.905900 
# 
# From -- ./inp_files/107291.got.cif
#   From: 2010.06.25/outbox.cif.g09.slc.cpg/sg2_54_cif.got.tgz:107291.got - 2010.06.27 13:26:56.
