data_PCOD8016626
_publ_section_title
;
Structure prediction by ZEFSAII (Michael W. Deem and Ramdas Pophale) SiO2 
 PCOD8016626
Probable space group: P -1
;
_chemical_formula_sum "Si O2"
_cell_formula_units_Z 12
_cell_length_a 7.174185
_cell_length_b 19.019838
_cell_length_c 4.884723
_cell_angle_alpha 41.417149
_cell_angle_beta 72.159200
_cell_angle_gamma 69.265317
_cell_volume 411.473248
_symmetry_space_group_name_H-M "P -1"
_symmetry_group_IT_number 2
_symmetry_cell_setting 'triclinic'
loop_
_space_group_symop_operation_xyz
x,y,z
-x,-y,-z
loop_
_atom_site_type_symbol
_atom_site_label
_atom_site_fract_x
_atom_site_fract_y
_atom_site_fract_z
Si Si1 0.534220 0.607906 0.308482
Si Si2 0.893115 0.565440 0.610160
Si Si3 0.778798 0.757338 0.421965
Si Si4 0.224354 0.812192 0.904467
Si Si5 0.893291 0.899472 0.408376
Si Si6 0.603724 0.094566 0.949731
O O1 0.500000 0.500000 0.500000
O O2 0.653656 0.574661 0.637959
O O3 0.669330 0.672131 0.875457
O O4 0.316482 0.683364 0.235400
O O5 0.912831 0.689372 0.315553
O O6 0.000000 0.500000 0.500000
O O7 0.000000 0.500000 0.000000
O O8 0.916042 0.807031 0.432560
O O9 0.628087 0.852802 0.048933
O O10 0.353477 0.875595 0.468768
O O11 0.990201 0.845294 0.809984
O O12 0.246178 0.852147 0.086030
O O13 0.657156 0.962685 0.350575
O O14 0.000000 0.000000 0.000000
#
# Coordination Sequence:
#
# PCOD8016626 Si02
#       6
#     2   2   2   2   2   2
#     4  11  26  48  72 107 146 192 243 303 363 432
#     4  12  26  50  73 107 144 196 246 304 363 433
#     4  11  24  49  74 108 149 193 240 303 363 432
#     4  10  22  44  68 105 143 187 237 294 356 429
#     4  10  23  46  72 110 145 192 241 297 359 437
#     4  10  21  45  71 103 143 188 236 295 357 425
#
# _framework density 29.163501
#
# number of rings (size 3 to 8) (size 9 to 14) (size 15 to 20)
#    0.000    1.333    3.333    1.000    2.333    0.667 
#   18.000    5.000    0.000    0.000    0.000    0.000 
#    0.000    0.000    0.000    0.000    0.000    0.000 
#
# Total GULP energy -148661.642845 kJ/mol
# GULP energy per Si atom -12388.470237 kJ/mol
# Density = 2.909712 g / cm^3
# Si number density = 29.163501 Si / 1000 Ang^3
#
#
#
# Elastic Constant Matrix: (Units=GPa)
#
#
# Indices 1 2 3 4 5 6 
#
# 1 168.8411 60.5146 76.6250 -15.3110 60.8421 16.6346
# 2 60.5146 221.1888 32.9157 -34.3934 13.5505 27.2954
# 3 76.6250 32.9157 104.7117 -2.4357 20.4780 28.7343
# 4 -15.3110 -34.3934 -2.4357 55.8352 2.4594 13.0559
# 5 60.8421 13.5505 20.4780 2.4594 68.3653 -9.5123
# 6 16.6346 27.2954 28.7343 13.0559 -9.5123 54.8339
#
#
#
# Elastic Compliance Matrix: (Units=1/GPa)
#
#
# Indices 1 2 3 4 5 6 
#
# 1 0.013936 -0.001180 -0.006883 0.003921 -0.010639 -0.002812
# 2 -0.001180 0.006034 0.000375 0.004402 -0.000982 -0.004061
# 3 -0.006883 0.000375 0.016295 0.000624 0.000209 -0.006750
# 4 0.003921 0.004402 0.000624 0.024543 -0.006928 -0.010753
# 5 -0.010639 -0.000982 0.000209 -0.006928 0.025832 0.009737
# 6 -0.002812 -0.004061 -0.006750 -0.010753 0.009737 0.028898
#
#
# Mechanical properties :
#
#
# Convention : Reuss Voigt Hill
#
# Bulk Modulus (GPa) = 47.87229 92.76135 70.31682
# Shear Modulus (GPa) = 36.26434 57.45262 46.85848
#
# Velocity S-wave (km/s) = 3.53013 4.44330 4.01278
# Velocity P-wave (km/s) = 5.75035 7.62891 6.75525
#
# Compressibility (1/GPa) = 0.02088891
#
# Stress axis : x y z
#
# Youngs Moduli (GPa) = 71.75711 165.73472 61.36833
#
# Poissons Ratio (x) = 0.19555 0.42243
# Poissons Ratio (y) = 0.08467 -0.02304
# Poissons Ratio (z) = 0.49394 -0.06223
#
# Static dielectric constant tensor:
#      x y z
#    x 6.285590 -0.404410 0.850110 
#    y -0.404410 5.669840 -0.613410 
#    z 0.850110 -0.613410 6.225210 
# 
# 
# High freq. dielectric constant tensor:
#      x y z
#    x 2.204460 -0.000490 0.020310 
#    y -0.000490 2.204170 -0.009170 
#    z 0.020310 -0.009170 2.208460 
# 
# From -- ./inp_files/40462.got.cif
#   From: 2010.06.25/outbox.cif.g09.slc.cpg/sg2_21_cif.got.tgz:40462.got - 2010.06.27 13:26:56.
