data_PCOD8016636
_publ_section_title
;
Structure prediction by ZEFSAII (Michael W. Deem and Ramdas Pophale) SiO2 
 PCOD8016636
Probable space group: P -1
;
_chemical_formula_sum "Si O2"
_cell_formula_units_Z 16
_cell_length_a 10.033255
_cell_length_b 15.697099
_cell_length_c 10.119976
_cell_angle_alpha 146.838211
_cell_angle_beta 78.616531
_cell_angle_gamma 118.281207
_cell_volume 699.000650
_symmetry_space_group_name_H-M "P -1"
_symmetry_group_IT_number 2
_symmetry_cell_setting 'triclinic'
loop_
_space_group_symop_operation_xyz
x,y,z
-x,-y,-z
loop_
_atom_site_type_symbol
_atom_site_label
_atom_site_fract_x
_atom_site_fract_y
_atom_site_fract_z
Si Si1 0.570279 0.605819 0.319144
Si Si2 0.679001 0.015983 0.750421
Si Si3 0.265578 0.480458 0.046713
Si Si4 0.924262 0.108612 0.605410
Si Si5 0.319224 0.812357 0.602042
Si Si6 0.887775 0.037832 0.217527
Si Si7 0.231111 0.321945 0.383626
Si Si8 0.808608 0.374449 0.347933
O O1 0.659197 0.829234 0.567034
O O2 0.377052 0.481134 0.147217
O O3 0.598055 0.588817 0.448159
O O4 0.663161 0.531904 0.122305
O O5 0.504336 0.991747 0.764886
O O6 0.754758 0.049422 0.633029
O O7 0.799307 0.203368 0.053602
O O8 0.273069 0.672393 0.304848
O O9 0.069464 0.325140 0.891006
O O10 0.869376 0.054821 0.396913
O O11 0.000000 0.000000 0.500000
O O12 0.305702 0.702580 0.597892
O O13 0.203725 0.883917 0.739468
O O14 0.794154 0.813956 0.910086
O O15 0.080566 0.176382 0.322238
O O16 0.237305 0.503732 0.570208
O O17 0.000000 0.500000 0.500000
#
# Coordination Sequence:
#
# PCOD8016636 Si02
#       8
#     2   2   2   2   2   2   2   2
#     4  10  21  45  71  99 141 186 221 288 350 408
#     4  11  25  45  67  97 144 189 229 284 351 412
#     4  10  22  40  72  99 137 180 232 278 344 415
#     4  12  24  42  73 104 134 188 231 287 345 417
#     4  11  25  46  67 100 143 189 225 291 349 413
#     4  11  25  44  71 102 145 180 232 286 355 411
#     4  11  24  44  72 108 137 180 235 292 342 422
#     4  12  25  42  72 104 139 183 235 287 350 416
#
# _framework density 22.889823
#
# number of rings (size 3 to 8) (size 9 to 14) (size 15 to 20)
#    0.000    1.000    3.750    1.875    5.250    3.000 
#    2.250    3.125    0.000    0.000    0.000    0.000 
#    0.000    0.000    0.000    0.000    0.000    0.000 
#
# Total GULP energy -198304.202315 kJ/mol
# GULP energy per Si atom -12394.012645 kJ/mol
# Density = 2.283772 g / cm^3
# Si number density = 22.889823 Si / 1000 Ang^3
#
#
#
# Elastic Constant Matrix: (Units=GPa)
#
#
# Indices 1 2 3 4 5 6 
#
# 1 75.8118 28.2404 23.1282 -15.5289 11.9270 4.8405
# 2 28.2404 89.7883 46.2302 -13.6402 14.4225 1.2508
# 3 23.1282 46.2302 146.2967 -16.1313 0.4834 -3.7356
# 4 -15.5289 -13.6402 -16.1313 17.1760 -4.2404 2.5127
# 5 11.9270 14.4225 0.4834 -4.2404 44.3080 1.2732
# 6 4.8405 1.2508 -3.7356 2.5127 1.2732 37.8025
#
#
#
# Elastic Compliance Matrix: (Units=1/GPa)
#
#
# Indices 1 2 3 4 5 6 
#
# 1 0.017670 -0.002870 -0.000517 0.013037 -0.002483 -0.003002
# 2 -0.002870 0.015419 -0.003848 0.005236 -0.003682 -0.000747
# 3 -0.000517 -0.003848 0.008693 0.004977 0.001754 0.000663
# 4 0.013037 0.005236 0.004977 0.080482 0.002630 -0.006789
# 5 -0.002483 -0.003682 0.001754 0.002630 0.024680 -0.000393
# 6 -0.003002 -0.000747 0.000663 -0.006789 -0.000393 0.027392
#
#
# Mechanical properties :
#
#
# Convention : Reuss Voigt Hill
#
# Bulk Modulus (GPa) = 36.61621 56.34381 46.48001
# Shear Modulus (GPa) = 25.26391 34.14383 29.70387
#
# Velocity S-wave (km/s) = 3.32583 3.86639 3.60625
# Velocity P-wave (km/s) = 5.54794 6.67837 6.13923
#
# Compressibility (1/GPa) = 0.02731031
#
# Stress axis : x y z
#
# Youngs Moduli (GPa) = 56.59247 64.85690 115.03323
#
# Poissons Ratio (x) = 0.18615 0.05953
# Poissons Ratio (y) = 0.16243 0.44266
# Poissons Ratio (z) = 0.02929 0.24958
#
# Static dielectric constant tensor:
#      x y z
#    x 3.558150 -1.064280 -0.603190 
#    y -1.064280 2.474700 -0.785390 
#    z -0.603190 -0.785390 4.123300 
# 
# 
# High freq. dielectric constant tensor:
#      x y z
#    x 1.902720 0.013780 -0.003450 
#    y 0.013780 1.885260 -0.001860 
#    z -0.003450 -0.001860 1.929410 
# 
# From -- ./inp_files/274642.got.cif
#   From: 2010.06.25/outbox.cif.g09.slc.cpg/sg2_138_cif.got.tgz:274642.got - 2010.06.27 13:26:56.
