data_PCOD8016885
_publ_section_title
;
Structure prediction by ZEFSAII (Michael W. Deem and Ramdas Pophale) SiO2 
 PCOD8016885
Probable space group: P -1
;
_chemical_formula_sum "Si O2"
_cell_formula_units_Z 12
_cell_length_a 9.838956
_cell_length_b 7.984095
_cell_length_c 14.491019
_cell_angle_alpha 46.191751
_cell_angle_beta 49.899878
_cell_angle_gamma 47.848736
_cell_volume 573.712574
_symmetry_space_group_name_H-M "P -1"
_symmetry_group_IT_number 2
_symmetry_cell_setting 'triclinic'
loop_
_space_group_symop_operation_xyz
x,y,z
-x,-y,-z
loop_
_atom_site_type_symbol
_atom_site_label
_atom_site_fract_x
_atom_site_fract_y
_atom_site_fract_z
Si Si1 0.715463 0.197990 0.747591
Si Si2 0.277189 0.417064 0.851303
Si Si3 0.904075 0.157498 0.358703
Si Si4 0.918414 0.317708 0.990023
Si Si5 0.915332 0.239764 0.817740
Si Si6 0.071914 0.625972 0.544761
O O1 0.499126 0.215882 0.820045
O O2 0.741635 0.235544 0.831186
O O3 0.750953 0.413588 0.588525
O O4 0.875401 0.921279 0.749565
O O5 0.247908 0.685261 0.713551
O O6 0.228205 0.464735 0.962928
O O7 0.136401 0.307652 0.904715
O O8 0.864011 0.344594 0.391201
O O9 0.887876 0.893609 0.495042
O O10 0.838916 0.379676 0.895924
O O11 0.927267 0.044064 0.121356
O O12 0.017313 0.385670 0.655696
#
# Coordination Sequence:
#
# PCOD8016885 Si02
#       6
#     2   2   2   2   2   2
#     4  10  22  36  67  89 113 153 200 244 291 346
#     4  11  21  42  61  89 112 161 206 228 288 358
#     4   9  19  40  61  87 117 153 191 247 289 343
#     4  10  23  38  62  81 127 160 187 248 284 347
#     4  11  20  40  59  88 122 156 188 243 308 332
#     4   9  19  39  63  85 120 155 186 250 298 339
#
# _framework density 20.916397
#
# number of rings (size 3 to 8) (size 9 to 14) (size 15 to 20)
#    1.000    1.000    3.333    0.500    0.000    2.000 
#    0.000    6.667    0.000    0.000    0.000    0.000 
#    0.000    0.000    0.000    0.000    0.000    0.000 
#
# Total GULP energy -148668.407586 kJ/mol
# GULP energy per Si atom -12389.033966 kJ/mol
# Density = 2.086879 g / cm^3
# Si number density = 20.916397 Si / 1000 Ang^3
#
#
#
# Elastic Constant Matrix: (Units=GPa)
#
#
# Indices 1 2 3 4 5 6 
#
# 1 103.4982 21.3087 32.8280 28.1416 23.3249 3.9071
# 2 21.3087 38.6600 16.7900 10.5940 2.3332 -4.9143
# 3 32.8280 16.7900 69.2514 -4.3489 14.7112 -5.0811
# 4 28.1416 10.5940 -4.3489 36.5227 5.6170 -0.9856
# 5 23.3249 2.3332 14.7112 5.6170 31.9237 6.6157
# 6 3.9071 -4.9143 -5.0811 -0.9856 6.6157 27.5073
#
#
#
# Elastic Compliance Matrix: (Units=1/GPa)
#
#
# Indices 1 2 3 4 5 6 
#
# 1 0.017611 -0.003121 -0.007275 -0.012640 -0.006374 -0.003323
# 2 -0.003121 0.033634 -0.007863 -0.008841 0.004242 0.003663
# 3 -0.007275 -0.007863 0.022688 0.011976 -0.007949 0.006160
# 4 -0.012640 -0.008841 0.011976 0.041860 -0.004017 0.004894
# 5 -0.006374 0.004242 -0.007949 -0.004017 0.042131 -0.010082
# 6 -0.003323 0.003663 0.006160 0.004894 -0.010082 0.041218
#
#
# Mechanical properties :
#
#
# Convention : Reuss Voigt Hill
#
# Bulk Modulus (GPa) = 26.72733 39.25145 32.98939
# Shear Modulus (GPa) = 20.15065 28.55627 24.35346
#
# Velocity S-wave (km/s) = 3.10722 3.69895 3.41592
# Velocity P-wave (km/s) = 5.06744 6.08684 5.60038
#
# Compressibility (1/GPa) = 0.03741489
#
# Stress axis : x y z
#
# Youngs Moduli (GPa) = 56.78290 29.73198 44.07667
#
# Poissons Ratio (x) = 0.09280 0.32066
# Poissons Ratio (y) = 0.17723 0.34655
# Poissons Ratio (z) = 0.41310 0.23377
#
# Static dielectric constant tensor:
#      x y z
#    x 3.623020 0.165270 0.415660 
#    y 0.165270 3.471350 -0.224230 
#    z 0.415660 -0.224230 3.880410 
# 
# 
# High freq. dielectric constant tensor:
#      x y z
#    x 1.802600 0.018850 0.040890 
#    y 0.018850 1.790700 -0.021590 
#    z 0.040890 -0.021590 1.820090 
# 
# From -- ./inp_files/236213.got.cif
#   From: 2010.06.25/outbox.cif.g09.slc.cpg/sg2_119_cif.got.tgz:236213.got - 2010.06.27 13:26:56.
