data_PCOD8016882
_publ_section_title
;
Structure prediction by ZEFSAII (Michael W. Deem and Ramdas Pophale) SiO2 
 PCOD8016882
Probable space group: P -1
;
_chemical_formula_sum "Si O2"
_cell_formula_units_Z 16
_cell_length_a 12.985876
_cell_length_b 11.743004
_cell_length_c 8.799187
_cell_angle_alpha 115.373009
_cell_angle_beta 40.285498
_cell_angle_gamma 91.135633
_cell_volume 666.912513
_symmetry_space_group_name_H-M "P -1"
_symmetry_group_IT_number 2
_symmetry_cell_setting 'triclinic'
loop_
_space_group_symop_operation_xyz
x,y,z
-x,-y,-z
loop_
_atom_site_type_symbol
_atom_site_label
_atom_site_fract_x
_atom_site_fract_y
_atom_site_fract_z
Si Si1 0.984208 0.570553 0.719031
Si Si2 0.398300 0.617418 0.048447
Si Si3 0.369008 0.929774 0.613722
Si Si4 0.619145 0.603522 0.275801
Si Si5 0.400691 0.891180 0.214628
Si Si6 0.201403 0.408996 0.647369
Si Si7 0.249515 0.130345 0.299272
Si Si8 0.028913 0.182887 0.292502
O O1 0.931763 0.735551 0.840335
O O2 0.000000 0.500000 0.500000
O O3 0.178341 0.482629 0.547288
O O4 0.821922 0.569183 0.987716
O O5 0.489870 0.716703 0.967250
O O6 0.192069 0.751031 0.412733
O O7 0.500000 0.500000 0.000000
O O8 0.405503 0.525806 0.839902
O O9 0.468990 0.765529 0.477304
O O10 0.313003 0.921722 0.498585
O O11 0.500000 0.000000 0.500000
O O12 0.177196 0.014046 0.978374
O O13 0.634834 0.590615 0.435975
O O14 0.249675 0.998854 0.318958
O O15 0.564745 0.928625 0.047573
O O16 0.247047 0.242320 0.489142
O O17 0.000000 0.500000 0.000000
O O18 0.074704 0.209554 0.427642
#
# Coordination Sequence:
#
# PCOD8016882 Si02
#       8
#     2   2   2   2   2   2   2   2
#     4  11  19  37  69 105 131 177 238 282 331 411
#     4  12  27  49  69  99 145 191 233 284 357 429
#     4  12  22  41  71 109 137 174 237 295 338 407
#     4  11  22  42  68  99 142 180 226 290 347 405
#     4  11  26  44  71 100 141 184 230 291 350 417
#     4  10  22  36  66 106 137 170 233 293 340 398
#     4  11  23  45  74 101 133 184 241 283 346 416
#     4  12  25  41  74 103 137 187 232 285 352 416
#
# _framework density 23.991153000000001
#
# number of rings (size 3 to 8) (size 9 to 14) (size 15 to 20)
#    0.000    0.750    6.250    1.500    5.250    1.000 
#    0.000    0.625    2.750    0.000    0.000    0.000 
#    0.000    0.000    0.000    0.000    0.000    0.000 
#
# Total GULP energy -198249.289909 kJ/mol
# GULP energy per Si atom -12390.580619 kJ/mol
# Density = 2.393655 g / cm^3
# Si number density = 23.991153 Si / 1000 Ang^3
#
#
#
# Elastic Constant Matrix: (Units=GPa)
#
#
# Indices 1 2 3 4 5 6 
#
# 1 153.8041 62.6844 37.3897 14.3442 16.9194 -35.8525
# 2 62.6844 128.5971 19.8005 31.4629 3.0062 -24.8021
# 3 37.3897 19.8005 110.4106 24.0968 2.8614 -8.9570
# 4 14.3442 31.4629 24.0968 32.5380 1.9817 0.8151
# 5 16.9194 3.0062 2.8614 1.9817 38.1452 5.6623
# 6 -35.8525 -24.8021 -8.9570 0.8151 5.6623 41.8078
#
#
#
# Elastic Compliance Matrix: (Units=1/GPa)
#
#
# Indices 1 2 3 4 5 6 
#
# 1 0.010768 -0.003450 -0.002398 0.000511 -0.005450 0.007402
# 2 -0.003450 0.013464 0.002095 -0.013202 0.000149 0.005715
# 3 -0.002398 0.002095 0.011765 -0.009743 0.000245 0.001864
# 4 0.000511 -0.013202 -0.009743 0.050724 0.000473 -0.010534
# 5 -0.005450 0.000149 0.000245 0.000473 0.029852 -0.008585
# 6 0.007402 0.005715 0.001864 -0.010534 -0.008585 0.035424
#
#
# Mechanical properties :
#
#
# Convention : Reuss Voigt Hill
#
# Bulk Modulus (GPa) = 35.09836 70.28456 52.69146
# Shear Modulus (GPa) = 29.58594 40.69400 35.13997
#
# Velocity S-wave (km/s) = 3.51551 4.12297 3.83130
# Velocity P-wave (km/s) = 5.58031 7.21282 6.44844
#
# Compressibility (1/GPa) = 0.02849136
#
# Stress axis : x y z
#
# Youngs Moduli (GPa) = 92.86905 74.27245 85.00146
#
# Poissons Ratio (x) = 0.25621 0.20380
# Poissons Ratio (y) = 0.32035 -0.17805
# Poissons Ratio (z) = 0.22266 -0.15557
#
# Static dielectric constant tensor:
#      x y z
#    x 4.503340 -0.258840 0.267220 
#    y -0.258840 4.586330 -0.385550 
#    z 0.267220 -0.385550 2.763660 
# 
# 
# High freq. dielectric constant tensor:
#      x y z
#    x 1.956950 -0.024900 0.006390 
#    y -0.024900 1.941400 0.015980 
#    z 0.006390 0.015980 1.958180 
# 
# From -- ./inp_files/262925.got.cif
#   From: 2010.06.25/outbox.cif.g09.slc.cpg/sg2_132_cif.got.tgz:262925.got - 2010.06.27 13:26:56.
