data_PCOD8016616
_publ_section_title
;
Structure prediction by ZEFSAII (Michael W. Deem and Ramdas Pophale) SiO2 
 PCOD8016616
Probable space group: P -1
;
_chemical_formula_sum "Si O2"
_cell_formula_units_Z 16
_cell_length_a 9.791017
_cell_length_b 14.279595
_cell_length_c 9.510727
_cell_angle_alpha 79.378409
_cell_angle_beta 43.631061
_cell_angle_gamma 108.188650
_cell_volume 679.869479
_symmetry_space_group_name_H-M "P -1"
_symmetry_group_IT_number 2
_symmetry_cell_setting 'triclinic'
loop_
_space_group_symop_operation_xyz
x,y,z
-x,-y,-z
loop_
_atom_site_type_symbol
_atom_site_label
_atom_site_fract_x
_atom_site_fract_y
_atom_site_fract_z
Si Si1 0.329348 0.400809 0.450945
Si Si2 0.621421 0.148034 0.686163
Si Si3 0.237612 0.730900 0.164828
Si Si4 0.752419 0.416782 0.013363
Si Si5 0.100629 0.060178 0.060327
Si Si6 0.775649 0.984360 0.587516
Si Si7 0.333000 0.336673 0.768632
Si Si8 0.137575 0.677530 0.795857
O O1 0.495383 0.402707 0.203100
O O2 0.407869 0.365657 0.540948
O O3 0.424191 0.541043 0.357907
O O4 0.022909 0.294389 0.678571
O O5 0.738773 0.254673 0.688978
O O6 0.762941 0.091084 0.611551
O O7 0.661286 0.202345 0.485734
O O8 0.302807 0.042350 0.971721
O O9 0.212131 0.613927 0.161958
O O10 0.489439 0.852923 0.864566
O O11 0.713627 0.318194 0.181325
O O12 0.011560 0.555840 0.826094
O O13 0.849328 0.994983 0.365595
O O14 0.279947 0.212050 0.886749
O O15 0.000000 0.000000 0.000000
O O16 0.000000 0.000000 0.500000
O O17 0.076944 0.318544 0.987272
#
# Coordination Sequence:
#
# PCOD8016616 Si02
#       8
#     2   2   2   2   2   2   2   2
#     4  10  23  41  73 104 141 187 226 292 351 423
#     4  12  28  47  71 103 141 187 236 298 350 424
#     4  12  27  43  72 104 139 189 242 284 354 428
#     4  10  23  42  72 105 142 186 233 286 355 418
#     4  12  29  45  76 107 137 185 238 299 353 416
#     4  12  29  53  70  96 146 191 236 296 355 420
#     4  10  21  45  70 105 145 177 236 291 353 411
#     4  10  21  45  70 104 145 185 231 294 351 417
#
# _framework density 23.533929000000001
#
# number of rings (size 3 to 8) (size 9 to 14) (size 15 to 20)
#    0.000    1.000    3.750    1.125   10.500    1.000 
#    0.000    1.250    0.000    0.000    0.000    0.000 
#    0.000    0.000    0.000    0.000    0.000    0.000 
#
# Total GULP energy -198386.193366 kJ/mol
# GULP energy per Si atom -12399.137085 kJ/mol
# Density = 2.348036 g / cm^3
# Si number density = 23.533929 Si / 1000 Ang^3
#
#
#
# Elastic Constant Matrix: (Units=GPa)
#
#
# Indices 1 2 3 4 5 6 
#
# 1 91.9007 42.5059 22.1022 6.8261 -23.8750 5.3593
# 2 42.5059 96.5905 13.5844 24.1294 -6.5804 5.1012
# 3 22.1022 13.5844 75.2832 2.8378 -16.1346 0.6393
# 4 6.8261 24.1294 2.8378 46.7058 -0.1607 3.6256
# 5 -23.8750 -6.5804 -16.1346 -0.1607 41.9200 -2.3565
# 6 5.3593 5.1012 0.6393 3.6256 -2.3565 35.3499
#
#
#
# Elastic Compliance Matrix: (Units=1/GPa)
#
#
# Indices 1 2 3 4 5 6 
#
# 1 0.016355 -0.006667 -0.002047 0.001291 0.007422 -0.001118
# 2 -0.006667 0.014983 -0.000885 -0.006674 -0.001844 -0.000574
# 3 -0.002047 -0.000885 0.015011 -0.000178 0.004499 0.000485
# 4 0.001291 -0.006674 -0.000178 0.024819 -0.000387 -0.001801
# 5 0.007422 -0.001844 0.004499 -0.000387 0.029583 0.001071
# 6 -0.001118 -0.000574 0.000485 -0.001801 0.001071 0.028788
#
#
# Mechanical properties :
#
#
# Convention : Reuss Voigt Hill
#
# Bulk Modulus (GPa) = 36.83094 46.68438 41.75766
# Shear Modulus (GPa) = 31.68804 37.16725 34.42764
#
# Velocity S-wave (km/s) = 3.67343 3.97836 3.82893
# Velocity P-wave (km/s) = 5.80312 6.40181 6.10980
#
# Compressibility (1/GPa) = 0.02715109
#
# Stress axis : x y z
#
# Youngs Moduli (GPa) = 61.14401 66.74043 66.61916
#
# Poissons Ratio (x) = 0.44496 0.13637
# Poissons Ratio (y) = 0.40765 0.05896
# Poissons Ratio (z) = 0.12516 0.05906
#
# Static dielectric constant tensor:
#      x y z
#    x 3.920940 -0.100480 -0.099600 
#    y -0.100480 4.456530 0.269960 
#    z -0.099600 0.269960 4.483240 
# 
# 
# High freq. dielectric constant tensor:
#      x y z
#    x 1.911670 -0.001540 -0.015970 
#    y -0.001540 1.934910 0.020040 
#    z -0.015970 0.020040 1.946240 
# 
# From -- ./inp_files/206718.got.cif
#   From: 2010.06.25/outbox.cif.g09.slc.cpg/sg2_104_cif.got.tgz:206718.got - 2010.06.27 13:26:56.
