data_PCOD8016000
_publ_section_title
;
Structure prediction by ZEFSAII (Michael W. Deem and Ramdas Pophale) SiO2 
 PCOD8016000
Probable space group: P -1
;
_chemical_formula_sum "Si O2"
_cell_formula_units_Z 16
_cell_length_a 26.627802
_cell_length_b 25.854500
_cell_length_c 9.424079
_cell_angle_alpha 41.623290
_cell_angle_beta 39.805054
_cell_angle_gamma 10.980539
_cell_volume 789.962231
_symmetry_space_group_name_H-M "P -1"
_symmetry_group_IT_number 2
_symmetry_cell_setting 'triclinic'
loop_
_space_group_symop_operation_xyz
x,y,z
-x,-y,-z
loop_
_atom_site_type_symbol
_atom_site_label
_atom_site_fract_x
_atom_site_fract_y
_atom_site_fract_z
Si Si1 0.768710 0.734373 0.367864
Si Si2 0.741748 0.794625 0.993362
Si Si3 0.367905 0.884969 0.996984
Si Si4 0.921250 0.440104 0.779794
Si Si5 0.527861 0.562392 0.771506
Si Si6 0.135347 0.024437 0.484930
Si Si7 0.120827 0.164437 0.462588
Si Si8 0.513119 0.704922 0.745578
O O1 0.899323 0.522525 0.527056
O O2 0.008267 0.570051 0.219319
O O3 0.500000 0.000000 0.500000
O O4 0.648287 0.864446 0.210049
O O5 0.807804 0.820762 0.780908
O O6 0.000000 0.500000 0.000000
O O7 0.500000 0.000000 0.000000
O O8 0.221783 0.964721 0.259725
O O9 0.628922 0.674260 0.944563
O O10 0.459443 0.746279 0.946101
O O11 0.163331 0.146465 0.846837
O O12 0.478966 0.657066 0.829726
O O13 0.819134 0.301951 0.602195
O O14 0.308995 0.788589 0.658929
O O15 0.500000 0.500000 0.000000
O O16 0.188265 0.047161 0.422955
O O17 0.812691 0.454025 0.590318
O O18 0.304618 0.967272 0.601939
#
# Coordination Sequence:
#
# PCOD8016000 Si02
#       8
#     2   2   2   2   2   2   2   2
#     4  11  26  45  60  86 119 167 230 258 342 381
#     4  12  29  39  60  87 124 160 215 276 325 359
#     4  12  23  39  64  93 122 159 216 260 314 354
#     4  11  25  38  66  83 122 167 213 272 317 376
#     4  10  21  43  68  96 130 165 195 240 307 383
#     4  10  22  40  65  94 121 161 208 249 299 374
#     4  10  22  41  56  83 119 163 206 254 309 376
#     4  10  23  39  65  89 123 161 204 246 314 374
#
# _framework density 20.254134000000001
#
# number of rings (size 3 to 8) (size 9 to 14) (size 15 to 20)
#    0.000    1.250    1.250    3.375    8.750    2.000 
#    0.000    1.250    0.000    0.000    0.000    0.000 
#    0.000    0.000    0.000    0.000    0.000    0.000 
#
# Total GULP energy -198356.260157 kJ/mol
# GULP energy per Si atom -12397.266260 kJ/mol
# Density = 2.020804 g / cm^3
# Si number density = 20.254134 Si / 1000 Ang^3
#
#
#
# Elastic Constant Matrix: (Units=GPa)
#
#
# Indices 1 2 3 4 5 6 
#
# 1 66.7720 28.0940 63.4620 -5.1992 18.6656 1.8967
# 2 28.0940 117.0865 31.0830 -23.0781 9.9820 8.1295
# 3 63.4620 31.0830 128.8600 -17.8450 15.4554 21.0282
# 4 -5.1992 -23.0781 -17.8450 31.8167 6.3873 1.5507
# 5 18.6656 9.9820 15.4554 6.3873 41.2345 0.1405
# 6 1.8967 8.1295 21.0282 1.5507 0.1405 29.9751
#
#
#
# Elastic Compliance Matrix: (Units=1/GPa)
#
#
# Indices 1 2 3 4 5 6 
#
# 1 0.036132 -0.005555 -0.018852 -0.007970 -0.006755 0.012889
# 2 -0.005555 0.011736 0.002396 0.009737 -0.002716 -0.005003
# 3 -0.018852 0.002396 0.020540 0.011167 -0.001426 -0.014437
# 4 -0.007970 0.009737 0.011167 0.046067 -0.010029 -0.012307
# 5 -0.006755 -0.002716 -0.001426 -0.010029 0.030046 0.002542
# 6 0.012889 -0.005003 -0.014437 -0.012307 0.002542 0.044655
#
#
# Mechanical properties :
#
#
# Convention : Reuss Voigt Hill
#
# Bulk Modulus (GPa) = 41.00774 61.99961 51.50367
# Shear Modulus (GPa) = 20.71878 33.27723 26.99800
#
# Velocity S-wave (km/s) = 3.20181 4.05777 3.65494
# Velocity P-wave (km/s) = 5.82747 7.25474 6.57992
#
# Compressibility (1/GPa) = 0.02438564
#
# Stress axis : x y z
#
# Youngs Moduli (GPa) = 27.67612 85.20941 48.68506
#
# Poissons Ratio (x) = 0.47335 0.91780
# Poissons Ratio (y) = 0.15375 -0.11663
# Poissons Ratio (z) = 0.52174 -0.20412
#
# Static dielectric constant tensor:
#      x y z
#    x 3.792520 -0.314370 -0.020270 
#    y -0.314370 4.261460 -0.054410 
#    z -0.020270 -0.054410 3.586300 
# 
# 
# High freq. dielectric constant tensor:
#      x y z
#    x 1.780640 -0.007870 0.006290 
#    y -0.007870 1.816060 -0.008190 
#    z 0.006290 -0.008190 1.785220 
# 
# From -- ./inp_files/357947.got.cif
#   From: 2010.06.25/outbox.cif.g09.slc.cpg/sg2_179_cif.got.tgz:357947.got - 2010.06.27 13:26:56.
