data_PCOD8016623
_publ_section_title
;
Structure prediction by ZEFSAII (Michael W. Deem and Ramdas Pophale) SiO2 
 PCOD8016623
Probable space group: P -1
;
_chemical_formula_sum "Si O2"
_cell_formula_units_Z 12
_cell_length_a 9.204707
_cell_length_b 13.978030
_cell_length_c 4.898073
_cell_angle_alpha 81.543383
_cell_angle_beta 95.428540
_cell_angle_gamma 49.600985
_cell_volume 459.378202
_symmetry_space_group_name_H-M "P -1"
_symmetry_group_IT_number 2
_symmetry_cell_setting 'triclinic'
loop_
_space_group_symop_operation_xyz
x,y,z
-x,-y,-z
loop_
_atom_site_type_symbol
_atom_site_label
_atom_site_fract_x
_atom_site_fract_y
_atom_site_fract_z
Si Si1 0.092497 0.767809 0.206244
Si Si2 0.141642 0.449710 0.790554
Si Si3 0.714242 0.402515 0.200610
Si Si4 0.116820 0.992524 0.267364
Si Si5 0.716460 0.924937 0.375160
Si Si6 0.495203 0.156473 0.821703
O O1 0.268810 0.676105 0.497708
O O2 0.900134 0.802821 0.280234
O O3 0.137125 0.700776 0.956553
O O4 0.033589 0.909756 0.068842
O O5 0.232866 0.513852 0.745452
O O6 0.323006 0.295251 0.869063
O O7 0.000000 0.500000 0.500000
O O8 0.000000 0.500000 0.000000
O O9 0.500000 0.500000 0.000000
O O10 0.189595 0.069160 0.337538
O O11 0.332774 0.851821 0.280406
O O12 0.000000 0.000000 0.500000
O O13 0.582776 0.887310 0.405171
O O14 0.594042 0.058877 0.133516
#
# Coordination Sequence:
#
# PCOD8016623 Si02
#       6
#     2   2   2   2   2   2
#     4  11  24  46  73 101 143 185 240 289 364 422
#     4  12  28  47  71 108 145 188 242 295 350 425
#     4  12  26  46  73 103 144 198 237 290 357 433
#     4  11  25  42  74 106 142 185 234 307 359 422
#     4  10  21  45  71 102 137 184 231 301 362 421
#     4  10  24  41  72 104 138 184 237 295 357 425
#
# _framework density 26.122264999999999
#
# number of rings (size 3 to 8) (size 9 to 14) (size 15 to 20)
#    0.000    1.000    1.667    4.000    4.667    4.000 
#    0.000    0.000    0.000    0.000    0.000    0.000 
#    0.000    0.000    0.000    0.000    0.000    0.000 
#
# Total GULP energy -148728.534974 kJ/mol
# GULP energy per Si atom -12394.044581 kJ/mol
# Density = 2.606281 g / cm^3
# Si number density = 26.122265 Si / 1000 Ang^3
#
#
#
# Elastic Constant Matrix: (Units=GPa)
#
#
# Indices 1 2 3 4 5 6 
#
# 1 169.1365 57.8147 57.6360 -4.8082 10.7139 -13.2816
# 2 57.8147 166.6168 52.3252 -13.7215 5.6543 -14.4605
# 3 57.6360 52.3252 165.0979 -10.2930 8.9491 0.2159
# 4 -4.8082 -13.7215 -10.2930 49.8182 -3.3217 -1.8929
# 5 10.7139 5.6543 8.9491 -3.3217 40.3424 7.1887
# 6 -13.2816 -14.4605 0.2159 -1.8929 7.1887 46.6988
#
#
#
# Elastic Compliance Matrix: (Units=1/GPa)
#
#
# Indices 1 2 3 4 5 6 
#
# 1 0.007423 -0.001765 -0.001959 -0.000214 -0.001631 0.001816
# 2 -0.001765 0.007437 -0.001621 0.001588 -0.000429 0.001939
# 3 -0.001959 -0.001621 0.007341 0.000802 -0.000643 -0.000962
# 4 -0.000214 0.001588 0.000802 0.020775 0.001173 0.001089
# 5 -0.001631 -0.000429 -0.000643 0.001173 0.026340 -0.004601
# 6 0.001816 0.001939 -0.000962 0.001089 -0.004601 0.023287
#
#
# Mechanical properties :
#
#
# Convention : Reuss Voigt Hill
#
# Bulk Modulus (GPa) = 86.88186 92.93367 89.90777
# Shear Modulus (GPa) = 46.67157 49.57691 48.12424
#
# Velocity S-wave (km/s) = 4.23147 4.36119 4.29682
# Velocity P-wave (km/s) = 7.56345 7.81112 7.68828
#
# Compressibility (1/GPa) = 0.01150988
#
# Stress axis : x y z
#
# Youngs Moduli (GPa) = 134.71174 134.46290 136.22248
#
# Poissons Ratio (x) = 0.23735 0.26691
# Poissons Ratio (y) = 0.23779 0.22083
# Poissons Ratio (z) = 0.26395 0.21798
#
# Static dielectric constant tensor:
#      x y z
#    x 5.535380 0.044770 0.414650 
#    y 0.044770 5.553560 -0.317010 
#    z 0.414650 -0.317010 5.621160 
# 
# 
# High freq. dielectric constant tensor:
#      x y z
#    x 2.067070 -0.009110 0.020780 
#    y -0.009110 2.073300 0.008840 
#    z 0.020780 0.008840 2.059550 
# 
# From -- ./inp_files/17668.got.cif
#   From: 2010.06.25/outbox.cif.g09.slc.cpg/sg2_9_cif.got.tgz:17668.got - 2010.06.27 13:26:56.
