data_PCOD8016346
_publ_section_title
;
Structure prediction by ZEFSAII (Michael W. Deem and Ramdas Pophale) SiO2 
 PCOD8016346
Probable space group: P -1
;
_chemical_formula_sum "Si O2"
_cell_formula_units_Z 14
_cell_length_a 24.242908
_cell_length_b 15.394898
_cell_length_c 15.259492
_cell_angle_alpha 31.913195
_cell_angle_beta 160.065357
_cell_angle_gamma 160.278445
_cell_volume 622.165184
_symmetry_space_group_name_H-M "P -1"
_symmetry_group_IT_number 2
_symmetry_cell_setting 'triclinic'
loop_
_space_group_symop_operation_xyz
x,y,z
-x,-y,-z
loop_
_atom_site_type_symbol
_atom_site_label
_atom_site_fract_x
_atom_site_fract_y
_atom_site_fract_z
Si Si1 0.937478 0.893187 0.759250
Si Si2 0.752381 0.250671 0.056006
Si Si3 0.231423 0.814073 0.204770
Si Si4 0.622907 0.445742 0.807292
Si Si5 0.047564 0.324649 0.587859
Si Si6 0.952080 0.154231 0.781046
Si Si7 0.470109 0.945174 0.725521
O O1 0.820030 0.746890 0.804181
O O2 0.663214 0.717821 0.447997
O O3 0.135208 0.210699 0.788194
O O4 0.110341 0.896269 0.967476
O O5 0.021820 0.511300 0.183759
O O6 0.821310 0.197051 0.289519
O O7 0.598941 0.286560 0.833346
O O8 0.570458 0.005959 0.923768
O O9 0.500000 0.000000 0.500000
O O10 0.282029 0.837718 0.156425
O O11 0.788286 0.530519 0.068415
O O12 0.295755 0.647774 0.688920
O O13 0.902019 0.178624 0.587698
O O14 0.694871 0.017569 0.565663
O O15 0.000000 0.000000 0.000000
#
# Coordination Sequence:
#
# PCOD8016346 Si02
#       7
#     2   2   2   2   2   2   2
#     4  10  23  40  69 101 132 182 224 283 335 398
#     4  11  25  45  72 100 136 184 224 282 341 399
#     4  11  23  49  72  95 137 183 233 275 338 412
#     4  10  21  44  67  99 138 174 233 279 335 400
#     4  12  25  44  67 106 142 172 228 287 340 401
#     4  12  25  42  69 104 135 181 228 280 344 400
#     4  12  26  46  70 101 139 184 224 276 348 408
#
# _framework density 22.502063
#
# number of rings (size 3 to 8) (size 9 to 14) (size 15 to 20)
#    0.000    0.857    4.286    2.571    6.000    1.714 
#    0.000    0.714    0.000    0.000    0.000    0.000 
#    0.000    0.000    0.000    0.000    0.000    0.000 
#
# Total GULP energy -173469.964445 kJ/mol
# GULP energy per Si atom -12390.711746 kJ/mol
# Density = 2.245085 g / cm^3
# Si number density = 22.502063 Si / 1000 Ang^3
#
#
#
# Elastic Constant Matrix: (Units=GPa)
#
#
# Indices 1 2 3 4 5 6 
#
# 1 124.8704 39.9466 82.5256 3.0859 -0.5800 -6.8084
# 2 39.9466 101.5999 52.4215 -10.9549 5.9583 -6.2882
# 3 82.5256 52.4215 135.8912 7.6803 6.5413 -7.2687
# 4 3.0859 -10.9549 7.6803 34.8126 -2.2035 -8.3860
# 5 -0.5800 5.9583 6.5413 -2.2035 48.5922 9.9450
# 6 -6.8084 -6.2882 -7.2687 -8.3860 9.9450 30.7149
#
#
#
# Elastic Compliance Matrix: (Units=1/GPa)
#
#
# Indices 1 2 3 4 5 6 
#
# 1 0.013625 -0.001334 -0.007808 0.000314 0.001274 0.000572
# 2 -0.001334 0.013704 -0.004559 0.006213 -0.001543 0.003627
# 3 -0.007808 -0.004559 0.014169 -0.003937 -0.001650 0.000148
# 4 0.000314 0.006213 -0.003937 0.033857 -0.000716 0.009885
# 5 0.001274 -0.001543 -0.001650 -0.000716 0.022598 -0.007936
# 6 0.000572 0.003627 0.000148 0.009885 -0.007936 0.038731
#
#
# Mechanical properties :
#
#
# Convention : Reuss Voigt Hill
#
# Bulk Modulus (GPa) = 70.94334 79.12765 75.03549
# Shear Modulus (GPa) = 29.62355 35.32182 32.47268
#
# Velocity S-wave (km/s) = 3.63227 3.96626 3.80293
# Velocity P-wave (km/s) = 7.01335 7.49773 7.25958
#
# Compressibility (1/GPa) = 0.01409576
#
# Stress axis : x y z
#
# Youngs Moduli (GPa) = 73.39653 72.97015 70.57470
#
# Poissons Ratio (x) = 0.09732 0.55105
# Poissons Ratio (y) = 0.09789 0.32178
# Poissons Ratio (z) = 0.57309 0.33270
#
# Static dielectric constant tensor:
#      x y z
#    x 4.113460 -0.134770 -0.184370 
#    y -0.134770 4.218400 -0.035230 
#    z -0.184370 -0.035230 4.167030 
# 
# 
# High freq. dielectric constant tensor:
#      x y z
#    x 1.878500 -0.012550 -0.012120 
#    y -0.012550 1.890990 0.000900 
#    z -0.012120 0.000900 1.892300 
# 
# From -- ./inp_files/390278.got.cif
#   From: 2010.06.25/outbox.cif.g09.slc.cpg/sg2_196_cif.got.tgz:390278.got - 2010.06.27 13:26:56.
