data_PCOD8016201
_publ_section_title
;
Structure prediction by ZEFSAII (Michael W. Deem and Ramdas Pophale) SiO2 
 PCOD8016201
Probable space group: P -1
;
_chemical_formula_sum "Si O2"
_cell_formula_units_Z 16
_cell_length_a 9.487978
_cell_length_b 12.216460
_cell_length_c 14.095317
_cell_angle_alpha 151.988070
_cell_angle_beta 110.101914
_cell_angle_gamma 69.400432
_cell_volume 716.218285
_symmetry_space_group_name_H-M "P -1"
_symmetry_group_IT_number 2
_symmetry_cell_setting 'triclinic'
loop_
_space_group_symop_operation_xyz
x,y,z
-x,-y,-z
loop_
_atom_site_type_symbol
_atom_site_label
_atom_site_fract_x
_atom_site_fract_y
_atom_site_fract_z
Si Si1 0.060551 0.232668 0.731251
Si Si2 0.495777 0.166125 0.539889
Si Si3 0.218569 0.469398 0.783832
Si Si4 0.057396 0.318868 0.454146
Si Si5 0.554791 0.921253 0.055245
Si Si6 0.762620 0.435093 0.752621
Si Si7 0.678158 0.047816 0.819011
Si Si8 0.180034 0.896113 0.654575
O O1 0.184966 0.319636 0.754879
O O2 0.911675 0.431021 0.854077
O O3 0.136722 0.149796 0.786261
O O4 0.000000 0.000000 0.500000
O O5 0.373170 0.382406 0.699557
O O6 0.657597 0.254326 0.633659
O O7 0.500000 0.000000 0.500000
O O8 0.459828 0.003394 0.319218
O O9 0.091243 0.455260 0.663313
O O10 0.235233 0.732003 0.023821
O O11 0.937225 0.136524 0.312416
O O12 0.000000 0.500000 0.500000
O O13 0.202060 0.179201 0.331547
O O14 0.397372 0.902881 0.058417
O O15 0.651540 0.114600 0.271168
O O16 0.669400 0.683685 0.901960
O O17 0.500000 0.000000 0.000000
O O18 0.824009 0.329750 0.586250
#
# Coordination Sequence:
#
# PCOD8016201 Si02
#       8
#     2   2   2   2   2   2   2   2
#     4  10  21  43  73  99 137 179 232 288 344 419
#     4  11  23  41  69  97 141 181 218 281 352 424
#     4  11  23  44  67 101 141 181 229 287 351 410
#     4  11  27  45  72  99 140 188 234 291 351 412
#     4  12  29  46  69 102 140 187 238 286 341 420
#     4  11  23  44  71 100 138 180 231 287 353 407
#     4  11  27  45  65 105 137 179 238 281 350 420
#     4  11  25  47  70 104 136 184 237 287 351 412
#
# _framework density 22.339556999999999
#
# number of rings (size 3 to 8) (size 9 to 14) (size 15 to 20)
#    0.000    1.000    5.000    1.500    7.000    3.000 
#    0.000    0.000    0.000    0.000    0.000    0.000 
#    0.000    0.000    0.000    0.000    0.000    0.000 
#
# Total GULP energy -198344.866297 kJ/mol
# GULP energy per Si atom -12396.554144 kJ/mol
# Density = 2.228871 g / cm^3
# Si number density = 22.339557 Si / 1000 Ang^3
#
#
#
# Elastic Constant Matrix: (Units=GPa)
#
#
# Indices 1 2 3 4 5 6 
#
# 1 131.8495 52.9802 27.6932 -0.0134 4.0697 10.8243
# 2 52.9802 162.9881 31.9634 1.5644 1.7055 7.2360
# 3 27.6932 31.9634 59.8346 14.6845 -2.0499 -3.2394
# 4 -0.0134 1.5644 14.6845 18.2113 -7.2689 3.1756
# 5 4.0697 1.7055 -2.0499 -7.2689 36.9839 0.6232
# 6 10.8243 7.2360 -3.2394 3.1756 0.6232 36.3191
#
#
#
# Elastic Compliance Matrix: (Units=1/GPa)
#
#
# Indices 1 2 3 4 5 6 
#
# 1 0.009685 -0.002143 -0.004586 0.004329 -0.000316 -0.003242
# 2 -0.002143 0.007620 -0.003834 0.002790 0.000245 -0.001470
# 3 -0.004586 -0.003834 0.026943 -0.023584 -0.002572 0.006640
# 4 0.004329 0.002790 -0.023584 0.081358 0.014269 -0.011308
# 5 -0.000316 0.000245 -0.002572 0.014269 0.029757 -0.001942
# 6 -0.003242 -0.001470 0.006640 -0.011308 -0.001942 0.030407
#
#
# Mechanical properties :
#
#
# Convention : Reuss Voigt Hill
#
# Bulk Modulus (GPa) = 43.25209 64.43843 53.84526
# Shear Modulus (GPa) = 23.29862 34.43855 28.86859
#
# Velocity S-wave (km/s) = 3.23295 3.93057 3.59871
# Velocity P-wave (km/s) = 5.77401 7.03611 6.43607
#
# Compressibility (1/GPa) = 0.02312027
#
# Stress axis : x y z
#
# Youngs Moduli (GPa) = 103.25057 131.23486 37.11522
#
# Poissons Ratio (x) = 0.28125 0.17022
# Poissons Ratio (y) = 0.22128 0.14232
# Poissons Ratio (z) = 0.47355 0.50322
#
# Static dielectric constant tensor:
#      x y z
#    x 3.890750 -0.112550 0.085950 
#    y -0.112550 4.017140 -0.043310 
#    z 0.085950 -0.043310 3.945290 
# 
# 
# High freq. dielectric constant tensor:
#      x y z
#    x 1.899050 -0.002720 0.004150 
#    y -0.002720 1.871510 0.000250 
#    z 0.004150 0.000250 1.881130 
# 
# From -- ./inp_files/399965.got.cif
#   From: 2010.06.25/outbox.cif.g09.slc.cpg/sg2_200_cif.got.tgz:399965.got - 2010.06.27 13:26:56.
