data_PCOD8016529
_publ_section_title
;
Structure prediction by ZEFSAII (Michael W. Deem and Ramdas Pophale) SiO2 
 PCOD8016529
Probable space group: P -1
;
_chemical_formula_sum "Si O2"
_cell_formula_units_Z 12
_cell_length_a 14.166668
_cell_length_b 13.624416
_cell_length_c 5.544563
_cell_angle_alpha 99.207131
_cell_angle_beta 114.228713
_cell_angle_gamma 31.739640
_cell_volume 471.860373
_symmetry_space_group_name_H-M "P -1"
_symmetry_group_IT_number 2
_symmetry_cell_setting 'triclinic'
loop_
_space_group_symop_operation_xyz
x,y,z
-x,-y,-z
loop_
_atom_site_type_symbol
_atom_site_label
_atom_site_fract_x
_atom_site_fract_y
_atom_site_fract_z
Si Si1 0.315728 0.150460 0.676994
Si Si2 0.669579 0.217255 0.762267
Si Si3 0.793390 0.381275 0.653618
Si Si4 0.926931 0.170879 0.211470
Si Si5 0.607004 0.049235 0.723368
Si Si6 0.987581 0.611329 0.176359
O O1 0.369291 0.201118 0.578740
O O2 0.075155 0.364049 0.604603
O O3 0.500000 0.000000 0.000000
O O4 0.215877 0.150285 0.006013
O O5 0.451383 0.444019 0.519182
O O6 0.615120 0.159989 0.818687
O O7 0.766276 0.212355 0.057534
O O8 0.831639 0.070657 0.649269
O O9 0.899635 0.249342 0.467712
O O10 0.809156 0.488682 0.691088
O O11 0.899116 0.258075 0.967468
O O12 0.668507 0.969616 0.483476
O O13 0.000000 0.500000 0.000000
#
# Coordination Sequence:
#
# PCOD8016529 Si02
#       6
#     2   2   2   2   2   2
#     4   9  21  39  65  91 138 179 234 289 352 424
#     4  11  25  46  79 105 145 200 238 313 371 429
#     4  12  27  49  75 110 149 193 249 301 368 443
#     4  11  27  52  73 112 148 189 251 307 366 442
#     4  10  21  45  64 100 139 183 244 291 363 430
#     4  11  25  42  64 103 144 188 235 299 358 432
#
# _framework density 25.431248
#
# number of rings (size 3 to 8) (size 9 to 14) (size 15 to 20)
#    0.000    1.333    1.667    2.000    7.000    6.000 
#    9.000    0.000    0.000    0.000    0.000    0.000 
#    0.000    0.000    0.000    0.000    0.000    0.000 
#
# Total GULP energy -148685.400015 kJ/mol
# GULP energy per Si atom -12390.450001 kJ/mol
# Density = 2.537337 g / cm^3
# Si number density = 25.431248 Si / 1000 Ang^3
#
#
#
# Elastic Constant Matrix: (Units=GPa)
#
#
# Indices 1 2 3 4 5 6 
#
# 1 137.4196 26.6153 29.2097 29.7735 22.7101 -4.7033
# 2 26.6153 78.6374 26.8891 24.8666 -3.4152 -30.1686
# 3 29.2097 26.8891 91.9306 29.6845 -2.8985 -8.9086
# 4 29.7735 24.8666 29.6845 41.9862 -0.4053 11.8727
# 5 22.7101 -3.4152 -2.8985 -0.4053 46.1745 0.9741
# 6 -4.7033 -30.1686 -8.9086 11.8727 0.9741 47.4377
#
#
#
# Elastic Compliance Matrix: (Units=1/GPa)
#
#
# Indices 1 2 3 4 5 6 
#
# 1 0.009966 0.000189 -0.000624 -0.007637 -0.005057 0.003006
# 2 0.000189 0.031302 0.002627 -0.028282 0.001560 0.027466
# 3 -0.000624 0.002627 0.015875 -0.014654 0.001195 0.008233
# 4 -0.007637 -0.028282 -0.014654 0.067212 0.002144 -0.038361
# 5 -0.005057 0.001560 0.001195 0.002144 0.024360 -0.000322
# 6 0.003006 0.027466 0.008233 -0.038361 -0.000322 0.049999
#
#
# Mechanical properties :
#
#
# Convention : Reuss Voigt Hill
#
# Bulk Modulus (GPa) = 16.25287 52.60176 34.42732
# Shear Modulus (GPa) = 23.27318 42.13792 32.70555
#
# Velocity S-wave (km/s) = 3.02841 4.07496 3.59003
# Velocity P-wave (km/s) = 4.31661 6.54746 5.54538
#
# Compressibility (1/GPa) = 0.06152759
#
# Stress axis : x y z
#
# Youngs Moduli (GPa) = 100.33740 31.94660 62.99285
#
# Poissons Ratio (x) = -0.00603 0.03931
# Poissons Ratio (y) = -0.01895 -0.16550
# Poissons Ratio (z) = 0.06262 -0.08393
#
# Static dielectric constant tensor:
#      x y z
#    x 5.838920 -0.422350 -0.041790 
#    y -0.422350 4.500440 -0.135940 
#    z -0.041790 -0.135940 4.572770 
# 
# 
# High freq. dielectric constant tensor:
#      x y z
#    x 2.036050 -0.007260 0.013460 
#    y -0.007260 2.017910 -0.007960 
#    z 0.013460 -0.007960 2.008310 
# 
# From -- ./inp_files/77869.got.cif
#   From: 2010.06.25/outbox.cif.g09.slc.cpg/sg2_39_cif.got.tgz:77869.got - 2010.06.27 13:26:56.
