data_PCOD8016996
_publ_section_title
;
Structure prediction by ZEFSAII (Michael W. Deem and Ramdas Pophale) SiO2 
 PCOD8016996
Probable space group: P -1
;
_chemical_formula_sum "Si O2"
_cell_formula_units_Z 14
_cell_length_a 24.930086
_cell_length_b 9.295252
_cell_length_c 7.100449
_cell_angle_alpha 53.759339
_cell_angle_beta 141.609030
_cell_angle_gamma 138.138726
_cell_volume 681.788302
_symmetry_space_group_name_H-M "P -1"
_symmetry_group_IT_number 2
_symmetry_cell_setting 'triclinic'
loop_
_space_group_symop_operation_xyz
x,y,z
-x,-y,-z
loop_
_atom_site_type_symbol
_atom_site_label
_atom_site_fract_x
_atom_site_fract_y
_atom_site_fract_z
Si Si1 0.172795 0.677073 0.748239
Si Si2 0.394934 0.411785 0.168330
Si Si3 0.026931 0.043091 0.757971
Si Si4 0.252559 0.405055 0.096674
Si Si5 0.412816 0.678739 0.647644
Si Si6 0.626309 0.965019 0.800258
Si Si7 0.013420 0.304966 0.821180
O O1 0.119095 0.542285 0.899479
O O2 0.084557 0.688228 0.389675
O O3 0.210700 0.555719 0.818358
O O4 0.272808 0.914114 0.882451
O O5 0.500000 0.500000 0.500000
O O6 0.310452 0.404864 0.072873
O O7 0.352437 0.167468 0.186179
O O8 0.413522 0.567221 0.926243
O O9 0.988105 0.180137 0.645753
O O10 0.151480 0.164342 0.043221
O O11 0.000000 0.000000 0.500000
O O12 0.964824 0.810533 0.866029
O O13 0.327432 0.494563 0.415235
O O14 0.526536 0.793462 0.780828
O O15 0.389321 0.861293 0.479505
#
# Coordination Sequence:
#
# PCOD8016996 Si02
#       7
#     2   2   2   2   2   2   2
#     4   9  20  41  65  87 122 167 207 251 310 373
#     4  12  25  40  65  96 128 165 209 260 311 368
#     4  10  22  37  63  94 122 157 208 255 306 371
#     4  10  23  42  59  95 126 160 208 259 308 368
#     4  10  23  45  62  90 131 164 210 257 308 378
#     4  10  22  41  67  90 124 171 206 253 317 369
#     4   9  20  41  63  85 124 165 201 254 314 360
#
# _framework density 20.534234000000001
#
# number of rings (size 3 to 8) (size 9 to 14) (size 15 to 20)
#    0.000    2.000    1.429    0.429    4.000    4.000 
#    2.571    6.429    0.000    0.000    0.000    0.000 
#    0.000    0.000    0.000    0.000    0.000    0.000 
#
# Total GULP energy -173547.239091 kJ/mol
# GULP energy per Si atom -12396.231364 kJ/mol
# Density = 2.048750 g / cm^3
# Si number density = 20.534234 Si / 1000 Ang^3
#
#
#
# Elastic Constant Matrix: (Units=GPa)
#
#
# Indices 1 2 3 4 5 6 
#
# 1 123.7448 36.2541 50.8517 -2.0071 14.2686 -18.0220
# 2 36.2541 90.5541 34.8610 0.1677 -0.7967 0.7534
# 3 50.8517 34.8610 79.6767 -6.7751 -5.8295 1.0983
# 4 -2.0071 0.1677 -6.7751 30.3732 6.9108 7.6075
# 5 14.2686 -0.7967 -5.8295 6.9108 39.0344 2.2535
# 6 -18.0220 0.7534 1.0983 7.6075 2.2535 33.8435
#
#
#
# Elastic Compliance Matrix: (Units=1/GPa)
#
#
# Indices 1 2 3 4 5 6 
#
# 1 0.014588 -0.002514 -0.008986 -0.001690 -0.006944 0.008958
# 2 -0.002514 0.013779 -0.004440 -0.001088 0.000805 -0.001310
# 3 -0.008986 -0.004440 0.021139 0.004490 0.005947 -0.006778
# 4 -0.001690 -0.001088 0.004490 0.037179 -0.004793 -0.009060
# 5 -0.006944 0.000805 0.005947 -0.004793 0.030189 -0.004841
# 6 0.008958 -0.001310 -0.006778 -0.009060 -0.004841 0.036926
#
#
# Mechanical properties :
#
#
# Convention : Reuss Voigt Hill
#
# Bulk Modulus (GPa) = 56.73217 59.76771 58.24994
# Shear Modulus (GPa) = 26.10209 32.11745 29.10977
#
# Velocity S-wave (km/s) = 3.56919 3.95915 3.76922
# Velocity P-wave (km/s) = 6.68383 7.07597 6.88269
#
# Compressibility (1/GPa) = 0.01762668
#
# Stress axis : x y z
#
# Youngs Moduli (GPa) = 68.54841 72.57576 47.30630
#
# Poissons Ratio (x) = 0.18243 0.42510
# Poissons Ratio (y) = 0.17230 0.21003
# Poissons Ratio (z) = 0.61598 0.32223
#
# Static dielectric constant tensor:
#      x y z
#    x 3.792760 -0.021420 0.321710 
#    y -0.021420 3.973720 0.028000 
#    z 0.321710 0.028000 3.496280 
# 
# 
# High freq. dielectric constant tensor:
#      x y z
#    x 1.806960 0.002080 0.025470 
#    y 0.002080 1.817240 -0.002130 
#    z 0.025470 -0.002130 1.782450 
# 
# From -- ./inp_files/122858.got.cif
#   From: 2010.06.25/outbox.cif.g09.slc.cpg/sg2_62_cif.got.tgz:122858.got - 2010.06.27 13:26:56.
