data_PCOD8016352
_publ_section_title
;
Structure prediction by ZEFSAII (Michael W. Deem and Ramdas Pophale) SiO2 
 PCOD8016352
Probable space group: P -1
;
_chemical_formula_sum "Si O2"
_cell_formula_units_Z 12
_cell_length_a 6.487117
_cell_length_b 23.609581
_cell_length_c 11.693948
_cell_angle_alpha 19.852489
_cell_angle_beta 57.040183
_cell_angle_gamma 59.203427
_cell_volume 510.337340
_symmetry_space_group_name_H-M "P -1"
_symmetry_group_IT_number 2
_symmetry_cell_setting 'triclinic'
loop_
_space_group_symop_operation_xyz
x,y,z
-x,-y,-z
loop_
_atom_site_type_symbol
_atom_site_label
_atom_site_fract_x
_atom_site_fract_y
_atom_site_fract_z
Si Si1 0.524257 0.740233 0.265300
Si Si2 0.981469 0.803915 0.367895
Si Si3 0.040961 0.040527 0.279176
Si Si4 0.563325 0.194723 0.089032
Si Si5 0.732156 0.563595 0.737513
Si Si6 0.875069 0.716829 0.812440
O O1 0.660183 0.589358 0.577154
O O2 0.258313 0.740929 0.399085
O O3 0.677843 0.908874 0.924204
O O4 0.514278 0.725118 0.160550
O O5 0.823421 0.740531 0.427930
O O6 0.855505 0.725789 0.665487
O O7 0.000000 0.000000 0.000000
O O8 0.859072 0.198445 0.005103
O O9 0.000000 0.000000 0.500000
O O10 0.992107 0.883946 0.510809
O O11 0.406351 0.304630 0.017825
O O12 0.500000 0.000000 0.500000
O O13 0.500000 0.500000 0.000000
O O14 0.959971 0.438112 0.906915
#
# Coordination Sequence:
#
# PCOD8016352 Si02
#       6
#     2   2   2   2   2   2
#     4  12  24  46  74 103 149 188 245 297 358 438
#     4  12  27  47  75 105 145 194 249 303 358 426
#     4  11  23  45  76 108 143 189 250 294 358 438
#     4  10  21  44  68 106 142 187 242 304 351 427
#     4  12  28  48  70 110 154 191 242 294 368 439
#     4  11  24  45  74 104 147 193 234 309 361 418
#
# _framework density 23.513859
#
# number of rings (size 3 to 8) (size 9 to 14) (size 15 to 20)
#    0.000    0.667    5.000    4.500    2.333    2.000 
#    0.000    1.667    0.000    0.000    0.000    0.000 
#    0.000    0.000    0.000    0.000    0.000    0.000 
#
# Total GULP energy -148738.737933 kJ/mol
# GULP energy per Si atom -12394.894828 kJ/mol
# Density = 2.346034 g / cm^3
# Si number density = 23.513859 Si / 1000 Ang^3
#
#
#
# Elastic Constant Matrix: (Units=GPa)
#
#
# Indices 1 2 3 4 5 6 
#
# 1 120.0735 47.2420 44.0945 9.3199 15.8531 6.4048
# 2 47.2420 133.6745 37.3011 12.1463 18.1154 -1.5301
# 3 44.0945 37.3011 86.1563 8.3210 24.7898 -0.6371
# 4 9.3199 12.1463 8.3210 33.5858 6.5417 19.1617
# 5 15.8531 18.1154 24.7898 6.5417 62.2569 11.0565
# 6 6.4048 -1.5301 -0.6371 19.1617 11.0565 25.4854
#
#
#
# Elastic Compliance Matrix: (Units=1/GPa)
#
#
# Indices 1 2 3 4 5 6 
#
# 1 0.011313 -0.002915 -0.004883 0.001656 0.000560 -0.004628
# 2 -0.002915 0.009807 -0.001587 -0.005573 -0.002021 0.006349
# 3 -0.004883 -0.001587 0.017204 -0.006207 -0.006066 0.008860
# 4 0.001656 -0.005573 -0.006207 0.059015 0.005971 -0.047868
# 5 0.000560 -0.002021 -0.006066 0.005971 0.020767 -0.013913
# 6 -0.004628 0.006349 0.008860 -0.047868 -0.013913 0.083030
#
#
# Mechanical properties :
#
#
# Convention : Reuss Voigt Hill
#
# Bulk Modulus (GPa) = 51.14360 66.35327 58.74843
# Shear Modulus (GPa) = 22.08250 38.35006 30.21628
#
# Velocity S-wave (km/s) = 3.06784 4.04289 3.58864
# Velocity P-wave (km/s) = 5.86059 7.07625 6.49692
#
# Compressibility (1/GPa) = 0.01955279
#
# Stress axis : x y z
#
# Youngs Moduli (GPa) = 88.39670 101.96930 58.12732
#
# Poissons Ratio (x) = 0.29721 0.28384
# Poissons Ratio (y) = 0.25765 0.09227
# Poissons Ratio (z) = 0.43165 0.16186
#
# Static dielectric constant tensor:
#      x y z
#    x 4.773380 -0.181090 0.193170 
#    y -0.181090 4.528380 0.035340 
#    z 0.193170 0.035340 4.182360 
# 
# 
# High freq. dielectric constant tensor:
#      x y z
#    x 1.946230 -0.007960 0.008960 
#    y -0.007960 1.931490 0.024690 
#    z 0.008960 0.024690 1.926230 
# 
# From -- ./inp_files/263657.got.cif
#   From: 2010.06.25/outbox.cif.g09.slc.cpg/sg2_132_cif.got.tgz:263657.got - 2010.06.27 13:26:56.
