data_PCOD8016866
_publ_section_title
;
Structure prediction by ZEFSAII (Michael W. Deem and Ramdas Pophale) SiO2 
 PCOD8016866
Probable space group: P -1
;
_chemical_formula_sum "Si O2"
_cell_formula_units_Z 12
_cell_length_a 5.121623
_cell_length_b 9.738937
_cell_length_c 14.893761
_cell_angle_alpha 67.095910
_cell_angle_beta 102.912617
_cell_angle_gamma 73.796182
_cell_volume 609.070671
_symmetry_space_group_name_H-M "P -1"
_symmetry_group_IT_number 2
_symmetry_cell_setting 'triclinic'
loop_
_space_group_symop_operation_xyz
x,y,z
-x,-y,-z
loop_
_atom_site_type_symbol
_atom_site_label
_atom_site_fract_x
_atom_site_fract_y
_atom_site_fract_z
Si Si1 0.240839 0.674430 0.088593
Si Si2 0.321824 0.952876 0.572214
Si Si3 0.232734 0.375919 0.245416
Si Si4 0.812640 0.698163 0.191372
Si Si5 0.973405 0.826332 0.846658
Si Si6 0.683976 0.967885 0.250034
O O1 0.338435 0.478256 0.155879
O O2 0.488706 0.728927 0.128474
O O3 0.953775 0.768434 0.105094
O O4 0.177450 0.720553 0.968611
O O5 0.481555 0.758447 0.651510
O O6 0.500000 0.000000 0.500000
O O7 0.309971 0.052763 0.636790
O O8 0.000000 0.000000 0.500000
O O9 0.043075 0.293825 0.201413
O O10 0.018705 0.504292 0.269504
O O11 0.807307 0.789193 0.260807
O O12 0.649176 0.931537 0.833638
O O13 0.112637 0.940868 0.784925
#
# Coordination Sequence:
#
# PCOD8016866 Si02
#       6
#     2   2   2   2   2   2
#     4  10  22  36  63  89 128 166 201 228 296 353
#     4  11  24  43  68  86 110 154 206 255 308 359
#     4   9  24  40  62  89 125 155 203 253 292 351
#     4  10  23  38  60  86 136 157 193 245 301 345
#     4  11  22  37  64  89 126 168 204 234 282 355
#     4  11  24  41  60  93 124 155 202 253 293 352
#
# _framework density 19.702145000000002
#
# number of rings (size 3 to 8) (size 9 to 14) (size 15 to 20)
#    1.000    0.667    0.000    4.500    7.000    4.667 
#    0.000    1.667    0.000    0.000    0.000    0.000 
#    0.000    0.000    0.000    0.000    0.000    0.000 
#
# Total GULP energy -148760.051654 kJ/mol
# GULP energy per Si atom -12396.670971 kJ/mol
# Density = 1.965730 g / cm^3
# Si number density = 19.702145 Si / 1000 Ang^3
#
#
#
# Elastic Constant Matrix: (Units=GPa)
#
#
# Indices 1 2 3 4 5 6 
#
# 1 146.4372 59.2415 47.6808 9.7900 6.3292 17.0434
# 2 59.2415 167.6139 70.4989 10.6837 3.0289 -12.0114
# 3 47.6808 70.4989 125.3536 9.4923 13.1310 4.6392
# 4 9.7900 10.6837 9.4923 11.2988 -1.0424 0.4640
# 5 6.3292 3.0289 13.1310 -1.0424 24.6337 4.9649
# 6 17.0434 -12.0114 4.6392 0.4640 4.9649 23.3505
#
#
#
# Elastic Compliance Matrix: (Units=1/GPa)
#
#
# Indices 1 2 3 4 5 6 
#
# 1 0.009840 -0.003303 -0.001280 -0.003964 0.000121 -0.008574
# 2 -0.003303 0.009733 -0.004309 -0.003048 0.000146 0.008303
# 3 -0.001280 -0.004309 0.011920 -0.005212 -0.005225 -0.002436
# 4 -0.003964 -0.003048 -0.005212 0.100064 0.008704 -0.001478
# 5 0.000121 0.000146 -0.005225 0.008704 0.045476 -0.008817
# 6 -0.008574 0.008303 -0.002436 -0.001478 -0.008817 0.055742
#
#
# Mechanical properties :
#
#
# Convention : Reuss Voigt Hill
#
# Bulk Modulus (GPa) = 72.95341 88.24969 80.60155
# Shear Modulus (GPa) = 19.59795 29.32217 24.46006
#
# Velocity S-wave (km/s) = 3.15733 3.86200 3.52730
# Velocity P-wave (km/s) = 7.09931 8.04835 7.58868
#
# Compressibility (1/GPa) = 0.01370738
#
# Stress axis : x y z
#
# Youngs Moduli (GPa) = 101.62958 102.74787 83.89331
#
# Poissons Ratio (x) = 0.33940 0.10740
# Poissons Ratio (y) = 0.33570 0.36149
# Poissons Ratio (z) = 0.13011 0.44274
#
# Static dielectric constant tensor:
#      x y z
#    x 3.714650 -0.067660 0.046880 
#    y -0.067660 3.586100 -0.047940 
#    z 0.046880 -0.047940 3.551980 
# 
# 
# High freq. dielectric constant tensor:
#      x y z
#    x 1.788540 0.001170 0.003940 
#    y 0.001170 1.765460 0.003490 
#    z 0.003940 0.003490 1.745590 
# 
# From -- ./inp_files/32175.got.cif
#   From: 2010.06.25/outbox.cif.g09.slc.cpg/sg2_17_cif.got.tgz:32175.got - 2010.06.27 13:26:56.
