data_PCOD8016266
_publ_section_title
;
Structure prediction by ZEFSAII (Michael W. Deem and Ramdas Pophale) SiO2 
 PCOD8016266
Probable space group: P -1
;
_chemical_formula_sum "Si O2"
_cell_formula_units_Z 16
_cell_length_a 9.527740
_cell_length_b 20.058940
_cell_length_c 17.093290
_cell_angle_alpha 19.186608
_cell_angle_beta 63.819533
_cell_angle_gamma 52.862561
_cell_volume 744.953606
_symmetry_space_group_name_H-M "P -1"
_symmetry_group_IT_number 2
_symmetry_cell_setting 'triclinic'
loop_
_space_group_symop_operation_xyz
x,y,z
-x,-y,-z
loop_
_atom_site_type_symbol
_atom_site_label
_atom_site_fract_x
_atom_site_fract_y
_atom_site_fract_z
Si Si1 0.547177 0.194274 0.122139
Si Si2 0.842939 0.596922 0.714951
Si Si3 0.068126 0.587326 0.817307
Si Si4 0.045913 0.539509 0.333393
Si Si5 0.150214 0.867645 0.780401
Si Si6 0.161129 0.905741 0.256546
Si Si7 0.592247 0.506292 0.645182
Si Si8 0.856955 0.284266 0.685894
O O1 0.631070 0.219242 0.155122
O O2 0.632629 0.893972 0.426045
O O3 0.307707 0.391172 0.969797
O O4 0.619329 0.271671 0.944754
O O5 0.965187 0.500418 0.711519
O O6 0.982757 0.584449 0.758816
O O7 0.808561 0.390465 0.977423
O O8 0.972986 0.890990 0.518950
O O9 0.000000 0.500000 0.000000
O O10 0.272944 0.425824 0.424937
O O11 0.968331 0.404267 0.546940
O O12 0.883195 0.848812 0.050477
O O13 0.028415 0.977450 0.770442
O O14 0.358418 0.763154 0.420440
O O15 0.183529 0.709940 0.403128
O O16 0.649389 0.437041 0.616420
O O17 0.000000 0.000000 0.000000
#
# Coordination Sequence:
#
# PCOD8016266 Si02
#       8
#     2   2   2   2   2   2   2   2
#     4  11  22  43  67  92 128 169 217 255 323 385
#     4  10  23  41  68  96 127 172 214 256 320 384
#     4  11  25  43  69  99 130 163 207 268 322 386
#     4  11  24  43  62  91 130 169 214 263 314 368
#     4  10  21  44  65  93 133 168 211 262 315 383
#     4  11  23  42  62  93 129 169 216 264 311 371
#     4  12  23  40  65  91 124 176 214 266 315 368
#     4  12  23  42  62  89 134 169 213 269 314 361
#
# _framework density 21.477848000000002
#
# number of rings (size 3 to 8) (size 9 to 14) (size 15 to 20)
#    0.000    1.000    5.000    3.000    0.000    6.000 
#    2.250    1.250    0.000    0.000    0.000    0.000 
#    0.000    0.000    0.000    0.000    0.000    0.000 
#
# Total GULP energy -198362.129148 kJ/mol
# GULP energy per Si atom -12397.633072 kJ/mol
# Density = 2.142896 g / cm^3
# Si number density = 21.477848 Si / 1000 Ang^3
#
#
#
# Elastic Constant Matrix: (Units=GPa)
#
#
# Indices 1 2 3 4 5 6 
#
# 1 110.4631 33.9232 73.2195 -14.0681 8.0644 -16.8905
# 2 33.9232 53.9730 21.8728 12.1885 -0.6078 -13.8374
# 3 73.2195 21.8728 163.4066 6.4322 -11.7998 -20.9694
# 4 -14.0681 12.1885 6.4322 25.0219 -5.3985 -6.8805
# 5 8.0644 -0.6078 -11.7998 -5.3985 44.0434 0.2970
# 6 -16.8905 -13.8374 -20.9694 -6.8805 0.2970 17.2564
#
#
#
# Elastic Compliance Matrix: (Units=1/GPa)
#
#
# Indices 1 2 3 4 5 6 
#
# 1 0.025127 -0.014990 -0.009023 0.026200 -0.004096 0.012126
# 2 -0.014990 0.033585 0.004288 -0.023341 0.001441 0.008138
# 3 -0.009023 0.004288 0.010727 -0.007932 0.003583 0.004417
# 4 0.026200 -0.023341 -0.007932 0.076103 0.001898 0.027600
# 5 -0.004096 0.001441 0.003583 0.001898 0.024655 0.001833
# 6 0.012126 0.008138 0.004417 0.027600 0.001833 0.092686
#
#
# Mechanical properties :
#
#
# Convention : Reuss Voigt Hill
#
# Bulk Modulus (GPa) = 33.34548 65.09707 49.22127
# Shear Modulus (GPa) = 16.00875 30.51948 23.26412
#
# Velocity S-wave (km/s) = 2.73309 3.77367 3.29472
# Velocity P-wave (km/s) = 5.05163 7.02582 6.11887
#
# Compressibility (1/GPa) = 0.02998907
#
# Stress axis : x y z
#
# Youngs Moduli (GPa) = 39.79748 29.77508 93.22509
#
# Poissons Ratio (x) = 0.44633 0.84121
# Poissons Ratio (y) = 0.59656 -0.39979
# Poissons Ratio (z) = 0.35911 -0.12769
#
# Static dielectric constant tensor:
#      x y z
#    x 3.991750 -0.050880 -0.167130 
#    y -0.050880 4.120290 -0.167360 
#    z -0.167130 -0.167360 4.514740 
# 
# 
# High freq. dielectric constant tensor:
#      x y z
#    x 1.844280 -0.001260 -0.000540 
#    y -0.001260 1.820930 0.007650 
#    z -0.000540 0.007650 1.859320 
# 
# From -- ./inp_files/562537.got.cif
#   From: 2010.06.25/outbox.cif.g09.slc.cpg/sg2_282_cif.got.tgz:562537.got - 2010.06.27 13:26:56.
