data_PCOD8016287
_publ_section_title
;
Structure prediction by ZEFSAII (Michael W. Deem and Ramdas Pophale) SiO2 
 PCOD8016287
Probable space group: P -1
;
_chemical_formula_sum "Si O2"
_cell_formula_units_Z 14
_cell_length_a 7.745563
_cell_length_b 9.581546
_cell_length_c 9.347975
_cell_angle_alpha 118.382730
_cell_angle_beta 102.485493
_cell_angle_gamma 81.116864
_cell_volume 594.847195
_symmetry_space_group_name_H-M "P -1"
_symmetry_group_IT_number 2
_symmetry_cell_setting 'triclinic'
loop_
_space_group_symop_operation_xyz
x,y,z
-x,-y,-z
loop_
_atom_site_type_symbol
_atom_site_label
_atom_site_fract_x
_atom_site_fract_y
_atom_site_fract_z
Si Si1 0.848024 0.066668 0.106369
Si Si2 0.661745 0.101768 0.547671
Si Si3 0.045456 0.350941 0.336793
Si Si4 0.586660 0.626738 0.480539
Si Si5 0.797453 0.521721 0.182461
Si Si6 0.249997 0.150322 0.770599
Si Si7 0.349410 0.771808 0.102399
O O1 0.929167 0.202378 0.286544
O O2 0.780537 0.920191 0.112862
O O3 0.693207 0.140016 0.011960
O O4 0.000000 0.000000 0.000000
O O5 0.580007 0.250360 0.515131
O O6 0.754458 0.152124 0.738347
O O7 0.500000 0.000000 0.500000
O O8 0.793924 0.987296 0.418971
O O9 0.254752 0.299016 0.361390
O O10 0.000000 0.500000 0.500000
O O11 0.978097 0.413605 0.199181
O O12 0.500000 0.500000 0.500000
O O13 0.671766 0.557809 0.315625
O O14 0.863723 0.684653 0.203197
O O15 0.689313 0.414403 0.002298
O O16 0.446092 0.210733 0.820020
#
# Coordination Sequence:
#
# PCOD8016287 Si02
#       7
#     2   2   2   2   2   2   2
#     4  11  26  44  65  99 133 178 215 277 336 384
#     4  10  22  40  66 100 131 167 222 276 320 383
#     4   9  23  44  63  90 136 171 216 265 324 397
#     4  11  23  40  69  99 129 174 226 264 326 396
#     4  10  21  44  65  99 134 177 214 274 330 385
#     4  11  23  42  69 100 132 175 223 269 329 389
#     4  10  22  43  67  95 141 167 224 267 327 397
#
# _framework density 23.535456
#
# number of rings (size 3 to 8) (size 9 to 14) (size 15 to 20)
#    0.000    1.714    2.857    0.857   10.000    1.143 
#    2.571    5.000    0.000    0.000    0.000    0.000 
#    0.000    0.000    0.000    0.000    0.000    0.000 
#
# Total GULP energy -173454.969160 kJ/mol
# GULP energy per Si atom -12389.640654 kJ/mol
# Density = 2.348189 g / cm^3
# Si number density = 23.535456 Si / 1000 Ang^3
#
#
#
# Elastic Constant Matrix: (Units=GPa)
#
#
# Indices 1 2 3 4 5 6 
#
# 1 27.7581 15.4541 28.9690 -1.7005 6.8020 8.5418
# 2 15.4541 170.6987 62.2266 -2.8304 -5.7733 27.1858
# 3 28.9690 62.2266 135.7646 13.8904 7.7602 11.5219
# 4 -1.7005 -2.8304 13.8904 38.1887 -0.8265 -5.5263
# 5 6.8020 -5.7733 7.7602 -0.8265 31.8258 -1.4344
# 6 8.5418 27.1858 11.5219 -5.5263 -1.4344 21.6184
#
#
#
# Elastic Compliance Matrix: (Units=1/GPa)
#
#
# Indices 1 2 3 4 5 6 
#
# 1 0.054096 0.001449 -0.010581 0.003666 -0.009401 -0.017243
# 2 0.001449 0.008578 -0.003643 0.000745 0.001743 -0.009111
# 3 -0.010581 -0.003643 0.011773 -0.004886 -0.001345 0.001150
# 4 0.003666 0.000745 -0.004886 0.029351 0.001658 0.007832
# 5 -0.009401 0.001743 -0.001345 0.001658 0.034340 0.004941
# 6 -0.017243 -0.009111 0.001150 0.007832 0.004941 0.066245
#
#
# Mechanical properties :
#
#
# Convention : Reuss Voigt Hill
#
# Bulk Modulus (GPa) = 20.45205 60.83564 40.64385
# Shear Modulus (GPa) = 20.30610 33.49803 26.90207
#
# Velocity S-wave (km/s) = 2.94051 3.77676 3.38456
# Velocity P-wave (km/s) = 4.49862 6.70247 5.70792
#
# Compressibility (1/GPa) = 0.04889485
#
# Stress axis : x y z
#
# Youngs Moduli (GPa) = 18.48561 116.58274 84.94357
#
# Poissons Ratio (x) = -0.16890 0.89881
# Poissons Ratio (y) = -0.02678 0.30947
# Poissons Ratio (z) = 0.19560 0.42473
#
# Static dielectric constant tensor:
#      x y z
#    x 4.040730 -0.292450 0.250380 
#    y -0.292450 4.672920 -0.288800 
#    z 0.250380 -0.288800 5.380850 
# 
# 
# High freq. dielectric constant tensor:
#      x y z
#    x 1.896570 -0.007120 0.014040 
#    y -0.007120 1.950360 0.005340 
#    z 0.014040 0.005340 1.937850 
# 
# From -- ./inp_files/159947.got.cif
#   From: 2010.06.25/outbox.cif.g09.slc.cpg/sg2_80_cif.got.tgz:159947.got - 2010.06.27 13:26:56.
