data_PCOD8016910
_publ_section_title
;
Structure prediction by ZEFSAII (Michael W. Deem and Ramdas Pophale) SiO2 
 PCOD8016910
Probable space group: P -1
;
_chemical_formula_sum "Si O2"
_cell_formula_units_Z 14
_cell_length_a 14.121296
_cell_length_b 11.849508
_cell_length_c 14.019283
_cell_angle_alpha 52.296095
_cell_angle_beta 126.386173
_cell_angle_gamma 158.913003
_cell_volume 665.652031
_symmetry_space_group_name_H-M "P -1"
_symmetry_group_IT_number 2
_symmetry_cell_setting 'triclinic'
loop_
_space_group_symop_operation_xyz
x,y,z
-x,-y,-z
loop_
_atom_site_type_symbol
_atom_site_label
_atom_site_fract_x
_atom_site_fract_y
_atom_site_fract_z
Si Si1 0.639194 0.139728 0.911544
Si Si2 0.753050 0.124457 0.284483
Si Si3 0.238648 0.573678 0.644874
Si Si4 0.173903 0.229453 0.682005
Si Si5 0.191443 0.710885 0.362366
Si Si6 0.125965 0.853612 0.853866
Si Si7 0.620109 0.727136 0.535297
O O1 0.835794 0.486660 0.843034
O O2 0.427655 0.929001 0.808282
O O3 0.776633 0.132926 0.002465
O O4 0.500000 0.000000 0.000000
O O5 0.719940 0.999132 0.231104
O O6 0.055039 0.500295 0.293418
O O7 0.642227 0.914329 0.415981
O O8 0.206870 0.368607 0.721016
O O9 0.221901 0.618752 0.505052
O O10 0.000127 0.373103 0.669487
O O11 0.521440 0.915426 0.684933
O O12 0.437262 0.528998 0.621099
O O13 0.141305 0.033551 0.802341
O O14 0.912823 0.986596 0.593632
O O15 0.500000 0.500000 0.500000
#
# Coordination Sequence:
#
# PCOD8016910 Si02
#       7
#     2   2   2   2   2   2   2
#     4   9  21  40  59  89 116 156 205 242 304 357
#     4  11  22  36  62  88 121 158 199 252 295 358
#     4  10  22  39  54  84 119 165 202 238 289 352
#     4  12  24  39  60  88 129 161 193 242 306 365
#     4  10  22  37  58  81 120 160 207 240 285 351
#     4  10  22  39  62  89 119 159 197 249 305 363
#     4  12  24  35  55  96 129 156 189 239 312 368
#
# _framework density 21.03201
#
# number of rings (size 3 to 8) (size 9 to 14) (size 15 to 20)
#    0.000    1.429    2.857    2.143   10.000    0.000 
#    0.000    0.000    0.000    1.714    0.000    0.000 
#    0.000    0.000    0.000    0.000    0.000    0.000 
#
# Total GULP energy -173537.773401 kJ/mol
# GULP energy per Si atom -12395.555243 kJ/mol
# Density = 2.098414 g / cm^3
# Si number density = 21.032010 Si / 1000 Ang^3
#
#
#
# Elastic Constant Matrix: (Units=GPa)
#
#
# Indices 1 2 3 4 5 6 
#
# 1 75.1787 23.7060 22.2869 -6.8009 23.0464 -9.1855
# 2 23.7060 114.9385 57.1263 13.1099 23.7123 -0.6577
# 3 22.2869 57.1263 95.1223 -1.0611 34.8185 -6.6506
# 4 -6.8009 13.1099 -1.0611 37.8591 2.3787 1.3007
# 5 23.0464 23.7123 34.8185 2.3787 23.9078 -6.4423
# 6 -9.1855 -0.6577 -6.6506 1.3007 -6.4423 42.0579
#
#
#
# Elastic Compliance Matrix: (Units=1/GPa)
#
#
# Indices 1 2 3 4 5 6 
#
# 1 0.021842 -0.003008 0.007717 0.007006 -0.029690 0.001179
# 2 -0.003008 0.013743 -0.008240 -0.005575 0.001460 -0.001349
# 3 0.007717 -0.008240 0.029500 0.007801 -0.043177 -0.000634
# 4 0.007006 -0.005575 0.007801 0.030841 -0.015843 -0.000704
# 5 -0.029690 0.001460 -0.043177 -0.015843 0.135606 0.007973
# 6 0.001179 -0.001349 -0.000634 -0.000704 0.007973 0.025156
#
#
# Mechanical properties :
#
#
# Convention : Reuss Voigt Hill
#
# Bulk Modulus (GPa) = 17.23398 54.60867 35.92132
# Shear Modulus (GPa) = 17.66222 32.90631 25.28427
#
# Velocity S-wave (km/s) = 2.90104 3.95977 3.47101
# Velocity P-wave (km/s) = 4.40832 6.85035 5.76023
#
# Compressibility (1/GPa) = 0.05802490
#
# Stress axis : x y z
#
# Youngs Moduli (GPa) = 45.78376 72.76504 33.89807
#
# Poissons Ratio (x) = 0.21885 -0.26160
# Poissons Ratio (y) = 0.13770 0.27931
# Poissons Ratio (z) = -0.35332 0.59955
#
# Static dielectric constant tensor:
#      x y z
#    x 3.683460 0.161550 0.414890 
#    y 0.161550 4.069470 0.234620 
#    z 0.414890 0.234620 4.443950 
# 
# 
# High freq. dielectric constant tensor:
#      x y z
#    x 1.813330 0.017130 0.014690 
#    y 0.017130 1.837480 0.004500 
#    z 0.014690 0.004500 1.799640 
# 
# From -- ./inp_files/67412.got.cif
#   From: 2010.06.25/outbox.cif.g09.slc.cpg/sg2_34_cif.got.tgz:67412.got - 2010.06.27 13:26:56.
