data_PCOD8016841
_publ_section_title
;
Structure prediction by ZEFSAII (Michael W. Deem and Ramdas Pophale) SiO2 
 PCOD8016841
Probable space group: P -1
;
_chemical_formula_sum "Si O2"
_cell_formula_units_Z 16
_cell_length_a 17.093265
_cell_length_b 5.224565
_cell_length_c 12.609771
_cell_angle_alpha 112.027964
_cell_angle_beta 137.982971
_cell_angle_gamma 82.429088
_cell_volume 678.878487
_symmetry_space_group_name_H-M "P -1"
_symmetry_group_IT_number 2
_symmetry_cell_setting 'triclinic'
loop_
_space_group_symop_operation_xyz
x,y,z
-x,-y,-z
loop_
_atom_site_type_symbol
_atom_site_label
_atom_site_fract_x
_atom_site_fract_y
_atom_site_fract_z
Si Si1 0.724287 0.288801 0.610954
Si Si2 0.151506 0.150372 0.785725
Si Si3 0.308187 0.466457 0.169668
Si Si4 0.448403 0.982308 0.267699
Si Si5 0.758842 0.706202 0.517518
Si Si6 0.919192 0.712983 0.481266
Si Si7 0.360904 0.913096 0.951869
Si Si8 0.467733 0.571202 0.862238
O O1 0.758040 0.455625 0.780453
O O2 0.581127 0.169642 0.444460
O O3 0.769673 0.504556 0.594422
O O4 0.795427 0.037231 0.638245
O O5 0.172321 0.280048 0.707534
O O6 0.219214 0.888662 0.821276
O O7 0.204076 0.389362 0.963299
O O8 0.009323 0.022887 0.639658
O O9 0.360210 0.195821 0.209800
O O10 0.411825 0.745951 0.285463
O O11 0.425596 0.801356 0.103038
O O12 0.840987 0.629633 0.494837
O O13 0.618717 0.668113 0.333023
O O14 0.000000 0.500000 0.500000
O O15 0.383456 0.792553 0.841197
O O16 0.419054 0.258263 0.065771
O O17 0.500000 0.500000 0.000000
#
# Coordination Sequence:
#
# PCOD8016841 Si02
#       8
#     2   2   2   2   2   2   2   2
#     4  12  25  46  65 103 143 185 229 272 336 414
#     4  10  25  43  70  98 130 173 235 286 342 402
#     4  11  25  43  71 100 139 185 232 275 332 403
#     4  11  22  40  68 102 140 185 223 274 334 404
#     4  12  27  42  70  98 140 182 225 282 350 402
#     4  11  26  47  73  97 132 176 233 292 355 409
#     4  10  22  36  60  98 133 170 215 279 335 412
#     4  11  22  35  59  95 141 176 212 268 347 412
#
# _framework density 23.568282
#
# number of rings (size 3 to 8) (size 9 to 14) (size 15 to 20)
#    0.000    1.000    1.250    4.500   17.500    0.000 
#    0.000    1.250    0.000    0.000    0.000    0.000 
#    0.000    0.000    0.000    0.000    0.000    0.000 
#
# Total GULP energy -198403.545238 kJ/mol
# GULP energy per Si atom -12400.221577 kJ/mol
# Density = 2.351464 g / cm^3
# Si number density = 23.568282 Si / 1000 Ang^3
#
#
#
# Elastic Constant Matrix: (Units=GPa)
#
#
# Indices 1 2 3 4 5 6 
#
# 1 109.5071 31.0689 45.7076 2.3798 -23.0160 18.9720
# 2 31.0689 105.1878 15.2449 4.0948 -12.9790 16.4392
# 3 45.7076 15.2449 101.5924 -1.0710 -14.8285 -0.5527
# 4 2.3798 4.0948 -1.0710 25.5324 -2.9120 -7.1758
# 5 -23.0160 -12.9790 -14.8285 -2.9120 35.4277 -0.7610
# 6 18.9720 16.4392 -0.5527 -7.1758 -0.7610 39.7685
#
#
#
# Elastic Compliance Matrix: (Units=1/GPa)
#
#
# Indices 1 2 3 4 5 6 
#
# 1 0.014294 -0.001566 -0.005364 -0.002455 0.006125 -0.006572
# 2 -0.001566 0.011142 -0.000655 -0.002590 0.002485 -0.004287
# 3 -0.005364 -0.000655 0.012667 0.002319 0.001842 0.003459
# 4 -0.002455 -0.002590 0.002319 0.042986 0.002177 0.010072
# 5 0.006125 0.002485 0.001842 0.002177 0.034004 -0.002880
# 6 -0.006572 -0.004287 0.003459 0.010072 -0.002880 0.031863
#
#
# Mechanical properties :
#
#
# Convention : Reuss Voigt Hill
#
# Bulk Modulus (GPa) = 43.60600 55.59223 49.59912
# Shear Modulus (GPa) = 29.45139 35.09678 32.27409
#
# Velocity S-wave (km/s) = 3.53883 3.86314 3.70454
# Velocity P-wave (km/s) = 5.93632 6.59829 6.27604
#
# Compressibility (1/GPa) = 0.02293262
#
# Stress axis : x y z
#
# Youngs Moduli (GPa) = 69.95837 89.75132 78.94574
#
# Poissons Ratio (x) = 0.14058 0.42345
# Poissons Ratio (y) = 0.10957 0.05172
# Poissons Ratio (z) = 0.37524 0.05880
#
# Static dielectric constant tensor:
#      x y z
#    x 5.009950 -0.566350 -0.754470 
#    y -0.566350 4.759190 0.485930 
#    z -0.754470 0.485930 4.708810 
# 
# 
# High freq. dielectric constant tensor:
#      x y z
#    x 1.929320 -0.003770 -0.015650 
#    y -0.003770 1.951690 0.006760 
#    z -0.015650 0.006760 1.919180 
# 
# From -- ./inp_files/442194.got.cif
#   From: 2010.06.25/outbox.cif.g09.slc.cpg/sg2_222_cif.got.tgz:442194.got - 2010.06.27 13:26:56.
