data_PCOD8016876
_publ_section_title
;
Structure prediction by ZEFSAII (Michael W. Deem and Ramdas Pophale) SiO2 
 PCOD8016876
Probable space group: P -1
;
_chemical_formula_sum "Si O2"
_cell_formula_units_Z 14
_cell_length_a 10.984296
_cell_length_b 8.743150
_cell_length_c 11.654744
_cell_angle_alpha 39.778076
_cell_angle_beta 90.851249
_cell_angle_gamma 70.481736
_cell_volume 602.638223
_symmetry_space_group_name_H-M "P -1"
_symmetry_group_IT_number 2
_symmetry_cell_setting 'triclinic'
loop_
_space_group_symop_operation_xyz
x,y,z
-x,-y,-z
loop_
_atom_site_type_symbol
_atom_site_label
_atom_site_fract_x
_atom_site_fract_y
_atom_site_fract_z
Si Si1 0.663898 0.767714 0.376767
Si Si2 0.289377 0.596191 0.210193
Si Si3 0.990181 0.715911 0.546714
Si Si4 0.092145 0.154041 0.771805
Si Si5 0.587473 0.642533 0.888311
Si Si6 0.228312 0.693685 0.721306
Si Si7 0.529107 0.695800 0.210613
O O1 0.748781 0.560582 0.604375
O O2 0.763520 0.863747 0.264169
O O3 0.620694 0.603713 0.382052
O O4 0.510686 0.030047 0.267729
O O5 0.374048 0.381879 0.230672
O O6 0.379486 0.712133 0.207027
O O7 0.139390 0.867302 0.005067
O O8 0.007391 0.802985 0.365887
O O9 0.001621 0.417443 0.706215
O O10 0.116651 0.661774 0.663297
O O11 0.836384 0.971779 0.447771
O O12 0.500000 0.500000 0.000000
O O13 0.737498 0.477808 0.059165
O O14 0.379027 0.551074 0.738939
O O15 0.500000 0.000000 0.000000
#
# Coordination Sequence:
#
# PCOD8016876 Si02
#       7
#     2   2   2   2   2   2   2
#     4  12  24  39  65  95 125 158 200 255 316 367
#     4  12  24  39  65  95 125 158 200 255 316 367
#     4  10  22  36  64  87 114 173 207 249 293 355
#     4  11  21  42  64  86 121 161 214 248 300 353
#     4  12  20  39  65  94 127 159 195 255 314 368
#     4  11  19  36  66  90 121 161 208 240 310 359
#     4  12  20  39  65  94 127 159 195 255 314 368
#
# _framework density 23.231185
#
# number of rings (size 3 to 8) (size 9 to 14) (size 15 to 20)
#    0.000    0.571    8.571    0.857    0.000    0.000 
#    0.000    2.857    0.000    1.714    0.000    0.000 
#    0.000    0.000    0.000    0.000    0.000    0.000 
#
# Total GULP energy -173542.269787 kJ/mol
# GULP energy per Si atom -12395.876413 kJ/mol
# Density = 2.317831 g / cm^3
# Si number density = 23.231185 Si / 1000 Ang^3
#
#
#
# Elastic Constant Matrix: (Units=GPa)
#
#
# Indices 1 2 3 4 5 6 
#
# 1 49.1160 14.1831 15.2271 5.7678 17.2577 11.3903
# 2 14.1831 140.4747 42.4611 -8.4235 4.6820 1.6716
# 3 15.2271 42.4611 138.5288 3.6910 22.4649 -0.3274
# 4 5.7678 -8.4235 3.6910 49.1890 4.0881 19.1930
# 5 17.2577 4.6820 22.4649 4.0881 28.4781 9.3199
# 6 11.3903 1.6716 -0.3274 19.1930 9.3199 31.9227
#
#
#
# Elastic Compliance Matrix: (Units=1/GPa)
#
#
# Indices 1 2 3 4 5 6 
#
# 1 0.027328 -0.002245 0.000027 -0.000363 -0.014461 -0.005193
# 2 -0.002245 0.008259 -0.002744 0.002384 0.002413 -0.001797
# 3 0.000027 -0.002744 0.009403 -0.001976 -0.007920 0.003731
# 4 -0.000363 0.002384 -0.001976 0.027478 0.003155 -0.017458
# 5 -0.014461 0.002413 -0.007920 0.003155 0.053376 -0.012528
# 6 -0.005193 -0.001797 0.003731 -0.017458 -0.012528 0.047465
#
#
# Mechanical properties :
#
#
# Convention : Reuss Voigt Hill
#
# Bulk Modulus (GPa) = 28.51849 52.42913 40.47381
# Shear Modulus (GPa) = 25.65141 39.00116 32.32629
#
# Velocity S-wave (km/s) = 3.32653 4.10180 3.73433
# Velocity P-wave (km/s) = 5.20163 6.71196 6.00447
#
# Compressibility (1/GPa) = 0.03506496
#
# Stress axis : x y z
#
# Youngs Moduli (GPa) = 36.59244 121.08465 106.35441
#
# Poissons Ratio (x) = 0.27187 -0.00286
# Poissons Ratio (y) = 0.08216 0.29181
# Poissons Ratio (z) = -0.00098 0.33222
#
# Static dielectric constant tensor:
#      x y z
#    x 3.856500 0.093510 0.588750 
#    y 0.093510 4.723640 0.035130 
#    z 0.588750 0.035130 4.378290 
# 
# 
# High freq. dielectric constant tensor:
#      x y z
#    x 1.886110 0.009240 0.045330 
#    y 0.009240 1.941890 -0.001570 
#    z 0.045330 -0.001570 1.916690 
# 
# From -- ./inp_files/195235.got.cif
#   From: 2010.06.25/outbox.cif.g09.slc.cpg/sg2_98_cif.got.tgz:195235.got - 2010.06.27 13:26:56.
