data_PCOD8016510
_publ_section_title
;
Structure prediction by ZEFSAII (Michael W. Deem and Ramdas Pophale) SiO2 
 PCOD8016510
Probable space group: P -1
;
_chemical_formula_sum "Si O2"
_cell_formula_units_Z 16
_cell_length_a 5.713974
_cell_length_b 5.165398
_cell_length_c 27.745394
_cell_angle_alpha 58.630081
_cell_angle_beta 76.511913
_cell_angle_gamma 97.069391
_cell_volume 649.768574
_symmetry_space_group_name_H-M "P -1"
_symmetry_group_IT_number 2
_symmetry_cell_setting 'triclinic'
loop_
_space_group_symop_operation_xyz
x,y,z
-x,-y,-z
loop_
_atom_site_type_symbol
_atom_site_label
_atom_site_fract_x
_atom_site_fract_y
_atom_site_fract_z
Si Si1 0.298364 0.098305 0.464110
Si Si2 0.831506 0.328873 0.889205
Si Si3 0.517857 0.718228 0.431683
Si Si4 0.268438 0.680037 0.767642
Si Si5 0.512206 0.863716 0.161047
Si Si6 0.280610 0.811811 0.271101
Si Si7 0.984986 0.705709 0.934962
Si Si8 0.011769 0.847341 0.678564
O O1 0.393410 0.481216 0.416920
O O2 0.500000 0.000000 0.500000
O O3 0.339597 0.947439 0.425509
O O4 0.000000 0.000000 0.500000
O O5 0.037438 0.588627 0.824182
O O6 0.789745 0.486072 0.926938
O O7 0.577213 0.229351 0.880130
O O8 0.907329 0.009611 0.926554
O O9 0.500000 0.500000 0.500000
O O10 0.808741 0.907965 0.390787
O O11 0.429002 0.434847 0.788009
O O12 0.177113 0.668339 0.718156
O O13 0.437537 0.040513 0.735882
O O14 0.299512 0.922259 0.202133
O O15 0.745932 0.179687 0.116044
O O16 0.187902 0.426357 0.316074
O O17 0.099929 0.961420 0.295771
O O18 0.000000 0.500000 0.000000
#
# Coordination Sequence:
#
# PCOD8016510 Si02
#       8
#     2   2   2   2   2   2   2   2
#     4  10  21  44  73  99 134 188 239 287 348 435
#     4  11  24  41  72  92 139 181 224 289 349 409
#     4  10  23  48  68  99 143 184 234 292 363 436
#     4  11  24  43  67 101 136 173 238 284 357 414
#     4  11  25  43  71 100 135 185 228 285 361 409
#     4  12  24  43  67 101 136 176 233 290 353 415
#     4  11  26  44  67 103 139 180 233 281 339 421
#     4  12  27  44  70 103 141 179 235 294 356 424
#
# _framework density 24.624154000000001
#
# number of rings (size 3 to 8) (size 9 to 14) (size 15 to 20)
#    0.000    1.000    3.750    1.500    5.250    1.000 
#   13.500    0.000    0.000    0.000    0.000    0.000 
#    0.000    0.000    0.000    0.000    0.000    0.000 
#
# Total GULP energy -198289.141915 kJ/mol
# GULP energy per Si atom -12393.071370 kJ/mol
# Density = 2.456811 g / cm^3
# Si number density = 24.624154 Si / 1000 Ang^3
#
#
#
# Elastic Constant Matrix: (Units=GPa)
#
#
# Indices 1 2 3 4 5 6 
#
# 1 61.8244 16.1282 -7.5486 -4.7516 -1.4386 1.4017
# 2 16.1282 165.5864 17.3761 -12.9658 -17.4151 -6.0338
# 3 -7.5486 17.3761 67.9222 -15.6062 -2.2337 -10.3768
# 4 -4.7516 -12.9658 -15.6062 36.1926 7.5722 -9.0287
# 5 -1.4386 -17.4151 -2.2337 7.5722 25.4453 3.6612
# 6 1.4017 -6.0338 -10.3768 -9.0287 3.6612 29.8122
#
#
#
# Elastic Compliance Matrix: (Units=1/GPa)
#
#
# Indices 1 2 3 4 5 6 
#
# 1 0.017289 -0.001839 0.003377 0.003639 -0.001247 0.001246
# 2 -0.001839 0.006907 -0.001520 0.000895 0.004120 0.000721
# 3 0.003377 -0.001520 0.019681 0.011874 -0.004165 0.010492
# 4 0.003639 0.000895 0.011874 0.040746 -0.012864 0.018063
# 5 -0.001247 0.004120 -0.004165 -0.012864 0.046983 -0.010223
# 6 0.001246 0.000721 0.010492 0.018063 -0.010223 0.044008
#
#
# Mechanical properties :
#
#
# Convention : Reuss Voigt Hill
#
# Bulk Modulus (GPa) = 22.77183 38.58272 30.67728
# Shear Modulus (GPa) = 26.28580 36.24851 31.26716
#
# Velocity S-wave (km/s) = 3.27078 3.84092 3.56726
# Velocity P-wave (km/s) = 4.85096 5.94751 5.42700
#
# Compressibility (1/GPa) = 0.04391390
#
# Stress axis : x y z
#
# Youngs Moduli (GPa) = 57.83881 144.77048 50.81019
#
# Poissons Ratio (x) = 0.26627 -0.17161
# Poissons Ratio (y) = 0.10638 0.07724
# Poissons Ratio (z) = -0.19534 0.22008
#
# Static dielectric constant tensor:
#      x y z
#    x 4.366550 -0.211430 -0.126200 
#    y -0.211430 5.836300 -0.122460 
#    z -0.126200 -0.122460 4.245750 
# 
# 
# High freq. dielectric constant tensor:
#      x y z
#    x 1.964390 0.008360 -0.013020 
#    y 0.008360 2.006570 -0.006630 
#    z -0.013020 -0.006630 1.966130 
# 
# From -- ./inp_files/621592.got.cif
#   From: 2010.06.25/outbox.cif.g09.slc.cpg/sg2_311_cif.got.tgz:621592.got - 2010.06.27 13:26:56.
