data_PCOD8016097
_publ_section_title
;
Structure prediction by ZEFSAII (Michael W. Deem and Ramdas Pophale) SiO2 
 PCOD8016097
Probable space group: P -1
;
_chemical_formula_sum "Si O2"
_cell_formula_units_Z 16
_cell_length_a 7.009506
_cell_length_b 11.994627
_cell_length_c 10.487026
_cell_angle_alpha 117.718176
_cell_angle_beta 112.877502
_cell_angle_gamma 85.897581
_cell_volume 712.649071
_symmetry_space_group_name_H-M "P -1"
_symmetry_group_IT_number 2
_symmetry_cell_setting 'triclinic'
loop_
_space_group_symop_operation_xyz
x,y,z
-x,-y,-z
loop_
_atom_site_type_symbol
_atom_site_label
_atom_site_fract_x
_atom_site_fract_y
_atom_site_fract_z
Si Si1 0.819788 0.576617 0.451106
Si Si2 0.559183 0.573208 0.864467
Si Si3 0.264695 0.278272 0.246403
Si Si4 0.486349 0.041447 0.162292
Si Si5 0.589945 0.319014 0.866705
Si Si6 0.895759 0.153347 0.952403
Si Si7 0.081123 0.035681 0.714532
Si Si8 0.819895 0.809753 0.414255
O O1 0.657702 0.472772 0.285183
O O2 0.711852 0.636329 0.575695
O O3 0.906595 0.686422 0.430983
O O4 0.000000 0.500000 0.500000
O O5 0.716890 0.638858 0.834459
O O6 0.652485 0.454996 0.889172
O O7 0.520930 0.671647 0.019041
O O8 0.444805 0.186707 0.246028
O O9 0.027523 0.202321 0.139017
O O10 0.297184 0.951019 0.126010
O O11 0.703701 0.024706 0.279797
O O12 0.500000 0.000000 0.000000
O O13 0.808084 0.265756 0.912591
O O14 0.430592 0.225780 0.687140
O O15 0.067895 0.094556 0.881648
O O16 0.069142 0.148152 0.668452
O O17 0.879107 0.928301 0.588372
#
# Coordination Sequence:
#
# PCOD8016097 Si02
#       8
#     2   2   2   2   2   2   2   2
#     4  11  25  43  67  95 135 175 223 278 333 390
#     4  10  23  44  66  95 132 175 225 275 334 387
#     4  12  25  41  67 101 134 173 226 269 335 401
#     4  12  25  43  70 100 141 173 214 279 330 401
#     4  10  21  43  70  93 133 176 221 279 327 395
#     4  12  24  42  70 102 129 175 224 267 338 399
#     4  11  24  44  69 100 135 175 221 272 334 398
#     4  10  23  45  63  98 132 177 219 272 334 392
#
# _framework density 22.451440000000002
#
# number of rings (size 3 to 8) (size 9 to 14) (size 15 to 20)
#    0.000    1.000    2.500    3.750    3.500    2.000 
#    9.000    0.000    0.000    0.000    0.000    0.000 
#    0.000    0.000    0.000    0.000    0.000    0.000 
#
# Total GULP energy -198424.039928 kJ/mol
# GULP energy per Si atom -12401.502495 kJ/mol
# Density = 2.240034 g / cm^3
# Si number density = 22.451440 Si / 1000 Ang^3
#
#
#
# Elastic Constant Matrix: (Units=GPa)
#
#
# Indices 1 2 3 4 5 6 
#
# 1 85.6544 52.6492 23.8504 -3.1691 -0.2910 -13.5191
# 2 52.6492 120.3845 36.4035 -11.0915 0.7304 -16.5957
# 3 23.8504 36.4035 89.5287 -5.4857 3.2939 0.5932
# 4 -3.1691 -11.0915 -5.4857 31.5355 0.2801 6.4155
# 5 -0.2910 0.7304 3.2939 0.2801 29.2832 -0.4581
# 6 -13.5191 -16.5957 0.5932 6.4155 -0.4581 32.8818
#
#
#
# Elastic Compliance Matrix: (Units=1/GPa)
#
#
# Indices 1 2 3 4 5 6 
#
# 1 0.016686 -0.006279 -0.002048 -0.001722 0.000633 0.004073
# 2 -0.006279 0.012790 -0.003393 0.002579 0.000029 0.003432
# 3 -0.002048 -0.003393 0.013266 0.001556 -0.001492 -0.003118
# 4 -0.001722 0.002579 0.001556 0.033955 -0.000676 -0.006069
# 5 0.000633 0.000029 -0.001492 -0.000676 0.034343 0.000912
# 6 0.004073 0.003432 -0.003118 -0.006069 0.000912 0.035072
#
#
# Mechanical properties :
#
#
# Convention : Reuss Voigt Hill
#
# Bulk Modulus (GPa) = 51.81212 57.93043 54.87127
# Shear Modulus (GPa) = 28.41135 30.91774 29.66455
#
# Velocity S-wave (km/s) = 3.56119 3.71495 3.63888
# Velocity P-wave (km/s) = 6.32747 6.65279 6.49217
#
# Compressibility (1/GPa) = 0.01930050
#
# Stress axis : x y z
#
# Youngs Moduli (GPa) = 59.93068 78.18883 75.38192
#
# Poissons Ratio (x) = 0.49097 0.15436
# Poissons Ratio (y) = 0.37632 0.25580
# Poissons Ratio (z) = 0.12272 0.26533
#
# Static dielectric constant tensor:
#      x y z
#    x 3.684100 -0.032850 0.079890 
#    y -0.032850 4.373060 -0.028060 
#    z 0.079890 -0.028060 4.220080 
# 
# 
# High freq. dielectric constant tensor:
#      x y z
#    x 1.857750 0.004730 0.009130 
#    y 0.004730 1.903420 -0.004380 
#    z 0.009130 -0.004380 1.898570 
# 
# From -- ./inp_files/365104.got.cif
#   From: 2010.06.25/outbox.cif.g09.slc.cpg/sg2_183_cif.got.tgz:365104.got - 2010.06.27 13:26:56.
