data_PCOD8016453
_publ_section_title
;
Structure prediction by ZEFSAII (Michael W. Deem and Ramdas Pophale) SiO2 
 PCOD8016453
Probable space group: P -1
;
_chemical_formula_sum "Si O2"
_cell_formula_units_Z 14
_cell_length_a 8.446774
_cell_length_b 25.587132
_cell_length_c 11.518125
_cell_angle_alpha 21.691938
_cell_angle_beta 42.219086
_cell_angle_gamma 41.518417
_cell_volume 599.601074
_symmetry_space_group_name_H-M "P -1"
_symmetry_group_IT_number 2
_symmetry_cell_setting 'triclinic'
loop_
_space_group_symop_operation_xyz
x,y,z
-x,-y,-z
loop_
_atom_site_type_symbol
_atom_site_label
_atom_site_fract_x
_atom_site_fract_y
_atom_site_fract_z
Si Si1 0.122813 0.842121 0.652068
Si Si2 0.908554 0.636984 0.348311
Si Si3 0.323203 0.925452 0.597814
Si Si4 0.637777 0.246441 0.526489
Si Si5 0.044623 0.661182 0.645435
Si Si6 0.750083 0.964724 0.176663
Si Si7 0.708002 0.356407 0.684294
O O1 0.294127 0.903331 0.519902
O O2 0.291161 0.741008 0.673451
O O3 0.924782 0.972309 0.426075
O O4 0.952977 0.768618 0.975779
O O5 0.630105 0.657139 0.497130
O O6 0.000000 0.500000 0.500000
O O7 0.062059 0.619323 0.419681
O O8 0.557808 0.995777 0.325697
O O9 0.393934 0.773454 0.940035
O O10 0.834170 0.310244 0.358392
O O11 0.646092 0.075758 0.898739
O O12 0.230976 0.679530 0.407580
O O13 0.800698 0.789628 0.486013
O O14 0.000000 0.500000 0.000000
O O15 0.000000 0.000000 0.000000
O O16 0.500000 0.500000 0.500000
#
# Coordination Sequence:
#
# PCOD8016453 Si02
#       7
#     2   2   2   2   2   2   2
#     4  10  23  42  73 106 137 182 232 297 360 414
#     4  11  25  44  70 102 142 182 238 297 354 425
#     4  10  21  44  71 104 141 178 238 292 356 427
#     4  11  24  46  71 105 143 184 243 297 351 427
#     4  11  25  44  66 102 144 187 239 283 357 428
#     4  10  22  42  67 104 139 184 237 291 349 420
#     4  11  24  44  68  99 138 188 228 291 360 420
#
# _framework density 23.348856999999999
#
# number of rings (size 3 to 8) (size 9 to 14) (size 15 to 20)
#    0.000    1.429    1.429    2.571    4.000    2.286 
#    5.143    4.286    0.000    0.000    0.000    0.000 
#    0.000    0.000    0.000    0.000    0.000    0.000 
#
# Total GULP energy -173526.188213 kJ/mol
# GULP energy per Si atom -12394.727729 kJ/mol
# Density = 2.329571 g / cm^3
# Si number density = 23.348857 Si / 1000 Ang^3
#
#
#
# Elastic Constant Matrix: (Units=GPa)
#
#
# Indices 1 2 3 4 5 6 
#
# 1 64.8998 31.0273 25.9969 1.5165 -0.3192 -3.5035
# 2 31.0273 157.5066 32.7007 7.6249 5.8155 -9.1022
# 3 25.9969 32.7007 111.3934 -6.8333 -0.4145 -12.9723
# 4 1.5165 7.6249 -6.8333 48.2000 -4.8482 3.7814
# 5 -0.3192 5.8155 -0.4145 -4.8482 33.0348 -3.5174
# 6 -3.5035 -9.1022 -12.9723 3.7814 -3.5174 42.1574
#
#
#
# Elastic Compliance Matrix: (Units=1/GPa)
#
#
# Indices 1 2 3 4 5 6 
#
# 1 0.018166 -0.002863 -0.003439 -0.000545 0.000549 -0.000072
# 2 -0.002863 0.007404 -0.001498 -0.001513 -0.001475 0.000913
# 3 -0.003439 -0.001498 0.010630 0.001740 0.000894 0.002580
# 4 -0.000545 -0.001513 0.001740 0.021701 0.003307 -0.001507
# 5 0.000549 -0.001475 0.000894 0.003307 0.031279 0.002315
# 6 -0.000072 0.000913 0.002580 -0.001507 0.002315 0.025034
#
#
# Mechanical properties :
#
#
# Convention : Reuss Voigt Hill
#
# Bulk Modulus (GPa) = 48.53924 57.02772 52.78348
# Shear Modulus (GPa) = 36.58177 40.95009 38.76593
#
# Velocity S-wave (km/s) = 3.96251 4.19243 4.07909
# Velocity P-wave (km/s) = 6.46291 6.92188 6.69633
#
# Compressibility (1/GPa) = 0.02060189
#
# Stress axis : x y z
#
# Youngs Moduli (GPa) = 55.04777 135.05823 94.07377
#
# Poissons Ratio (x) = 0.38661 0.32352
# Poissons Ratio (y) = 0.15758 0.14088
# Poissons Ratio (z) = 0.18931 0.20226
#
# Static dielectric constant tensor:
#      x y z
#    x 43.901030 -60.134290 -42.152820 
#    y -60.134290 94.613230 63.479860 
#    z -42.152820 63.479860 49.330040 
# 
# 
# High freq. dielectric constant tensor:
#      x y z
#    x 1.910200 -0.013160 0.004020 
#    y -0.013160 1.937400 0.000590 
#    z 0.004020 0.000590 1.931760 
# 
# From -- ./inp_files/244602.got.cif
#   From: 2010.06.25/outbox.cif.g09.slc.cpg/sg2_123_cif.got.tgz:244602.got - 2010.06.27 13:26:56.
