data_PCOD8016886
_publ_section_title
;
Structure prediction by ZEFSAII (Michael W. Deem and Ramdas Pophale) SiO2 
 PCOD8016886
Probable space group: P -1
;
_chemical_formula_sum "Si O2"
_cell_formula_units_Z 14
_cell_length_a 11.908925
_cell_length_b 11.916102
_cell_length_c 11.792926
_cell_angle_alpha 128.348174
_cell_angle_beta 51.629233
_cell_angle_gamma 85.383009
_cell_volume 672.005406
_symmetry_space_group_name_H-M "P -1"
_symmetry_group_IT_number 2
_symmetry_cell_setting 'triclinic'
loop_
_space_group_symop_operation_xyz
x,y,z
-x,-y,-z
loop_
_atom_site_type_symbol
_atom_site_label
_atom_site_fract_x
_atom_site_fract_y
_atom_site_fract_z
Si Si1 0.738549 0.248853 0.705517
Si Si2 0.634786 0.132698 0.498755
Si Si3 0.201780 0.000744 0.289856
Si Si4 0.221712 0.278286 0.849679
Si Si5 0.239642 0.260263 0.558031
Si Si6 0.498802 0.299039 0.290390
Si Si7 0.251289 0.761613 0.705433
O O1 0.766695 0.106051 0.502234
O O2 0.947191 0.198859 0.530381
O O3 0.756913 0.173389 0.772971
O O4 0.500000 0.500000 0.000000
O O5 0.400846 0.254738 0.769831
O O6 0.606154 0.265545 0.496919
O O7 0.759617 0.897626 0.225692
O O8 0.268881 0.082333 0.376852
O O9 0.371581 0.871234 0.999775
O O10 0.257231 0.243223 0.670849
O O11 0.997266 0.504348 0.180378
O O12 0.415946 0.233394 0.379147
O O13 0.301368 0.553199 0.529862
O O14 0.673217 0.257338 0.227358
O O15 0.000000 0.000000 0.000000
#
# Coordination Sequence:
#
# PCOD8016886 Si02
#       7
#     2   2   2   2   2   2   2
#     4  11  23  40  64  92 125 165 209 256 311 368
#     4  11  20  40  62  91 120 156 212 267 300 364
#     4  11  24  41  62  93 129 166 204 254 316 378
#     4  10  22  36  67  90 120 160 216 261 307 358
#     4  11  21  42  59  91 125 165 207 257 308 374
#     4  11  24  41  62  93 129 166 204 254 316 378
#     4  11  23  40  64  92 125 165 209 256 311 368
#
# _framework density 20.833168000000001
#
# number of rings (size 3 to 8) (size 9 to 14) (size 15 to 20)
#    0.000    1.143    2.857    3.857    0.000    2.286 
#    0.000    0.000    0.000    6.000    0.000    0.000 
#    0.000    0.000    0.000    0.000    0.000    0.000 
#
# Total GULP energy -173577.716315 kJ/mol
# GULP energy per Si atom -12398.408308 kJ/mol
# Density = 2.078575 g / cm^3
# Si number density = 20.833168 Si / 1000 Ang^3
#
#
#
# Elastic Constant Matrix: (Units=GPa)
#
#
# Indices 1 2 3 4 5 6 
#
# 1 54.7429 34.7344 18.4194 5.5965 4.1060 6.2734
# 2 34.7344 47.6982 16.3098 -3.5790 -8.0074 6.3544
# 3 18.4194 16.3098 106.8713 6.4744 -6.8119 -0.3242
# 4 5.5965 -3.5790 6.4744 29.3066 -15.4132 -1.7459
# 5 4.1060 -8.0074 -6.8119 -15.4132 28.5419 1.9164
# 6 6.2734 6.3544 -0.3242 -1.7459 1.9164 32.8431
#
#
#
# Elastic Compliance Matrix: (Units=1/GPa)
#
#
# Indices 1 2 3 4 5 6 
#
# 1 0.064257 -0.057645 -0.002754 -0.045293 -0.050491 -0.000610
# 2 -0.057645 0.077440 -0.001309 0.050650 0.057370 -0.004640
# 3 -0.002754 -0.001309 0.010209 -0.000803 0.001983 0.000722
# 4 -0.045293 0.050650 -0.000803 0.083690 0.065765 -0.000545
# 5 -0.050491 0.057370 0.001983 0.065765 0.094614 -0.003461
# 6 -0.000610 -0.004640 0.000722 -0.000545 -0.003461 0.031642
#
#
# Mechanical properties :
#
#
# Convention : Reuss Voigt Hill
#
# Bulk Modulus (GPa) = 35.09908 38.69328 36.89618
# Shear Modulus (GPa) = 10.10585 27.46157 18.78371
#
# Velocity S-wave (km/s) = 2.20485 3.63459 3.00597
# Velocity P-wave (km/s) = 4.83385 6.01888 5.45862
#
# Compressibility (1/GPa) = 0.02849078
#
# Stress axis : x y z
#
# Youngs Moduli (GPa) = 15.56259 12.91325 97.95593
#
# Poissons Ratio (x) = 0.74438 0.26974
# Poissons Ratio (y) = 0.89710 0.12822
# Poissons Ratio (z) = 0.04285 0.01690
#
# Static dielectric constant tensor:
#      x y z
#    x 3.817980 0.016490 -0.088940 
#    y 0.016490 3.829230 0.093970 
#    z -0.088940 0.093970 3.696080 
# 
# 
# High freq. dielectric constant tensor:
#      x y z
#    x 1.818060 0.002730 -0.004100 
#    y 0.002730 1.818310 0.004310 
#    z -0.004100 0.004310 1.813420 
# 
# From -- ./inp_files/426643.got.cif
#   From: 2010.06.25/outbox.cif.g09.slc.cpg/sg2_214_cif.got.tgz:426643.got - 2010.06.27 13:26:56.
