data_PCOD8016688
_publ_section_title
;
Structure prediction by ZEFSAII (Michael W. Deem and Ramdas Pophale) SiO2 
 PCOD8016688
Probable space group: P -1
;
_chemical_formula_sum "Si O2"
_cell_formula_units_Z 16
_cell_length_a 11.885679
_cell_length_b 10.612953
_cell_length_c 7.235766
_cell_angle_alpha 98.503987
_cell_angle_beta 90.703603
_cell_angle_gamma 119.898695
_cell_volume 778.612007
_symmetry_space_group_name_H-M "P -1"
_symmetry_group_IT_number 2
_symmetry_cell_setting 'triclinic'
loop_
_space_group_symop_operation_xyz
x,y,z
-x,-y,-z
loop_
_atom_site_type_symbol
_atom_site_label
_atom_site_fract_x
_atom_site_fract_y
_atom_site_fract_z
Si Si1 0.773792 0.090857 0.155034
Si Si2 0.864700 0.595643 0.400588
Si Si3 0.914889 0.079530 0.513292
Si Si4 0.644592 0.589477 0.596089
Si Si5 0.141864 0.606479 0.956845
Si Si6 0.436706 0.883254 0.630604
Si Si7 0.306266 0.101300 0.235455
Si Si8 0.744447 0.401404 0.667322
O O1 0.861003 0.072570 0.306598
O O2 0.852657 0.251682 0.100543
O O3 0.635645 0.064073 0.218309
O O4 0.749866 0.968021 0.978448
O O5 0.745833 0.627789 0.435308
O O6 0.820665 0.481671 0.205634
O O7 0.875132 0.516729 0.575702
O O8 0.997695 0.747475 0.392115
O O9 0.792439 0.003917 0.631508
O O10 0.000000 0.000000 0.500000
O O11 0.500000 0.500000 0.500000
O O12 0.680566 0.739928 0.730302
O O13 0.662208 0.483992 0.720738
O O14 0.233997 0.655114 0.150357
O O15 0.000000 0.500000 0.000000
O O16 0.549581 0.872805 0.735881
O O17 0.332945 0.730787 0.504634
O O18 0.500000 0.000000 0.500000
#
# Coordination Sequence:
#
# PCOD8016688 Si02
#       8
#     2   2   2   2   2   2   2   2
#     4  12  27  42  70 103 135 180 229 286 343 406
#     4  10  23  43  68  94 139 176 227 279 335 401
#     4  12  25  45  68 100 139 183 227 279 345 404
#     4  10  21  46  69  93 132 181 222 280 338 394
#     4  12  25  41  68 103 137 178 229 276 341 409
#     4  12  23  45  70  96 142 176 226 283 349 401
#     4  12  24  44  70 100 138 180 229 285 338 410
#     4  10  23  43  67  96 135 174 225 276 332 399
#
# _framework density 20.549389999999999
#
# number of rings (size 3 to 8) (size 9 to 14) (size 15 to 20)
#    0.750    0.000    5.000    2.625    1.750    2.500 
#    0.000    0.625    0.000    0.000    0.000    0.000 
#    0.000    0.000    0.000    0.000    0.000    0.000 
#
# Total GULP energy -198339.446263 kJ/mol
# GULP energy per Si atom -12396.215391 kJ/mol
# Density = 2.050262 g / cm^3
# Si number density = 20.549390 Si / 1000 Ang^3
#
#
#
# Elastic Constant Matrix: (Units=GPa)
#
#
# Indices 1 2 3 4 5 6 
#
# 1 106.3389 31.6171 56.4463 1.2191 1.6720 -5.7931
# 2 31.6171 123.4769 57.2644 10.6849 -6.2638 -4.8693
# 3 56.4463 57.2644 134.0610 8.8180 6.5406 -3.8179
# 4 1.2191 10.6849 8.8180 42.2497 -2.9851 -0.5395
# 5 1.6720 -6.2638 6.5406 -2.9851 35.3284 -0.6537
# 6 -5.7931 -4.8693 -3.8179 -0.5395 -0.6537 32.5176
#
#
#
# Elastic Compliance Matrix: (Units=1/GPa)
#
#
# Indices 1 2 3 4 5 6 
#
# 1 0.012302 -0.000925 -0.004815 0.000921 0.000251 0.001508
# 2 -0.000925 0.010546 -0.004108 -0.001590 0.002558 0.000957
# 3 -0.004815 -0.004108 0.011462 -0.001411 -0.002746 -0.000206
# 4 0.000921 -0.001590 -0.001411 0.024483 0.002008 0.000207
# 5 0.000251 0.002558 -0.002746 0.002008 0.029439 0.000730
# 6 0.001508 0.000957 -0.000206 0.000207 0.000730 0.031159
#
#
# Mechanical properties :
#
#
# Convention : Reuss Voigt Hill
#
# Bulk Modulus (GPa) = 68.42275 72.72582 70.57428
# Shear Modulus (GPa) = 34.73233 36.58907 35.66070
#
# Velocity S-wave (km/s) = 4.11565 4.22423 4.17029
# Velocity P-wave (km/s) = 7.48023 7.69803 7.58991
#
# Compressibility (1/GPa) = 0.01461502
#
# Stress axis : x y z
#
# Youngs Moduli (GPa) = 81.28622 94.82460 87.24249
#
# Poissons Ratio (x) = 0.08768 0.42005
# Poissons Ratio (y) = 0.07516 0.35842
# Poissons Ratio (z) = 0.39137 0.38957
#
# Static dielectric constant tensor:
#      x y z
#    x 3.727370 -0.033640 -0.257530 
#    y -0.033640 3.624870 0.379740 
#    z -0.257530 0.379740 2.947570 
# 
# 
# High freq. dielectric constant tensor:
#      x y z
#    x 1.807430 0.000710 -0.006230 
#    y 0.000710 1.822050 0.005370 
#    z -0.006230 0.005370 1.797790 
# 
# From -- ./inp_files/71288.got.cif
#   From: 2010.06.25/outbox.cif.g09.slc.cpg/sg2_36_cif.got.tgz:71288.got - 2010.06.27 13:26:56.
