data_PCOD8016173
_publ_section_title
;
Structure prediction by ZEFSAII (Michael W. Deem and Ramdas Pophale) SiO2 
 PCOD8016173
Probable space group: P -1
;
_chemical_formula_sum "Si O2"
_cell_formula_units_Z 12
_cell_length_a 9.009237
_cell_length_b 8.999120
_cell_length_c 12.162828
_cell_angle_alpha 77.324269
_cell_angle_beta 49.791663
_cell_angle_gamma 48.927376
_cell_volume 530.635191
_symmetry_space_group_name_H-M "P -1"
_symmetry_group_IT_number 2
_symmetry_cell_setting 'triclinic'
loop_
_space_group_symop_operation_xyz
x,y,z
-x,-y,-z
loop_
_atom_site_type_symbol
_atom_site_label
_atom_site_fract_x
_atom_site_fract_y
_atom_site_fract_z
Si Si1 0.167835 0.957103 0.321147
Si Si2 0.324861 0.555458 0.277981
Si Si3 0.772551 0.421596 0.427224
Si Si4 0.742592 0.732502 0.043055
Si Si5 0.092015 0.520321 0.192357
Si Si6 0.053414 0.795093 0.993257
O O1 0.199837 0.785868 0.260919
O O2 0.469838 0.851104 0.222851
O O3 0.000000 0.000000 0.500000
O O4 0.005961 0.183269 0.305978
O O5 0.216544 0.571880 0.447298
O O6 0.241540 0.473837 0.242801
O O7 0.644743 0.398084 0.159813
O O8 0.500000 0.500000 0.500000
O O9 0.823975 0.564290 0.334702
O O10 0.836953 0.856164 0.995013
O O11 0.702565 0.698029 0.941762
O O12 0.000000 0.500000 0.000000
O O13 0.006951 0.722920 0.139510
O O14 0.000000 0.000000 0.000000
#
# Coordination Sequence:
#
# PCOD8016173 Si02
#       6
#     2   2   2   2   2   2
#     4  10  23  42  73  98 142 184 233 289 354 413
#     4  11  23  47  65 106 145 182 233 297 348 425
#     4  11  26  45  71 102 142 190 238 290 356 419
#     4  10  21  43  72 100 136 184 236 288 350 421
#     4  11  24  43  72  99 143 184 234 288 356 412
#     4  11  25  43  73 101 143 180 240 290 350 419
#
# _framework density 22.614404
#
# number of rings (size 3 to 8) (size 9 to 14) (size 15 to 20)
#    0.000    1.333    3.333    2.000    9.333    3.333 
#    0.000    1.667    0.000    0.000    0.000    0.000 
#    0.000    0.000    0.000    0.000    0.000    0.000 
#
# Total GULP energy -148682.701511 kJ/mol
# GULP energy per Si atom -12390.225126 kJ/mol
# Density = 2.256293 g / cm^3
# Si number density = 22.614404 Si / 1000 Ang^3
#
#
#
# Elastic Constant Matrix: (Units=GPa)
#
#
# Indices 1 2 3 4 5 6 
#
# 1 166.6619 45.5030 72.6689 8.1115 -8.5572 25.1358
# 2 45.5030 127.0780 58.0062 1.9584 -11.4040 25.2667
# 3 72.6689 58.0062 131.2084 4.8121 -23.4926 11.6886
# 4 8.1115 1.9584 4.8121 42.4757 -0.2933 -7.3167
# 5 -8.5572 -11.4040 -23.4926 -0.2933 50.1568 0.8987
# 6 25.1358 25.2667 11.6886 -7.3167 0.8987 38.7955
#
#
#
# Elastic Compliance Matrix: (Units=1/GPa)
#
#
# Indices 1 2 3 4 5 6 
#
# 1 0.008708 -0.000261 -0.004329 -0.001943 -0.000531 -0.004522
# 2 -0.000261 0.011096 -0.004063 -0.001038 0.000678 -0.006045
# 3 -0.004329 -0.004063 0.012414 -0.000089 0.004123 0.001598
# 4 -0.001943 -0.001038 -0.000089 0.025124 -0.000582 0.006714
# 5 -0.000531 0.000678 0.004123 -0.000582 0.021964 -0.001958
# 6 -0.004522 -0.006045 0.001598 0.006714 -0.001958 0.033473
#
#
# Mechanical properties :
#
#
# Convention : Reuss Voigt Hill
#
# Bulk Modulus (GPa) = 67.05524 86.36716 76.71120
# Shear Modulus (GPa) = 37.02187 42.87027 39.94607
#
# Velocity S-wave (km/s) = 4.05049 4.35869 4.20741
# Velocity P-wave (km/s) = 7.18270 7.97528 7.58934
#
# Compressibility (1/GPa) = 0.01491308
#
# Stress axis : x y z
#
# Youngs Moduli (GPa) = 114.83554 90.12335 80.55294
#
# Poissons Ratio (x) = 0.02351 0.34868
# Poissons Ratio (y) = 0.02996 0.32729
# Poissons Ratio (z) = 0.49708 0.36618
#
# Static dielectric constant tensor:
#      x y z
#    x 4.561790 0.461460 0.076200 
#    y 0.461460 4.574140 0.122580 
#    z 0.076200 0.122580 4.274770 
# 
# 
# High freq. dielectric constant tensor:
#      x y z
#    x 1.894670 0.021110 -0.011170 
#    y 0.021110 1.882550 -0.003930 
#    z -0.011170 -0.003930 1.899390 
# 
# From -- ./inp_files/145158.got.cif
#   From: 2010.06.25/outbox.cif.g09.slc.cpg/sg2_73_cif.got.tgz:145158.got - 2010.06.27 13:26:56.
