data_PCOD8016974
_publ_section_title
;
Structure prediction by ZEFSAII (Michael W. Deem and Ramdas Pophale) SiO2 
 PCOD8016974
Probable space group: P -1
;
_chemical_formula_sum "Si O2"
_cell_formula_units_Z 16
_cell_length_a 20.728657
_cell_length_b 11.034422
_cell_length_c 9.826187
_cell_angle_alpha 124.327812
_cell_angle_beta 43.807070
_cell_angle_gamma 155.096841
_cell_volume 622.647535
_symmetry_space_group_name_H-M "P -1"
_symmetry_group_IT_number 2
_symmetry_cell_setting 'triclinic'
loop_
_space_group_symop_operation_xyz
x,y,z
-x,-y,-z
loop_
_atom_site_type_symbol
_atom_site_label
_atom_site_fract_x
_atom_site_fract_y
_atom_site_fract_z
Si Si1 0.026823 0.848488 0.774610
Si Si2 0.604750 0.758046 0.602405
Si Si3 0.414944 0.417683 0.931262
Si Si4 0.905209 0.755389 0.180505
Si Si5 0.718072 0.057435 0.109076
Si Si6 0.359772 0.652997 0.218379
Si Si7 0.616575 0.252693 0.100531
Si Si8 0.913311 0.570360 0.302254
O O1 0.169459 0.909894 0.567068
O O2 0.109492 0.088434 0.698778
O O3 0.062086 0.940589 0.938440
O O4 0.800823 0.498474 0.868429
O O5 0.500000 0.500000 0.500000
O O6 0.513902 0.790669 0.759133
O O7 0.591002 0.677164 0.724858
O O8 0.287891 0.395730 0.104609
O O9 0.293624 0.104742 0.880124
O O10 0.500000 0.500000 0.000000
O O11 0.707537 0.400861 0.207104
O O12 0.958398 0.768064 0.256238
O O13 0.890298 0.254662 0.862709
O O14 0.762686 0.253541 0.262888
O O15 0.518333 0.822239 0.194055
O O16 0.180959 0.495018 0.457215
O O17 0.480584 0.919110 0.092365
#
# Coordination Sequence:
#
# PCOD8016974 Si02
#       8
#     2   2   2   2   2   2   2   2
#     4   9  20  36  57  98 132 163 212 294 333 372
#     4  12  23  39  72  99 122 182 231 276 332 392
#     4  10  27  45  65  99 146 178 222 276 345 414
#     4   9  18  36  55  98 134 156 222 286 326 385
#     4  10  23  40  64  99 132 175 233 279 321 408
#     4  11  24  45  60  94 145 183 213 278 352 398
#     4  10  22  37  62  92 130 168 223 272 326 400
#     4  11  23  36  71 102 127 183 230 280 340 394
#
# _framework density 25.696721
#
# number of rings (size 3 to 8) (size 9 to 14) (size 15 to 20)
#    0.750    1.000    2.500    0.375    8.750    3.000 
#    0.000    3.125    0.000    0.000    0.000    0.000 
#    0.000    0.000    0.000    0.000    0.000    0.000 
#
# Total GULP energy -198214.945771 kJ/mol
# GULP energy per Si atom -12388.434111 kJ/mol
# Density = 2.563823 g / cm^3
# Si number density = 25.696721 Si / 1000 Ang^3
#
#
#
# Elastic Constant Matrix: (Units=GPa)
#
#
# Indices 1 2 3 4 5 6 
#
# 1 50.0625 10.1296 24.3247 4.0326 -4.7799 -23.8624
# 2 10.1296 90.0724 22.7296 5.0640 -11.0709 -33.3033
# 3 24.3247 22.7296 163.1490 -1.9495 -25.9238 -15.1467
# 4 4.0326 5.0640 -1.9495 26.8884 8.8384 -4.6212
# 5 -4.7799 -11.0709 -25.9238 8.8384 39.0071 -12.9808
# 6 -23.8624 -33.3033 -15.1467 -4.6212 -12.9808 39.1678
#
#
#
# Elastic Compliance Matrix: (Units=1/GPa)
#
#
# Indices 1 2 3 4 5 6 
#
# 1 0.044740 0.018577 0.000351 -0.011389 0.030902 0.052086
# 2 0.018577 0.029707 0.001932 -0.010062 0.029557 0.045933
# 3 0.000351 0.001932 0.007876 -0.001388 0.008674 0.007614
# 4 -0.011389 -0.010062 -0.001388 0.044604 -0.021202 -0.017795
# 5 0.030902 0.029557 0.008674 -0.021202 0.071139 0.068388
# 6 0.052086 0.045933 0.007614 -0.017795 0.068388 0.119829
#
#
# Mechanical properties :
#
#
# Convention : Reuss Voigt Hill
#
# Bulk Modulus (GPa) = 8.06164 46.40575 27.23369
# Shear Modulus (GPa) = 15.74684 37.41931 26.58307
#
# Velocity S-wave (km/s) = 2.47816 3.82015 3.21984
# Velocity P-wave (km/s) = 3.36636 6.12831 4.94412
#
# Compressibility (1/GPa) = 0.12404428
#
# Stress axis : x y z
#
# Youngs Moduli (GPa) = 22.35112 33.66191 126.96140
#
# Poissons Ratio (x) = -0.62533 -0.04458
# Poissons Ratio (y) = -0.41521 -0.24532
# Poissons Ratio (z) = -0.00785 -0.06504
#
# Static dielectric constant tensor:
#      x y z
#    x 4.614070 -0.009840 -0.098080 
#    y -0.009840 4.015430 0.005990 
#    z -0.098080 0.005990 4.620690 
# 
# 
# High freq. dielectric constant tensor:
#      x y z
#    x 2.031010 -0.005550 -0.008930 
#    y -0.005550 2.033250 -0.001580 
#    z -0.008930 -0.001580 2.017570 
# 
# From -- ./inp_files/474772.got.cif
#   From: 2010.06.25/outbox.cif.g09.slc.cpg/sg2_238_cif.got.tgz:474772.got - 2010.06.27 13:26:56.
