data_PCOD8016139
_publ_section_title
;
Structure prediction by ZEFSAII (Michael W. Deem and Ramdas Pophale) SiO2 
 PCOD8016139
Probable space group: P -1
;
_chemical_formula_sum "Si O2"
_cell_formula_units_Z 14
_cell_length_a 8.924062
_cell_length_b 10.683976
_cell_length_c 8.989980
_cell_angle_alpha 94.123139
_cell_angle_beta 132.400479
_cell_angle_gamma 81.536114
_cell_volume 625.625673
_symmetry_space_group_name_H-M "P -1"
_symmetry_group_IT_number 2
_symmetry_cell_setting 'triclinic'
loop_
_space_group_symop_operation_xyz
x,y,z
-x,-y,-z
loop_
_atom_site_type_symbol
_atom_site_label
_atom_site_fract_x
_atom_site_fract_y
_atom_site_fract_z
Si Si1 0.899108 0.180061 0.841563
Si Si2 0.515851 0.363706 0.564837
Si Si3 0.285630 0.029659 0.449225
Si Si4 0.088831 0.798722 0.820932
Si Si5 0.636696 0.447881 0.950142
Si Si6 0.310541 0.296563 0.143971
Si Si7 0.381841 0.912866 0.812270
O O1 0.739246 0.290492 0.673318
O O2 0.885165 0.053545 0.730277
O O3 0.843051 0.149165 0.970587
O O4 0.118900 0.224268 0.981555
O O5 0.500000 0.500000 0.500000
O O6 0.356844 0.293771 0.353889
O O7 0.495592 0.376218 0.733462
O O8 0.161278 0.172379 0.362382
O O9 0.500000 0.000000 0.500000
O O10 0.320269 0.003880 0.641587
O O11 0.169067 0.647475 0.865322
O O12 0.187104 0.871914 0.761836
O O13 0.500000 0.500000 0.000000
O O14 0.727423 0.560596 0.933294
O O15 0.492480 0.219121 0.166457
O O16 0.500000 0.000000 0.000000
#
# Coordination Sequence:
#
# PCOD8016139 Si02
#       7
#     2   2   2   2   2   2   2
#     4  11  23  43  70 102 136 182 237 292 346 418
#     4   9  21  39  68  97 136 181 232 278 344 408
#     4  12  25  46  71 100 140 185 239 290 351 423
#     4  11  24  41  68 102 139 178 234 281 357 415
#     4  10  21  43  71 103 145 182 229 295 350 415
#     4  11  22  44  72 101 141 185 237 288 348 418
#     4  12  24  43  69  99 144 182 230 296 355 413
#
# _framework density 22.377600000000001
#
# number of rings (size 3 to 8) (size 9 to 14) (size 15 to 20)
#    0.000    1.143    2.857    3.429    0.000    5.143 
#    0.000    1.429    0.000    6.857    0.000    0.000 
#    0.000    0.000    0.000    0.000    0.000    0.000 
#
# Total GULP energy -173445.376484 kJ/mol
# GULP energy per Si atom -12388.955463 kJ/mol
# Density = 2.232667 g / cm^3
# Si number density = 22.377600 Si / 1000 Ang^3
#
#
#
# Elastic Constant Matrix: (Units=GPa)
#
#
# Indices 1 2 3 4 5 6 
#
# 1 125.4384 51.4191 66.1909 -6.3371 -5.1784 -1.0141
# 2 51.4191 109.0797 63.6826 -24.7712 4.5246 -18.7581
# 3 66.1909 63.6826 132.6451 -12.3535 -1.5437 -1.4241
# 4 -6.3371 -24.7712 -12.3535 55.2867 -3.4547 4.5492
# 5 -5.1784 4.5246 -1.5437 -3.4547 37.6907 2.1617
# 6 -1.0141 -18.7581 -1.4241 4.5492 2.1617 34.3646
#
#
#
# Elastic Compliance Matrix: (Units=1/GPa)
#
#
# Indices 1 2 3 4 5 6 
#
# 1 0.011693 -0.003712 -0.004142 -0.000978 0.001899 -0.001843
# 2 -0.003712 0.017007 -0.005786 0.005031 -0.002812 0.008445
# 3 -0.004142 -0.005786 0.012360 -0.000024 0.000791 -0.002815
# 4 -0.000978 0.005031 -0.000024 0.020298 0.001124 -0.000041
# 5 0.001899 -0.002812 0.000791 0.001124 0.027456 -0.003322
# 6 -0.001843 0.008445 -0.002815 -0.000041 -0.003322 0.033753
#
#
# Mechanical properties :
#
#
# Convention : Reuss Voigt Hill
#
# Bulk Modulus (GPa) = 72.56456 81.08315 76.82386
# Shear Modulus (GPa) = 32.37514 37.85978 35.11746
#
# Velocity S-wave (km/s) = 3.80776 4.11769 3.96575
# Velocity P-wave (km/s) = 7.19929 7.67593 7.44143
#
# Compressibility (1/GPa) = 0.01378083
#
# Stress axis : x y z
#
# Youngs Moduli (GPa) = 85.52063 58.80030 80.90384
#
# Poissons Ratio (x) = 0.21825 0.33508
# Poissons Ratio (y) = 0.31743 0.46813
# Poissons Ratio (z) = 0.35420 0.34023
#
# Static dielectric constant tensor:
#      x y z
#    x 3.819120 -0.208410 -0.342560 
#    y -0.208410 4.444560 -0.095230 
#    z -0.342560 -0.095230 4.533700 
# 
# 
# High freq. dielectric constant tensor:
#      x y z
#    x 1.870990 -0.009910 -0.014340 
#    y -0.009910 1.901560 -0.017430 
#    z -0.014340 -0.017430 1.887320 
# 
# From -- ./inp_files/91039.got.cif
#   From: 2010.06.25/outbox.cif.g09.slc.cpg/sg2_46_cif.got.tgz:91039.got - 2010.06.27 13:26:56.
