data_PCOD8016603
_publ_section_title
;
Structure prediction by ZEFSAII (Michael W. Deem and Ramdas Pophale) SiO2 
 PCOD8016603
Probable space group: P -1
;
_chemical_formula_sum "Si O2"
_cell_formula_units_Z 14
_cell_length_a 12.528627
_cell_length_b 9.197816
_cell_length_c 18.468899
_cell_angle_alpha 46.333723
_cell_angle_beta 147.842894
_cell_angle_gamma 144.501993
_cell_volume 657.761358
_symmetry_space_group_name_H-M "P -1"
_symmetry_group_IT_number 2
_symmetry_cell_setting 'triclinic'
loop_
_space_group_symop_operation_xyz
x,y,z
-x,-y,-z
loop_
_atom_site_type_symbol
_atom_site_label
_atom_site_fract_x
_atom_site_fract_y
_atom_site_fract_z
Si Si1 0.313334 0.777669 0.914137
Si Si2 0.183715 0.293888 0.313952
Si Si3 0.623645 0.244589 0.204722
Si Si4 0.510007 0.804849 0.390518
Si Si5 0.743722 0.727763 0.929985
Si Si6 0.642139 0.788670 0.690166
Si Si7 0.799568 0.321110 0.606396
O O1 0.434265 0.853430 0.877504
O O2 0.067563 0.765686 0.778725
O O3 0.233857 0.500769 0.982539
O O4 0.500000 0.000000 0.000000
O O5 0.422449 0.579350 0.363696
O O6 0.241933 0.119467 0.449872
O O7 0.180304 0.256633 0.238017
O O8 0.452707 0.333050 0.098713
O O9 0.910456 0.464092 0.305009
O O10 0.560364 0.030785 0.296319
O O11 0.283751 0.714755 0.346074
O O12 0.637259 0.732332 0.790340
O O13 0.000000 0.000000 0.000000
O O14 0.356427 0.617031 0.555044
O O15 0.758199 0.072691 0.640378
#
# Coordination Sequence:
#
# PCOD8016603 Si02
#       7
#     2   2   2   2   2   2   2
#     4  12  29  44  63 104 142 180 235 279 329 415
#     4  10  23  44  68  97 144 168 217 285 350 407
#     4  12  25  45  76  95 135 181 232 285 338 404
#     4  10  21  45  72 101 129 177 218 286 356 399
#     4  12  27  47  71  95 139 197 232 268 339 412
#     4  10  23  42  72 100 137 172 223 288 340 402
#     4  10  21  45  69 107 132 166 229 290 343 402
#
# _framework density 21.284314999999999
#
# number of rings (size 3 to 8) (size 9 to 14) (size 15 to 20)
#    0.000    1.143    2.857    2.143    6.000    2.857 
#    0.000    0.000    0.000    0.000    0.000    0.000 
#    0.000    0.000    0.000    0.000    0.000    0.000 
#
# Total GULP energy -173568.682563 kJ/mol
# GULP energy per Si atom -12397.763040 kJ/mol
# Density = 2.123587 g / cm^3
# Si number density = 21.284315 Si / 1000 Ang^3
#
#
#
# Elastic Constant Matrix: (Units=GPa)
#
#
# Indices 1 2 3 4 5 6 
#
# 1 145.1954 6.9777 31.4076 6.6904 -16.7654 -16.2423
# 2 6.9777 52.5096 1.0870 3.2238 -26.0885 -13.1938
# 3 31.4076 1.0870 55.0797 6.5855 -23.2661 -3.2792
# 4 6.6904 3.2238 6.5855 29.0785 -12.5638 -1.3759
# 5 -16.7654 -26.0885 -23.2661 -12.5638 14.0858 -6.1111
# 6 -16.2423 -13.1938 -3.2792 -1.3759 -6.1111 34.8215
#
#
#
# Elastic Compliance Matrix: (Units=1/GPa)
#
#
# Indices 1 2 3 4 5 6 
#
# 1 0.008146 -0.001609 -0.005391 -0.001481 -0.002566 0.002173
# 2 -0.001609 0.001443 -0.012467 -0.011988 -0.033911 -0.007803
# 3 -0.005391 -0.012467 0.012774 -0.010289 -0.022058 -0.010313
# 4 -0.001481 -0.011988 -0.010289 0.030612 -0.017125 -0.007998
# 5 -0.002566 -0.033911 -0.022058 -0.017125 -0.058305 -0.027032
# 6 0.002173 -0.007803 -0.010313 -0.007998 -0.027032 0.020744
#
#
# Mechanical properties :
#
#
# Convention : Reuss Voigt Hill
#
# Bulk Modulus (GPa) = -60.35282 36.85881 -11.74701
# Shear Modulus (GPa) = 102.41077 29.81797 66.11437
#
# Velocity S-wave (km/s) = 6.94407 3.74697 5.57942
# Velocity P-wave (km/s) = 5.98968 6.00622 5.99796
#
# Compressibility (1/GPa) = -0.01656923
#
# Stress axis : x y z
#
# Youngs Moduli (GPa) = 122.76406 692.87693 78.28333
#
# Poissons Ratio (x) = 1.11467 0.42199
# Poissons Ratio (y) = 0.19750 0.97594
# Poissons Ratio (z) = 0.66177 8.63796
#
# Static dielectric constant tensor:
#      x y z
#    x 4.501500 0.508820 0.241180 
#    y 0.508820 5.527830 0.504590 
#    z 0.241180 0.504590 4.186000 
# 
# 
# High freq. dielectric constant tensor:
#      x y z
#    x 1.850160 -0.019560 0.000700 
#    y -0.019560 1.827160 -0.001100 
#    z 0.000700 -0.001100 1.842290 
# 
# From -- ./inp_files/255649.got.cif
#   From: 2010.06.25/outbox.cif.g09.slc.cpg/sg2_128_cif.got.tgz:255649.got - 2010.06.27 13:26:56.
