data_PCOD8016396
_publ_section_title
;
Structure prediction by ZEFSAII (Michael W. Deem and Ramdas Pophale) SiO2 
 PCOD8016396
Probable space group: P -1
;
_chemical_formula_sum "Si O2"
_cell_formula_units_Z 16
_cell_length_a 6.463921
_cell_length_b 10.840242
_cell_length_c 12.369688
_cell_angle_alpha 70.153111
_cell_angle_beta 117.451029
_cell_angle_gamma 91.460607
_cell_volume 714.504433
_symmetry_space_group_name_H-M "P -1"
_symmetry_group_IT_number 2
_symmetry_cell_setting 'triclinic'
loop_
_space_group_symop_operation_xyz
x,y,z
-x,-y,-z
loop_
_atom_site_type_symbol
_atom_site_label
_atom_site_fract_x
_atom_site_fract_y
_atom_site_fract_z
Si Si1 0.052088 0.415995 0.692721
Si Si2 0.520201 0.503269 0.877517
Si Si3 0.751445 0.665898 0.461538
Si Si4 0.249202 0.776898 0.236450
Si Si5 0.763851 0.942994 0.752089
Si Si6 0.917570 0.881635 0.578614
Si Si7 0.775770 0.235941 0.004902
Si Si8 0.414375 0.787366 0.808371
O O1 0.288145 0.464552 0.776577
O O2 0.094321 0.347991 0.605953
O O3 0.839347 0.540412 0.596949
O O4 0.970577 0.304797 0.784603
O O5 0.749296 0.396733 0.930798
O O6 0.552678 0.656290 0.818596
O O7 0.500000 0.500000 0.000000
O O8 0.474683 0.678415 0.365508
O O9 0.778541 0.801558 0.487511
O O10 0.289965 0.821922 0.109386
O O11 0.187673 0.911299 0.249977
O O12 0.517748 0.915685 0.752785
O O13 0.747204 0.935472 0.620934
O O14 0.962489 0.829175 0.881815
O O15 0.144767 0.789266 0.709231
O O16 0.000000 0.000000 0.500000
O O17 0.584958 0.213138 0.059131
#
# Coordination Sequence:
#
# PCOD8016396 Si02
#       8
#     2   2   2   2   2   2   2   2
#     4  11  24  44  67  98 132 167 216 274 322 383
#     4  10  21  44  69  95 127 170 212 269 332 374
#     4  11  24  43  66  96 133 172 215 266 328 377
#     4  12  25  42  66  97 131 174 219 260 326 392
#     4  11  26  43  65  98 130 175 216 268 320 381
#     4  11  23  43  67  96 132 173 218 263 321 386
#     4  10  24  43  64  98 127 170 216 266 330 379
#     4  10  23  44  67  95 133 163 220 271 322 386
#
# _framework density 22.393142999999998
#
# number of rings (size 3 to 8) (size 9 to 14) (size 15 to 20)
#    0.000    1.250    2.500    2.250    3.500    6.000 
#    0.000    0.000    0.000    0.000    0.000    0.000 
#    0.000    0.000    0.000    0.000    0.000    0.000 
#
# Total GULP energy -198350.700376 kJ/mol
# GULP energy per Si atom -12396.918774 kJ/mol
# Density = 2.234218 g / cm^3
# Si number density = 22.393143 Si / 1000 Ang^3
#
#
#
# Elastic Constant Matrix: (Units=GPa)
#
#
# Indices 1 2 3 4 5 6 
#
# 1 69.3488 32.5005 22.8648 -0.3435 -10.8534 1.8857
# 2 32.5005 114.5697 29.9529 12.0658 -18.6830 -1.2197
# 3 22.8648 29.9529 95.8711 13.9577 -7.9377 -1.9660
# 4 -0.3435 12.0658 13.9577 38.7650 -8.0471 -1.9285
# 5 -10.8534 -18.6830 -7.9377 -8.0471 42.7215 -4.8988
# 6 1.8857 -1.2197 -1.9660 -1.9285 -4.8988 37.7283
#
#
#
# Elastic Compliance Matrix: (Units=1/GPa)
#
#
# Indices 1 2 3 4 5 6 
#
# 1 0.017865 -0.004131 -0.003219 0.003117 0.002642 -0.000692
# 2 -0.004131 0.011147 -0.001911 -0.002124 0.003158 0.000769
# 3 -0.003219 -0.001911 0.012367 -0.003864 -0.000021 0.000543
# 4 0.003117 -0.002124 -0.003864 0.028955 0.004791 0.001676
# 5 0.002642 0.003158 -0.000021 0.004791 0.026781 0.003691
# 6 -0.000692 0.000769 0.000543 0.001676 0.003691 0.027158
#
#
# Mechanical properties :
#
#
# Convention : Reuss Voigt Hill
#
# Bulk Modulus (GPa) = 43.75089 50.04732 46.89911
# Shear Modulus (GPa) = 33.24148 36.80772 35.02460
#
# Velocity S-wave (km/s) = 3.85703 4.05866 3.95913
# Velocity P-wave (km/s) = 6.27819 6.66045 6.47214
#
# Compressibility (1/GPa) = 0.02285668
#
# Stress axis : x y z
#
# Youngs Moduli (GPa) = 55.97529 89.71315 80.85754
#
# Poissons Ratio (x) = 0.37061 0.26031
# Poissons Ratio (y) = 0.23124 0.15450
# Poissons Ratio (z) = 0.18020 0.17142
#
# Static dielectric constant tensor:
#      x y z
#    x 3.823920 -0.403210 0.101920 
#    y -0.403210 4.337200 0.046550 
#    z 0.101920 0.046550 4.265760 
# 
# 
# High freq. dielectric constant tensor:
#      x y z
#    x 1.862520 -0.019750 0.003720 
#    y -0.019750 1.889760 -0.001400 
#    z 0.003720 -0.001400 1.896640 
# 
# From -- ./inp_files/71351.got.cif
#   From: 2010.06.25/outbox.cif.g09.slc.cpg/sg2_36_cif.got.tgz:71351.got - 2010.06.27 13:26:56.
