data_PCOD8016064
_publ_section_title
;
Structure prediction by ZEFSAII (Michael W. Deem and Ramdas Pophale) SiO2 
 PCOD8016064
Probable space group: P -1
;
_chemical_formula_sum "Si O2"
_cell_formula_units_Z 16
_cell_length_a 9.908241
_cell_length_b 19.185067
_cell_length_c 5.194447
_cell_angle_alpha 95.831965
_cell_angle_beta 95.288526
_cell_angle_gamma 42.730936
_cell_volume 666.323200
_symmetry_space_group_name_H-M "P -1"
_symmetry_group_IT_number 2
_symmetry_cell_setting 'triclinic'
loop_
_space_group_symop_operation_xyz
x,y,z
-x,-y,-z
loop_
_atom_site_type_symbol
_atom_site_label
_atom_site_fract_x
_atom_site_fract_y
_atom_site_fract_z
Si Si1 0.443039 0.063899 0.767437
Si Si2 0.158571 0.849863 0.110919
Si Si3 0.800457 0.014094 0.730885
Si Si4 0.591506 0.667007 0.969804
Si Si5 0.313517 0.529715 0.085696
Si Si6 0.818043 0.623095 0.501574
Si Si7 0.044978 0.171232 0.600471
Si Si8 0.081940 0.650725 0.591487
O O1 0.202553 0.163165 0.771000
O O2 0.500000 0.000000 0.500000
O O3 0.570213 0.088144 0.806829
O O4 0.500000 0.000000 0.000000
O O5 0.354838 0.769341 0.940000
O O6 0.142821 0.783029 0.244328
O O7 0.180923 0.911381 0.316703
O O8 0.957391 0.934492 0.947905
O O9 0.847283 0.943558 0.481043
O O10 0.637117 0.569052 0.895885
O O11 0.669289 0.660242 0.259975
O O12 0.698317 0.669726 0.765004
O O13 0.144522 0.602380 0.866889
O O14 0.500000 0.500000 0.000000
O O15 0.248764 0.583723 0.371932
O O16 0.000000 0.500000 0.500000
O O17 0.898354 0.670905 0.484485
O O18 0.974578 0.244706 0.371895
#
# Coordination Sequence:
#
# PCOD8016064 Si02
#       8
#     2   2   2   2   2   2   2   2
#     4  10  21  43  69  97 132 184 231 289 345 413
#     4  11  25  45  72 104 141 193 235 303 357 434
#     4  10  24  47  69 102 143 186 244 294 362 415
#     4  12  26  45  75 103 144 184 243 292 357 429
#     4  12  25  45  70 107 143 186 232 296 360 432
#     4  12  24  50  71 104 141 190 237 296 357 422
#     4  11  25  44  73 103 147 188 241 295 361 429
#     4  12  27  43  75 103 145 187 235 295 359 423
#
# _framework density 24.012371000000002
#
# number of rings (size 3 to 8) (size 9 to 14) (size 15 to 20)
#    0.000    0.750    3.750    2.625    7.000    0.000 
#    4.500    0.000    0.000    0.000    0.000    0.000 
#    0.000    0.000    0.000    0.000    0.000    0.000 
#
# Total GULP energy -198318.861924 kJ/mol
# GULP energy per Si atom -12394.928870 kJ/mol
# Density = 2.395772 g / cm^3
# Si number density = 24.012371 Si / 1000 Ang^3
#
#
#
# Elastic Constant Matrix: (Units=GPa)
#
#
# Indices 1 2 3 4 5 6 
#
# 1 160.5882 40.6558 14.4730 -6.6907 -17.6950 -10.8502
# 2 40.6558 84.5519 14.3864 2.9285 -9.2899 5.4099
# 3 14.4730 14.3864 92.3015 -4.3275 -9.7443 -7.2735
# 4 -6.6907 2.9285 -4.3275 18.2003 -6.4764 -13.2451
# 5 -17.6950 -9.2899 -9.7443 -6.4764 40.8185 -4.0605
# 6 -10.8502 5.4099 -7.2735 -13.2451 -4.0605 33.7044
#
#
#
# Elastic Compliance Matrix: (Units=1/GPa)
#
#
# Indices 1 2 3 4 5 6 
#
# 1 0.009597 -0.005390 0.001665 0.015385 0.006885 0.011190
# 2 -0.005390 0.015902 -0.003500 -0.014502 -0.002958 -0.011098
# 3 0.001665 -0.003500 0.013251 0.014025 0.006332 0.010232
# 4 0.015385 -0.014502 0.014025 0.123543 0.032564 0.062780
# 5 0.006885 -0.002958 0.006332 0.032564 0.035592 0.021143
# 6 0.011190 -0.011098 0.010232 0.062780 0.021143 0.064480
#
#
# Mechanical properties :
#
#
# Convention : Reuss Voigt Hill
#
# Bulk Modulus (GPa) = 41.15309 52.94132 47.04721
# Shear Modulus (GPa) = 17.54907 36.40638 26.97772
#
# Velocity S-wave (km/s) = 2.70633 3.89800 3.35549
# Velocity P-wave (km/s) = 5.19048 6.50804 5.88624
#
# Compressibility (1/GPa) = 0.02429951
#
# Stress axis : x y z
#
# Youngs Moduli (GPa) = 104.19496 62.88556 75.46720
#
# Poissons Ratio (x) = 0.33898 -0.12567
# Poissons Ratio (y) = 0.56166 0.26414
# Poissons Ratio (z) = -0.17351 0.22010
#
# Static dielectric constant tensor:
#      x y z
#    x 5.205680 -0.064600 0.150810 
#    y -0.064600 4.302450 -0.129190 
#    z 0.150810 -0.129190 3.711120 
# 
# 
# High freq. dielectric constant tensor:
#      x y z
#    x 1.985340 -0.000580 -0.005170 
#    y -0.000580 1.941680 -0.003480 
#    z -0.005170 -0.003480 1.942360 
# 
# From -- ./inp_files/47857.got.cif
#   From: 2010.06.25/outbox.cif.g09.slc.cpg/sg2_24_cif.got.tgz:47857.got - 2010.06.27 13:26:56.
