data_PCOD8016296
_publ_section_title
;
Structure prediction by ZEFSAII (Michael W. Deem and Ramdas Pophale) SiO2 
 PCOD8016296
Probable space group: P -1
;
_chemical_formula_sum "Si O2"
_cell_formula_units_Z 14
_cell_length_a 11.731879
_cell_length_b 11.018855
_cell_length_c 9.362957
_cell_angle_alpha 136.484205
_cell_angle_beta 120.207529
_cell_angle_gamma 38.318007
_cell_volume 510.551041
_symmetry_space_group_name_H-M "P -1"
_symmetry_group_IT_number 2
_symmetry_cell_setting 'triclinic'
loop_
_space_group_symop_operation_xyz
x,y,z
-x,-y,-z
loop_
_atom_site_type_symbol
_atom_site_label
_atom_site_fract_x
_atom_site_fract_y
_atom_site_fract_z
Si Si1 0.805093 0.648840 0.667701
Si Si2 0.457106 0.483623 0.192637
Si Si3 0.226620 0.755295 0.004870
Si Si4 0.940206 0.154858 0.371695
Si Si5 0.762721 0.057348 0.378549
Si Si6 0.587392 0.867929 0.131492
Si Si7 0.799488 0.624671 0.328337
O O1 0.792854 0.448542 0.503026
O O2 0.791589 0.734008 0.567816
O O3 0.001451 0.527509 0.753787
O O4 0.625595 0.894669 0.844471
O O5 0.353876 0.665224 0.147192
O O6 0.420616 0.656644 0.445112
O O7 0.674772 0.254203 0.084580
O O8 0.367873 0.377166 0.093219
O O9 0.213072 0.564754 0.802395
O O10 0.028270 0.029635 0.161787
O O11 0.843158 0.070247 0.297501
O O12 0.091100 0.079856 0.517320
O O13 0.710836 0.905982 0.169414
O O14 0.630162 0.847389 0.310823
#
# Coordination Sequence:
#
# PCOD8016296 Si02
#       7
#     2   2   2   2   2   2   2
#     4  11  23  37  62  98 127 166 216 261 320 391
#     4   9  20  37  65  96 123 167 223 254 319 387
#     4   9  19  39  61  93 129 165 209 273 315 373
#     4  10  22  41  64  94 130 167 219 257 320 389
#     4  10  21  44  66  89 133 177 205 266 320 380
#     4  11  22  41  66  91 128 174 210 264 322 380
#     4  10  22  39  61  94 131 164 211 267 326 372
#
# _framework density 27.421353
#
# number of rings (size 3 to 8) (size 9 to 14) (size 15 to 20)
#    0.000    2.000    1.429    1.286    4.000    3.429 
#    5.143    3.571    0.000    0.000    0.000    0.000 
#    0.000    0.000    0.000    0.000    0.000    0.000 
#
# Total GULP energy -173517.094834 kJ/mol
# GULP energy per Si atom -12394.078202 kJ/mol
# Density = 2.735894 g / cm^3
# Si number density = 27.421353 Si / 1000 Ang^3
#
#
#
# Elastic Constant Matrix: (Units=GPa)
#
#
# Indices 1 2 3 4 5 6 
#
# 1 137.5490 27.6500 33.4896 5.9130 31.7964 -14.0058
# 2 27.6500 73.4965 12.3781 15.0275 -9.1095 8.5851
# 3 33.4896 12.3781 49.3383 8.0640 7.1363 6.2273
# 4 5.9130 15.0275 8.0640 25.7026 0.6561 -6.9709
# 5 31.7964 -9.1095 7.1363 0.6561 43.6076 4.0182
# 6 -14.0058 8.5851 6.2273 -6.9709 4.0182 35.3501
#
#
#
# Elastic Compliance Matrix: (Units=1/GPa)
#
#
# Indices 1 2 3 4 5 6 
#
# 1 0.015275 -0.009044 -0.009284 0.008547 -0.012837 0.013028
# 2 -0.009044 0.023132 0.003070 -0.016644 0.012505 -0.014445
# 3 -0.009284 0.003070 0.028758 -0.012131 0.004024 -0.012340
# 4 0.008547 -0.016644 -0.012131 0.056702 -0.010600 0.021952
# 5 -0.012837 0.012505 0.004024 -0.010600 0.035786 -0.014990
# 6 0.013028 -0.014445 -0.012340 0.021952 -0.014990 0.045165
#
#
# Mechanical properties :
#
#
# Convention : Reuss Voigt Hill
#
# Bulk Modulus (GPa) = 27.28562 45.26880 36.27721
# Shear Modulus (GPa) = 20.19800 33.38981 26.79391
#
# Velocity S-wave (km/s) = 2.71694 3.49328 3.12928
# Velocity P-wave (km/s) = 4.45135 5.72845 5.12979
#
# Compressibility (1/GPa) = 0.03664934
#
# Stress axis : x y z
#
# Youngs Moduli (GPa) = 65.46617 43.23073 34.77291
#
# Poissons Ratio (x) = 0.39096 0.32284
# Poissons Ratio (y) = 0.59204 -0.10675
# Poissons Ratio (z) = 0.60780 -0.13272
#
# Static dielectric constant tensor:
#      x y z
#    x 5.135910 -0.108280 0.041720 
#    y -0.108280 5.233430 0.000570 
#    z 0.041720 0.000570 4.563600 
# 
# 
# High freq. dielectric constant tensor:
#      x y z
#    x 2.103890 0.000750 0.012520 
#    y 0.000750 2.120300 -0.007980 
#    z 0.012520 -0.007980 2.081660 
# 
# From -- ./inp_files/256057.got.cif
#   From: 2010.06.25/outbox.cif.g09.slc.cpg/sg2_129_cif.got.tgz:256057.got - 2010.06.27 13:26:56.
