data_PCOD8016268
_publ_section_title
;
Structure prediction by ZEFSAII (Michael W. Deem and Ramdas Pophale) SiO2 
 PCOD8016268
Probable space group: P -1
;
_chemical_formula_sum "Si O2"
_cell_formula_units_Z 16
_cell_length_a 7.822020
_cell_length_b 14.565742
_cell_length_c 15.036517
_cell_angle_alpha 26.929965
_cell_angle_beta 112.520696
_cell_angle_gamma 110.925205
_cell_volume 716.222155
_symmetry_space_group_name_H-M "P -1"
_symmetry_group_IT_number 2
_symmetry_cell_setting 'triclinic'
loop_
_space_group_symop_operation_xyz
x,y,z
-x,-y,-z
loop_
_atom_site_type_symbol
_atom_site_label
_atom_site_fract_x
_atom_site_fract_y
_atom_site_fract_z
Si Si1 0.078196 0.169414 0.176958
Si Si2 0.103854 0.795671 0.715273
Si Si3 0.456170 0.271381 0.910949
Si Si4 0.679831 0.298029 0.495176
Si Si5 0.528124 0.886691 0.761200
Si Si6 0.978269 0.289889 0.416729
Si Si7 0.196356 0.908996 0.126594
Si Si8 0.826019 0.326024 0.852168
O O1 0.303234 0.154719 0.239253
O O2 0.992613 0.295689 0.134268
O O3 0.981146 0.944948 0.359291
O O4 0.020115 0.254588 0.995314
O O5 0.326404 0.829266 0.732936
O O6 0.070080 0.653674 0.744730
O O7 0.000000 0.000000 0.500000
O O8 0.411210 0.494235 0.673584
O O9 0.670855 0.240938 0.961671
O O10 0.425954 0.254196 0.024677
O O11 0.343546 0.096190 0.986601
O O12 0.813212 0.354441 0.391590
O O13 0.792872 0.212944 0.674140
O O14 0.529600 0.124264 0.583996
O O15 0.158932 0.428188 0.360953
O O16 0.221684 0.752787 0.186917
O O17 0.000000 0.000000 0.000000
#
# Coordination Sequence:
#
# PCOD8016268 Si02
#       8
#     2   2   2   2   2   2   2   2
#     4  10  22  42  67  91 134 176 210 272 320 375
#     4  10  22  40  66  99 128 171 222 264 324 385
#     4  11  24  41  65  96 128 172 212 267 327 382
#     4  10  23  41  66  95 128 170 215 264 322 385
#     4  10  21  44  65  94 136 172 216 267 322 381
#     4  10  23  40  62  95 125 169 217 260 324 377
#     4  11  24  43  68  93 127 170 217 265 327 388
#     4  12  24  41  65  94 132 167 216 269 320 388
#
# _framework density 22.339435999999999
#
# number of rings (size 3 to 8) (size 9 to 14) (size 15 to 20)
#    0.000    1.500    1.250    4.125    3.500    8.500 
#    0.000    1.250    0.000    0.000    0.000    0.000 
#    0.000    0.000    0.000    0.000    0.000    0.000 
#
# Total GULP energy -198344.835471 kJ/mol
# GULP energy per Si atom -12396.552217 kJ/mol
# Density = 2.228859 g / cm^3
# Si number density = 22.339436 Si / 1000 Ang^3
#
#
#
# Elastic Constant Matrix: (Units=GPa)
#
#
# Indices 1 2 3 4 5 6 
#
# 1 127.5553 53.6943 26.8845 -2.3947 -7.0954 4.3172
# 2 53.6943 128.9704 30.6317 -1.4564 -2.5616 -10.2367
# 3 26.8845 30.6317 76.9515 0.8657 -1.0698 -1.3233
# 4 -2.3947 -1.4564 0.8657 26.8303 3.1885 -5.4096
# 5 -7.0954 -2.5616 -1.0698 3.1885 28.9141 6.5305
# 6 4.3172 -10.2367 -1.3233 -5.4096 6.5305 34.1824
#
#
#
# Elastic Compliance Matrix: (Units=1/GPa)
#
#
# Indices 1 2 3 4 5 6 
#
# 1 0.010185 -0.003961 -0.001994 -0.000203 0.002801 -0.003117
# 2 -0.003961 0.010344 -0.002697 0.001223 -0.001174 0.003911
# 3 -0.001994 -0.002697 0.014772 -0.000813 -0.000070 -0.000099
# 4 -0.000203 0.001223 -0.000813 0.039644 -0.006105 0.007801
# 5 0.002801 -0.001174 -0.000070 -0.006105 0.037851 -0.008905
# 6 -0.003117 0.003911 -0.000099 0.007801 -0.008905 0.033752
#
#
# Mechanical properties :
#
#
# Convention : Reuss Voigt Hill
#
# Bulk Modulus (GPa) = 55.56217 61.76648 58.66432
# Shear Modulus (GPa) = 29.43788 32.80315 31.12052
#
# Velocity S-wave (km/s) = 3.63403 3.83612 3.73644
# Velocity P-wave (km/s) = 6.52181 6.87970 6.70314
#
# Compressibility (1/GPa) = 0.01799786
#
# Stress axis : x y z
#
# Youngs Moduli (GPa) = 98.18611 96.67335 67.69664
#
# Poissons Ratio (x) = 0.38289 0.13499
# Poissons Ratio (y) = 0.38888 0.18256
# Poissons Ratio (z) = 0.19578 0.26070
#
# Static dielectric constant tensor:
#      x y z
#    x 3.964000 0.057440 -0.147060 
#    y 0.057440 3.822120 -0.128440 
#    z -0.147060 -0.128440 3.881370 
# 
# 
# High freq. dielectric constant tensor:
#      x y z
#    x 1.882910 -0.004510 -0.013000 
#    y -0.004510 1.878890 -0.003560 
#    z -0.013000 -0.003560 1.880520 
# 
# From -- ./inp_files/503732.got.cif
#   From: 2010.06.25/outbox.cif.g09.slc.cpg/sg2_252_cif.got.tgz:503732.got - 2010.06.27 13:26:56.
