data_PCOD8016114
_publ_section_title
;
Structure prediction by ZEFSAII (Michael W. Deem and Ramdas Pophale) SiO2 
 PCOD8016114
Probable space group: P -1
;
_chemical_formula_sum "Si O2"
_cell_formula_units_Z 16
_cell_length_a 8.318083
_cell_length_b 7.858827
_cell_length_c 13.014781
_cell_angle_alpha 84.938901
_cell_angle_beta 101.250303
_cell_angle_gamma 122.645797
_cell_volume 702.460957
_symmetry_space_group_name_H-M "P -1"
_symmetry_group_IT_number 2
_symmetry_cell_setting 'triclinic'
loop_
_space_group_symop_operation_xyz
x,y,z
-x,-y,-z
loop_
_atom_site_type_symbol
_atom_site_label
_atom_site_fract_x
_atom_site_fract_y
_atom_site_fract_z
Si Si1 0.195536 0.680487 0.279838
Si Si2 0.041260 0.888606 0.600954
Si Si3 0.086604 0.411513 0.091731
Si Si4 0.200816 0.614505 0.642551
Si Si5 0.221526 0.178052 0.010237
Si Si6 0.312813 0.502507 0.458023
Si Si7 0.544136 0.916953 0.800731
Si Si8 0.234203 0.008387 0.823317
O O1 0.209970 0.576949 0.184097
O O2 0.347296 0.688194 0.382289
O O3 0.975927 0.556555 0.301851
O O4 0.273657 0.914787 0.254328
O O5 0.169300 0.793016 0.590820
O O6 0.140765 0.031775 0.704977
O O7 0.831562 0.697413 0.615321
O O8 0.000000 0.000000 0.500000
O O9 0.235175 0.377439 0.045217
O O10 0.914808 0.207951 0.132972
O O11 0.000000 0.500000 0.000000
O O12 0.214910 0.499515 0.553146
O O13 0.399920 0.717924 0.726762
O O14 0.368341 0.140912 0.092475
O O15 0.277813 0.190867 0.895836
O O16 0.000000 0.000000 0.000000
O O17 0.500000 0.500000 0.500000
O O18 0.432646 0.019779 0.825112
#
# Coordination Sequence:
#
# PCOD8016114 Si02
#       8
#     2   2   2   2   2   2   2   2
#     4  11  22  45  68  96 136 185 222 283 349 396
#     4  10  21  43  70  97 138 182 221 283 345 396
#     4  11  22  44  68  95 140 180 224 280 347 398
#     4  10  24  48  66  99 142 179 229 281 340 406
#     4  10  23  41  67 103 135 178 224 281 344 407
#     4  11  25  43  65 100 141 175 234 284 327 417
#     4  11  23  43  76  97 138 178 228 284 343 408
#     4  10  21  45  66  98 142 176 229 287 335 405
#
# _framework density 22.777066999999999
#
# number of rings (size 3 to 8) (size 9 to 14) (size 15 to 20)
#    0.000    1.500    3.750    3.375    5.250    0.500 
#   15.750    2.500    0.000    0.000    0.000    0.000 
#    0.000    0.000    0.000    0.000    0.000    0.000 
#
# Total GULP energy -198320.224117 kJ/mol
# GULP energy per Si atom -12395.014007 kJ/mol
# Density = 2.272523 g / cm^3
# Si number density = 22.777067 Si / 1000 Ang^3
#
#
#
# Elastic Constant Matrix: (Units=GPa)
#
#
# Indices 1 2 3 4 5 6 
#
# 1 114.0092 30.9883 77.5935 14.8844 11.8780 -1.4598
# 2 30.9883 69.5605 41.1749 2.2907 2.6955 9.3981
# 3 77.5935 41.1749 170.0149 12.3443 17.4730 -4.6047
# 4 14.8844 2.2907 12.3443 34.6013 1.3395 5.8340
# 5 11.8780 2.6955 17.4730 1.3395 38.2807 6.5398
# 6 -1.4598 9.3981 -4.6047 5.8340 6.5398 18.6903
#
#
#
# Elastic Compliance Matrix: (Units=1/GPa)
#
#
# Indices 1 2 3 4 5 6 
#
# 1 0.013927 -0.003683 -0.004770 -0.004636 -0.002416 0.004057
# 2 -0.003683 0.020176 -0.004284 0.004005 0.003950 -0.014121
# 3 -0.004770 -0.004284 0.009786 -0.002045 -0.003658 0.006111
# 4 -0.004636 0.004005 -0.002045 0.033687 0.003403 -0.014585
# 5 -0.002416 0.003950 -0.003658 0.003403 0.030686 -0.014875
# 6 0.004057 -0.014121 0.006111 -0.014585 -0.014875 0.072184
#
#
# Mechanical properties :
#
#
# Convention : Reuss Voigt Hill
#
# Bulk Modulus (GPa) = 54.30373 72.56644 63.43508
# Shear Modulus (GPa) = 23.57838 31.90298 27.74068
#
# Velocity S-wave (km/s) = 3.22091 3.74660 3.49366
# Velocity P-wave (km/s) = 6.14211 7.11650 6.64719
#
# Compressibility (1/GPa) = 0.01841494
#
# Stress axis : x y z
#
# Youngs Moduli (GPa) = 71.80125 49.56457 102.18551
#
# Poissons Ratio (x) = 0.18255 0.48738
# Poissons Ratio (y) = 0.26445 0.43781
# Poissons Ratio (z) = 0.34246 0.21236
#
# Static dielectric constant tensor:
#      x y z
#    x 3.914010 -0.124780 -0.065440 
#    y -0.124780 4.231470 0.300370 
#    z -0.065440 0.300370 4.628250 
# 
# 
# High freq. dielectric constant tensor:
#      x y z
#    x 1.895040 0.003000 0.008110 
#    y 0.003000 1.882390 0.015030 
#    z 0.008110 0.015030 1.913730 
# 
# From -- ./inp_files/382033.got.cif
#   From: 2010.06.25/outbox.cif.g09.slc.cpg/sg2_192_cif.got.tgz:382033.got - 2010.06.27 13:26:56.
