data_PCOD8016361
_publ_section_title
;
Structure prediction by ZEFSAII (Michael W. Deem and Ramdas Pophale) SiO2 
 PCOD8016361
Probable space group: P -1
;
_chemical_formula_sum "Si O2"
_cell_formula_units_Z 16
_cell_length_a 22.929347
_cell_length_b 17.037223
_cell_length_c 28.505331
_cell_angle_alpha 21.699775
_cell_angle_beta 10.659185
_cell_angle_gamma 22.082480
_cell_volume 746.491032
_symmetry_space_group_name_H-M "P -1"
_symmetry_group_IT_number 2
_symmetry_cell_setting 'triclinic'
loop_
_space_group_symop_operation_xyz
x,y,z
-x,-y,-z
loop_
_atom_site_type_symbol
_atom_site_label
_atom_site_fract_x
_atom_site_fract_y
_atom_site_fract_z
Si Si1 0.839907 0.183320 0.989531
Si Si2 0.109792 0.543383 0.785625
Si Si3 0.133594 0.119701 0.129945
Si Si4 0.419941 0.122367 0.269573
Si Si5 0.781150 0.686116 0.540256
Si Si6 0.578415 0.811197 0.006224
Si Si7 0.885608 0.912592 0.942604
Si Si8 0.111046 0.494853 0.544904
O O1 0.710629 0.099913 0.089330
O O2 0.558701 0.324043 0.163470
O O3 0.092145 0.331440 0.693432
O O4 0.000000 0.000000 0.000000
O O5 0.500000 0.500000 0.500000
O O6 0.941355 0.665929 0.897329
O O7 0.952863 0.688135 0.784088
O O8 0.991488 0.314480 0.001311
O O9 0.176355 0.175182 0.011364
O O10 0.833131 0.006241 0.437992
O O11 0.466848 0.941226 0.974325
O O12 0.244699 0.369648 0.261604
O O13 0.557235 0.029972 0.162157
O O14 0.759000 0.639637 0.529058
O O15 0.000000 0.500000 0.500000
O O16 0.867865 0.923797 0.345606
O O17 0.352614 0.641397 0.289930
O O18 0.500000 0.000000 0.000000
#
# Coordination Sequence:
#
# PCOD8016361 Si02
#       8
#     2   2   2   2   2   2   2   2
#     4  12  26  40  62 103 137 170 222 273 324 391
#     4  11  23  42  69  98 133 172 216 275 334 388
#     4  10  21  44  68  94 131 174 223 268 321 402
#     4  11  21  42  66  95 131 176 223 267 324 397
#     4  12  23  42  69  96 131 178 223 263 330 405
#     4   9  22  43  70  94 129 172 218 270 327 388
#     4  12  23  38  73  95 130 176 219 270 337 383
#     4  11  23  42  71  91 136 178 218 272 328 391
#
# _framework density 21.433613000000001
#
# number of rings (size 3 to 8) (size 9 to 14) (size 15 to 20)
#    0.000    1.000    5.000    2.250    1.750    1.500 
#    0.000    0.625    5.500    0.000    0.000    0.000 
#    0.000    0.000    0.000    0.000    0.000    0.000 
#
# Total GULP energy -198240.656774 kJ/mol
# GULP energy per Si atom -12390.041048 kJ/mol
# Density = 2.138483 g / cm^3
# Si number density = 21.433613 Si / 1000 Ang^3
#
#
#
# Elastic Constant Matrix: (Units=GPa)
#
#
# Indices 1 2 3 4 5 6 
#
# 1 92.6698 38.5517 40.9760 6.2925 13.0284 9.5779
# 2 38.5517 104.0421 48.9562 -10.7200 -0.0204 4.9969
# 3 40.9760 48.9562 75.4198 2.7331 -1.2237 -1.6595
# 4 6.2925 -10.7200 2.7331 44.0174 4.5558 0.0799
# 5 13.0284 -0.0204 -1.2237 4.5558 39.6547 5.2633
# 6 9.5779 4.9969 -1.6595 0.0799 5.2633 35.9005
#
#
#
# Elastic Compliance Matrix: (Units=1/GPa)
#
#
# Indices 1 2 3 4 5 6 
#
# 1 0.016277 -0.002690 -0.007182 -0.002026 -0.004862 -0.003583
# 2 -0.002690 0.015231 -0.008627 0.004597 0.000344 -0.001862
# 3 -0.007182 -0.008627 0.022992 -0.002808 0.002888 0.003763
# 4 -0.002026 0.004597 -0.002808 0.024534 -0.002243 0.000045
# 5 -0.004862 0.000344 0.002888 -0.002243 0.027513 -0.002646
# 6 -0.003583 -0.001862 0.003763 0.000045 -0.002646 0.029631
#
#
# Mechanical properties :
#
#
# Convention : Reuss Voigt Hill
#
# Bulk Modulus (GPa) = 57.13318 58.78882 57.96100
# Shear Modulus (GPa) = 27.93131 33.49105 30.71118
#
# Velocity S-wave (km/s) = 3.61384 3.95720 3.78941
# Velocity P-wave (km/s) = 6.64281 6.95464 6.80051
#
# Compressibility (1/GPa) = 0.01750297
#
# Stress axis : x y z
#
# Youngs Moduli (GPa) = 61.43646 65.65681 43.49245
#
# Poissons Ratio (x) = 0.17659 0.31236
# Poissons Ratio (y) = 0.16524 0.37522
# Poissons Ratio (z) = 0.44123 0.56644
#
# Static dielectric constant tensor:
#      x y z
#    x 3.598090 -0.679390 0.752570 
#    y -0.679390 4.182050 0.622540 
#    z 0.752570 0.622540 2.589730 
# 
# 
# High freq. dielectric constant tensor:
#      x y z
#    x 1.837380 0.000170 0.000170 
#    y 0.000170 1.858320 -0.008030 
#    z 0.000170 -0.008030 1.829330 
# 
# From -- ./inp_files/187954.got.cif
#   From: 2010.06.25/outbox.cif.g09.slc.cpg/sg2_94_cif.got.tgz:187954.got - 2010.06.27 13:26:56.
