data_PCOD8016136
_publ_section_title
;
Structure prediction by ZEFSAII (Michael W. Deem and Ramdas Pophale) SiO2 
 PCOD8016136
Probable space group: P -1
;
_chemical_formula_sum "Si O2"
_cell_formula_units_Z 16
_cell_length_a 8.287944
_cell_length_b 17.595871
_cell_length_c 14.241386
_cell_angle_alpha 146.685490
_cell_angle_beta 40.729417
_cell_angle_gamma 135.260093
_cell_volume 726.884215
_symmetry_space_group_name_H-M "P -1"
_symmetry_group_IT_number 2
_symmetry_cell_setting 'triclinic'
loop_
_space_group_symop_operation_xyz
x,y,z
-x,-y,-z
loop_
_atom_site_type_symbol
_atom_site_label
_atom_site_fract_x
_atom_site_fract_y
_atom_site_fract_z
Si Si1 0.053708 0.226525 0.044617
Si Si2 0.679846 0.027531 0.359421
Si Si3 0.714179 0.918275 0.550486
Si Si4 0.573608 0.601186 0.223625
Si Si5 0.511839 0.871790 0.794446
Si Si6 0.235161 0.425963 0.328380
Si Si7 0.858487 0.510320 0.847322
Si Si8 0.867034 0.702161 0.558102
O O1 0.227647 0.300006 0.127772
O O2 0.068622 0.327417 0.051710
O O3 0.772095 0.200091 0.182762
O O4 0.141367 0.084630 0.832239
O O5 0.491421 0.007396 0.332651
O O6 0.871668 0.180000 0.428563
O O7 0.500000 0.000000 0.500000
O O8 0.695457 0.765116 0.354213
O O9 0.665623 0.923371 0.687070
O O10 0.000000 0.000000 0.500000
O O11 0.486195 0.539917 0.302641
O O12 0.344237 0.582823 0.230895
O O13 0.768844 0.516659 0.001377
O O14 0.640286 0.758712 0.671648
O O15 0.500000 0.000000 0.000000
O O16 0.245107 0.361401 0.359094
O O17 0.000000 0.500000 0.500000
O O18 0.089118 0.429397 0.660829
#
# Coordination Sequence:
#
# PCOD8016136 Si02
#       8
#     2   2   2   2   2   2   2   2
#     4  11  24  42  74 103 137 182 238 302 357 412
#     4  12  25  44  77 105 140 188 245 288 359 431
#     4  12  27  48  72 103 152 188 233 298 357 427
#     4  10  21  43  71 102 141 177 236 297 350 411
#     4  12  28  46  66 105 151 186 237 296 357 419
#     4  11  21  42  69 104 132 181 241 301 346 421
#     4  10  22  42  76 103 134 184 238 294 347 427
#     4  12  24  45  73 102 138 193 239 286 363 417
#
# _framework density 22.011759000000001
#
# number of rings (size 3 to 8) (size 9 to 14) (size 15 to 20)
#    0.000    0.750    5.000    3.000    7.000    1.500 
#    0.000    0.625    0.000    0.000    0.000    0.000 
#    0.000    0.000    0.000    0.000    0.000    0.000 
#
# Total GULP energy -198379.263861 kJ/mol
# GULP energy per Si atom -12398.703991 kJ/mol
# Density = 2.196166 g / cm^3
# Si number density = 22.011759 Si / 1000 Ang^3
#
#
#
# Elastic Constant Matrix: (Units=GPa)
#
#
# Indices 1 2 3 4 5 6 
#
# 1 88.7066 47.4033 46.9943 -4.3916 -21.0866 -19.2237
# 2 47.4033 161.9866 65.5993 -13.4215 -3.9483 -11.8071
# 3 46.9943 65.5993 156.1683 -10.4845 -15.1193 -26.4441
# 4 -4.3916 -13.4215 -10.4845 42.6974 -3.1938 7.2652
# 5 -21.0866 -3.9483 -15.1193 -3.1938 38.7297 0.3271
# 6 -19.2237 -11.8071 -26.4441 7.2652 0.3271 41.5998
#
#
#
# Elastic Compliance Matrix: (Units=1/GPa)
#
#
# Indices 1 2 3 4 5 6 
#
# 1 0.017516 -0.003737 -0.001930 -0.000206 0.008337 0.005778
# 2 -0.003737 0.008349 -0.002702 0.001649 -0.002091 -0.001347
# 3 -0.001930 -0.002702 0.009050 0.000667 0.002229 0.003960
# 4 -0.000206 0.001649 0.000667 0.024868 0.002397 -0.003565
# 5 0.008337 -0.002091 0.002229 0.002397 0.031179 0.004012
# 6 0.005778 -0.001347 0.003960 -0.003565 0.004012 0.029435
#
#
# Mechanical properties :
#
#
# Convention : Reuss Voigt Hill
#
# Bulk Modulus (GPa) = 55.01390 80.76170 67.88780
# Shear Modulus (GPa) = 34.91777 41.06301 37.99039
#
# Velocity S-wave (km/s) = 3.98719 4.32383 4.15892
# Velocity P-wave (km/s) = 6.80030 7.85476 7.34648
#
# Compressibility (1/GPa) = 0.01817722
#
# Stress axis : x y z
#
# Youngs Moduli (GPa) = 57.09078 119.77791 110.49490
#
# Poissons Ratio (x) = 0.44764 0.21320
# Poissons Ratio (y) = 0.21336 0.29857
# Poissons Ratio (z) = 0.11016 0.32365
#
# Static dielectric constant tensor:
#      x y z
#    x 3.537760 -0.200750 -0.161600 
#    y -0.200750 4.017390 -0.000430 
#    z -0.161600 -0.000430 4.134500 
# 
# 
# High freq. dielectric constant tensor:
#      x y z
#    x 1.842810 -0.004280 0.000920 
#    y -0.004280 1.882610 -0.005040 
#    z 0.000920 -0.005040 1.883670 
# 
# From -- ./inp_files/507323.got.cif
#   From: 2010.06.25/outbox.cif.g09.slc.cpg/sg2_254_cif.got.tgz:507323.got - 2010.06.27 13:26:56.
