data_PCOD8016546
_publ_section_title
;
Structure prediction by ZEFSAII (Michael W. Deem and Ramdas Pophale) SiO2 
 PCOD8016546
Probable space group: P -1
;
_chemical_formula_sum "Si O2"
_cell_formula_units_Z 16
_cell_length_a 8.606606
_cell_length_b 9.328715
_cell_length_c 12.256388
_cell_angle_alpha 49.709118
_cell_angle_beta 99.758678
_cell_angle_gamma 89.617503
_cell_volume 730.838366
_symmetry_space_group_name_H-M "P -1"
_symmetry_group_IT_number 2
_symmetry_cell_setting 'triclinic'
loop_
_space_group_symop_operation_xyz
x,y,z
-x,-y,-z
loop_
_atom_site_type_symbol
_atom_site_label
_atom_site_fract_x
_atom_site_fract_y
_atom_site_fract_z
Si Si1 0.608107 0.272335 0.347201
Si Si2 0.415164 0.619646 0.267740
Si Si3 0.780528 0.679610 0.563390
Si Si4 0.727577 0.752435 0.285757
Si Si5 0.145695 0.915867 0.980546
Si Si6 0.665977 0.904175 0.651987
Si Si7 0.075215 0.303977 0.052130
Si Si8 0.128802 0.511303 0.749064
O O1 0.509567 0.481168 0.256832
O O2 0.502970 0.165526 0.302688
O O3 0.774176 0.315562 0.293492
O O4 0.649030 0.133965 0.527267
O O5 0.328291 0.482113 0.401991
O O6 0.538998 0.737529 0.283877
O O7 0.272199 0.765652 0.130626
O O8 0.804918 0.775751 0.402494
O O9 0.698080 0.828210 0.569047
O O10 0.943431 0.590037 0.684132
O O11 0.816256 0.566408 0.325696
O O12 0.753233 0.931457 0.129167
O O13 0.068767 0.814751 0.921836
O O14 0.000000 0.000000 0.000000
O O15 0.795989 0.822899 0.795079
O O16 0.156905 0.346886 0.925687
O O17 0.000000 0.500000 0.000000
#
# Coordination Sequence:
#
# PCOD8016546 Si02
#       8
#     2   2   2   2   2   2   2   2
#     4   9  22  42  64  94 132 172 222 271 328 395
#     4  10  21  45  66  92 138 172 218 274 333 396
#     4  11  21  41  65  96 136 172 221 273 329 398
#     4  11  24  40  65 100 130 177 220 275 335 391
#     4  12  24  45  68 100 134 171 226 276 326 397
#     4  10  22  43  64  94 134 174 220 269 329 400
#     4  12  23  43  70  95 134 177 215 273 338 385
#     4  11  22  41  65  97 131 175 224 272 334 389
#
# _framework density 21.892665000000001
#
# number of rings (size 3 to 8) (size 9 to 14) (size 15 to 20)
#    0.000    1.250    3.750    1.875    1.750    2.000 
#    9.000    0.000    0.000    0.000    0.000    0.000 
#    0.000    0.000    0.000    0.000    0.000    0.000 
#
# Total GULP energy -198300.764076 kJ/mol
# GULP energy per Si atom -12393.797755 kJ/mol
# Density = 2.184284 g / cm^3
# Si number density = 21.892665 Si / 1000 Ang^3
#
#
#
# Elastic Constant Matrix: (Units=GPa)
#
#
# Indices 1 2 3 4 5 6 
#
# 1 113.3854 28.9911 37.3271 -10.6851 3.8573 13.7820
# 2 28.9911 71.5135 26.9402 -3.8389 2.7349 5.6266
# 3 37.3271 26.9402 116.8373 -1.0757 18.3543 -3.4121
# 4 -10.6851 -3.8389 -1.0757 37.1866 1.5041 -4.6371
# 5 3.8573 2.7349 18.3543 1.5041 43.2427 -5.1765
# 6 13.7820 5.6266 -3.4121 -4.6371 -5.1765 28.9880
#
#
#
# Elastic Compliance Matrix: (Units=1/GPa)
#
#
# Indices 1 2 3 4 5 6 
#
# 1 0.011393 -0.002957 -0.003048 0.002281 -0.000198 -0.004872
# 2 -0.002957 0.016467 -0.002940 0.000505 0.000211 -0.002018
# 3 -0.003048 -0.002940 0.010885 -0.000391 -0.003843 0.002552
# 4 0.002281 0.000505 -0.000391 0.028005 -0.000669 0.003132
# 5 -0.000198 0.000211 -0.003843 -0.000669 0.025264 0.004005
# 6 -0.004872 -0.002018 0.002552 0.003132 0.004005 0.038722
#
#
# Mechanical properties :
#
#
# Convention : Reuss Voigt Hill
#
# Bulk Modulus (GPa) = 47.94838 54.25032 51.09935
# Shear Modulus (GPa) = 32.13828 35.78197 33.96013
#
# Velocity S-wave (km/s) = 3.83560 4.04719 3.94281
# Velocity P-wave (km/s) = 6.44708 6.83181 6.64223
#
# Compressibility (1/GPa) = 0.02085576
#
# Stress axis : x y z
#
# Youngs Moduli (GPa) = 87.77442 60.72608 91.86730
#
# Poissons Ratio (x) = 0.17957 0.28002
# Poissons Ratio (y) = 0.25955 0.27007
# Poissons Ratio (z) = 0.26755 0.17852
#
# Static dielectric constant tensor:
#      x y z
#    x 4.580530 0.469580 -0.272260 
#    y 0.469580 4.078470 -0.333840 
#    z -0.272260 -0.333840 3.978240 
# 
# 
# High freq. dielectric constant tensor:
#      x y z
#    x 1.876390 0.014920 0.005490 
#    y 0.014920 1.847660 -0.018650 
#    z 0.005490 -0.018650 1.857750 
# 
# From -- ./inp_files/218571.got.cif
#   From: 2010.06.25/outbox.cif.g09.slc.cpg/sg2_110_cif.got.tgz:218571.got - 2010.06.27 13:26:56.
