data_PCOD8016356
_publ_section_title
;
Structure prediction by ZEFSAII (Michael W. Deem and Ramdas Pophale) SiO2 
 PCOD8016356
Probable space group: P -1
;
_chemical_formula_sum "Si O2"
_cell_formula_units_Z 16
_cell_length_a 9.679649
_cell_length_b 11.986815
_cell_length_c 9.376464
_cell_angle_alpha 78.893374
_cell_angle_beta 44.893152
_cell_angle_gamma 79.889759
_cell_volume 752.267762
_symmetry_space_group_name_H-M "P -1"
_symmetry_group_IT_number 2
_symmetry_cell_setting 'triclinic'
loop_
_space_group_symop_operation_xyz
x,y,z
-x,-y,-z
loop_
_atom_site_type_symbol
_atom_site_label
_atom_site_fract_x
_atom_site_fract_y
_atom_site_fract_z
Si Si1 0.069937 0.098072 0.520846
Si Si2 0.675710 0.440681 0.797608
Si Si3 0.268873 0.617222 0.703410
Si Si4 0.463306 0.993023 0.193841
Si Si5 0.739704 0.240171 0.598845
Si Si6 0.128747 0.930280 0.034242
Si Si7 0.302198 0.410664 0.521759
Si Si8 0.078364 0.676251 0.108601
O O1 0.952484 0.213853 0.525521
O O2 0.004782 0.064051 0.731689
O O3 0.306648 0.095028 0.334697
O O4 0.000000 0.000000 0.500000
O O5 0.620634 0.331293 0.767386
O O6 0.750293 0.532491 0.607454
O O7 0.833804 0.403654 0.809932
O O8 0.500000 0.500000 0.000000
O O9 0.216577 0.713391 0.600949
O O10 0.270830 0.496405 0.655616
O O11 0.475579 0.640376 0.623294
O O12 0.109104 0.617929 0.945987
O O13 0.387204 0.868390 0.308663
O O14 0.500000 0.000000 0.000000
O O15 0.666125 0.010192 0.120933
O O16 0.172079 0.797942 0.997326
O O17 0.000000 0.000000 0.000000
O O18 0.153552 0.311000 0.685928
#
# Coordination Sequence:
#
# PCOD8016356 Si02
#       8
#     2   2   2   2   2   2   2   2
#     4  10  21  44  68  91 133 175 232 272 326 406
#     4  11  21  44  69 100 135 169 224 285 326 403
#     4  10  23  42  65  93 132 166 222 271 329 404
#     4  11  22  44  72  95 132 185 233 272 333 408
#     4  10  22  43  68  99 131 179 232 270 335 408
#     4  12  28  44  64 106 141 169 228 289 335 404
#     4  10  23  43  65  93 130 174 217 269 330 407
#     4  12  24  43  65  96 133 173 219 275 347 384
#
# _framework density 21.269024000000002
#
# number of rings (size 3 to 8) (size 9 to 14) (size 15 to 20)
#    0.000    1.250    5.000    0.750    5.250    1.500 
#    2.250    0.000    0.000    0.000    0.000    0.000 
#    0.000    0.000    0.000    0.000    0.000    0.000 
#
# Total GULP energy -198307.666823 kJ/mol
# GULP energy per Si atom -12394.229176 kJ/mol
# Density = 2.122061 g / cm^3
# Si number density = 21.269024 Si / 1000 Ang^3
#
#
#
# Elastic Constant Matrix: (Units=GPa)
#
#
# Indices 1 2 3 4 5 6 
#
# 1 128.1057 34.7037 63.2431 -10.6771 2.3771 -24.3649
# 2 34.7037 77.1792 39.5891 1.3554 -1.5383 -8.9523
# 3 63.2431 39.5891 130.0704 7.7926 4.0614 -11.3729
# 4 -10.6771 1.3554 7.7926 36.8259 0.4782 2.0109
# 5 2.3771 -1.5383 4.0614 0.4782 49.2866 -4.8515
# 6 -24.3649 -8.9523 -11.3729 2.0109 -4.8515 35.3124
#
#
#
# Elastic Compliance Matrix: (Units=1/GPa)
#
#
# Indices 1 2 3 4 5 6 
#
# 1 0.012501 -0.002363 -0.005095 0.004449 0.000308 0.006174
# 2 -0.002363 0.016074 -0.003612 -0.000606 0.001063 0.001461
# 3 -0.005095 -0.003612 0.011458 -0.003723 -0.000838 -0.000644
# 4 0.004449 -0.000606 -0.003723 0.029256 -0.000208 0.000022
# 5 0.000308 0.001063 -0.000838 -0.000208 0.020681 0.003065
# 6 0.006174 0.001461 -0.000644 0.000022 0.003065 0.033162
#
#
# Mechanical properties :
#
#
# Convention : Reuss Voigt Hill
#
# Bulk Modulus (GPa) = 55.89402 67.82525 61.85964
# Shear Modulus (GPa) = 33.06077 37.47295 35.26686
#
# Velocity S-wave (km/s) = 3.94688 4.20200 4.07643
# Velocity P-wave (km/s) = 6.86346 7.44989 7.16268
#
# Compressibility (1/GPa) = 0.01789100
#
# Stress axis : x y z
#
# Youngs Moduli (GPa) = 79.99323 62.21286 87.27587
#
# Poissons Ratio (x) = 0.14703 0.44469
# Poissons Ratio (y) = 0.18905 0.31527
# Poissons Ratio (z) = 0.40758 0.22473
#
# Static dielectric constant tensor:
#      x y z
#    x 3.995520 -0.496230 0.044990 
#    y -0.496230 3.420540 0.380180 
#    z 0.044990 0.380180 3.860340 
# 
# 
# High freq. dielectric constant tensor:
#      x y z
#    x 1.837060 -0.004970 0.013010 
#    y -0.004970 1.827320 0.008100 
#    z 0.013010 0.008100 1.844870 
# 
# From -- ./inp_files/186374.got.cif
#   From: 2010.06.25/outbox.cif.g09.slc.cpg/sg2_94_cif.got.tgz:186374.got - 2010.06.27 13:26:56.
