data_PCOD8016610
_publ_section_title
;
Structure prediction by ZEFSAII (Michael W. Deem and Ramdas Pophale) SiO2 
 PCOD8016610
Probable space group: P -1
;
_chemical_formula_sum "Si O2"
_cell_formula_units_Z 16
_cell_length_a 8.430530
_cell_length_b 6.975439
_cell_length_c 32.728490
_cell_angle_alpha 138.840136
_cell_angle_beta 143.425937
_cell_angle_gamma 57.250754
_cell_volume 744.786392
_symmetry_space_group_name_H-M "P -1"
_symmetry_group_IT_number 2
_symmetry_cell_setting 'triclinic'
loop_
_space_group_symop_operation_xyz
x,y,z
-x,-y,-z
loop_
_atom_site_type_symbol
_atom_site_label
_atom_site_fract_x
_atom_site_fract_y
_atom_site_fract_z
Si Si1 0.535591 0.629947 0.072912
Si Si2 0.884132 0.369197 0.413194
Si Si3 0.423141 0.669063 0.348024
Si Si4 0.910545 0.587038 0.836807
Si Si5 0.447541 0.277741 0.145068
Si Si6 0.997086 0.717297 0.336727
Si Si7 0.263744 0.688630 0.475325
Si Si8 0.275469 0.162841 0.998911
O O1 0.294358 0.464287 0.025485
O O2 0.836279 0.587667 0.141415
O O3 0.497798 0.965163 0.122499
O O4 0.500000 0.500000 0.000000
O O5 0.572779 0.406342 0.352658
O O6 0.000000 0.500000 0.500000
O O7 0.023923 0.549908 0.432758
O O8 0.904321 0.029666 0.362834
O O9 0.310068 0.580297 0.265914
O O10 0.188491 0.691094 0.334373
O O11 0.629936 0.974589 0.436242
O O12 0.770902 0.579284 0.851091
O O13 0.996992 0.935038 0.899290
O O14 0.737032 0.475190 0.239037
O O15 0.331291 0.242762 0.070207
O O16 0.156584 0.678081 0.405090
O O17 0.500000 0.500000 0.500000
O O18 0.500000 0.000000 0.000000
#
# Coordination Sequence:
#
# PCOD8016610 Si02
#       8
#     2   2   2   2   2   2   2   2
#     4  11  24  45  74  96 138 187 223 281 353 404
#     4  12  26  47  73 100 142 185 236 288 348 413
#     4  12  26  46  73 103 141 185 233 287 352 413
#     4  11  26  44  69 106 137 177 235 282 344 416
#     4  12  26  45  70 103 139 177 232 286 342 413
#     4  12  27  47  71 105 140 184 235 288 349 416
#     4  12  25  46  73 102 142 184 231 291 349 410
#     4  10  21  45  69  98 137 174 225 280 334 410
#
# _framework density 21.482671
#
# number of rings (size 3 to 8) (size 9 to 14) (size 15 to 20)
#    0.000    0.500    5.000    4.125    3.500    4.500 
#    0.000    0.000    0.000    0.000    0.000    0.000 
#    0.000    0.000    0.000    0.000    0.000    0.000 
#
# Total GULP energy -198394.278907 kJ/mol
# GULP energy per Si atom -12399.642432 kJ/mol
# Density = 2.143378 g / cm^3
# Si number density = 21.482671 Si / 1000 Ang^3
#
#
#
# Elastic Constant Matrix: (Units=GPa)
#
#
# Indices 1 2 3 4 5 6 
#
# 1 143.9340 21.6628 32.3296 7.9097 -0.4308 22.4277
# 2 21.6628 111.5006 16.3777 16.2915 -5.9823 -0.7437
# 3 32.3296 16.3777 110.2238 11.6368 -6.4014 15.0158
# 4 7.9097 16.2915 11.6368 38.1046 6.9210 4.8195
# 5 -0.4308 -5.9823 -6.4014 6.9210 44.7023 1.9479
# 6 22.4277 -0.7437 15.0158 4.8195 1.9479 44.8820
#
#
#
# Elastic Compliance Matrix: (Units=1/GPa)
#
#
# Indices 1 2 3 4 5 6 
#
# 1 0.008076 -0.001335 -0.001695 -0.000117 -0.000174 -0.003470
# 2 -0.001335 0.010077 -0.000743 -0.004323 0.001835 0.001467
# 3 -0.001695 -0.000743 0.010390 -0.002534 0.001871 -0.002450
# 4 -0.000117 -0.004323 -0.002534 0.030166 -0.005519 -0.002165
# 5 -0.000174 0.001835 0.001871 -0.005519 0.023778 -0.000948
# 6 -0.003470 0.001467 -0.002450 -0.002165 -0.000948 0.025133
#
#
# Mechanical properties :
#
#
# Convention : Reuss Voigt Hill
#
# Bulk Modulus (GPa) = 47.62695 56.26652 51.94673
# Shear Modulus (GPa) = 40.92822 45.22365 43.07594
#
# Velocity S-wave (km/s) = 4.36957 4.59314 4.48275
# Velocity P-wave (km/s) = 6.90475 7.37412 7.14329
#
# Compressibility (1/GPa) = 0.02099652
#
# Stress axis : x y z
#
# Youngs Moduli (GPa) = 123.82235 99.23611 96.24627
#
# Poissons Ratio (x) = 0.13252 0.16317
# Poissons Ratio (y) = 0.16536 0.07146
# Poissons Ratio (z) = 0.20992 0.07368
#
# Static dielectric constant tensor:
#      x y z
#    x 4.095730 0.037160 0.003330 
#    y 0.037160 4.104050 0.139510 
#    z 0.003330 0.139510 3.879650 
# 
# 
# High freq. dielectric constant tensor:
#      x y z
#    x 1.864410 0.001050 -0.001780 
#    y 0.001050 1.851600 0.004490 
#    z -0.001780 0.004490 1.853520 
# 
# From -- ./inp_files/622261.got.cif
#   From: 2010.06.25/outbox.cif.g09.slc.cpg/sg2_312_cif.got.tgz:622261.got - 2010.06.27 13:26:56.
