data_PCOD8016817
_publ_section_title
;
Structure prediction by ZEFSAII (Michael W. Deem and Ramdas Pophale) SiO2 
 PCOD8016817
Probable space group: P -1
;
_chemical_formula_sum "Si O2"
_cell_formula_units_Z 16
_cell_length_a 8.552315
_cell_length_b 15.893212
_cell_length_c 14.451826
_cell_angle_alpha 52.683802
_cell_angle_beta 41.093520
_cell_angle_gamma 82.926192
_cell_volume 790.375912
_symmetry_space_group_name_H-M "P -1"
_symmetry_group_IT_number 2
_symmetry_cell_setting 'triclinic'
loop_
_space_group_symop_operation_xyz
x,y,z
-x,-y,-z
loop_
_atom_site_type_symbol
_atom_site_label
_atom_site_fract_x
_atom_site_fract_y
_atom_site_fract_z
Si Si1 0.938293 0.312886 0.493766
Si Si2 0.104980 0.649385 0.833072
Si Si3 0.735758 0.862775 0.094520
Si Si4 0.147197 0.339875 0.884355
Si Si5 0.132778 0.593424 0.189612
Si Si6 0.808730 0.612854 0.471607
Si Si7 0.719019 0.648758 0.846839
Si Si8 0.748187 0.830906 0.322938
O O1 0.592474 0.192774 0.764748
O O2 0.954347 0.432609 0.357168
O O3 0.175745 0.383901 0.426237
O O4 0.040303 0.255360 0.408141
O O5 0.449177 0.748775 0.575230
O O6 0.880707 0.646806 0.865404
O O7 0.000000 0.500000 0.000000
O O8 0.100138 0.712855 0.888635
O O9 0.832185 0.777192 0.069388
O O10 0.674816 0.848103 0.241197
O O11 0.996840 0.020265 0.843812
O O12 0.473381 0.479914 0.677279
O O13 0.025777 0.365009 0.831716
O O14 0.071509 0.611876 0.310686
O O15 0.503647 0.687936 0.944850
O O16 0.880729 0.750833 0.312393
O O17 0.500000 0.500000 0.000000
#
# Coordination Sequence:
#
# PCOD8016817 Si02
#       8
#     2   2   2   2   2   2   2   2
#     4  11  22  38  64  92 130 165 207 266 321 370
#     4  12  23  39  67  98 127 163 213 267 316 375
#     4  11  24  45  66  89 129 175 214 258 319 379
#     4  12  23  38  68  96 125 165 213 269 315 371
#     4  11  22  36  60  98 128 158 206 270 315 364
#     4  12  23  38  67  98 123 162 220 266 312 372
#     4  10  22  36  56  96 130 162 196 266 325 368
#     4  11  25  44  66  92 126 174 216 259 314 385
#
# _framework density 20.243531000000001
#
# number of rings (size 3 to 8) (size 9 to 14) (size 15 to 20)
#    0.000    0.750    5.000    4.500    3.500    1.000 
#    0.000    0.000    0.000    1.500    0.000    0.000 
#    0.000    0.000    0.000    0.000    0.000    0.000 
#
# Total GULP energy -198391.637411 kJ/mol
# GULP energy per Si atom -12399.477338 kJ/mol
# Density = 2.019746 g / cm^3
# Si number density = 20.243531 Si / 1000 Ang^3
#
#
#
# Elastic Constant Matrix: (Units=GPa)
#
#
# Indices 1 2 3 4 5 6 
#
# 1 60.7529 21.6568 26.4740 4.5109 -10.3659 1.4520
# 2 21.6568 105.1729 65.5243 16.4008 -7.8347 -3.3818
# 3 26.4740 65.5243 133.1288 8.9847 -10.2205 -6.7024
# 4 4.5109 16.4008 8.9847 47.0338 2.6708 0.9807
# 5 -10.3659 -7.8347 -10.2205 2.6708 24.0404 11.1224
# 6 1.4520 -3.3818 -6.7024 0.9807 11.1224 27.5655
#
#
#
# Elastic Compliance Matrix: (Units=1/GPa)
#
#
# Indices 1 2 3 4 5 6 
#
# 1 0.020134 -0.001805 -0.002569 -0.001248 0.009837 -0.005832
# 2 -0.001805 0.014617 -0.006456 -0.003786 0.001785 -0.000267
# 3 -0.002569 -0.006456 0.011331 0.000253 0.000750 0.001786
# 4 -0.001248 -0.003786 0.000253 0.022895 -0.004518 0.000671
# 5 0.009837 0.001785 0.000750 -0.004518 0.058059 -0.023382
# 6 -0.005832 -0.000267 0.001786 0.000671 -0.023382 0.046397
#
#
# Mechanical properties :
#
#
# Convention : Reuss Voigt Hill
#
# Bulk Modulus (GPa) = 40.95062 58.48498 49.71780
# Shear Modulus (GPa) = 24.60221 32.08791 28.34506
#
# Velocity S-wave (km/s) = 3.48991 3.98564 3.74599
# Velocity P-wave (km/s) = 6.04254 7.08053 6.58203
#
# Compressibility (1/GPa) = 0.02441966
#
# Stress axis : x y z
#
# Youngs Moduli (GPa) = 49.66762 68.41354 88.25652
#
# Poissons Ratio (x) = 0.12350 0.22677
# Poissons Ratio (y) = 0.08966 0.56980
# Poissons Ratio (z) = 0.12762 0.44169
#
# Static dielectric constant tensor:
#      x y z
#    x 3.618160 -0.057110 -0.115870 
#    y -0.057110 4.022440 0.503990 
#    z -0.115870 0.503990 3.869980 
# 
# 
# High freq. dielectric constant tensor:
#      x y z
#    x 1.794850 0.000820 -0.002920 
#    y 0.000820 1.790530 0.034920 
#    z -0.002920 0.034920 1.776100 
# 
# From -- ./inp_files/207305.got.cif
#   From: 2010.06.25/outbox.cif.g09.slc.cpg/sg2_104_cif.got.tgz:207305.got - 2010.06.27 13:26:56.
