data_PCOD8016939
_publ_section_title
;
Structure prediction by ZEFSAII (Michael W. Deem and Ramdas Pophale) SiO2 
 PCOD8016939
Probable space group: P -1
;
_chemical_formula_sum "Si O2"
_cell_formula_units_Z 14
_cell_length_a 17.304160
_cell_length_b 6.632077
_cell_length_c 14.125299
_cell_angle_alpha 128.443168
_cell_angle_beta 147.833661
_cell_angle_gamma 63.704602
_cell_volume 662.308326
_symmetry_space_group_name_H-M "P -1"
_symmetry_group_IT_number 2
_symmetry_cell_setting 'triclinic'
loop_
_space_group_symop_operation_xyz
x,y,z
-x,-y,-z
loop_
_atom_site_type_symbol
_atom_site_label
_atom_site_fract_x
_atom_site_fract_y
_atom_site_fract_z
Si Si1 0.043501 0.270890 0.249774
Si Si2 0.485134 0.051233 0.345494
Si Si3 0.241706 0.541860 0.980174
Si Si4 0.337028 0.459153 0.247683
Si Si5 0.096321 0.331322 0.107417
Si Si6 0.422207 0.230197 0.950081
Si Si7 0.326457 0.263500 0.658628
O O1 0.105747 0.390069 0.247187
O O2 0.168157 0.306938 0.470730
O O3 0.920763 0.423577 0.210597
O O4 0.969688 0.970514 0.069800
O O5 0.422385 0.219776 0.247800
O O6 0.546586 0.260979 0.553147
O O7 0.625505 0.944885 0.422622
O O8 0.355934 0.817960 0.176616
O O9 0.303019 0.315798 0.922425
O O10 0.219437 0.455764 0.041540
O O11 0.260874 0.410544 0.257883
O O12 0.000000 0.500000 0.000000
O O13 0.326159 0.149496 0.731576
O O14 0.558835 0.464612 0.142700
O O15 0.500000 0.000000 0.000000
#
# Coordination Sequence:
#
# PCOD8016939 Si02
#       7
#     2   2   2   2   2   2   2
#     4  11  24  39  62  94 128 168 199 255 317 368
#     4  10  22  37  60  91 125 167 205 255 303 367
#     4  11  22  40  63  91 129 160 207 261 310 364
#     4  11  21  36  62  93 125 168 210 247 301 374
#     4  11  22  38  58  91 136 167 202 240 304 380
#     4  10  23  45  67  88 116 163 216 264 306 366
#     4  10  23  42  64  89 123 162 209 257 315 365
#
# _framework density 21.138190999999999
#
# number of rings (size 3 to 8) (size 9 to 14) (size 15 to 20)
#    0.000    1.429    2.857    2.143    2.000    7.429 
#    0.000    0.714    0.000    0.000    0.000    0.000 
#    0.000    0.000    0.000    0.000    0.000    0.000 
#
# Total GULP energy -173511.561592 kJ/mol
# GULP energy per Si atom -12393.682971 kJ/mol
# Density = 2.109008 g / cm^3
# Si number density = 21.138191 Si / 1000 Ang^3
#
#
#
# Elastic Constant Matrix: (Units=GPa)
#
#
# Indices 1 2 3 4 5 6 
#
# 1 105.7116 56.6095 45.9963 -22.5137 3.7713 -1.6951
# 2 56.6095 145.7817 42.1062 -33.2580 -6.9666 -15.8609
# 3 45.9963 42.1062 87.5933 -38.5044 -3.4348 -3.7314
# 4 -22.5137 -33.2580 -38.5044 44.2275 2.2471 2.2323
# 5 3.7713 -6.9666 -3.4348 2.2471 27.0812 -12.7652
# 6 -1.6951 -15.8609 -3.7314 2.2323 -12.7652 30.4414
#
#
#
# Elastic Compliance Matrix: (Units=1/GPa)
#
#
# Indices 1 2 3 4 5 6 
#
# 1 0.014847 -0.005091 -0.006363 -0.001211 -0.006569 -0.005271
# 2 -0.005091 0.011189 0.000224 0.005251 0.007012 0.008129
# 3 -0.006363 0.000224 0.021744 0.015523 0.003766 0.002868
# 4 -0.001211 0.005251 0.015523 0.039280 0.001279 0.002227
# 5 -0.006569 0.007012 0.003766 0.001279 0.052022 0.025470
# 6 -0.005271 0.008129 0.002868 0.002227 0.025470 0.047661
#
#
# Mechanical properties :
#
#
# Convention : Reuss Voigt Hill
#
# Bulk Modulus (GPa) = 39.49526 69.83450 54.66488
# Shear Modulus (GPa) = 22.97351 33.30833 28.14092
#
# Velocity S-wave (km/s) = 3.30028 3.97387 3.65263
# Velocity P-wave (km/s) = 5.76605 7.35964 6.61104
#
# Compressibility (1/GPa) = 0.02531949
#
# Stress axis : x y z
#
# Youngs Moduli (GPa) = 67.35550 89.37175 45.99041
#
# Poissons Ratio (x) = 0.45498 0.29265
# Poissons Ratio (y) = 0.34290 -0.01031
# Poissons Ratio (z) = 0.42860 -0.02004
#
# Static dielectric constant tensor:
#      x y z
#    x 4.017010 0.008860 0.056420 
#    y 0.008860 4.205800 -0.167290 
#    z 0.056420 -0.167290 3.615200 
# 
# 
# High freq. dielectric constant tensor:
#      x y z
#    x 1.817690 -0.000950 0.007810 
#    y -0.000950 1.852970 -0.013530 
#    z 0.007810 -0.013530 1.812060 
# 
# From -- ./inp_files/76000.got.cif
#   From: 2010.06.25/outbox.cif.g09.slc.cpg/sg2_38_cif.got.tgz:76000.got - 2010.06.27 13:26:56.
