data_PCOD8016543
_publ_section_title
;
Structure prediction by ZEFSAII (Michael W. Deem and Ramdas Pophale) SiO2 
 PCOD8016543
Probable space group: P -1
;
_chemical_formula_sum "Si O2"
_cell_formula_units_Z 16
_cell_length_a 9.010173
_cell_length_b 6.569499
_cell_length_c 22.411135
_cell_angle_alpha 120.652986
_cell_angle_beta 51.244888
_cell_angle_gamma 86.083743
_cell_volume 726.516379
_symmetry_space_group_name_H-M "P -1"
_symmetry_group_IT_number 2
_symmetry_cell_setting 'triclinic'
loop_
_space_group_symop_operation_xyz
x,y,z
-x,-y,-z
loop_
_atom_site_type_symbol
_atom_site_label
_atom_site_fract_x
_atom_site_fract_y
_atom_site_fract_z
Si Si1 0.504544 0.594441 0.445558
Si Si2 0.328444 0.122661 0.845352
Si Si3 0.448416 0.266566 0.089418
Si Si4 0.116295 0.829610 0.186917
Si Si5 0.202216 0.289841 0.271038
Si Si6 0.367281 0.996575 0.686846
Si Si7 0.741561 0.849499 0.472257
Si Si8 0.856219 0.261444 0.971877
O O1 0.500000 0.500000 0.500000
O O2 0.569437 0.314187 0.349900
O O3 0.689486 0.678590 0.411002
O O4 0.273320 0.883417 0.517674
O O5 0.122937 0.075541 0.900274
O O6 0.579682 0.846995 0.760036
O O7 0.339386 0.178374 0.780043
O O8 0.260794 0.396263 0.942827
O O9 0.336690 0.540130 0.115229
O O10 0.274602 0.339326 0.196871
O O11 0.696877 0.192764 0.039406
O O12 0.500000 0.000000 0.000000
O O13 0.151539 0.824446 0.106749
O O14 0.101053 0.098030 0.261517
O O15 0.877933 0.854840 0.264605
O O16 0.001778 0.609899 0.394895
O O17 0.560269 0.971194 0.591305
#
# Coordination Sequence:
#
# PCOD8016543 Si02
#       8
#     2   2   2   2   2   2   2   2
#     4   9  19  37  63  91 125 163 206 269 323 362
#     4  10  23  43  65  91 132 180 213 257 332 385
#     4  12  24  37  67 102 124 165 221 279 324 373
#     4  11  22  40  68  94 131 164 222 273 321 375
#     4  12  24  39  65  99 128 174 217 267 321 387
#     4  10  22  41  66  94 126 179 211 262 320 384
#     4  10  22  38  65  96 130 162 220 267 316 384
#     4  10  21  45  66  89 131 172 214 274 321 385
#
# _framework density 22.022904
#
# number of rings (size 3 to 8) (size 9 to 14) (size 15 to 20)
#    0.000    1.500    3.750    1.125    5.250    1.000 
#    2.250    0.625    0.000    0.000    0.000    0.000 
#    0.000    0.000    0.000    0.000    0.000    0.000 
#
# Total GULP energy -198282.184211 kJ/mol
# GULP energy per Si atom -12392.636513 kJ/mol
# Density = 2.197278 g / cm^3
# Si number density = 22.022904 Si / 1000 Ang^3
#
#
#
# Elastic Constant Matrix: (Units=GPa)
#
#
# Indices 1 2 3 4 5 6 
#
# 1 99.6251 25.0485 39.3410 3.6580 -25.1799 -3.7590
# 2 25.0485 83.0981 32.5177 7.2359 -10.8400 0.4050
# 3 39.3410 32.5177 116.0355 -2.4018 -26.6799 -2.4283
# 4 3.6580 7.2359 -2.4018 29.4692 3.0963 -8.1043
# 5 -25.1799 -10.8400 -26.6799 3.0963 37.6945 3.2346
# 6 -3.7590 0.4050 -2.4283 -8.1043 3.2346 22.7996
#
#
#
# Elastic Compliance Matrix: (Units=1/GPa)
#
#
# Indices 1 2 3 4 5 6 
#
# 1 0.013283 -0.002006 -0.002433 -0.001973 0.006709 0.000313
# 2 -0.002006 0.014457 -0.003266 -0.004414 0.001096 -0.002660
# 3 -0.002433 -0.003266 0.011672 0.001674 0.005498 0.000715
# 4 -0.001973 -0.004414 0.001674 0.040171 -0.005994 0.015061
# 5 0.006709 0.001096 0.005498 -0.005994 0.036190 -0.005593
# 6 0.000313 -0.002660 0.000715 0.015061 -0.005593 0.050183
#
#
# Mechanical properties :
#
#
# Convention : Reuss Voigt Hill
#
# Bulk Modulus (GPa) = 41.66462 54.73035 48.19748
# Shear Modulus (GPa) = 26.40389 31.44942 28.92665
#
# Velocity S-wave (km/s) = 3.46631 3.78303 3.62813
# Velocity P-wave (km/s) = 5.91441 6.63229 6.28361
#
# Compressibility (1/GPa) = 0.02400118
#
# Stress axis : x y z
#
# Youngs Moduli (GPa) = 75.28552 69.16985 85.67525
#
# Poissons Ratio (x) = 0.13878 0.20843
# Poissons Ratio (y) = 0.15105 0.27983
# Poissons Ratio (z) = 0.18316 0.22592
#
# Static dielectric constant tensor:
#      x y z
#    x 4.004960 0.235120 -0.130940 
#    y 0.235120 3.791530 0.293340 
#    z -0.130940 0.293340 4.012900 
# 
# 
# High freq. dielectric constant tensor:
#      x y z
#    x 1.853280 0.005330 -0.011740 
#    y 0.005330 1.847240 0.004970 
#    z -0.011740 0.004970 1.877840 
# 
# From -- ./inp_files/605900.got.cif
#   From: 2010.06.25/outbox.cif.g09.slc.cpg/sg2_303_cif.got.tgz:605900.got - 2010.06.27 13:26:56.
