data_PCOD8016759
_publ_section_title
;
Structure prediction by ZEFSAII (Michael W. Deem and Ramdas Pophale) SiO2 
 PCOD8016759
Probable space group: P -1
;
_chemical_formula_sum "Si O2"
_cell_formula_units_Z 16
_cell_length_a 5.184766
_cell_length_b 15.567696
_cell_length_c 12.121802
_cell_angle_alpha 55.133436
_cell_angle_beta 83.950422
_cell_angle_gamma 86.985265
_cell_volume 798.265275
_symmetry_space_group_name_H-M "P -1"
_symmetry_group_IT_number 2
_symmetry_cell_setting 'triclinic'
loop_
_space_group_symop_operation_xyz
x,y,z
-x,-y,-z
loop_
_atom_site_type_symbol
_atom_site_label
_atom_site_fract_x
_atom_site_fract_y
_atom_site_fract_z
Si Si1 0.877704 0.742169 0.246513
Si Si2 0.227641 0.566499 0.275148
Si Si3 0.826480 0.067073 0.879211
Si Si4 0.389599 0.136052 0.011164
Si Si5 0.565767 0.637390 0.512381
Si Si6 0.972536 0.623365 0.902452
Si Si7 0.022922 0.629013 0.646229
Si Si8 0.441156 0.689380 0.978880
O O1 0.821816 0.786491 0.093166
O O2 0.620529 0.694441 0.351163
O O3 0.088772 0.650794 0.296105
O O4 0.999340 0.837073 0.246843
O O5 0.393403 0.489201 0.403980
O O6 0.012963 0.497775 0.267622
O O7 0.425085 0.619162 0.141131
O O8 0.594594 0.120132 0.916657
O O9 0.720953 0.979211 0.861263
O O10 0.000000 0.000000 0.000000
O O11 0.509079 0.190417 0.074264
O O12 0.281472 0.666525 0.544427
O O13 0.777390 0.682679 0.557817
O O14 0.035753 0.662947 0.747618
O O15 0.171877 0.683874 0.928894
O O16 0.676449 0.650405 0.922450
O O17 0.000000 0.500000 0.000000
#
# Coordination Sequence:
#
# PCOD8016759 Si02
#       8
#     2   2   2   2   2   2   2   2
#     4  11  21  36  59  84 119 162 192 227 300 347
#     4  10  22  34  54  84 126 150 198 231 278 348
#     4   9  20  38  58  82 120 146 187 248 291 356
#     4  10  22  36  58  89 120 144 195 240 298 353
#     4  10  23  37  55  82 120 166 197 232 275 342
#     4  12  22  37  57  83 113 160 202 238 290 338
#     4  10  23  37  52  78 121 153 202 246 265 326
#     4  12  23  35  61  84 118 159 189 241 298 343
#
# _framework density 20.043462000000002
#
# number of rings (size 3 to 8) (size 9 to 14) (size 15 to 20)
#    0.750    0.750    2.500    3.000    5.250    0.500 
#    0.000    0.000    0.000    0.000    0.000    5.250 
#    0.000    0.000    0.000    0.000    0.000    0.000 
#
# Total GULP energy -198287.928954 kJ/mol
# GULP energy per Si atom -12392.995560 kJ/mol
# Density = 1.999784 g / cm^3
# Si number density = 20.043462 Si / 1000 Ang^3
#
#
#
# Elastic Constant Matrix: (Units=GPa)
#
#
# Indices 1 2 3 4 5 6 
#
# 1 80.6643 18.2467 8.3788 -0.3744 -18.8102 7.1856
# 2 18.2467 87.8694 29.0322 -2.0206 -11.6606 22.8895
# 3 8.3788 29.0322 61.4081 3.7133 -23.7798 -1.1324
# 4 -0.3744 -2.0206 3.7133 18.0978 0.3796 -6.0602
# 5 -18.8102 -11.6606 -23.7798 0.3796 37.0421 3.1701
# 6 7.1856 22.8895 -1.1324 -6.0602 3.1701 30.9826
#
#
#
# Elastic Compliance Matrix: (Units=1/GPa)
#
#
# Indices 1 2 3 4 5 6 
#
# 1 0.014899 -0.001900 0.002282 -0.001619 0.008721 -0.003177
# 2 -0.001900 0.018055 -0.008249 -0.000838 0.000581 -0.013423
# 3 0.002282 -0.008249 0.026076 -0.005212 0.015017 0.003962
# 4 -0.001619 -0.000838 -0.005212 0.060791 -0.006196 0.013329
# 5 0.008721 0.000581 0.015017 -0.006196 0.041945 -0.007407
# 6 -0.003177 -0.013423 0.003962 0.013329 -0.007407 0.046439
#
#
# Mechanical properties :
#
#
# Convention : Reuss Voigt Hill
#
# Bulk Modulus (GPa) = 23.09658 37.91746 30.50702
# Shear Modulus (GPa) = 20.97570 28.84345 24.90957
#
# Velocity S-wave (km/s) = 3.23849 3.79759 3.52913
# Velocity P-wave (km/s) = 5.05292 6.17961 5.64445
#
# Compressibility (1/GPa) = 0.04329645
#
# Stress axis : x y z
#
# Youngs Moduli (GPa) = 67.11843 55.38701 38.34927
#
# Poissons Ratio (x) = 0.10524 -0.08751
# Poissons Ratio (y) = 0.12753 0.31633
# Poissons Ratio (z) = -0.15316 0.45686
#
# Static dielectric constant tensor:
#      x y z
#    x 3.770540 0.331100 -0.208860 
#    y 0.331100 3.865080 -0.211080 
#    z -0.208860 -0.211080 3.460280 
# 
# 
# High freq. dielectric constant tensor:
#      x y z
#    x 1.801650 0.008310 -0.013430 
#    y 0.008310 1.763920 -0.008170 
#    z -0.013430 -0.008170 1.743780 
# 
# From -- ./inp_files/367583.got.cif
#   From: 2010.06.25/outbox.cif.g09.slc.cpg/sg2_184_cif.got.tgz:367583.got - 2010.06.27 13:26:56.
