data_PCOD8016847
_publ_section_title
;
Structure prediction by ZEFSAII (Michael W. Deem and Ramdas Pophale) SiO2 
 PCOD8016847
Probable space group: P -1
;
_chemical_formula_sum "Si O2"
_cell_formula_units_Z 14
_cell_length_a 15.723992
_cell_length_b 5.041313
_cell_length_c 9.555369
_cell_angle_alpha 107.421031
_cell_angle_beta 74.648920
_cell_angle_gamma 129.753851
_cell_volume 552.836520
_symmetry_space_group_name_H-M "P -1"
_symmetry_group_IT_number 2
_symmetry_cell_setting 'triclinic'
loop_
_space_group_symop_operation_xyz
x,y,z
-x,-y,-z
loop_
_atom_site_type_symbol
_atom_site_label
_atom_site_fract_x
_atom_site_fract_y
_atom_site_fract_z
Si Si1 0.010753 0.879859 0.823548
Si Si2 0.674135 0.794000 0.907927
Si Si3 0.382731 0.727023 0.936749
Si Si4 0.490308 0.849199 0.288829
Si Si5 0.197872 0.200194 0.584344
Si Si6 0.343399 0.951807 0.527750
Si Si7 0.105927 0.916855 0.289842
O O1 0.963998 0.480767 0.792778
O O2 0.138416 0.102725 0.747233
O O3 0.944596 0.913873 0.737645
O O4 0.000000 0.000000 0.000000
O O5 0.553959 0.483724 0.844306
O O6 0.767080 0.855161 0.775890
O O7 0.679577 0.666848 0.041830
O O8 0.694658 0.159345 0.972839
O O9 0.408598 0.777367 0.767482
O O10 0.500000 0.000000 0.000000
O O11 0.385752 0.853289 0.361128
O O12 0.543278 0.797989 0.391431
O O13 0.247642 0.598462 0.593560
O O14 0.295511 0.155985 0.534022
O O15 0.107211 0.953725 0.463685
#
# Coordination Sequence:
#
# PCOD8016847 Si02
#       7
#     2   2   2   2   2   2   2
#     4  12  28  50  75 107 139 174 229 302 362 418
#     4  11  23  40  67 100 135 183 228 274 338 410
#     4  10  22  36  61  91 136 181 223 278 328 397
#     4  10  23  43  63 101 145 181 235 276 337 393
#     4  12  26  48  73 104 139 185 239 282 351 421
#     4  11  26  41  71  99 140 191 227 287 330 407
#     4  12  25  47  78 103 139 185 232 286 353 424
#
# _framework density 25.323941999999999
#
# number of rings (size 3 to 8) (size 9 to 14) (size 15 to 20)
#    0.000    0.857    1.429    5.571    4.000   10.286 
#    0.000    0.000    0.000    0.000    0.000    0.000 
#    0.000    0.000    0.000    0.000    0.000    0.000 
#
# Total GULP energy -173602.005166 kJ/mol
# GULP energy per Si atom -12400.143226 kJ/mol
# Density = 2.526630 g / cm^3
# Si number density = 25.323942 Si / 1000 Ang^3
#
#
#
# Elastic Constant Matrix: (Units=GPa)
#
#
# Indices 1 2 3 4 5 6 
#
# 1 114.0494 -8.7087 20.2595 -2.6598 -3.0218 -16.5547
# 2 -8.7087 69.9685 -3.3416 -10.0401 -7.0564 -6.4920
# 3 20.2595 -3.3416 114.1767 -11.9339 -10.3692 9.9275
# 4 -2.6598 -10.0401 -11.9339 30.9231 3.4983 -0.2766
# 5 -3.0218 -7.0564 -10.3692 3.4983 35.0089 -9.2113
# 6 -16.5547 -6.4920 9.9275 -0.2766 -9.2113 30.6816
#
#
#
# Elastic Compliance Matrix: (Units=1/GPa)
#
#
# Indices 1 2 3 4 5 6 
#
# 1 0.010524 0.002271 -0.002164 0.000572 0.002686 0.007671
# 2 0.002271 0.016382 0.000532 0.005240 0.004705 0.005980
# 3 -0.002164 0.000532 0.010007 0.003643 0.001519 -0.003804
# 4 0.000572 0.005240 0.003643 0.035647 -0.001336 0.000159
# 5 0.002686 0.004705 0.001519 -0.001336 0.033484 0.011994
# 6 0.007671 0.005980 -0.003804 0.000159 0.011994 0.042830
#
#
# Mechanical properties :
#
#
# Convention : Reuss Voigt Hill
#
# Bulk Modulus (GPa) = 26.18463 34.95700 30.57081
# Shear Modulus (GPa) = 31.18632 38.65506 34.92069
#
# Velocity S-wave (km/s) = 3.51307 3.91119 3.71746
# Velocity P-wave (km/s) = 5.17860 5.85068 5.52487
#
# Compressibility (1/GPa) = 0.03819035
#
# Stress axis : x y z
#
# Youngs Moduli (GPa) = 95.02121 61.04439 99.92610
#
# Poissons Ratio (x) = -0.13865 0.21625
# Poissons Ratio (y) = -0.21582 -0.05311
# Poissons Ratio (z) = 0.20563 -0.03245
#
# Static dielectric constant tensor:
#      x y z
#    x 4.540410 -0.151670 0.062330 
#    y -0.151670 4.584750 -0.602510 
#    z 0.062330 -0.602510 5.370500 
# 
# 
# High freq. dielectric constant tensor:
#      x y z
#    x 2.011260 -0.007980 -0.006490 
#    y -0.007980 2.004170 -0.013260 
#    z -0.006490 -0.013260 2.018260 
# 
# From -- ./inp_files/322752.got.cif
#   From: 2010.06.25/outbox.cif.g09.slc.cpg/sg2_162_cif.got.tgz:322752.got - 2010.06.27 13:26:56.
