data_PCOD8016608
_publ_section_title
;
Structure prediction by ZEFSAII (Michael W. Deem and Ramdas Pophale) SiO2 
 PCOD8016608
Probable space group: P -1
;
_chemical_formula_sum "Si O2"
_cell_formula_units_Z 14
_cell_length_a 13.472367
_cell_length_b 16.867647
_cell_length_c 4.895981
_cell_angle_alpha 125.473827
_cell_angle_beta 118.026749
_cell_angle_gamma 30.668392
_cell_volume 461.012403
_symmetry_space_group_name_H-M "P -1"
_symmetry_group_IT_number 2
_symmetry_cell_setting 'triclinic'
loop_
_space_group_symop_operation_xyz
x,y,z
-x,-y,-z
loop_
_atom_site_type_symbol
_atom_site_label
_atom_site_fract_x
_atom_site_fract_y
_atom_site_fract_z
Si Si1 0.823903 0.860386 0.871225
Si Si2 0.824709 0.726020 0.088104
Si Si3 0.237479 0.369600 0.737137
Si Si4 0.504070 0.209144 0.324031
Si Si5 0.143850 0.770003 0.371634
Si Si6 0.565279 0.586964 0.757133
Si Si7 0.793279 0.128347 0.825598
O O1 0.890353 0.752206 0.473007
O O2 0.738049 0.850657 0.978920
O O3 0.011846 0.784973 0.074633
O O4 0.636269 0.061065 0.965265
O O5 0.688372 0.741735 0.115003
O O6 0.006118 0.540427 0.808712
O O7 0.332201 0.260458 0.355389
O O8 0.333367 0.407938 0.896160
O O9 0.408676 0.378565 0.431834
O O10 0.670466 0.118141 0.577972
O O11 0.321842 0.593811 0.415205
O O12 0.224079 0.784668 0.272928
O O13 0.015605 0.924945 0.743158
O O14 0.329423 0.740696 0.812456
#
# Coordination Sequence:
#
# PCOD8016608 Si02
#       7
#     2   2   2   2   2   2   2
#     4  11  26  46  71 105 140 189 237 293 350 426
#     4  11  26  45  71 103 140 187 241 288 358 414
#     4  10  25  43  67 100 142 180 237 290 352 423
#     4  10  25  43  68 102 144 178 239 292 356 418
#     4  10  21  45  69  97 142 185 235 288 362 413
#     4  11  22  41  67 102 137 184 229 297 347 423
#     4   9  22  44  65 102 139 180 240 288 351 432
#
# _framework density 30.36795
#
# number of rings (size 3 to 8) (size 9 to 14) (size 15 to 20)
#    0.000    1.714    1.429    0.429   10.000    2.857 
#    2.571    2.143    0.000    2.571    0.000    0.000 
#    0.000    0.000    0.000    0.000    0.000    0.000 
#
# Total GULP energy -173457.288257 kJ/mol
# GULP energy per Si atom -12389.806304 kJ/mol
# Density = 3.029883 g / cm^3
# Si number density = 30.367950 Si / 1000 Ang^3
#
#
#
# Elastic Constant Matrix: (Units=GPa)
#
#
# Indices 1 2 3 4 5 6 
#
# 1 179.4583 76.5238 61.7723 9.9094 -15.5973 -9.0972
# 2 76.5238 160.0775 39.9272 15.6282 -9.1221 -11.2469
# 3 61.7723 39.9272 178.3783 6.9862 -18.7430 2.6011
# 4 9.9094 15.6282 6.9862 29.7894 5.5604 -4.6396
# 5 -15.5973 -9.1221 -18.7430 5.5604 63.4507 -9.0758
# 6 -9.0972 -11.2469 2.6011 -4.6396 -9.0758 70.4490
#
#
#
# Elastic Compliance Matrix: (Units=1/GPa)
#
#
# Indices 1 2 3 4 5 6 
#
# 1 0.007662 -0.003035 -0.001849 -0.000615 0.001050 0.000668
# 2 -0.003035 0.008256 -0.000616 -0.003171 0.000655 0.000824
# 3 -0.001849 -0.000616 0.006577 -0.000940 0.001416 -0.000459
# 4 -0.000615 -0.003171 -0.000940 0.036597 -0.003898 0.001357
# 5 0.001050 0.000655 0.001416 -0.003898 0.017179 0.002144
# 6 0.000668 0.000824 -0.000459 0.001357 0.002144 0.014795
#
#
# Mechanical properties :
#
#
# Convention : Reuss Voigt Hill
#
# Bulk Modulus (GPa) = 86.99739 97.15117 92.07428
# Shear Modulus (GPa) = 47.21528 55.38386 51.29957
#
# Velocity S-wave (km/s) = 3.94734 4.27518 4.11453
# Velocity P-wave (km/s) = 7.03458 7.51202 7.27721
#
# Compressibility (1/GPa) = 0.01149460
#
# Stress axis : x y z
#
# Youngs Moduli (GPa) = 130.51321 121.12109 152.05118
#
# Poissons Ratio (x) = 0.36756 0.28120
# Poissons Ratio (y) = 0.39606 0.09368
# Poissons Ratio (z) = 0.24137 0.07463
#
# Static dielectric constant tensor:
#      x y z
#    x 5.979520 -0.224760 0.381060 
#    y -0.224760 5.601740 -0.049330 
#    z 0.381060 -0.049330 6.456510 
# 
# 
# High freq. dielectric constant tensor:
#      x y z
#    x 2.274410 -0.023020 0.025460 
#    y -0.023020 2.249550 -0.025180 
#    z 0.025460 -0.025180 2.294750 
# 
# From -- ./inp_files/99994.got.cif
#   From: 2010.06.25/outbox.cif.g09.slc.cpg/sg2_50_cif.got.tgz:99994.got - 2010.06.27 13:26:56.
