data_PCOD8016411
_publ_section_title
;
Structure prediction by ZEFSAII (Michael W. Deem and Ramdas Pophale) SiO2 
 PCOD8016411
Probable space group: P -1
;
_chemical_formula_sum "Si O2"
_cell_formula_units_Z 16
_cell_length_a 9.784586
_cell_length_b 10.553323
_cell_length_c 14.090262
_cell_angle_alpha 32.627000
_cell_angle_beta 112.702053
_cell_angle_gamma 101.220270
_cell_volume 698.355071
_symmetry_space_group_name_H-M "P -1"
_symmetry_group_IT_number 2
_symmetry_cell_setting 'triclinic'
loop_
_space_group_symop_operation_xyz
x,y,z
-x,-y,-z
loop_
_atom_site_type_symbol
_atom_site_label
_atom_site_fract_x
_atom_site_fract_y
_atom_site_fract_z
Si Si1 0.872899 0.928613 0.571425
Si Si2 0.872898 0.159685 0.929709
Si Si3 0.279094 0.952680 0.361920
Si Si4 0.928898 0.578622 0.065512
Si Si5 0.446954 0.882783 0.697712
Si Si6 0.663641 0.821734 0.148312
Si Si7 0.670181 0.438863 0.542587
Si Si8 0.639366 0.579751 0.099345
O O1 0.959616 0.658941 0.804137
O O2 0.804033 0.117649 0.521236
O O3 0.726650 0.939941 0.455032
O O4 0.000000 0.000000 0.500000
O O5 0.771089 0.376344 0.702707
O O6 0.952257 0.279024 0.955007
O O7 0.783260 0.980577 0.065714
O O8 0.000000 0.000000 0.000000
O O9 0.281127 0.789921 0.372394
O O10 0.452052 0.962269 0.427918
O O11 0.187521 0.235675 0.149659
O O12 0.815849 0.498177 0.161638
O O13 0.444494 0.635514 0.797796
O O14 0.530010 0.814149 0.866542
O O15 0.703989 0.668445 0.353022
O O16 0.653428 0.638821 0.175997
O O17 0.500000 0.000000 0.000000
O O18 0.500000 0.500000 0.500000
#
# Coordination Sequence:
#
# PCOD8016411 Si02
#       8
#     2   2   2   2   2   2   2   2
#     4  12  25  43  68 107 139 181 237 292 354 427
#     4  12  24  49  72 105 147 189 238 300 360 421
#     4  11  25  47  70  98 144 185 232 291 358 426
#     4  11  24  45  72  96 147 183 227 296 359 418
#     4  10  22  41  72  97 135 187 231 283 355 420
#     4  12  26  44  73 107 142 188 244 294 355 426
#     4  12  27  48  76 105 144 192 242 297 359 429
#     4  10  21  44  69  99 141 184 227 291 353 425
#
# _framework density 22.910982000000001
#
# number of rings (size 3 to 8) (size 9 to 14) (size 15 to 20)
#    0.000    0.750    5.000    2.250    1.750    1.500 
#    4.500    0.000    0.000    0.000    0.000    0.000 
#    0.000    0.000    0.000    0.000    0.000    0.000 
#
# Total GULP energy -198239.583419 kJ/mol
# GULP energy per Si atom -12389.973964 kJ/mol
# Density = 2.285884 g / cm^3
# Si number density = 22.910982 Si / 1000 Ang^3
#
#
#
# Elastic Constant Matrix: (Units=GPa)
#
#
# Indices 1 2 3 4 5 6 
#
# 1 169.3724 26.4014 34.0495 -2.6189 -4.4397 1.9308
# 2 26.4014 53.1942 -18.6687 -7.9676 -9.9633 1.8175
# 3 34.0495 -18.6687 94.8001 3.4937 9.6552 -1.9686
# 4 -2.6189 -7.9676 3.4937 32.1785 0.6318 3.7191
# 5 -4.4397 -9.9633 9.6552 0.6318 51.6098 -1.9482
# 6 1.9308 1.8175 -1.9686 3.7191 -1.9482 44.0296
#
#
#
# Elastic Compliance Matrix: (Units=1/GPa)
#
#
# Indices 1 2 3 4 5 6 
#
# 1 0.007418 -0.004921 -0.003669 -0.000194 0.000367 -0.000254
# 2 -0.004921 0.024767 0.006122 0.005101 0.003119 -0.000826
# 3 -0.003669 0.006122 0.013252 -0.000242 -0.001593 0.000451
# 4 -0.000194 0.005101 -0.000242 0.032681 0.000502 -0.002951
# 5 0.000367 0.003119 -0.001593 0.000502 0.020326 0.000641
# 6 -0.000254 -0.000826 0.000451 -0.002951 0.000641 0.023055
#
#
# Mechanical properties :
#
#
# Convention : Reuss Voigt Hill
#
# Bulk Modulus (GPa) = 24.69098 44.54791 34.61944
# Shear Modulus (GPa) = 35.73042 43.93589 39.83315
#
# Velocity S-wave (km/s) = 3.95338 4.38388 4.17418
# Velocity P-wave (km/s) = 5.62487 6.71645 6.19475
#
# Compressibility (1/GPa) = 0.04050063
#
# Stress axis : x y z
#
# Youngs Moduli (GPa) = 134.80025 40.37706 75.45766
#
# Poissons Ratio (x) = 0.19870 0.27686
# Poissons Ratio (y) = 0.66338 -0.46195
# Poissons Ratio (z) = 0.49460 -0.24719
#
# Static dielectric constant tensor:
#      x y z
#    x 4.654360 -0.172010 0.324210 
#    y -0.172010 3.829720 -0.071590 
#    z 0.324210 -0.071590 4.162640 
# 
# 
# High freq. dielectric constant tensor:
#      x y z
#    x 1.919280 -0.001180 0.005560 
#    y -0.001180 1.883140 0.000810 
#    z 0.005560 0.000810 1.930840 
# 
# From -- ./inp_files/499766.got.cif
#   From: 2010.06.25/outbox.cif.g09.slc.cpg/sg2_250_cif.got.tgz:499766.got - 2010.06.27 13:26:56.
