data_PCOD8016027
_publ_section_title
;
Structure prediction by ZEFSAII (Michael W. Deem and Ramdas Pophale) SiO2 
 PCOD8016027
Probable space group: P -1
;
_chemical_formula_sum "Si O2"
_cell_formula_units_Z 10
_cell_length_a 13.862039
_cell_length_b 14.035959
_cell_length_c 10.978676
_cell_angle_alpha 151.579975
_cell_angle_beta 29.966017
_cell_angle_gamma 158.575471
_cell_volume 357.152049
_symmetry_space_group_name_H-M "P -1"
_symmetry_group_IT_number 2
_symmetry_cell_setting 'triclinic'
loop_
_space_group_symop_operation_xyz
x,y,z
-x,-y,-z
loop_
_atom_site_type_symbol
_atom_site_label
_atom_site_fract_x
_atom_site_fract_y
_atom_site_fract_z
Si Si1 0.656387 0.714486 0.830048
Si Si2 0.165810 0.294060 0.051305
Si Si3 0.698137 0.038530 0.420391
Si Si4 0.409203 0.774864 0.681367
Si Si5 0.258351 0.060143 0.255921
O O1 0.725622 0.528587 0.562502
O O2 0.577086 0.702553 0.763395
O O3 0.381826 0.577857 0.052893
O O4 0.927758 0.036321 0.931483
O O5 0.016023 0.322438 0.350850
O O6 0.318640 0.219769 0.868563
O O7 0.500000 0.000000 0.500000
O O8 0.614710 0.023298 0.633570
O O9 0.576751 0.835347 0.683774
O O10 0.190478 0.784482 0.969582
O O11 0.000000 0.000000 0.500000
#
# Coordination Sequence:
#
# PCOD8016027 Si02
#       5
#     2   2   2   2   2
#     4  11  23  48  75 102 142 183 226 290 350 408
#     4  10  24  44  71 104 140 179 227 282 346 415
#     4  10  21  43  69 102 140 181 227 282 342 411
#     4  10  24  42  68 105 136 179 237 279 340 419
#     4  11  23  45  71  99 138 183 229 289 346 402
#
# _framework density 27.999279000000001
#
# number of rings (size 3 to 8) (size 9 to 14) (size 15 to 20)
#    0.000    1.600    0.000    4.200    0.000    9.600 
#    0.000   42.000    0.000    0.000    0.000    0.000 
#    0.000    0.000    0.000    0.000    0.000    0.000 
#
# Total GULP energy -123888.026139 kJ/mol
# GULP energy per Si atom -12388.802614 kJ/mol
# Density = 2.793555 g / cm^3
# Si number density = 27.999279 Si / 1000 Ang^3
#
#
#
# Elastic Constant Matrix: (Units=GPa)
#
#
# Indices 1 2 3 4 5 6 
#
# 1 224.1385 81.3105 35.0503 -39.4674 3.6542 -33.7677
# 2 81.3105 127.8592 45.7441 -18.3757 12.5578 -21.3696
# 3 35.0503 45.7441 155.7813 -35.3301 -3.9573 8.1711
# 4 -39.4674 -18.3757 -35.3301 46.0601 0.6292 5.7979
# 5 3.6542 12.5578 -3.9573 0.6292 44.5453 -8.4412
# 6 -33.7677 -21.3696 8.1711 5.7979 -8.4412 35.9387
#
#
#
# Elastic Compliance Matrix: (Units=1/GPa)
#
#
# Indices 1 2 3 4 5 6 
#
# 1 0.006992 -0.003315 0.000181 0.004273 0.001099 0.004126
# 2 -0.003315 0.011918 -0.003299 -0.001124 -0.002549 0.004304
# 3 0.000181 -0.003299 0.009057 0.006368 0.000738 -0.004705
# 4 0.004273 -0.001124 0.006368 0.030204 -0.000479 -0.003086
# 5 0.001099 -0.002549 0.000738 -0.000479 0.024115 0.005090
# 6 0.004126 0.004304 -0.004705 -0.003086 0.005090 0.037024
#
#
# Mechanical properties :
#
#
# Convention : Reuss Voigt Hill
#
# Bulk Modulus (GPa) = 66.22471 92.44318 79.33394
# Shear Modulus (GPa) = 36.44047 48.35374 42.39711
#
# Velocity S-wave (km/s) = 3.61152 4.16018 3.89552
# Velocity P-wave (km/s) = 6.41049 7.49427 6.97347
#
# Compressibility (1/GPa) = 0.01510010
#
# Stress axis : x y z
#
# Youngs Moduli (GPa) = 143.01927 83.90604 110.41078
#
# Poissons Ratio (x) = 0.27819 -0.01998
# Poissons Ratio (y) = 0.47418 0.36425
# Poissons Ratio (z) = -0.02588 0.27681
#
# Static dielectric constant tensor:
#      x y z
#    x 11.099730 0.206310 1.245590 
#    y 0.206310 5.208160 -0.135150 
#    z 1.245590 -0.135150 6.318210 
# 
# 
# High freq. dielectric constant tensor:
#      x y z
#    x 2.165480 -0.022600 0.001650 
#    y -0.022600 2.101270 -0.011630 
#    z 0.001650 -0.011630 2.150520 
# 
# From -- ./inp_files/453387.got.cif
#   From: 2010.06.25/outbox.cif.g09.slc.cpg/sg2_227_cif.got.tgz:453387.got - 2010.06.27 13:26:56.
