data_PCOD8016861
_publ_section_title
;
Structure prediction by ZEFSAII (Michael W. Deem and Ramdas Pophale) SiO2 
 PCOD8016861
Probable space group: P -1
;
_chemical_formula_sum "Si O2"
_cell_formula_units_Z 12
_cell_length_a 8.500603
_cell_length_b 19.151126
_cell_length_c 11.278246
_cell_angle_alpha 38.976926
_cell_angle_beta 128.205975
_cell_angle_gamma 148.095093
_cell_volume 605.606655
_symmetry_space_group_name_H-M "P -1"
_symmetry_group_IT_number 2
_symmetry_cell_setting 'triclinic'
loop_
_space_group_symop_operation_xyz
x,y,z
-x,-y,-z
loop_
_atom_site_type_symbol
_atom_site_label
_atom_site_fract_x
_atom_site_fract_y
_atom_site_fract_z
Si Si1 0.767100 0.995299 0.433921
Si Si2 0.097207 0.280520 0.395423
Si Si3 0.955828 0.022134 0.814715
Si Si4 0.553581 0.566304 0.069798
Si Si5 0.202325 0.925348 0.909033
Si Si6 0.621816 0.260631 0.221928
O O1 0.885597 0.130000 0.405774
O O2 0.484153 0.817845 0.592793
O O3 0.687182 0.026723 0.237332
O O4 0.000000 0.000000 0.500000
O O5 0.426349 0.430091 0.291751
O O6 0.951286 0.342624 0.259050
O O7 0.095872 0.204384 0.616486
O O8 0.603394 0.874482 0.809829
O O9 0.132220 0.015492 0.814549
O O10 0.000000 0.000000 0.000000
O O11 0.907576 0.726718 0.047331
O O12 0.500000 0.500000 0.000000
O O13 0.364724 0.601118 0.953657
O O14 0.500000 0.000000 0.000000
#
# Coordination Sequence:
#
# PCOD8016861 Si02
#       6
#     2   2   2   2   2   2
#     4  11  17  38  62  87 116 160 211 248 284 359
#     4  11  21  37  64  89 120 156 206 251 299 352
#     4  10  22  38  59  88 125 160 197 244 302 361
#     4  11  21  40  64  91 122 154 204 259 298 351
#     4  11  24  38  61  90 122 158 206 247 299 360
#     4  10  22  36  62  93 117 157 208 246 297 363
#
# _framework density 19.814841000000001
#
# number of rings (size 3 to 8) (size 9 to 14) (size 15 to 20)
#    0.000    1.333    6.667    2.500    4.667    0.000 
#    0.000    4.167    3.667    0.000    0.000    0.000 
#    0.000    0.000    0.000    0.000    0.000    0.000 
#
# Total GULP energy -148671.701778 kJ/mol
# GULP energy per Si atom -12389.308482 kJ/mol
# Density = 1.976974 g / cm^3
# Si number density = 19.814841 Si / 1000 Ang^3
#
#
#
# Elastic Constant Matrix: (Units=GPa)
#
#
# Indices 1 2 3 4 5 6 
#
# 1 70.2204 27.8015 29.6796 0.5719 -9.3774 5.2719
# 2 27.8015 70.9521 48.4287 4.0017 -2.7852 15.3689
# 3 29.6796 48.4287 131.8723 -0.5094 -28.9710 4.7019
# 4 0.5719 4.0017 -0.5094 31.2923 -0.9123 1.1422
# 5 -9.3774 -2.7852 -28.9710 -0.9123 47.7938 -0.0271
# 6 5.2719 15.3689 4.7019 1.1422 -0.0271 29.0575
#
#
#
# Elastic Compliance Matrix: (Units=1/GPa)
#
#
# Indices 1 2 3 4 5 6 
#
# 1 0.017413 -0.005965 -0.001219 0.000486 0.002339 0.000176
# 2 -0.005965 0.024295 -0.008286 -0.002897 -0.004838 -0.010318
# 3 -0.001219 -0.008286 0.012300 0.001386 0.006762 0.002565
# 4 0.000486 -0.002897 0.001386 0.032383 0.001385 -0.000052
# 5 0.002339 -0.004838 0.006762 0.001385 0.025226 0.001010
# 6 0.000176 -0.010318 0.002565 -0.000052 0.001010 0.039428
#
#
# Mechanical properties :
#
#
# Convention : Reuss Voigt Hill
#
# Bulk Modulus (GPa) = 43.34906 53.87382 48.61144
# Shear Modulus (GPa) = 26.36114 32.77105 29.56610
#
# Velocity S-wave (km/s) = 3.65139 4.07118 3.86699
# Velocity P-wave (km/s) = 6.30090 7.02474 6.67265
#
# Compressibility (1/GPa) = 0.02306855
#
# Stress axis : x y z
#
# Youngs Moduli (GPa) = 57.42888 41.16041 81.30280
#
# Poissons Ratio (x) = 0.24551 0.09911
# Poissons Ratio (y) = 0.34254 0.67367
# Poissons Ratio (z) = 0.07001 0.34105
#
# Static dielectric constant tensor:
#      x y z
#    x 3.217940 -0.013920 0.112780 
#    y -0.013920 3.341110 -0.410190 
#    z 0.112780 -0.410190 4.963270 
# 
# 
# High freq. dielectric constant tensor:
#      x y z
#    x 1.787110 0.004070 -0.006940 
#    y 0.004070 1.737470 -0.010420 
#    z -0.006940 -0.010420 1.782920 
# 
# From -- ./inp_files/146693.got.cif
#   From: 2010.06.25/outbox.cif.g09.slc.cpg/sg2_74_cif.got.tgz:146693.got - 2010.06.27 13:26:56.
