data_PCOD8016877
_publ_section_title
;
Structure prediction by ZEFSAII (Michael W. Deem and Ramdas Pophale) SiO2 
 PCOD8016877
Probable space group: P -1
;
_chemical_formula_sum "Si O2"
_cell_formula_units_Z 16
_cell_length_a 8.370442
_cell_length_b 12.941341
_cell_length_c 9.835875
_cell_angle_alpha 62.161658
_cell_angle_beta 90.633033
_cell_angle_gamma 128.676727
_cell_volume 671.942839
_symmetry_space_group_name_H-M "P -1"
_symmetry_group_IT_number 2
_symmetry_cell_setting 'triclinic'
loop_
_space_group_symop_operation_xyz
x,y,z
-x,-y,-z
loop_
_atom_site_type_symbol
_atom_site_label
_atom_site_fract_x
_atom_site_fract_y
_atom_site_fract_z
Si Si1 0.390401 0.458629 0.669984
Si Si2 0.782740 0.417002 0.938701
Si Si3 0.036651 0.784569 0.728089
Si Si4 0.644051 0.234681 0.317913
Si Si5 0.313858 0.169662 0.967847
Si Si6 0.724458 0.803332 0.576788
Si Si7 0.134213 0.000836 0.809308
Si Si8 0.928511 0.507671 0.349129
O O1 0.500000 0.500000 0.500000
O O2 0.327819 0.304158 0.823899
O O3 0.550874 0.606900 0.687873
O O4 0.153977 0.403045 0.686691
O O5 0.848104 0.588100 0.830090
O O6 0.518983 0.256724 0.017428
O O7 0.880346 0.399127 0.820786
O O8 0.818126 0.379088 0.114233
O O9 0.955420 0.865775 0.604124
O O10 0.285218 0.867368 0.625312
O O11 0.073670 0.839753 0.851763
O O12 0.386792 0.149101 0.357617
O O13 0.722824 0.321022 0.412498
O O14 0.299044 0.073716 0.896810
O O15 0.088009 0.040852 0.130460
O O16 0.747944 0.863545 0.389264
O O17 0.000000 0.500000 0.500000
#
# Coordination Sequence:
#
# PCOD8016877 Si02
#       8
#     2   2   2   2   2   2   2   2
#     4  11  21  39  70  99 127 177 240 273 334 404
#     4  11  23  44  69 104 133 175 239 284 337 407
#     4  11  23  42  72  95 137 182 223 286 349 398
#     4  10  25  41  68 106 136 171 241 290 330 410
#     4  11  24  43  68  98 137 182 225 285 337 416
#     4  11  23  43  67 102 132 182 229 284 335 413
#     4  11  26  41  65 101 146 174 227 283 350 409
#     4  10  22  36  65 104 137 165 220 304 330 388
#
# _framework density 23.811547999999998
#
# number of rings (size 3 to 8) (size 9 to 14) (size 15 to 20)
#    0.000    1.250    2.500    3.375    8.750    1.500 
#    0.000    0.625    2.750    0.000    0.000    0.000 
#    0.000    0.000    0.000    0.000    0.000    0.000 
#
# Total GULP energy -198262.274668 kJ/mol
# GULP energy per Si atom -12391.392167 kJ/mol
# Density = 2.375735 g / cm^3
# Si number density = 23.811548 Si / 1000 Ang^3
#
#
#
# Elastic Constant Matrix: (Units=GPa)
#
#
# Indices 1 2 3 4 5 6 
#
# 1 146.7575 23.8418 46.0858 10.4732 -17.5878 -10.2830
# 2 23.8418 83.4341 6.9036 26.1745 -15.0616 -4.0631
# 3 46.0858 6.9036 107.7444 17.7434 -17.3215 -6.4572
# 4 10.4732 26.1745 17.7434 34.2717 0.4755 -4.2861
# 5 -17.5878 -15.0616 -17.3215 0.4755 31.7143 4.6686
# 6 -10.2830 -4.0631 -6.4572 -4.2861 4.6686 31.2539
#
#
#
# Elastic Compliance Matrix: (Units=1/GPa)
#
#
# Indices 1 2 3 4 5 6 
#
# 1 0.008419 -0.002011 -0.003236 0.000828 0.001684 0.001702
# 2 -0.002011 0.019245 0.003969 -0.016433 0.010612 -0.001179
# 3 -0.003236 0.003969 0.013057 -0.008927 0.007382 -0.000178
# 4 0.000828 -0.016433 -0.008927 0.046882 -0.013624 0.004756
# 5 0.001684 0.010612 0.007382 -0.013624 0.042440 -0.004749
# 6 0.001702 -0.001179 -0.000178 0.004756 -0.004749 0.033728
#
#
# Mechanical properties :
#
#
# Convention : Reuss Voigt Hill
#
# Bulk Modulus (GPa) = 26.20177 54.62202 40.41190
# Shear Modulus (GPa) = 27.92537 36.85498 32.39017
#
# Velocity S-wave (km/s) = 3.42828 3.93845 3.69219
# Velocity P-wave (km/s) = 5.16706 6.60840 5.93167
#
# Compressibility (1/GPa) = 0.03816536
#
# Stress axis : x y z
#
# Youngs Moduli (GPa) = 118.78328 51.96033 76.58638
#
# Poissons Ratio (x) = 0.10448 0.24782
# Poissons Ratio (y) = 0.23886 -0.30395
# Poissons Ratio (z) = 0.38436 -0.20621
#
# Static dielectric constant tensor:
#      x y z
#    x 4.615130 0.124580 -0.163560 
#    y 0.124580 4.565890 0.226450 
#    z -0.163560 0.226450 4.109860 
# 
# 
# High freq. dielectric constant tensor:
#      x y z
#    x 1.949980 0.005530 -0.015550 
#    y 0.005530 1.946550 0.007310 
#    z -0.015550 0.007310 1.940200 
# 
# From -- ./inp_files/200871.got.cif
#   From: 2010.06.25/outbox.cif.g09.slc.cpg/sg2_101_cif.got.tgz:200871.got - 2010.06.27 13:26:56.
