data_PCOD8016491
_publ_section_title
;
Structure prediction by ZEFSAII (Michael W. Deem and Ramdas Pophale) SiO2 
 PCOD8016491
Probable space group: P -1
;
_chemical_formula_sum "Si O2"
_cell_formula_units_Z 14
_cell_length_a 11.858273
_cell_length_b 13.961250
_cell_length_c 11.445475
_cell_angle_alpha 132.083166
_cell_angle_beta 143.535396
_cell_angle_gamma 31.604514
_cell_volume 589.512244
_symmetry_space_group_name_H-M "P -1"
_symmetry_group_IT_number 2
_symmetry_cell_setting 'triclinic'
loop_
_space_group_symop_operation_xyz
x,y,z
-x,-y,-z
loop_
_atom_site_type_symbol
_atom_site_label
_atom_site_fract_x
_atom_site_fract_y
_atom_site_fract_z
Si Si1 0.330519 0.451067 0.825761
Si Si2 0.304107 0.512556 0.207793
Si Si3 0.165487 0.894812 0.935646
Si Si4 0.427592 0.800034 0.659510
Si Si5 0.032517 0.464011 0.221330
Si Si6 0.936577 0.919475 0.229377
Si Si7 0.785769 0.396234 0.377567
O O1 0.065791 0.582528 0.793740
O O2 0.242364 0.475023 0.637368
O O3 0.500000 0.500000 0.000000
O O4 0.525123 0.249741 0.880446
O O5 0.466514 0.390497 0.358658
O O6 0.494205 0.499131 0.267319
O O7 0.044152 0.725688 0.190001
O O8 0.182576 0.442746 0.987476
O O9 0.082275 0.797188 0.725230
O O10 0.123801 0.027853 0.914795
O O11 0.000000 0.000000 0.000000
O O12 0.675784 0.734769 0.737051
O O13 0.167247 0.910288 0.451295
O O14 0.337779 0.928966 0.801211
O O15 0.043533 0.611393 0.386808
#
# Coordination Sequence:
#
# PCOD8016491 Si02
#       7
#     2   2   2   2   2   2   2
#     4  10  21  44  72  96 137 189 232 292 357 412
#     4  12  23  46  74 100 148 190 229 295 358 419
#     4  11  23  42  74 103 142 190 239 293 357 417
#     4  11  25  44  72 109 145 190 238 289 355 429
#     4  12  24  41  76 106 137 187 249 282 360 434
#     4  11  24  44  73 108 145 191 237 289 359 422
#     4  11  23  44  74 103 140 192 235 291 361 420
#
# _framework density 23.748446999999999
#
# number of rings (size 3 to 8) (size 9 to 14) (size 15 to 20)
#    0.000    0.857    5.714    2.143    2.000    0.571 
#    0.000    3.571    0.000    0.000    0.000    0.000 
#    0.000    0.000    0.000    0.000    0.000    0.000 
#
# Total GULP energy -173469.405872 kJ/mol
# GULP energy per Si atom -12390.671848 kJ/mol
# Density = 2.369439 g / cm^3
# Si number density = 23.748447 Si / 1000 Ang^3
#
#
#
# Elastic Constant Matrix: (Units=GPa)
#
#
# Indices 1 2 3 4 5 6 
#
# 1 154.6120 70.6163 32.2220 -12.8589 -8.3026 -37.3356
# 2 70.6163 126.2378 9.5912 -1.3676 -8.1695 -9.2359
# 3 32.2220 9.5912 53.6705 4.0809 12.1895 -2.3910
# 4 -12.8589 -1.3676 4.0809 38.4314 4.3048 -7.3098
# 5 -8.3026 -8.1695 12.1895 4.3048 37.3454 -11.1659
# 6 -37.3356 -9.2359 -2.3910 -7.3098 -11.1659 46.9727
#
#
#
# Elastic Compliance Matrix: (Units=1/GPa)
#
#
# Indices 1 2 3 4 5 6 
#
# 1 0.016448 -0.006631 -0.010737 0.008173 0.009155 0.014671
# 2 -0.006631 0.011153 0.002142 -0.002661 -0.000471 -0.003495
# 3 -0.010737 0.002142 0.027801 -0.007052 -0.013468 -0.010997
# 4 0.008173 -0.002661 -0.007052 0.031179 0.003307 0.011252
# 5 0.009155 -0.000471 -0.013468 0.003307 0.037485 0.015924
# 6 0.014671 -0.003495 -0.010997 0.011252 0.015924 0.037240
#
#
# Mechanical properties :
#
#
# Convention : Reuss Voigt Hill
#
# Bulk Modulus (GPa) = 40.08143 62.15326 51.11734
# Shear Modulus (GPa) = 24.99061 39.35593 32.17327
#
# Velocity S-wave (km/s) = 3.24744 4.07529 3.68469
# Velocity P-wave (km/s) = 5.56555 6.95502 6.29871
#
# Compressibility (1/GPa) = 0.02494921
#
# Stress axis : x y z
#
# Youngs Moduli (GPa) = 60.79702 89.66183 35.97015
#
# Poissons Ratio (x) = 0.59452 0.38622
# Poissons Ratio (y) = 0.40313 -0.07703
# Poissons Ratio (z) = 0.65279 -0.19201
#
# Static dielectric constant tensor:
#      x y z
#    x 4.543950 -0.177090 -0.485990 
#    y -0.177090 4.253510 -0.154290 
#    z -0.485990 -0.154290 4.756990 
# 
# 
# High freq. dielectric constant tensor:
#      x y z
#    x 1.949530 -0.020310 -0.018340 
#    y -0.020310 1.917830 -0.005380 
#    z -0.018340 -0.005380 1.941920 
# 
# From -- ./inp_files/433264.got.cif
#   From: 2010.06.25/outbox.cif.g09.slc.cpg/sg2_217_cif.got.tgz:433264.got - 2010.06.27 13:26:56.
