data_PCOD8016441
_publ_section_title
;
Structure prediction by ZEFSAII (Michael W. Deem and Ramdas Pophale) SiO2 
 PCOD8016441
Probable space group: P -1
;
_chemical_formula_sum "Si O2"
_cell_formula_units_Z 16
_cell_length_a 9.605396
_cell_length_b 12.731407
_cell_length_c 10.561043
_cell_angle_alpha 143.512240
_cell_angle_beta 110.986965
_cell_angle_gamma 76.134273
_cell_volume 714.332482
_symmetry_space_group_name_H-M "P -1"
_symmetry_group_IT_number 2
_symmetry_cell_setting 'triclinic'
loop_
_space_group_symop_operation_xyz
x,y,z
-x,-y,-z
loop_
_atom_site_type_symbol
_atom_site_label
_atom_site_fract_x
_atom_site_fract_y
_atom_site_fract_z
Si Si1 0.881948 0.173709 0.872036
Si Si2 0.440712 0.795342 0.282769
Si Si3 0.881308 0.767536 0.502519
Si Si4 0.917646 0.676493 0.136184
Si Si5 0.418857 0.981784 0.086433
Si Si6 0.583450 0.664124 0.429403
Si Si7 0.421984 0.312725 0.014436
Si Si8 0.085860 0.827655 0.847321
O O1 0.728976 0.249417 0.856893
O O2 0.995158 0.192316 0.809374
O O3 0.843719 0.969829 0.700238
O O4 0.936467 0.271576 0.117816
O O5 0.448892 0.720704 0.353482
O O6 0.500000 0.000000 0.500000
O O7 0.542864 0.681283 0.117393
O O8 0.924601 0.746037 0.349390
O O9 0.733638 0.646387 0.379229
O O10 0.013295 0.720528 0.597892
O O11 0.752847 0.659147 0.003983
O O12 0.000000 0.500000 0.000000
O O13 0.389853 0.182963 0.309358
O O14 0.530174 0.879646 0.112821
O O15 0.260817 0.867665 0.913555
O O16 0.500000 0.000000 0.000000
O O17 0.521782 0.470289 0.275205
O O18 0.000000 0.000000 0.000000
#
# Coordination Sequence:
#
# PCOD8016441 Si02
#       8
#     2   2   2   2   2   2   2   2
#     4  11  22  42  72  99 138 183 236 286 356 428
#     4  12  19  41  75 103 132 181 240 286 355 422
#     4  11  23  42  72 104 135 189 236 289 356 426
#     4  12  28  44  64 110 150 180 236 305 358 414
#     4  12  27  47  75 105 142 190 241 297 358 426
#     4  12  24  44  74 106 140 182 244 292 358 436
#     4  12  26  45  73 104 143 189 236 298 360 421
#     4  10  21  44  71 100 136 187 236 282 356 431
#
# _framework density 22.398531999999999
#
# number of rings (size 3 to 8) (size 9 to 14) (size 15 to 20)
#    0.000    0.500    7.500    1.500    5.250    2.500 
#    0.000    2.500    0.000    0.000    0.000    0.000 
#    0.000    0.000    0.000    0.000    0.000    0.000 
#
# Total GULP energy -198266.799886 kJ/mol
# GULP energy per Si atom -12391.674993 kJ/mol
# Density = 2.234755 g / cm^3
# Si number density = 22.398532 Si / 1000 Ang^3
#
#
#
# Elastic Constant Matrix: (Units=GPa)
#
#
# Indices 1 2 3 4 5 6 
#
# 1 148.0280 47.7169 32.8454 -18.2905 10.2192 1.5476
# 2 47.7169 66.1106 30.3093 -33.8545 5.6513 2.7441
# 3 32.8454 30.3093 86.2062 -9.8861 5.8506 5.1038
# 4 -18.2905 -33.8545 -9.8861 43.2481 -4.5195 -7.2510
# 5 10.2192 5.6513 5.8506 -4.5195 27.8500 -8.9753
# 6 1.5476 2.7441 5.1038 -7.2510 -8.9753 46.1003
#
#
#
# Elastic Compliance Matrix: (Units=1/GPa)
#
#
# Indices 1 2 3 4 5 6 
#
# 1 0.009146 -0.007015 -0.001086 -0.002198 -0.002239 -0.000551
# 2 -0.007015 0.035493 -0.007373 0.023824 0.001763 0.003030
# 3 -0.001086 -0.007373 0.014493 -0.003532 -0.002418 -0.002155
# 4 -0.002198 0.023824 -0.003532 0.041751 0.005653 0.006714
# 5 -0.002239 0.001763 -0.002418 0.005653 0.040713 0.009054
# 6 -0.000551 0.003030 -0.002155 0.006714 0.009054 0.024587
#
#
# Mechanical properties :
#
#
# Convention : Reuss Voigt Hill
#
# Bulk Modulus (GPa) = 35.48078 58.00978 46.74528
# Shear Modulus (GPa) = 24.20984 36.07123 30.14054
#
# Velocity S-wave (km/s) = 3.29122 4.01737 3.67229
# Velocity P-wave (km/s) = 5.50617 6.89015 6.23667
#
# Compressibility (1/GPa) = 0.02818428
#
# Stress axis : x y z
#
# Youngs Moduli (GPa) = 109.33171 28.17443 68.99953
#
# Poissons Ratio (x) = 0.19764 0.07493
# Poissons Ratio (y) = 0.76695 0.50875
# Poissons Ratio (z) = 0.11873 0.20774
#
# Static dielectric constant tensor:
#      x y z
#    x 4.200770 -0.039650 -0.144110 
#    y -0.039650 3.165930 0.554720 
#    z -0.144110 0.554720 4.056240 
# 
# 
# High freq. dielectric constant tensor:
#      x y z
#    x 1.886200 -0.007770 -0.000060 
#    y -0.007770 1.885190 -0.011430 
#    z -0.000060 -0.011430 1.873870 
# 
# From -- ./inp_files/400145.got.cif
#   From: 2010.06.25/outbox.cif.g09.slc.cpg/sg2_201_cif.got.tgz:400145.got - 2010.06.27 13:26:56.
