data_PCOD8016522
_publ_section_title
;
Structure prediction by ZEFSAII (Michael W. Deem and Ramdas Pophale) SiO2 
 PCOD8016522
Probable space group: P -1
;
_chemical_formula_sum "Si O2"
_cell_formula_units_Z 16
_cell_length_a 8.780792
_cell_length_b 12.277672
_cell_length_c 22.185658
_cell_angle_alpha 145.282234
_cell_angle_beta 38.884007
_cell_angle_gamma 114.047727
_cell_volume 649.940905
_symmetry_space_group_name_H-M "P -1"
_symmetry_group_IT_number 2
_symmetry_cell_setting 'triclinic'
loop_
_space_group_symop_operation_xyz
x,y,z
-x,-y,-z
loop_
_atom_site_type_symbol
_atom_site_label
_atom_site_fract_x
_atom_site_fract_y
_atom_site_fract_z
Si Si1 0.096841 0.966376 0.206848
Si Si2 0.292169 0.257686 0.145336
Si Si3 0.693906 0.067486 0.264577
Si Si4 0.120512 0.711580 0.475455
Si Si5 0.727135 0.049190 0.646324
Si Si6 0.787112 0.473217 0.200700
Si Si7 0.175725 0.747442 0.793428
Si Si8 0.215619 0.576400 0.079404
O O1 0.031345 0.825554 0.208960
O O2 0.465080 0.754918 0.978889
O O3 0.863696 0.085823 0.275826
O O4 0.021281 0.203292 0.373999
O O5 0.123849 0.493275 0.349995
O O6 0.052144 0.269661 0.182792
O O7 0.500000 0.000000 0.000000
O O8 0.379375 0.117419 0.408976
O O9 0.588429 0.275198 0.339317
O O10 0.943350 0.802447 0.034114
O O11 0.476095 0.619708 0.320955
O O12 0.880902 0.971332 0.630107
O O13 0.000000 0.000000 0.500000
O O14 0.401829 0.334576 0.868001
O O15 0.667717 0.471389 0.304008
O O16 0.936716 0.609887 0.217848
O O17 0.000000 0.000000 0.000000
O O18 0.500000 0.500000 0.000000
#
# Coordination Sequence:
#
# PCOD8016522 Si02
#       8
#     2   2   2   2   2   2   2   2
#     4  12  25  44  76 106 148 189 250 299 368 436
#     4  12  24  48  72 106 150 192 240 303 371 430
#     4  10  23  46  70 107 143 196 239 302 371 431
#     4  12  27  46  71 114 140 192 249 302 365 438
#     4  11  26  45  71 105 150 187 248 304 362 435
#     4  10  23  44  73 103 147 194 246 297 370 439
#     4  10  21  44  77  99 141 200 240 288 371 440
#     4  11  23  44  73 103 143 197 240 302 374 427
#
# _framework density 24.617625
#
# number of rings (size 3 to 8) (size 9 to 14) (size 15 to 20)
#    0.000    1.000    3.750    2.250    5.250    4.000 
#    2.250    1.250    0.000    0.000    0.000    0.000 
#    0.000    0.000    0.000    0.000    0.000    0.000 
#
# Total GULP energy -198241.870367 kJ/mol
# GULP energy per Si atom -12390.116898 kJ/mol
# Density = 2.456159 g / cm^3
# Si number density = 24.617625 Si / 1000 Ang^3
#
#
#
# Elastic Constant Matrix: (Units=GPa)
#
#
# Indices 1 2 3 4 5 6 
#
# 1 138.1575 35.4030 26.4533 -8.8926 20.9651 14.9011
# 2 35.4030 122.1415 39.1370 -18.1610 22.7668 2.0796
# 3 26.4533 39.1370 68.6208 -2.3551 10.2462 5.9102
# 4 -8.8926 -18.1610 -2.3551 32.7874 4.7021 -8.0619
# 5 20.9651 22.7668 10.2462 4.7021 37.0354 -6.2001
# 6 14.9011 2.0796 5.9102 -8.0619 -6.2001 38.0448
#
#
#
# Elastic Compliance Matrix: (Units=1/GPa)
#
#
# Indices 1 2 3 4 5 6 
#
# 1 0.009061 -0.000765 -0.001945 0.001706 -0.004949 -0.003650
# 2 -0.000765 0.012552 -0.005728 0.007519 -0.006479 0.001041
# 3 -0.001945 -0.005728 0.018808 -0.002888 -0.000643 -0.002564
# 4 0.001706 0.007519 -0.002888 0.037610 -0.008569 0.005942
# 5 -0.004949 -0.006479 -0.000643 -0.008569 0.036134 0.006465
# 6 -0.003650 0.001041 -0.002564 0.005942 0.006465 0.030369
#
#
# Mechanical properties :
#
#
# Convention : Reuss Voigt Hill
#
# Bulk Modulus (GPa) = 42.47290 58.98958 50.73124
# Shear Modulus (GPa) = 29.54079 36.76860 33.15469
#
# Velocity S-wave (km/s) = 3.46784 3.86889 3.67384
# Velocity P-wave (km/s) = 5.77278 6.63115 6.21680
#
# Compressibility (1/GPa) = 0.02354442
#
# Stress axis : x y z
#
# Youngs Moduli (GPa) = 110.36365 79.66632 53.17026
#
# Poissons Ratio (x) = 0.06093 0.10341
# Poissons Ratio (y) = 0.08441 0.30458
# Poissons Ratio (z) = 0.21465 0.45636
#
# Static dielectric constant tensor:
#      x y z
#    x 4.547640 0.044360 0.151280 
#    y 0.044360 5.016770 -0.064520 
#    z 0.151280 -0.064520 4.405330 
# 
# 
# High freq. dielectric constant tensor:
#      x y z
#    x 1.988060 0.002900 0.003790 
#    y 0.002900 1.982590 0.002350 
#    z 0.003790 0.002350 1.975950 
# 
# From -- ./inp_files/589600.got.cif
#   From: 2010.06.25/outbox.cif.g09.slc.cpg/sg2_295_cif.got.tgz:589600.got - 2010.06.27 13:26:56.
