data_PCOD8016628
_publ_section_title
;
Structure prediction by ZEFSAII (Michael W. Deem and Ramdas Pophale) SiO2 
 PCOD8016628
Probable space group: P -1
;
_chemical_formula_sum "Si O2"
_cell_formula_units_Z 16
_cell_length_a 23.109968
_cell_length_b 23.862770
_cell_length_c 9.820777
_cell_angle_alpha 27.806340
_cell_angle_beta 35.923607
_cell_angle_gamma 17.736787
_cell_volume 749.024293
_symmetry_space_group_name_H-M "P -1"
_symmetry_group_IT_number 2
_symmetry_cell_setting 'triclinic'
loop_
_space_group_symop_operation_xyz
x,y,z
-x,-y,-z
loop_
_atom_site_type_symbol
_atom_site_label
_atom_site_fract_x
_atom_site_fract_y
_atom_site_fract_z
Si Si1 0.708899 0.109490 0.719285
Si Si2 0.124826 0.669204 0.746179
Si Si3 0.199451 0.134488 0.658106
Si Si4 0.345935 0.373596 0.698616
Si Si5 0.802705 0.661203 0.592508
Si Si6 0.506724 0.039329 0.672306
Si Si7 0.218397 0.722474 0.683157
Si Si8 0.773790 0.497527 0.642527
O O1 0.543920 0.223962 0.696502
O O2 0.644748 0.309539 0.465591
O O3 0.894152 0.926870 0.657485
O O4 0.749564 0.988220 0.036587
O O5 0.173545 0.596676 0.650903
O O6 0.251302 0.642847 0.634784
O O7 0.197454 0.480379 0.099769
O O8 0.200857 0.276054 0.386732
O O9 0.000225 0.296757 0.626207
O O10 0.369476 0.966529 0.581591
O O11 0.293230 0.484472 0.413953
O O12 0.364637 0.209937 0.987770
O O13 0.610308 0.897196 0.367294
O O14 0.000000 0.500000 0.500000
O O15 0.347819 0.254354 0.621596
O O16 0.247781 0.583614 0.030954
O O17 0.000000 0.000000 0.500000
#
# Coordination Sequence:
#
# PCOD8016628 Si02
#       8
#     2   2   2   2   2   2   2   2
#     4  11  23  41  69  95 124 169 220 269 313 371
#     4  11  21  41  66  95 128 167 216 266 309 384
#     4  12  22  38  69  95 126 172 219 257 317 381
#     4  12  27  40  64 100 136 167 206 261 337 383
#     4  12  17  35  66  94 125 165 211 266 308 366
#     4  12  23  39  64  98 134 168 213 254 320 400
#     4  10  21  45  71  91 122 169 227 269 305 373
#     4  12  26  45  62  96 137 168 209 272 319 375
#
# _framework density 21.361122999999999
#
# number of rings (size 3 to 8) (size 9 to 14) (size 15 to 20)
#    0.000    0.500    8.750    1.500    0.000    2.500 
#    0.000    2.500    0.000    0.000    0.000    0.000 
#    0.000    0.000    0.000    0.000    0.000    0.000 
#
# Total GULP energy -198224.921825 kJ/mol
# GULP energy per Si atom -12389.057614 kJ/mol
# Density = 2.131250 g / cm^3
# Si number density = 21.361123 Si / 1000 Ang^3
#
#
#
# Elastic Constant Matrix: (Units=GPa)
#
#
# Indices 1 2 3 4 5 6 
#
# 1 133.3684 37.4799 50.6096 1.5346 3.7829 -0.8882
# 2 37.4799 80.9275 21.3905 9.4824 4.0908 -14.0878
# 3 50.6096 21.3905 59.7104 -0.4403 -1.6844 7.9822
# 4 1.5346 9.4824 -0.4403 19.7404 2.9874 -3.3469
# 5 3.7829 4.0908 -1.6844 2.9874 37.1171 -0.9680
# 6 -0.8882 -14.0878 7.9822 -3.3469 -0.9680 34.4557
#
#
#
# Elastic Compliance Matrix: (Units=1/GPa)
#
#
# Indices 1 2 3 4 5 6 
#
# 1 0.011831 -0.002821 -0.009225 0.000654 -0.001332 0.001315
# 2 -0.002821 0.017033 -0.004769 -0.006665 -0.001079 0.007319
# 3 -0.009225 -0.004769 0.027465 0.001857 0.002346 -0.008304
# 4 0.000654 -0.006665 0.001857 0.054747 -0.003600 0.002078
# 5 -0.001332 -0.001079 0.002346 -0.003600 0.027577 -0.000594
# 6 0.001315 0.007319 -0.008304 0.002078 -0.000594 0.034158
#
#
# Mechanical properties :
#
#
# Convention : Reuss Voigt Hill
#
# Bulk Modulus (GPa) = 44.05573 54.77403 49.41488
# Shear Modulus (GPa) = 23.36369 29.23105 26.29737
#
# Velocity S-wave (km/s) = 3.31077 3.70323 3.51249
# Velocity P-wave (km/s) = 5.94003 6.63196 6.29551
#
# Compressibility (1/GPa) = 0.02269852
#
# Stress axis : x y z
#
# Youngs Moduli (GPa) = 84.52661 58.70872 36.40997
#
# Poissons Ratio (x) = 0.16563 0.33589
# Poissons Ratio (y) = 0.23846 0.17363
# Poissons Ratio (z) = 0.77978 0.27996
#
# Static dielectric constant tensor:
#      x y z
#    x 43.103170 60.055320 12.348530 
#    y 60.055320 96.222270 19.484960 
#    z 12.348530 19.484960 7.943300 
# 
# 
# High freq. dielectric constant tensor:
#      x y z
#    x 1.839890 0.002650 -0.016040 
#    y 0.002650 1.843590 -0.001230 
#    z -0.016040 -0.001230 1.815970 
# 
# From -- ./inp_files/355407.got.cif
#   From: 2010.06.25/outbox.cif.g09.slc.cpg/sg2_178_cif.got.tgz:355407.got - 2010.06.27 13:26:56.
