data_PCOD8016984
_publ_section_title
;
Structure prediction by ZEFSAII (Michael W. Deem and Ramdas Pophale) SiO2 
 PCOD8016984
Probable space group: P -1
;
_chemical_formula_sum "Si O2"
_cell_formula_units_Z 16
_cell_length_a 24.114702
_cell_length_b 8.418578
_cell_length_c 12.351208
_cell_angle_alpha 134.193159
_cell_angle_beta 143.374816
_cell_angle_gamma 30.104373
_cell_volume 750.266878
_symmetry_space_group_name_H-M "P -1"
_symmetry_group_IT_number 2
_symmetry_cell_setting 'triclinic'
loop_
_space_group_symop_operation_xyz
x,y,z
-x,-y,-z
loop_
_atom_site_type_symbol
_atom_site_label
_atom_site_fract_x
_atom_site_fract_y
_atom_site_fract_z
Si Si1 0.536259 0.162252 0.302730
Si Si2 0.984337 0.779098 0.408917
Si Si3 0.383769 0.852171 0.353559
Si Si4 0.209202 0.751027 0.510753
Si Si5 0.509849 0.286010 0.772566
Si Si6 0.215061 0.173051 0.606789
Si Si7 0.588560 0.073339 0.026233
Si Si8 0.090478 0.476039 0.212387
O O1 0.428829 0.521755 0.265657
O O2 0.538078 0.148256 0.429995
O O3 0.496053 0.997860 0.110145
O O4 0.682221 0.973974 0.400173
O O5 0.083441 0.534169 0.543812
O O6 0.010982 0.584045 0.252683
O O7 0.000000 0.000000 0.500000
O O8 0.837655 0.026061 0.350352
O O9 0.417176 0.907724 0.316327
O O10 0.228710 0.112615 0.260691
O O11 0.363325 0.420928 0.613464
O O12 0.119541 0.683494 0.323487
O O13 0.190942 0.948001 0.473674
O O14 0.603179 0.058161 0.911354
O O15 0.491431 0.582171 0.887555
O O16 0.270313 0.175750 0.809092
O O17 0.000000 0.500000 0.000000
#
# Coordination Sequence:
#
# PCOD8016984 Si02
#       8
#     2   2   2   2   2   2   2   2
#     4  11  22  39  64  94 133 172 209 261 320 384
#     4  10  23  43  67  89 122 176 215 261 315 384
#     4  11  23  42  63  94 135 172 209 259 328 389
#     4  10  22  43  66  91 128 171 212 265 318 376
#     4  10  22  41  65  99 129 163 215 265 325 375
#     4  11  21  42  64  95 130 162 219 260 325 377
#     4  10  22  37  62  97 130 163 211 269 307 377
#     4  11  25  43  63  93 125 170 221 258 313 385
#
# _framework density 21.325744
#
# number of rings (size 3 to 8) (size 9 to 14) (size 15 to 20)
#    0.000    1.500    3.750    1.500    1.750    7.000 
#    0.000    0.625    0.000    0.000    0.000    0.000 
#    0.000    0.000    0.000    0.000    0.000    0.000 
#
# Total GULP energy -198307.136361 kJ/mol
# GULP energy per Si atom -12394.196023 kJ/mol
# Density = 2.127721 g / cm^3
# Si number density = 21.325744 Si / 1000 Ang^3
#
#
#
# Elastic Constant Matrix: (Units=GPa)
#
#
# Indices 1 2 3 4 5 6 
#
# 1 102.5185 18.1555 50.3028 7.6023 -21.0199 -9.5076
# 2 18.1555 61.3552 19.7108 -6.6567 -8.5925 -5.2941
# 3 50.3028 19.7108 121.9297 1.1494 -10.5068 4.8598
# 4 7.6023 -6.6567 1.1494 24.8199 11.9766 -6.9849
# 5 -21.0199 -8.5925 -10.5068 11.9766 46.0315 5.7540
# 6 -9.5076 -5.2941 4.8598 -6.9849 5.7540 43.0473
#
#
#
# Elastic Compliance Matrix: (Units=1/GPa)
#
#
# Indices 1 2 3 4 5 6 
#
# 1 0.014872 -0.002535 -0.005090 -0.008058 0.007091 0.001292
# 2 -0.002535 0.018737 -0.002208 0.006980 -0.000377 0.003177
# 3 -0.005090 -0.002208 0.010783 -0.000366 0.000156 -0.002693
# 4 -0.008058 0.006980 -0.000366 0.056631 -0.018543 0.010788
# 5 0.007091 -0.000377 0.000156 -0.018543 0.030449 -0.005577
# 6 0.001292 0.003177 -0.002693 0.010788 -0.005577 0.026706
#
#
# Mechanical properties :
#
#
# Convention : Reuss Voigt Hill
#
# Bulk Modulus (GPa) = 40.44533 51.34905 45.89719
# Shear Modulus (GPa) = 26.86929 35.95537 31.41233
#
# Velocity S-wave (km/s) = 3.55342 4.11056 3.84210
# Velocity P-wave (km/s) = 5.98685 6.83078 6.42270
#
# Compressibility (1/GPa) = 0.02472473
#
# Stress axis : x y z
#
# Youngs Moduli (GPa) = 67.23940 53.37157 92.74119
#
# Poissons Ratio (x) = 0.13530 0.47208
# Poissons Ratio (y) = 0.17046 0.20477
# Poissons Ratio (z) = 0.34227 0.11784
#
# Static dielectric constant tensor:
#      x y z
#    x 4.407200 -0.086550 -0.200840 
#    y -0.086550 4.037340 0.017150 
#    z -0.200840 0.017150 3.777390 
# 
# 
# High freq. dielectric constant tensor:
#      x y z
#    x 1.850810 0.006560 -0.010510 
#    y 0.006560 1.835020 0.006670 
#    z -0.010510 0.006670 1.816240 
# 
# From -- ./inp_files/416257.got.cif
#   From: 2010.06.25/outbox.cif.g09.slc.cpg/sg2_209_cif.got.tgz:416257.got - 2010.06.27 13:26:56.
