data_PCOD8016859
_publ_section_title
;
Structure prediction by ZEFSAII (Michael W. Deem and Ramdas Pophale) SiO2 
 PCOD8016859
Probable space group: P -1
;
_chemical_formula_sum "Si O2"
_cell_formula_units_Z 16
_cell_length_a 9.065888
_cell_length_b 15.496275
_cell_length_c 11.091034
_cell_angle_alpha 103.857050
_cell_angle_beta 38.865196
_cell_angle_gamma 122.802827
_cell_volume 771.155425
_symmetry_space_group_name_H-M "P -1"
_symmetry_group_IT_number 2
_symmetry_cell_setting 'triclinic'
loop_
_space_group_symop_operation_xyz
x,y,z
-x,-y,-z
loop_
_atom_site_type_symbol
_atom_site_label
_atom_site_fract_x
_atom_site_fract_y
_atom_site_fract_z
Si Si1 0.708925 0.557518 0.498400
Si Si2 0.165182 0.204171 0.953661
Si Si3 0.624670 0.714322 0.720627
Si Si4 0.808117 0.471120 0.887001
Si Si5 0.771001 0.283296 0.211316
Si Si6 0.589092 0.872941 0.406770
Si Si7 0.907462 0.113107 0.344942
Si Si8 0.330308 0.555745 0.286882
O O1 0.500000 0.500000 0.500000
O O2 0.763397 0.674490 0.524296
O O3 0.556636 0.484437 0.692762
O O4 0.006960 0.574108 0.284821
O O5 0.178082 0.124624 0.826427
O O6 0.488900 0.313826 0.784338
O O7 0.936127 0.227456 0.063221
O O8 0.078629 0.151540 0.122853
O O9 0.415487 0.737310 0.794888
O O10 0.877240 0.825271 0.660540
O O11 0.446271 0.617754 0.896700
O O12 0.656449 0.482130 0.869254
O O13 0.001588 0.587695 0.868194
O O14 0.557885 0.229868 0.443646
O O15 0.337315 0.864547 0.485960
O O16 0.759334 0.984570 0.413116
O O17 0.000000 0.500000 0.500000
#
# Coordination Sequence:
#
# PCOD8016859 Si02
#       8
#     2   2   2   2   2   2   2   2
#     4  11  24  38  60  90 131 173 197 247 311 370
#     4  11  22  41  66  90 124 164 209 259 319 369
#     4  12  25  40  62  94 130 167 209 253 312 378
#     4  11  23  41  59  95 131 162 207 255 308 377
#     4  11  25  39  63  93 130 171 205 253 318 373
#     4  10  23  45  67  92 121 159 215 268 316 365
#     4  10  24  43  68  94 119 160 214 269 314 364
#     4  10  22  36  62  92 124 163 209 248 303 376
#
# _framework density 20.748087999999999
#
# number of rings (size 3 to 8) (size 9 to 14) (size 15 to 20)
#    0.000    1.250    2.500    3.000    8.750    1.500 
#    0.000    0.625    0.000    0.000    0.000    0.000 
#    0.000    0.000    0.000    0.000    0.000    0.000 
#
# Total GULP energy -198376.769816 kJ/mol
# GULP energy per Si atom -12398.548114 kJ/mol
# Density = 2.070086 g / cm^3
# Si number density = 20.748088 Si / 1000 Ang^3
#
#
#
# Elastic Constant Matrix: (Units=GPa)
#
#
# Indices 1 2 3 4 5 6 
#
# 1 122.1203 43.8775 13.6438 8.6020 11.4587 28.4847
# 2 43.8775 82.4195 34.9721 1.6870 -22.3845 21.6844
# 3 13.6438 34.9721 76.0358 20.6187 5.9716 -1.2301
# 4 8.6020 1.6870 20.6187 40.8975 -1.2567 -3.6416
# 5 11.4587 -22.3845 5.9716 -1.2567 -17.3723 -1.6759
# 6 28.4847 21.6844 -1.2301 -3.6416 -1.6759 30.9781
#
#
#
# Elastic Compliance Matrix: (Units=1/GPa)
#
#
# Indices 1 2 3 4 5 6 
#
# 1 0.010013 -0.000161 -0.001970 -0.001687 0.007124 -0.008985
# 2 -0.000161 0.012135 -0.004545 0.000486 -0.016438 -0.009359
# 3 -0.001970 -0.004545 0.016788 -0.007065 0.010319 0.005387
# 4 -0.001687 0.000486 -0.007065 0.028494 -0.006608 0.003923
# 5 0.007124 -0.016438 0.010319 -0.006608 -0.027955 0.003076
# 6 -0.008985 -0.009359 0.005387 0.003923 0.003076 0.047935
#
#
# Mechanical properties :
#
#
# Convention : Reuss Voigt Hill
#
# Bulk Modulus (GPa) = 39.08640 51.72916 45.40778
# Shear Modulus (GPa) = 45.74909 23.43948 34.59429
#
# Velocity S-wave (km/s) = 4.70081 3.36477 4.08775
# Velocity P-wave (km/s) = 6.95291 6.33101 6.64924
#
# Compressibility (1/GPa) = 0.02558435
#
# Stress axis : x y z
#
# Youngs Moduli (GPa) = 99.87130 82.40297 59.56557
#
# Poissons Ratio (x) = 0.01330 0.11733
# Poissons Ratio (y) = 0.01611 0.27072
# Poissons Ratio (z) = 0.19672 0.37452
#
# Static dielectric constant tensor:
#      x y z
#    x 4.204350 -0.020470 0.143220 
#    y -0.020470 3.559240 -0.046030 
#    z 0.143220 -0.046030 3.879920 
# 
# 
# High freq. dielectric constant tensor:
#      x y z
#    x 1.810340 -0.000820 -0.002500 
#    y -0.000820 1.805660 0.008340 
#    z -0.002500 0.008340 1.823590 
# 
# From -- ./inp_files/271007.got.cif
#   From: 2010.06.25/outbox.cif.g09.slc.cpg/sg2_136_cif.got.tgz:271007.got - 2010.06.27 13:26:56.
