data_PCOD8016857
_publ_section_title
;
Structure prediction by ZEFSAII (Michael W. Deem and Ramdas Pophale) SiO2 
 PCOD8016857
Probable space group: P -1
;
_chemical_formula_sum "Si O2"
_cell_formula_units_Z 16
_cell_length_a 13.151225
_cell_length_b 11.323855
_cell_length_c 5.271839
_cell_angle_alpha 106.821798
_cell_angle_beta 68.921976
_cell_angle_gamma 87.836533
_cell_volume 692.322132
_symmetry_space_group_name_H-M "P -1"
_symmetry_group_IT_number 2
_symmetry_cell_setting 'triclinic'
loop_
_space_group_symop_operation_xyz
x,y,z
-x,-y,-z
loop_
_atom_site_type_symbol
_atom_site_label
_atom_site_fract_x
_atom_site_fract_y
_atom_site_fract_z
Si Si1 0.053578 0.244486 0.091359
Si Si2 0.380022 0.785334 0.283106
Si Si3 0.827742 0.321963 0.495108
Si Si4 0.906140 0.502878 0.877607
Si Si5 0.396893 0.044446 0.295666
Si Si6 0.181544 0.189873 0.415033
Si Si7 0.275952 0.433004 0.546436
Si Si8 0.508653 0.718626 0.605639
O O1 0.070958 0.384726 0.254146
O O2 0.107243 0.158407 0.223062
O O3 0.920701 0.244077 0.178565
O O4 0.111575 0.203860 0.747353
O O5 0.252117 0.768060 0.378519
O O6 0.438187 0.698737 0.405382
O O7 0.386909 0.931243 0.430228
O O8 0.430343 0.752250 0.939720
O O9 0.907302 0.367987 0.666974
O O10 0.753462 0.445045 0.524809
O O11 0.783167 0.539662 0.116615
O O12 0.000000 0.500000 0.000000
O O13 0.280435 0.072626 0.269557
O O14 0.419614 0.173965 0.480241
O O15 0.500000 0.000000 0.000000
O O16 0.236239 0.312889 0.378707
O O17 0.407021 0.406070 0.473628
#
# Coordination Sequence:
#
# PCOD8016857 Si02
#       8
#     2   2   2   2   2   2   2   2
#     4  11  22  38  60  92 125 162 208 253 304 365
#     4  11  26  42  64  92 126 167 207 261 322 371
#     4  12  24  38  61  91 134 169 206 249 319 379
#     4  11  21  37  61  90 126 169 213 247 299 372
#     4   9  21  45  72  91 121 161 215 263 311 373
#     4  10  22  38  64  95 118 158 214 262 299 357
#     4  10  22  36  62  90 126 166 209 255 310 369
#     4  10  24  43  65  93 122 162 216 264 308 368
#
# _framework density 23.110627999999998
#
# number of rings (size 3 to 8) (size 9 to 14) (size 15 to 20)
#    0.000    1.500    2.500    2.250    3.500    9.000 
#    0.000    1.250    0.000    0.000    0.000    0.000 
#    0.000    0.000    0.000    0.000    0.000    0.000 
#
# Total GULP energy -198248.465555 kJ/mol
# GULP energy per Si atom -12390.529097 kJ/mol
# Density = 2.305803 g / cm^3
# Si number density = 23.110628 Si / 1000 Ang^3
#
#
#
# Elastic Constant Matrix: (Units=GPa)
#
#
# Indices 1 2 3 4 5 6 
#
# 1 126.4691 44.2189 68.0758 -14.8220 -11.1023 -19.0498
# 2 44.2189 54.7379 37.2520 -9.9379 -17.0877 -15.8101
# 3 68.0758 37.2520 101.4950 -18.8528 -19.7147 -3.3782
# 4 -14.8220 -9.9379 -18.8528 25.8745 -6.0420 -6.9187
# 5 -11.1023 -17.0877 -19.7147 -6.0420 45.4875 -5.0150
# 6 -19.0498 -15.8101 -3.3782 -6.9187 -5.0150 41.1196
#
#
#
# Elastic Compliance Matrix: (Units=1/GPa)
#
#
# Indices 1 2 3 4 5 6 
#
# 1 0.014626 -0.005520 -0.007563 0.001602 -0.001110 0.004166
# 2 -0.005520 0.037596 -0.003498 0.016645 0.015265 0.016273
# 3 -0.007563 -0.003498 0.019178 0.009532 0.006319 -0.000899
# 4 0.001602 0.016645 0.009532 0.063627 0.021571 0.021262
# 5 -0.001110 0.015265 0.006319 0.021571 0.034564 0.013719
# 6 0.004166 0.016273 -0.000899 0.021262 0.013719 0.037683
#
#
# Mechanical properties :
#
#
# Convention : Reuss Voigt Hill
#
# Bulk Modulus (GPa) = 26.15264 64.64395 45.39829
# Shear Modulus (GPa) = 19.74850 31.37335 25.56093
#
# Velocity S-wave (km/s) = 2.92639 3.68846 3.32930
# Velocity P-wave (km/s) = 4.77066 6.79499 5.87074
#
# Compressibility (1/GPa) = 0.03823706
#
# Stress axis : x y z
#
# Youngs Moduli (GPa) = 68.36909 26.59833 52.14387
#
# Poissons Ratio (x) = 0.14684 0.39439
# Poissons Ratio (y) = 0.37743 0.18239
# Poissons Ratio (z) = 0.51711 0.09304
#
# Static dielectric constant tensor:
#      x y z
#    x 4.236920 -0.244780 -0.299990 
#    y -0.244780 4.483470 0.026270 
#    z -0.299990 0.026270 4.031400 
# 
# 
# High freq. dielectric constant tensor:
#      x y z
#    x 1.916250 -0.022490 -0.021730 
#    y -0.022490 1.887060 -0.010250 
#    z -0.021730 -0.010250 1.907290 
# 
# From -- ./inp_files/70993.got.cif
#   From: 2010.06.25/outbox.cif.g09.slc.cpg/sg2_36_cif.got.tgz:70993.got - 2010.06.27 13:26:56.
