data_PCOD8016068
_publ_section_title
;
Structure prediction by ZEFSAII (Michael W. Deem and Ramdas Pophale) SiO2 
 PCOD8016068
Probable space group: P -1
;
_chemical_formula_sum "Si O2"
_cell_formula_units_Z 14
_cell_length_a 14.313355
_cell_length_b 19.469319
_cell_length_c 11.413318
_cell_angle_alpha 156.349278
_cell_angle_beta 146.840694
_cell_angle_gamma 31.180005
_cell_volume 638.313500
_symmetry_space_group_name_H-M "P -1"
_symmetry_group_IT_number 2
_symmetry_cell_setting 'triclinic'
loop_
_space_group_symop_operation_xyz
x,y,z
-x,-y,-z
loop_
_atom_site_type_symbol
_atom_site_label
_atom_site_fract_x
_atom_site_fract_y
_atom_site_fract_z
Si Si1 0.923179 0.461904 0.483170
Si Si2 0.494873 0.351112 0.670726
Si Si3 0.276804 0.057435 0.637835
Si Si4 0.980183 0.960893 0.051295
Si Si5 0.514097 0.536668 0.410079
Si Si6 0.104787 0.447772 0.154762
Si Si7 0.564880 0.186795 0.039394
O O1 0.716763 0.624424 0.529292
O O2 0.016086 0.481822 0.739467
O O3 0.000000 0.500000 0.500000
O O4 0.920782 0.257800 0.154848
O O5 0.620242 0.139488 0.500765
O O6 0.572716 0.397178 0.704328
O O7 0.500000 0.500000 0.000000
O O8 0.087708 0.070231 0.399128
O O9 0.212514 0.222626 0.924203
O O10 0.420124 0.088256 0.744941
O O11 0.764443 0.031434 0.970335
O O12 0.000000 0.000000 0.000000
O O13 0.739480 0.465793 0.545329
O O14 0.474719 0.353849 0.111709
O O15 0.408028 0.713338 0.658241
O O16 0.000000 0.500000 0.000000
#
# Coordination Sequence:
#
# PCOD8016068 Si02
#       7
#     2   2   2   2   2   2   2
#     4  11  24  43  65  97 138 173 214 283 339 390
#     4  11  22  44  63  89 138 174 212 268 340 397
#     4  11  24  42  70  98 124 182 226 266 335 396
#     4  12  24  43  64  97 138 172 219 283 332 391
#     4   9  21  42  66  92 135 174 213 286 324 383
#     4  10  21  43  69  98 134 176 226 274 336 400
#     4  10  22  42  67  97 127 168 234 267 326 390
#
# _framework density 21.932796
#
# number of rings (size 3 to 8) (size 9 to 14) (size 15 to 20)
#    0.000    1.429    1.429    4.286    0.000    6.857 
#   12.857    1.429    0.000    0.000    0.000    0.000 
#    0.000    0.000    0.000    0.000    0.000    0.000 
#
# Total GULP energy -173498.793447 kJ/mol
# GULP energy per Si atom -12392.770960 kJ/mol
# Density = 2.188288 g / cm^3
# Si number density = 21.932796 Si / 1000 Ang^3
#
#
#
# Elastic Constant Matrix: (Units=GPa)
#
#
# Indices 1 2 3 4 5 6 
#
# 1 166.8445 44.6999 50.4813 5.4672 -7.0518 23.9750
# 2 44.6999 67.0230 33.0450 16.7239 -2.2190 12.7917
# 3 50.4813 33.0450 93.3157 8.0165 5.3427 14.7792
# 4 5.4672 16.7239 8.0165 28.4450 -2.2434 2.8072
# 5 -7.0518 -2.2190 5.3427 -2.2434 32.1657 2.8113
# 6 23.9750 12.7917 14.7792 2.8072 2.8113 47.1119
#
#
#
# Elastic Compliance Matrix: (Units=1/GPa)
#
#
# Indices 1 2 3 4 5 6 
#
# 1 0.008389 -0.004067 -0.003021 0.002066 0.002422 -0.002485
# 2 -0.004067 0.023229 -0.004775 -0.011249 0.000905 -0.002123
# 3 -0.003021 -0.004775 0.014537 -0.000826 -0.003335 -0.001479
# 4 0.002066 -0.011249 -0.000826 0.041862 0.002769 -0.000398
# 5 0.002422 0.000905 -0.003335 0.002769 0.032652 -0.002545
# 6 -0.002485 -0.002123 -0.001479 -0.000398 -0.002545 0.023707
#
#
# Mechanical properties :
#
#
# Convention : Reuss Voigt Hill
#
# Bulk Modulus (GPa) = 44.58230 64.84839 54.71534
# Shear Modulus (GPa) = 28.47755 34.80832 31.64293
#
# Velocity S-wave (km/s) = 3.60724 3.98809 3.80244
# Velocity P-wave (km/s) = 6.14170 7.13005 6.65425
#
# Compressibility (1/GPa) = 0.02243043
#
# Stress axis : x y z
#
# Youngs Moduli (GPa) = 119.20756 43.05012 68.78819
#
# Poissons Ratio (x) = 0.17507 0.20778
# Poissons Ratio (y) = 0.48476 0.32847
# Poissons Ratio (z) = 0.36008 0.20557
#
# Static dielectric constant tensor:
#      x y z
#    x 4.284050 0.152520 -0.248930 
#    y 0.152520 3.864060 0.204990 
#    z -0.248930 0.204990 -1.733640 
# 
# 
# High freq. dielectric constant tensor:
#      x y z
#    x 1.868680 0.006200 -0.006480 
#    y 0.006200 1.860700 0.014340 
#    z -0.006480 0.014340 1.864290 
# 
# From -- ./inp_files/299253.got.cif
#   From: 2010.06.25/outbox.cif.g09.slc.cpg/sg2_150_cif.got.tgz:299253.got - 2010.06.27 13:26:56.
