data_PCOD8016181
_publ_section_title
;
Structure prediction by ZEFSAII (Michael W. Deem and Ramdas Pophale) SiO2 
 PCOD8016181
Probable space group: P -1
;
_chemical_formula_sum "Si O2"
_cell_formula_units_Z 14
_cell_length_a 10.536577
_cell_length_b 8.360053
_cell_length_c 21.818531
_cell_angle_alpha 33.748007
_cell_angle_beta 31.355253
_cell_angle_gamma 40.800667
_cell_volume 548.200829
_symmetry_space_group_name_H-M "P -1"
_symmetry_group_IT_number 2
_symmetry_cell_setting 'triclinic'
loop_
_space_group_symop_operation_xyz
x,y,z
-x,-y,-z
loop_
_atom_site_type_symbol
_atom_site_label
_atom_site_fract_x
_atom_site_fract_y
_atom_site_fract_z
Si Si1 0.149594 0.837024 0.193707
Si Si2 0.595155 0.863680 0.910021
Si Si3 0.899402 0.333372 0.426640
Si Si4 0.837228 0.257882 0.023127
Si Si5 0.373607 0.856590 0.733490
Si Si6 0.385018 0.638511 0.578186
Si Si7 0.319817 0.407351 0.807038
O O1 0.099218 0.501535 0.324164
O O2 0.194470 0.976803 0.196392
O O3 0.376360 0.851938 0.051356
O O4 0.899832 0.012384 0.214898
O O5 0.705507 0.532462 0.948098
O O6 0.478150 0.079126 0.834098
O O7 0.627220 0.396833 0.548117
O O8 0.848534 0.429736 0.344789
O O9 0.000000 0.000000 0.500000
O O10 0.034666 0.383887 0.944909
O O11 0.630225 0.159901 0.185086
O O12 0.000000 0.000000 0.000000
O O13 0.435644 0.534570 0.779614
O O14 0.568180 0.046652 0.565702
O O15 0.320913 0.628935 0.679074
#
# Coordination Sequence:
#
# PCOD8016181 Si02
#       7
#     2   2   2   2   2   2   2
#     4  10  21  43  72 104 137 190 241 290 359 424
#     4  11  24  43  72 105 140 186 240 296 362 422
#     4  10  24  44  70 102 145 193 237 293 354 425
#     4  12  28  44  74 104 143 186 243 303 361 422
#     4  11  22  49  72 102 145 189 237 298 359 426
#     4  10  26  44  69 105 145 191 237 288 365 421
#     4  12  25  45  72 107 142 189 237 298 356 437
#
# _framework density 25.538084999999999
#
# number of rings (size 3 to 8) (size 9 to 14) (size 15 to 20)
#    0.000    1.143    2.857    2.571   10.000    1.714 
#    0.000    1.429    0.000    0.000    0.000    0.000 
#    0.000    0.000    0.000    0.000    0.000    0.000 
#
# Total GULP energy -173469.375413 kJ/mol
# GULP energy per Si atom -12390.669672 kJ/mol
# Density = 2.547996 g / cm^3
# Si number density = 25.538085 Si / 1000 Ang^3
#
#
#
# Elastic Constant Matrix: (Units=GPa)
#
#
# Indices 1 2 3 4 5 6 
#
# 1 48.1162 -14.7539 28.3289 8.2943 6.2926 2.1995
# 2 -14.7539 89.4241 30.0488 -24.8233 12.0106 -0.7517
# 3 28.3289 30.0488 121.0695 -19.0362 12.6976 -0.2381
# 4 8.2943 -24.8233 -19.0362 30.5736 0.4957 8.2895
# 5 6.2926 12.0106 12.6976 0.4957 42.2599 7.8028
# 6 2.1995 -0.7517 -0.2381 8.2895 7.8028 28.2881
#
#
#
# Elastic Compliance Matrix: (Units=1/GPa)
#
#
# Indices 1 2 3 4 5 6 
#
# 1 0.030514 0.006095 -0.009826 -0.009809 -0.003494 0.001545
# 2 0.006095 0.016835 -0.003508 0.010415 -0.004411 -0.001891
# 3 -0.009826 -0.003508 0.012845 0.008180 -0.001261 -0.001270
# 4 -0.009809 0.010415 0.008180 0.052685 -0.002033 -0.013770
# 5 -0.003494 -0.004411 -0.001261 -0.002033 0.027082 -0.006731
# 6 0.001545 -0.001891 -0.001270 -0.013770 -0.006731 0.041061
#
#
# Mechanical properties :
#
#
# Convention : Reuss Voigt Hill
#
# Bulk Modulus (GPa) = 21.87327 38.42861 30.15094
# Shear Modulus (GPa) = 23.72603 34.55672 29.14138
#
# Velocity S-wave (km/s) = 3.05133 3.68250 3.38167
# Velocity P-wave (km/s) = 4.58233 5.75859 5.20380
#
# Compressibility (1/GPa) = 0.04571791
#
# Stress axis : x y z
#
# Youngs Moduli (GPa) = 32.77152 59.40074 77.84842
#
# Poissons Ratio (x) = -0.36208 0.76492
# Poissons Ratio (y) = -0.19976 0.27310
# Poissons Ratio (z) = 0.32200 0.20838
#
# Static dielectric constant tensor:
#      x y z
#    x 5.034330 -0.090250 -0.702690 
#    y -0.090250 4.755120 -0.462700 
#    z -0.702690 -0.462700 5.165990 
# 
# 
# High freq. dielectric constant tensor:
#      x y z
#    x 2.014920 -0.018930 -0.016180 
#    y -0.018930 2.026020 -0.021070 
#    z -0.016180 -0.021070 2.013410 
# 
# From -- ./inp_files/382184.got.cif
#   From: 2010.06.25/outbox.cif.g09.slc.cpg/sg2_192_cif.got.tgz:382184.got - 2010.06.27 13:26:56.
