data_PCOD8016918
_publ_section_title
;
Structure prediction by ZEFSAII (Michael W. Deem and Ramdas Pophale) SiO2 
 PCOD8016918
Probable space group: P -1
;
_chemical_formula_sum "Si O2"
_cell_formula_units_Z 16
_cell_length_a 24.883309
_cell_length_b 14.104439
_cell_length_c 14.642453
_cell_angle_alpha 19.774264
_cell_angle_beta 152.410404
_cell_angle_gamma 149.714166
_cell_volume 790.811584
_symmetry_space_group_name_H-M "P -1"
_symmetry_group_IT_number 2
_symmetry_cell_setting 'triclinic'
loop_
_space_group_symop_operation_xyz
x,y,z
-x,-y,-z
loop_
_atom_site_type_symbol
_atom_site_label
_atom_site_fract_x
_atom_site_fract_y
_atom_site_fract_z
Si Si1 0.463888 0.373262 0.461413
Si Si2 0.851582 0.432910 0.097641
Si Si3 0.884465 0.523967 0.361614
Si Si4 0.310752 0.772373 0.796319
Si Si5 0.171559 0.236404 0.522958
Si Si6 0.291074 0.710788 0.157600
Si Si7 0.061588 0.849850 0.064991
Si Si8 0.030316 0.047840 0.649224
O O1 0.500000 0.500000 0.500000
O O2 0.569708 0.267532 0.663765
O O3 0.355189 0.108180 0.544171
O O4 0.422842 0.619508 0.116757
O O5 0.767302 0.257254 0.203696
O O6 0.917628 0.744085 0.952178
O O7 0.957413 0.267509 0.384282
O O8 0.775061 0.480342 0.851335
O O9 0.765056 0.370214 0.273382
O O10 0.880686 0.389374 0.579613
O O11 0.000000 0.500000 0.500000
O O12 0.889018 0.859508 0.071713
O O13 0.243739 0.552904 0.323500
O O14 0.136633 0.218075 0.593311
O O15 0.053143 0.180859 0.333150
O O16 0.259198 0.022031 0.824419
O O17 0.087857 0.882299 0.966178
#
# Coordination Sequence:
#
# PCOD8016918 Si02
#       8
#     2   2   2   2   2   2   2   2
#     4  12  26  41  64  88 121 164 215 239 300 354
#     4  11  23  35  63  87 134 155 202 237 304 363
#     4  12  25  37  60  85 125 163 208 239 298 361
#     4  12  26  41  59  91 124 167 198 255 289 353
#     4  10  23  36  61  87 127 155 199 245 313 352
#     4  11  23  39  59  89 119 166 198 248 291 366
#     4  12  22  38  57  89 123 165 195 239 295 373
#     4  10  22  37  58  92 125 161 192 247 303 380
#
# _framework density 20.232379000000002
#
# number of rings (size 3 to 8) (size 9 to 14) (size 15 to 20)
#    0.000    0.750    5.000    2.250    8.750    1.500 
#    0.000    0.000    0.000    0.000    0.000   17.500 
#    0.000    0.000    0.000    0.000    0.000    0.000 
#
# Total GULP energy -198399.396346 kJ/mol
# GULP energy per Si atom -12399.962272 kJ/mol
# Density = 2.018633 g / cm^3
# Si number density = 20.232379 Si / 1000 Ang^3
#
#
#
# Elastic Constant Matrix: (Units=GPa)
#
#
# Indices 1 2 3 4 5 6 
#
# 1 85.5512 15.0475 19.0872 11.7881 -18.2722 17.7194
# 2 15.0475 93.3558 16.4752 -3.4191 -5.2193 1.1394
# 3 19.0872 16.4752 60.3452 3.9806 -15.5890 -6.1301
# 4 11.7881 -3.4191 3.9806 39.2455 1.4977 -5.5202
# 5 -18.2722 -5.2193 -15.5890 1.4977 34.6658 -3.2017
# 6 17.7194 1.1394 -6.1301 -5.5202 -3.2017 24.4537
#
#
#
# Elastic Compliance Matrix: (Units=1/GPa)
#
#
# Indices 1 2 3 4 5 6 
#
# 1 0.018767 -0.001907 -0.004865 -0.007752 0.006306 -0.015654
# 2 -0.001907 0.011542 -0.002765 0.001953 -0.000547 0.000520
# 3 -0.004865 -0.002765 0.021909 0.000135 0.007808 0.010199
# 4 -0.007752 0.001953 0.000135 0.029771 -0.003931 0.011766
# 5 0.006306 -0.000547 0.007808 -0.003931 0.035882 0.001224
# 6 -0.015654 0.000520 0.010199 0.011766 0.001224 0.057585
#
#
# Mechanical properties :
#
#
# Convention : Reuss Voigt Hill
#
# Bulk Modulus (GPa) = 30.17169 37.83022 34.00096
# Shear Modulus (GPa) = 24.32159 32.24916 28.28537
#
# Velocity S-wave (km/s) = 3.47091 3.99675 3.74307
# Velocity P-wave (km/s) = 5.56847 6.32749 5.96008
#
# Compressibility (1/GPa) = 0.03314365
#
# Stress axis : x y z
#
# Youngs Moduli (GPa) = 53.28491 86.64287 45.64262
#
# Poissons Ratio (x) = 0.16520 0.22206
# Poissons Ratio (y) = 0.10160 0.12622
# Poissons Ratio (z) = 0.25924 0.23960
#
# Static dielectric constant tensor:
#      x y z
#    x 3.720450 -0.050120 -0.238470 
#    y -0.050120 3.748180 -0.029430 
#    z -0.238470 -0.029430 3.788760 
# 
# 
# High freq. dielectric constant tensor:
#      x y z
#    x 1.775210 0.001480 -0.016850 
#    y 0.001480 1.775250 -0.016490 
#    z -0.016850 -0.016490 1.798420 
# 
# From -- ./inp_files/367683.got.cif
#   From: 2010.06.25/outbox.cif.g09.slc.cpg/sg2_184_cif.got.tgz:367683.got - 2010.06.27 13:26:56.
