data_PCOD8016923
_publ_section_title
;
Structure prediction by ZEFSAII (Michael W. Deem and Ramdas Pophale) SiO2 
 PCOD8016923
Probable space group: P -1
;
_chemical_formula_sum "Si O2"
_cell_formula_units_Z 14
_cell_length_a 14.200850
_cell_length_b 8.248127
_cell_length_c 11.837517
_cell_angle_alpha 81.730766
_cell_angle_beta 135.753913
_cell_angle_gamma 66.712496
_cell_volume 662.635154
_symmetry_space_group_name_H-M "P -1"
_symmetry_group_IT_number 2
_symmetry_cell_setting 'triclinic'
loop_
_space_group_symop_operation_xyz
x,y,z
-x,-y,-z
loop_
_atom_site_type_symbol
_atom_site_label
_atom_site_fract_x
_atom_site_fract_y
_atom_site_fract_z
Si Si1 0.277703 0.857341 0.760334
Si Si2 0.998725 0.676350 0.661784
Si Si3 0.237324 0.647566 0.557903
Si Si4 0.652078 0.764008 0.399137
Si Si5 0.853088 0.132112 0.119147
Si Si6 0.519352 0.394182 0.645011
Si Si7 0.596206 0.809480 0.002048
O O1 0.223940 0.737486 0.661206
O O2 0.281140 0.819524 0.899701
O O3 0.496318 0.717904 0.928860
O O4 0.120451 0.134512 0.562599
O O5 0.084875 0.734314 0.817086
O O6 0.846906 0.697761 0.601840
O O7 0.170480 0.415653 0.779781
O O8 0.284136 0.412307 0.633938
O O9 0.399476 0.592460 0.621825
O O10 0.037297 0.851517 0.298470
O O11 0.571984 0.711464 0.434233
O O12 0.471944 0.038827 0.185878
O O13 0.743238 0.205509 0.898156
O O14 0.500000 0.500000 0.500000
O O15 0.500000 0.000000 0.000000
#
# Coordination Sequence:
#
# PCOD8016923 Si02
#       7
#     2   2   2   2   2   2   2
#     4  10  22  37  59  91 122 160 194 236 284 357
#     4  10  22  38  55  87 126 156 190 236 295 355
#     4   9  21  38  62  86 120 149 198 242 287 351
#     4   9  23  37  57  85 122 148 195 245 290 344
#     4  11  22  38  65  85 119 162 198 236 292 347
#     4  10  23  41  63  88 113 152 204 251 291 343
#     4  11  23  32  54  85 126 162 191 228 294 352
#
# _framework density 21.127763999999999
#
# number of rings (size 3 to 8) (size 9 to 14) (size 15 to 20)
#    0.857    1.143    0.000    3.429    8.000    2.857 
#    0.000    0.714    0.000   12.000    0.000    0.000 
#    0.000    0.000    0.000    0.000    0.000    0.000 
#
# Total GULP energy -173460.115575 kJ/mol
# GULP energy per Si atom -12390.008255 kJ/mol
# Density = 2.107968 g / cm^3
# Si number density = 21.127764 Si / 1000 Ang^3
#
#
#
# Elastic Constant Matrix: (Units=GPa)
#
#
# Indices 1 2 3 4 5 6 
#
# 1 93.9202 16.3075 43.3754 6.7518 -1.1138 29.4385
# 2 16.3075 54.9038 21.5466 -7.5682 4.6647 16.4657
# 3 43.3754 21.5466 118.6707 0.9069 5.7013 6.3874
# 4 6.7518 -7.5682 0.9069 28.6658 -1.8957 9.0673
# 5 -1.1138 4.6647 5.7013 -1.8957 28.8648 -0.6295
# 6 29.4385 16.4657 6.3874 9.0673 -0.6295 34.7374
#
#
#
# Elastic Compliance Matrix: (Units=1/GPa)
#
#
# Indices 1 2 3 4 5 6 
#
# 1 0.017818 0.001686 -0.006082 0.001307 0.001373 -0.015097
# 2 0.001686 0.026098 -0.004441 0.011518 -0.002869 -0.016041
# 3 -0.006082 -0.004441 0.011250 -0.002009 -0.001747 0.005684
# 4 0.001307 0.011518 -0.002009 0.043278 0.001047 -0.017475
# 5 0.001373 -0.002869 -0.001747 0.001047 0.035594 0.000889
# 6 -0.015097 -0.016041 0.005684 -0.017475 0.000889 0.052717
#
#
# Mechanical properties :
#
#
# Convention : Reuss Voigt Hill
#
# Bulk Modulus (GPa) = 26.67400 47.77264 37.22332
# Shear Modulus (GPa) = 23.04916 30.87127 26.96022
#
# Velocity S-wave (km/s) = 3.30652 3.82667 3.57607
# Velocity P-wave (km/s) = 5.21823 6.49500 5.89130
#
# Compressibility (1/GPa) = 0.03748969
#
# Stress axis : x y z
#
# Youngs Moduli (GPa) = 56.12352 38.31686 88.89276
#
# Poissons Ratio (x) = -0.06459 0.54065
# Poissons Ratio (y) = -0.09460 0.39481
# Poissons Ratio (z) = 0.34135 0.17018
#
# Static dielectric constant tensor:
#      x y z
#    x 3.664100 0.340230 0.385880 
#    y 0.340230 3.662490 -0.235190 
#    z 0.385880 -0.235190 3.907990 
# 
# 
# High freq. dielectric constant tensor:
#      x y z
#    x 1.805140 0.031360 0.031510 
#    y 0.031360 1.806760 -0.024300 
#    z 0.031510 -0.024300 1.831910 
# 
# From -- ./inp_files/447202.got.cif
#   From: 2010.06.25/outbox.cif.g09.slc.cpg/sg2_224_cif.got.tgz:447202.got - 2010.06.27 13:26:56.
