data_PCOD8016531
_publ_section_title
;
Structure prediction by ZEFSAII (Michael W. Deem and Ramdas Pophale) SiO2 
 PCOD8016531
Probable space group: P -1
;
_chemical_formula_sum "Si O2"
_cell_formula_units_Z 16
_cell_length_a 8.647470
_cell_length_b 12.274333
_cell_length_c 14.207603
_cell_angle_alpha 31.493896
_cell_angle_beta 92.672040
_cell_angle_gamma 101.362258
_cell_volume 750.362100
_symmetry_space_group_name_H-M "P -1"
_symmetry_group_IT_number 2
_symmetry_cell_setting 'triclinic'
loop_
_space_group_symop_operation_xyz
x,y,z
-x,-y,-z
loop_
_atom_site_type_symbol
_atom_site_label
_atom_site_fract_x
_atom_site_fract_y
_atom_site_fract_z
Si Si1 0.341255 0.511879 0.680496
Si Si2 0.586518 0.050378 0.739980
Si Si3 0.729630 0.800453 0.793651
Si Si4 0.338544 0.050650 0.984283
Si Si5 0.905433 0.584124 0.095135
Si Si6 0.005992 0.830048 0.548776
Si Si7 0.744658 0.163437 0.041489
Si Si8 0.339413 0.400450 0.267036
O O1 0.322505 0.701724 0.471910
O O2 0.178189 0.410908 0.810568
O O3 0.497669 0.627282 0.664458
O O4 0.360080 0.305252 0.775791
O O5 0.693655 0.010383 0.861575
O O6 0.587626 0.862849 0.800468
O O7 0.397323 0.035099 0.768372
O O8 0.669762 0.697303 0.766778
O O9 0.870449 0.036579 0.624583
O O10 0.791199 0.619235 0.982632
O O11 0.212013 0.898226 0.018352
O O12 0.500000 0.000000 0.000000
O O13 0.930573 0.347312 0.263187
O O14 0.081261 0.767325 0.953842
O O15 0.821563 0.724581 0.584258
O O16 0.000000 0.000000 0.500000
O O17 0.652324 0.347622 0.911035
#
# Coordination Sequence:
#
# PCOD8016531 Si02
#       8
#     2   2   2   2   2   2   2   2
#     4  12  23  41  65  97 124 165 216 259 314 372
#     4  11  23  41  66  94 124 169 209 258 319 370
#     4  11  22  42  64  93 133 165 210 258 316 373
#     4  10  21  45  64  90 132 160 209 268 313 369
#     4  11  23  41  66  93 129 165 210 262 314 375
#     4   9  21  40  58  92 130 164 203 260 309 369
#     4  10  23  43  65  93 126 167 209 260 318 375
#     4  10  22  41  64  93 130 169 205 260 313 381
#
# _framework density 21.323038
#
# number of rings (size 3 to 8) (size 9 to 14) (size 15 to 20)
#    0.000    1.500    5.000    0.000    1.750    9.500 
#    2.250    0.625    0.000    0.000    0.000    0.000 
#    0.000    0.000    0.000    0.000    0.000    0.000 
#
# Total GULP energy -198239.947569 kJ/mol
# GULP energy per Si atom -12389.996723 kJ/mol
# Density = 2.127451 g / cm^3
# Si number density = 21.323038 Si / 1000 Ang^3
#
#
#
# Elastic Constant Matrix: (Units=GPa)
#
#
# Indices 1 2 3 4 5 6 
#
# 1 81.3761 20.7007 29.3211 -3.6399 -2.3900 -7.8602
# 2 20.7007 114.1468 39.1740 -13.3110 8.3360 -14.9478
# 3 29.3211 39.1740 100.6304 -2.8018 10.2663 -3.5211
# 4 -3.6399 -13.3110 -2.8018 26.0829 -10.4346 4.6480
# 5 -2.3900 8.3360 10.2663 -10.4346 35.4573 -0.7410
# 6 -7.8602 -14.9478 -3.5211 4.6480 -0.7410 22.5393
#
#
#
# Elastic Compliance Matrix: (Units=1/GPa)
#
#
# Indices 1 2 3 4 5 6 
#
# 1 0.014451 -0.000774 -0.004030 0.001700 0.002899 0.003641
# 2 -0.000774 0.011523 -0.003910 0.004195 -0.000272 0.005887
# 3 -0.004030 -0.003910 0.012901 -0.002418 -0.003833 -0.001610
# 4 0.001700 0.004195 -0.002418 0.046981 0.013524 -0.006247
# 5 0.002899 -0.000272 -0.003833 0.013524 0.033522 -0.001455
# 6 0.003641 0.005887 -0.001610 -0.006247 -0.001455 0.050530
#
#
# Mechanical properties :
#
#
# Convention : Reuss Voigt Hill
#
# Bulk Modulus (GPa) = 46.62800 52.72723 49.67762
# Shear Modulus (GPa) = 25.70914 30.61305 28.16110
#
# Velocity S-wave (km/s) = 3.47608 3.79315 3.63807
# Velocity P-wave (km/s) = 6.16650 6.63065 6.40278
#
# Compressibility (1/GPa) = 0.02144634
#
# Stress axis : x y z
#
# Youngs Moduli (GPa) = 69.20130 86.78532 77.51356
#
# Poissons Ratio (x) = 0.06719 0.31239
# Poissons Ratio (y) = 0.05358 0.30304
# Poissons Ratio (z) = 0.27889 0.33929
#
# Static dielectric constant tensor:
#      x y z
#    x -7.496380 0.701150 11.354980 
#    y 0.701150 4.797960 -0.622870 
#    z 11.354980 -0.622870 -7.916590 
# 
# 
# High freq. dielectric constant tensor:
#      x y z
#    x 1.835990 -0.018000 -0.004290 
#    y -0.018000 1.823990 -0.012360 
#    z -0.004290 -0.012360 1.836820 
# 
# From -- ./inp_files/403056.got.cif
#   From: 2010.06.25/outbox.cif.g09.slc.cpg/sg2_202_cif.got.tgz:403056.got - 2010.06.27 13:26:56.
