data_PCOD8016813
_publ_section_title
;
Structure prediction by ZEFSAII (Michael W. Deem and Ramdas Pophale) SiO2 
 PCOD8016813
Probable space group: P -1
;
_chemical_formula_sum "Si O2"
_cell_formula_units_Z 16
_cell_length_a 23.573057
_cell_length_b 9.144978
_cell_length_c 14.851955
_cell_angle_alpha 42.120408
_cell_angle_beta 20.017300
_cell_angle_gamma 43.267660
_cell_volume 728.215863
_symmetry_space_group_name_H-M "P -1"
_symmetry_group_IT_number 2
_symmetry_cell_setting 'triclinic'
loop_
_space_group_symop_operation_xyz
x,y,z
-x,-y,-z
loop_
_atom_site_type_symbol
_atom_site_label
_atom_site_fract_x
_atom_site_fract_y
_atom_site_fract_z
Si Si1 0.441830 0.963277 0.703495
Si Si2 0.034744 0.249976 0.347133
Si Si3 0.271915 0.841686 0.739443
Si Si4 0.320368 0.386348 0.973613
Si Si5 0.804718 0.354349 0.796453
Si Si6 0.848498 0.669250 0.046712
Si Si7 0.698904 0.241344 0.471902
Si Si8 0.006008 0.010024 0.196830
O O1 0.596757 0.981441 0.530143
O O2 0.290416 0.146274 0.872646
O O3 0.500000 0.000000 0.500000
O O4 0.374491 0.728067 0.917280
O O5 0.890779 0.398604 0.552963
O O6 0.211739 0.249453 0.134601
O O7 0.029453 0.377639 0.200894
O O8 0.000000 0.000000 0.500000
O O9 0.345665 0.619186 0.784288
O O10 0.246850 0.790330 0.697516
O O11 0.096645 0.943017 0.997919
O O12 0.502209 0.243734 0.780815
O O13 0.229587 0.431551 0.186001
O O14 0.941161 0.172017 0.723607
O O15 0.761465 0.468110 0.304646
O O16 0.940272 0.758874 0.954718
O O17 0.805695 0.047569 0.460131
#
# Coordination Sequence:
#
# PCOD8016813 Si02
#       8
#     2   2   2   2   2   2   2   2
#     4  11  16  32  60  85 113 144 184 247 280 329
#     4  12  22  38  62  86 114 151 203 243 278 336
#     4  11  20  35  58  88 121 145 193 233 294 333
#     4  11  22  37  61  88 115 149 194 251 278 333
#     4  10  22  39  62  85 116 152 198 231 291 339
#     4  11  20  36  58  88 116 152 191 240 286 339
#     4  12  22  36  58  93 119 145 192 237 298 339
#     4  10  22  36  56  87 123 157 176 233 297 356
#
# _framework density 21.971506000000002
#
# number of rings (size 3 to 8) (size 9 to 14) (size 15 to 20)
#    0.000    1.000    8.750    2.250    0.000    0.000 
#    0.000    0.625    0.000    0.750    0.000    0.000 
#    0.000    0.000    0.000    0.000    0.000    0.000 
#
# Total GULP energy -198363.633492 kJ/mol
# GULP energy per Si atom -12397.727093 kJ/mol
# Density = 2.192150 g / cm^3
# Si number density = 21.971506 Si / 1000 Ang^3
#
#
#
# Elastic Constant Matrix: (Units=GPa)
#
#
# Indices 1 2 3 4 5 6 
#
# 1 45.1540 33.5247 27.1561 19.5158 -9.2734 17.9615
# 2 33.5247 56.9529 29.2566 11.3479 -14.0038 18.0893
# 3 27.1561 29.2566 102.5545 15.5999 -13.0897 4.8361
# 4 19.5158 11.3479 15.5999 32.2319 7.2264 0.3480
# 5 -9.2734 -14.0038 -13.0897 7.2264 46.0713 7.7054
# 6 17.9615 18.0893 4.8361 0.3480 7.7054 29.9425
#
#
#
# Elastic Compliance Matrix: (Units=1/GPa)
#
#
# Indices 1 2 3 4 5 6 
#
# 1 0.075497 -0.014969 -0.004294 -0.043086 0.023038 -0.040979
# 2 -0.014969 0.036321 -0.003807 -0.003976 0.010059 -0.014891
# 3 -0.004294 -0.003807 0.012410 -0.002421 0.001462 0.002523
# 4 -0.043086 -0.003976 -0.002421 0.065277 -0.026617 0.034730
# 5 0.023038 0.010059 0.001462 -0.026617 0.038984 -0.029856
# 6 -0.040979 -0.014891 0.002523 0.034730 -0.029856 0.073847
#
#
# Mechanical properties :
#
#
# Convention : Reuss Voigt Hill
#
# Bulk Modulus (GPa) = 12.80611 42.72625 27.76618
# Shear Modulus (GPa) = 13.35092 29.29742 21.32417
#
# Velocity S-wave (km/s) = 2.46772 3.65557 3.11872
# Velocity P-wave (km/s) = 3.73640 6.10787 5.06294
#
# Compressibility (1/GPa) = 0.07808773
#
# Stress axis : x y z
#
# Youngs Moduli (GPa) = 13.24551 27.53257 80.58105
#
# Poissons Ratio (x) = 0.41214 0.34602
# Poissons Ratio (y) = 0.19828 0.30675
# Poissons Ratio (z) = 0.05688 0.10481
#
# Static dielectric constant tensor:
#      x y z
#    x 4.005040 0.506410 -0.214000 
#    y 0.506410 3.863650 0.030800 
#    z -0.214000 0.030800 4.403760 
# 
# 
# High freq. dielectric constant tensor:
#      x y z
#    x 1.849610 0.046090 -0.006350 
#    y 0.046090 1.838650 0.007110 
#    z -0.006350 0.007110 1.869600 
# 
# From -- ./inp_files/257357.got.cif
#   From: 2010.06.25/outbox.cif.g09.slc.cpg/sg2_129_cif.got.tgz:257357.got - 2010.06.27 13:26:56.
