data_PCOD8016353
_publ_section_title
;
Structure prediction by ZEFSAII (Michael W. Deem and Ramdas Pophale) SiO2 
 PCOD8016353
Probable space group: P -1
;
_chemical_formula_sum "Si O2"
_cell_formula_units_Z 10
_cell_length_a 6.361412
_cell_length_b 18.552942
_cell_length_c 4.899338
_cell_angle_alpha 115.199140
_cell_angle_beta 78.970000
_cell_angle_gamma 70.230991
_cell_volume 452.582942
_symmetry_space_group_name_H-M "P -1"
_symmetry_group_IT_number 2
_symmetry_cell_setting 'triclinic'
loop_
_space_group_symop_operation_xyz
x,y,z
-x,-y,-z
loop_
_atom_site_type_symbol
_atom_site_label
_atom_site_fract_x
_atom_site_fract_y
_atom_site_fract_z
Si Si1 0.720350 0.444419 0.565137
Si Si2 0.549087 0.887201 0.054550
Si Si3 0.607399 0.612939 0.182081
Si Si4 0.752641 0.681546 0.782038
Si Si5 0.253622 0.978868 0.768346
O O1 0.500000 0.500000 0.500000
O O2 0.651888 0.379362 0.660056
O O3 0.975971 0.376888 0.252870
O O4 0.768026 0.512450 0.855989
O O5 0.730092 0.929033 0.137093
O O6 0.311200 0.928555 0.379406
O O7 0.703334 0.780622 0.876108
O O8 0.464688 0.909565 0.800862
O O9 0.734525 0.629044 0.437813
O O10 0.567502 0.685929 0.072580
O O11 0.000000 0.000000 0.000000
#
# Coordination Sequence:
#
# PCOD8016353 Si02
#       5
#     2   2   2   2   2
#     4  11  25  43  65  92 128 178 222 255 315 380
#     4  10  23  40  64  99 123 162 214 251 318 383
#     4  11  25  42  63  91 128 176 217 257 323 367
#     4  12  25  40  65  95 133 165 213 275 308 370
#     4  10  21  44  68  90 128 166 199 259 321 385
#
# _framework density 22.095396999999998
#
# number of rings (size 3 to 8) (size 9 to 14) (size 15 to 20)
#    0.000    1.200    2.000    3.000    5.600    3.200 
#    0.000    0.000    0.000    0.000    0.000    0.000 
#    0.000    0.000    0.000    0.000    0.000    0.000 
#
# Total GULP energy -123963.236406 kJ/mol
# GULP energy per Si atom -12396.323641 kJ/mol
# Density = 2.204511 g / cm^3
# Si number density = 22.095397 Si / 1000 Ang^3
#
#
#
# Elastic Constant Matrix: (Units=GPa)
#
#
# Indices 1 2 3 4 5 6 
#
# 1 75.7501 52.7393 37.3465 14.2106 -5.3300 15.9362
# 2 52.7393 137.9492 36.0792 -0.1142 4.6526 18.4971
# 3 37.3465 36.0792 78.9354 -11.7997 3.6999 3.1423
# 4 14.2106 -0.1142 -11.7997 39.4286 1.5763 -3.6184
# 5 -5.3300 4.6526 3.6999 1.5763 29.6527 -11.1196
# 6 15.9362 18.4971 3.1423 -3.6184 -11.1196 32.1205
#
#
#
# Elastic Compliance Matrix: (Units=1/GPa)
#
#
# Indices 1 2 3 4 5 6 
#
# 1 0.029843 -0.006878 -0.013215 -0.015815 0.005381 -0.009472
# 2 -0.006878 0.010841 -0.001033 0.002008 -0.004429 -0.004037
# 3 -0.013215 -0.001033 0.021100 0.011691 -0.003523 0.005184
# 4 -0.015815 0.002008 0.011691 0.035470 -0.003360 0.008379
# 5 0.005381 -0.004429 -0.003523 -0.003360 0.041309 0.014147
# 6 -0.009472 -0.004037 0.005184 0.008379 0.014147 0.043491
#
#
# Mechanical properties :
#
#
# Convention : Reuss Voigt Hill
#
# Bulk Modulus (GPa) = 51.19715 60.55164 55.87439
# Shear Modulus (GPa) = 21.66226 31.33834 26.50030
#
# Velocity S-wave (km/s) = 3.13453 3.77014 3.46693
# Velocity P-wave (km/s) = 6.02674 6.81294 6.43186
#
# Compressibility (1/GPa) = 0.01953234
#
# Stress axis : x y z
#
# Youngs Moduli (GPa) = 33.50832 92.24436 47.39438
#
# Poissons Ratio (x) = 0.63442 0.62634
# Poissons Ratio (y) = 0.23046 0.04894
# Poissons Ratio (z) = 0.44283 0.09525
#
# Static dielectric constant tensor:
#      x y z
#    x 3.858700 0.429930 0.073780 
#    y 0.429930 4.060320 -0.266450 
#    z 0.073780 -0.266450 4.026760 
# 
# 
# High freq. dielectric constant tensor:
#      x y z
#    x 1.858540 0.027180 0.004120 
#    y 0.027180 1.872740 -0.019920 
#    z 0.004120 -0.019920 1.870320 
# 
# From -- ./inp_files/3324.got.cif
#   From: 2010.06.25/outbox.cif.g09.slc.cpg/sg2_2_cif.got.tgz:3324.got - 2010.06.27 13:26:56.
