data_PCOD8016704
_publ_section_title
;
Structure prediction by ZEFSAII (Michael W. Deem and Ramdas Pophale) SiO2 
 PCOD8016704
Probable space group: P -1
;
_chemical_formula_sum "Si O2"
_cell_formula_units_Z 16
_cell_length_a 14.355525
_cell_length_b 25.076836
_cell_length_c 18.420826
_cell_angle_alpha 161.079775
_cell_angle_beta 19.724487
_cell_angle_gamma 150.893038
_cell_volume 717.138412
_symmetry_space_group_name_H-M "P -1"
_symmetry_group_IT_number 2
_symmetry_cell_setting 'triclinic'
loop_
_space_group_symop_operation_xyz
x,y,z
-x,-y,-z
loop_
_atom_site_type_symbol
_atom_site_label
_atom_site_fract_x
_atom_site_fract_y
_atom_site_fract_z
Si Si1 0.644994 0.220123 0.381608
Si Si2 0.808458 0.008257 0.758947
Si Si3 0.945598 0.911489 0.682486
Si Si4 0.754771 0.348896 0.620707
Si Si5 0.412945 0.820732 0.333348
Si Si6 0.942697 0.438282 0.883809
Si Si7 0.681217 0.542613 0.687680
Si Si8 0.956149 0.748442 0.190278
O O1 0.754083 0.238685 0.406755
O O2 0.755735 0.354747 0.421351
O O3 0.312884 0.240579 0.649867
O O4 0.747473 0.033107 0.037131
O O5 0.811115 0.182586 0.940172
O O6 0.000553 0.001824 0.682330
O O7 0.907289 0.854594 0.436265
O O8 0.500000 0.000000 0.000000
O O9 0.219735 0.833827 0.422513
O O10 0.847918 0.736660 0.505771
O O11 0.727162 0.223391 0.545760
O O12 0.049268 0.418279 0.504900
O O13 0.500000 0.500000 0.000000
O O14 0.500000 0.000000 0.500000
O O15 0.654650 0.667958 0.938572
O O16 0.604921 0.438694 0.125142
O O17 0.046713 0.557874 0.900526
O O18 0.000000 0.500000 0.000000
#
# Coordination Sequence:
#
# PCOD8016704 Si02
#       8
#     2   2   2   2   2   2   2   2
#     4  11  23  43  73 101 134 183 241 284 344 417
#     4  11  22  44  69 100 136 182 233 285 340 414
#     4  11  24  42  70  99 143 175 226 293 351 394
#     4  12  26  46  75 100 137 192 235 284 353 417
#     4  11  26  46  68 104 141 179 232 289 351 414
#     4  10  21  46  71 102 144 183 223 294 354 411
#     4  10  24  46  70 104 140 177 239 287 344 425
#     4  10  23  42  71 101 131 181 240 273 342 430
#
# _framework density 22.310896
#
# number of rings (size 3 to 8) (size 9 to 14) (size 15 to 20)
#    0.000    1.250    3.750    1.125    3.500    2.000 
#    4.500    0.625    0.000    0.000    0.000    0.000 
#    0.000    0.000    0.000    0.000    0.000    0.000 
#
# Total GULP energy -198246.958373 kJ/mol
# GULP energy per Si atom -12390.434898 kJ/mol
# Density = 2.226012 g / cm^3
# Si number density = 22.310896 Si / 1000 Ang^3
#
#
#
# Elastic Constant Matrix: (Units=GPa)
#
#
# Indices 1 2 3 4 5 6 
#
# 1 139.3257 55.5245 36.3758 -0.0210 6.5086 -11.5342
# 2 55.5245 175.8747 72.1246 0.8569 5.6128 -19.3486
# 3 36.3758 72.1246 110.6478 25.1113 9.5403 -7.9775
# 4 -0.0210 0.8569 25.1113 38.3713 5.7888 3.7283
# 5 6.5086 5.6128 9.5403 5.7888 27.3029 4.7317
# 6 -11.5342 -19.3486 -7.9775 3.7283 4.7317 32.2314
#
#
#
# Elastic Compliance Matrix: (Units=1/GPa)
#
#
# Indices 1 2 3 4 5 6 
#
# 1 0.008536 -0.001786 -0.001656 0.001213 -0.001636 0.001673
# 2 -0.001786 0.008932 -0.005723 0.003349 -0.000643 0.003014
# 3 -0.001656 -0.005723 0.015879 -0.010085 -0.002077 0.001374
# 4 0.001213 0.003349 -0.010085 0.033512 -0.003979 -0.003344
# 5 -0.001636 -0.000643 -0.002077 -0.003979 0.039911 -0.006885
# 6 0.001673 0.003014 0.001374 -0.003344 -0.006885 0.035171
#
#
# Mechanical properties :
#
#
# Convention : Reuss Voigt Hill
#
# Bulk Modulus (GPa) = 66.57949 83.76644 75.17297
# Shear Modulus (GPa) = 30.25228 37.03603 33.64416
#
# Velocity S-wave (km/s) = 3.68631 4.07873 3.88747
# Velocity P-wave (km/s) = 6.93000 7.73356 7.34278
#
# Compressibility (1/GPa) = 0.01501964
#
# Stress axis : x y z
#
# Youngs Moduli (GPa) = 117.14425 111.95595 62.97547
#
# Poissons Ratio (x) = 0.19990 0.10429
# Poissons Ratio (y) = 0.20916 0.36038
# Poissons Ratio (z) = 0.19399 0.64067
#
# Static dielectric constant tensor:
#      x y z
#    x 3.037140 0.736160 0.133780 
#    y 0.736160 3.592310 0.157040 
#    z 0.133780 0.157040 3.908720 
# 
# 
# High freq. dielectric constant tensor:
#      x y z
#    x 1.895460 0.002630 0.003660 
#    y 0.002630 1.875550 0.024300 
#    z 0.003660 0.024300 1.873000 
# 
# From -- ./inp_files/352001.got.cif
#   From: 2010.06.25/outbox.cif.g09.slc.cpg/sg2_177_cif.got.tgz:352001.got - 2010.06.27 13:26:56.
