data_PCOD8016116
_publ_section_title
;
Structure prediction by ZEFSAII (Michael W. Deem and Ramdas Pophale) SiO2 
 PCOD8016116
Probable space group: P -1
;
_chemical_formula_sum "Si O2"
_cell_formula_units_Z 16
_cell_length_a 7.899097
_cell_length_b 11.952530
_cell_length_c 12.886545
_cell_angle_alpha 128.746493
_cell_angle_beta 51.433435
_cell_angle_gamma 101.599649
_cell_volume 705.359255
_symmetry_space_group_name_H-M "P -1"
_symmetry_group_IT_number 2
_symmetry_cell_setting 'triclinic'
loop_
_space_group_symop_operation_xyz
x,y,z
-x,-y,-z
loop_
_atom_site_type_symbol
_atom_site_label
_atom_site_fract_x
_atom_site_fract_y
_atom_site_fract_z
Si Si1 0.748440 0.922352 0.993460
Si Si2 0.185422 0.977115 0.551868
Si Si3 0.721992 0.934539 0.645837
Si Si4 0.327571 0.643505 0.339409
Si Si5 0.185859 0.526837 0.871978
Si Si6 0.051058 0.629080 0.620526
Si Si7 0.011887 0.874091 0.080409
Si Si8 0.902261 0.597443 0.373772
O O1 0.823827 0.763283 0.812264
O O2 0.796204 0.043467 0.965454
O O3 0.879669 0.901119 0.038997
O O4 0.485981 0.965877 0.149032
O O5 0.342188 0.802553 0.384402
O O6 0.925598 0.997384 0.634481
O O7 0.299533 0.056777 0.467233
O O8 0.169530 0.053674 0.715992
O O9 0.763996 0.762283 0.565576
O O10 0.574422 0.521720 0.186584
O O11 0.222048 0.688696 0.521700
O O12 0.171854 0.576826 0.282837
O O13 0.170784 0.412054 0.720837
O O14 0.132975 0.698499 0.955012
O O15 0.000000 0.500000 0.000000
O O16 0.170162 0.538963 0.624940
O O17 0.000000 0.500000 0.500000
#
# Coordination Sequence:
#
# PCOD8016116 Si02
#       8
#     2   2   2   2   2   2   2   2
#     4  11  24  43  68 101 133 175 227 287 336 399
#     4  10  22  45  65  98 137 178 227 271 348 412
#     4  10  24  41  71  98 132 183 225 277 341 404
#     4  10  24  43  70  94 134 182 221 287 344 402
#     4  12  27  43  68 102 134 183 233 275 345 415
#     4  10  21  43  70  98 134 177 225 278 352 404
#     4  11  25  43  63 102 140 169 232 282 338 411
#     4  10  23  45  65  99 137 174 231 278 341 413
#
# _framework density 22.683477
#
# number of rings (size 3 to 8) (size 9 to 14) (size 15 to 20)
#    0.000    1.500    2.500    0.750    5.250    4.000 
#    0.000    0.000    0.000    0.000    0.000    0.000 
#    0.000    0.000    0.000    0.000    0.000    0.000 
#
# Total GULP energy -198253.184767 kJ/mol
# GULP energy per Si atom -12390.824048 kJ/mol
# Density = 2.263185 g / cm^3
# Si number density = 22.683477 Si / 1000 Ang^3
#
#
#
# Elastic Constant Matrix: (Units=GPa)
#
#
# Indices 1 2 3 4 5 6 
#
# 1 61.4543 23.6721 18.3352 7.6574 2.3381 -6.8995
# 2 23.6721 128.1211 47.3751 15.0496 -15.3090 -4.6883
# 3 18.3352 47.3751 106.6300 6.6751 1.8317 7.2161
# 4 7.6574 15.0496 6.6751 35.9681 -1.3891 2.3167
# 5 2.3381 -15.3090 1.8317 -1.3891 30.7476 4.6165
# 6 -6.8995 -4.6883 7.2161 2.3167 4.6165 23.6068
#
#
#
# Elastic Compliance Matrix: (Units=1/GPa)
#
#
# Indices 1 2 3 4 5 6 
#
# 1 0.019268 -0.002486 -0.002412 -0.003205 -0.003743 0.006922
# 2 -0.002486 0.011040 -0.004514 -0.003174 0.005498 0.002082
# 3 -0.002412 -0.004514 0.012144 0.000389 -0.002026 -0.004956
# 4 -0.003205 -0.003174 0.000389 0.030076 0.000716 -0.004778
# 5 -0.003743 0.005498 -0.002026 0.000716 0.036693 -0.006629
# 6 0.006922 0.002082 -0.004956 -0.004778 -0.006629 0.048077
#
#
# Mechanical properties :
#
#
# Convention : Reuss Voigt Hill
#
# Bulk Modulus (GPa) = 42.32234 52.77446 47.54840
# Shear Modulus (GPa) = 27.17407 31.85269 29.51338
#
# Velocity S-wave (km/s) = 3.46492 3.75136 3.61098
# Velocity P-wave (km/s) = 5.89117 6.48689 6.19619
#
# Compressibility (1/GPa) = 0.02362818
#
# Stress axis : x y z
#
# Youngs Moduli (GPa) = 51.89872 90.58356 82.34238
#
# Poissons Ratio (x) = 0.22515 0.19864
# Poissons Ratio (y) = 0.12900 0.37170
# Poissons Ratio (z) = 0.12520 0.40890
#
# Static dielectric constant tensor:
#      x y z
#    x 4.170220 -0.763310 0.004420 
#    y -0.763310 5.755850 -0.288490 
#    z 0.004420 -0.288490 3.940330 
# 
# 
# High freq. dielectric constant tensor:
#      x y z
#    x 1.877070 -0.015180 0.012880 
#    y -0.015180 1.918270 -0.000430 
#    z 0.012880 -0.000430 1.889800 
# 
# From -- ./inp_files/392784.got.cif
#   From: 2010.06.25/outbox.cif.g09.slc.cpg/sg2_197_cif.got.tgz:392784.got - 2010.06.27 13:26:56.
