data_PCOD8016135
_publ_section_title
;
Structure prediction by ZEFSAII (Michael W. Deem and Ramdas Pophale) SiO2 
 PCOD8016135
Probable space group: P -1
;
_chemical_formula_sum "Si O2"
_cell_formula_units_Z 16
_cell_length_a 8.987958
_cell_length_b 18.847691
_cell_length_c 5.628253
_cell_angle_alpha 77.584906
_cell_angle_beta 113.698592
_cell_angle_gamma 127.981411
_cell_volume 687.445597
_symmetry_space_group_name_H-M "P -1"
_symmetry_group_IT_number 2
_symmetry_cell_setting 'triclinic'
loop_
_space_group_symop_operation_xyz
x,y,z
-x,-y,-z
loop_
_atom_site_type_symbol
_atom_site_label
_atom_site_fract_x
_atom_site_fract_y
_atom_site_fract_z
Si Si1 0.557292 0.113426 0.038799
Si Si2 0.728159 0.788250 0.736055
Si Si3 0.282794 0.616824 0.478134
Si Si4 0.905006 0.581016 0.516478
Si Si5 0.091694 0.873288 0.572579
Si Si6 0.838740 0.303546 0.013128
Si Si7 0.035875 0.262573 0.792231
Si Si8 0.665913 0.937915 0.582645
O O1 0.729728 0.095561 0.143552
O O2 0.647703 0.217894 0.088197
O O3 0.436040 0.058951 0.241794
O O4 0.449849 0.089345 0.728017
O O5 0.507193 0.698824 0.619098
O O6 0.729054 0.873067 0.737325
O O7 0.868423 0.816314 0.576558
O O8 0.816108 0.763385 0.023659
O O9 0.268705 0.525459 0.517192
O O10 0.124448 0.604627 0.578204
O O11 0.222656 0.635082 0.175190
O O12 0.839131 0.630726 0.271777
O O13 0.949677 0.627731 0.767277
O O14 0.099506 0.803872 0.460449
O O15 0.134806 0.959735 0.398486
O O16 0.877969 0.247466 0.896873
#
# Coordination Sequence:
#
# PCOD8016135 Si02
#       8
#     2   2   2   2   2   2   2   2
#     4  12  24  47  76 104 137 189 246 297 347 425
#     4  12  26  43  67 102 145 190 227 300 361 428
#     4  10  23  41  70 104 137 177 241 291 364 420
#     4  10  21  43  71 102 134 183 235 302 345 436
#     4  12  27  46  69 100 144 188 235 297 361 422
#     4  11  20  42  72  97 137 184 237 297 354 421
#     4  11  24  42  67  96 142 193 230 289 363 425
#     4  12  29  46  75 107 141 190 249 297 351 424
#
# _framework density 23.274567000000001
#
# number of rings (size 3 to 8) (size 9 to 14) (size 15 to 20)
#    0.000    0.750    3.750    3.000    3.500    2.000 
#    0.000    2.500    0.000    0.000    0.000    0.000 
#    0.000    0.000    0.000    0.000    0.000    0.000 
#
# Total GULP energy -198236.579908 kJ/mol
# GULP energy per Si atom -12389.786244 kJ/mol
# Density = 2.322159 g / cm^3
# Si number density = 23.274567 Si / 1000 Ang^3
#
#
#
# Elastic Constant Matrix: (Units=GPa)
#
#
# Indices 1 2 3 4 5 6 
#
# 1 69.8112 46.0152 29.0046 1.1472 2.6254 8.4732
# 2 46.0152 165.8990 20.5747 -32.6081 10.9944 -13.0622
# 3 29.0046 20.5747 88.1014 -21.8434 0.7915 -4.6423
# 4 1.1472 -32.6081 -21.8434 35.2253 -10.4355 -3.0072
# 5 2.6254 10.9944 0.7915 -10.4355 33.4041 -4.1273
# 6 8.4732 -13.0622 -4.6423 -3.0072 -4.1273 30.8220
#
#
#
# Elastic Compliance Matrix: (Units=1/GPa)
#
#
# Indices 1 2 3 4 5 6 
#
# 1 0.033678 -0.014078 -0.015951 -0.028609 -0.009249 -0.021657
# 2 -0.014078 0.013741 0.007031 0.019942 0.004287 0.013272
# 3 -0.015951 0.007031 0.021533 0.023821 0.007595 0.013949
# 4 -0.028609 0.019942 0.023821 0.071329 0.021072 0.029685
# 5 -0.009249 0.004287 0.007595 0.021072 0.037205 0.012541
# 6 -0.021657 0.013272 0.013949 0.029685 0.012541 0.050699
#
#
# Mechanical properties :
#
#
# Convention : Reuss Voigt Hill
#
# Bulk Modulus (GPa) = 43.56310 57.22229 50.39270
# Shear Modulus (GPa) = 17.74101 35.10474 26.42287
#
# Velocity S-wave (km/s) = 2.76388 3.88788 3.37303
# Velocity P-wave (km/s) = 5.37987 6.69278 6.07192
#
# Compressibility (1/GPa) = 0.02295521
#
# Stress axis : x y z
#
# Youngs Moduli (GPa) = 29.69337 72.77370 46.44075
#
# Poissons Ratio (x) = 1.02453 0.74076
# Poissons Ratio (y) = 0.41803 -0.32652
# Poissons Ratio (z) = 0.47363 -0.51167
#
# Static dielectric constant tensor:
#      x y z
#    x 3.961490 -0.021550 -0.084410 
#    y -0.021550 4.511450 -0.318470 
#    z -0.084410 -0.318470 4.327010 
# 
# 
# High freq. dielectric constant tensor:
#      x y z
#    x 1.893350 -0.006610 -0.008570 
#    y -0.006610 1.946280 -0.018620 
#    z -0.008570 -0.018620 1.922050 
# 
# From -- ./inp_files/47585.got.cif
#   From: 2010.06.25/outbox.cif.g09.slc.cpg/sg2_24_cif.got.tgz:47585.got - 2010.06.27 13:26:56.
