data_PCOD8017235
_publ_section_title
;
Structure prediction by ZEFSAII (Michael W. Deem and Ramdas Pophale) SiO2 
 PCOD8017235
Probable space group: P -1
;
_chemical_formula_sum "Si O2"
_cell_formula_units_Z 16
_cell_length_a 24.222194
_cell_length_b 8.598006
_cell_length_c 8.175835
_cell_angle_alpha 125.473487
_cell_angle_beta 51.017442
_cell_angle_gamma 147.356146
_cell_volume 708.743817
_symmetry_space_group_name_H-M "P -1"
_symmetry_group_IT_number 2
_symmetry_cell_setting 'triclinic'
loop_
_space_group_symop_operation_xyz
x,y,z
-x,-y,-z
loop_
_atom_site_type_symbol
_atom_site_label
_atom_site_fract_x
_atom_site_fract_y
_atom_site_fract_z
Si Si1 0.715458 0.710112 0.907674
Si Si2 0.107148 0.604323 0.528284
Si Si3 0.985150 0.856309 0.105156
Si Si4 0.120474 0.692048 0.195895
Si Si5 0.205421 0.163889 0.832085
Si Si6 0.477789 0.680438 0.182178
Si Si7 0.816065 0.566746 0.484288
Si Si8 0.343342 0.674747 0.647712
O O1 0.593409 0.413262 0.901215
O O2 0.788933 0.672738 0.729278
O O3 0.766547 0.980375 0.864249
O O4 0.713542 0.757457 0.133362
O O5 0.131797 0.600823 0.291513
O O6 0.163434 0.581678 0.540303
O O7 0.977891 0.354656 0.642075
O O8 0.163041 0.922836 0.637030
O O9 0.925990 0.853628 0.357940
O O10 0.906181 0.514776 0.020479
O O11 0.000000 0.000000 0.000000
O O12 0.103579 0.032752 0.048334
O O13 0.256876 0.436551 0.797417
O O14 0.408917 0.615939 0.430752
O O15 0.586558 0.024186 0.202507
O O16 0.500000 0.500000 0.000000
O O17 0.716626 0.344935 0.404858
#
# Coordination Sequence:
#
# PCOD8017235 Si02
#       8
#     2   2   2   2   2   2   2   2
#     4  11  25  42  67  94 130 168 219 271 325 387
#     4  10  22  38  63  93 130 171 218 253 318 385
#     4  11  23  37  63  94 132 177 212 250 322 385
#     4  10  23  40  60  90 130 175 212 263 310 386
#     4  11  23  42  63  98 134 170 213 266 319 396
#     4  10  24  45  73  95 123 175 222 275 341 387
#     4  11  23  39  64  97 134 172 215 264 321 389
#     4  10  23  46  69  96 136 166 218 282 326 391
#
# _framework density 22.575153
#
# number of rings (size 3 to 8) (size 9 to 14) (size 15 to 20)
#    0.000    1.500    1.250    3.000    8.750    3.500 
#    2.250    0.625    0.000    0.000    0.000    0.000 
#    0.000    0.000    0.000    0.000    0.000    0.000 
#
# Total GULP energy -198267.033755 kJ/mol
# GULP energy per Si atom -12391.689610 kJ/mol
# Density = 2.252377 g / cm^3
# Si number density = 22.575153 Si / 1000 Ang^3
#
#
#
# Elastic Constant Matrix: (Units=GPa)
#
#
# Indices 1 2 3 4 5 6 
#
# 1 123.6221 41.3641 35.5930 -1.0799 12.7571 -2.2387
# 2 41.3641 107.1513 29.9320 13.2059 5.2138 4.6509
# 3 35.5930 29.9320 80.1406 11.0573 -6.9527 11.3462
# 4 -1.0799 13.2059 11.0573 25.3829 3.0310 3.5414
# 5 12.7571 5.2138 -6.9527 3.0310 40.3175 5.0054
# 6 -2.2387 4.6509 11.3462 3.5414 5.0054 26.2216
#
#
#
# Elastic Compliance Matrix: (Units=1/GPa)
#
#
# Indices 1 2 3 4 5 6 
#
# 1 0.011444 -0.003397 -0.005497 0.004649 -0.005011 0.004287
# 2 -0.003397 0.011945 -0.002157 -0.005280 -0.000359 -0.000694
# 3 -0.005497 -0.002157 0.018441 -0.006774 0.006755 -0.008441
# 4 0.004649 -0.005280 -0.006774 0.046057 -0.005302 -0.000944
# 5 -0.005011 -0.000359 0.006755 -0.005302 0.029005 -0.008108
# 6 0.004287 -0.000694 -0.008441 -0.000944 -0.008108 0.043953
#
#
# Mechanical properties :
#
#
# Convention : Reuss Voigt Hill
#
# Bulk Modulus (GPa) = 50.69116 58.29913 54.49514
# Shear Modulus (GPa) = 26.38197 31.98607 29.18402
#
# Velocity S-wave (km/s) = 3.42223 3.76822 3.59938
# Velocity P-wave (km/s) = 6.17403 6.69426 6.43940
#
# Compressibility (1/GPa) = 0.01972731
#
# Stress axis : x y z
#
# Youngs Moduli (GPa) = 87.38182 83.71755 54.22777
#
# Poissons Ratio (x) = 0.28443 0.29809
# Poissons Ratio (y) = 0.29688 0.11696
# Poissons Ratio (z) = 0.48033 0.18056
#
# Static dielectric constant tensor:
#      x y z
#    x 4.047390 0.352920 -0.127500 
#    y 0.352920 4.023680 0.089090 
#    z -0.127500 0.089090 4.229350 
# 
# 
# High freq. dielectric constant tensor:
#      x y z
#    x 1.886530 0.014380 0.006340 
#    y 0.014380 1.881990 0.016230 
#    z 0.006340 0.016230 1.894290 
# 
# From -- ./inp_files/352415.got.cif
#   From: 2010.06.25/outbox.cif.g09.slc.cpg/sg2_177_cif.got.tgz:352415.got - 2010.06.27 13:26:56.
