data_PCOD8017140
_publ_section_title
;
Structure prediction by ZEFSAII (Michael W. Deem and Ramdas Pophale) SiO2 
 PCOD8017140
Probable space group: P -1
;
_chemical_formula_sum "Si O2"
_cell_formula_units_Z 14
_cell_length_a 17.644645
_cell_length_b 26.670994
_cell_length_c 11.404895
_cell_angle_alpha 157.657942
_cell_angle_beta 149.461536
_cell_angle_gamma 18.501061
_cell_volume 641.807506
_symmetry_space_group_name_H-M "P -1"
_symmetry_group_IT_number 2
_symmetry_cell_setting 'triclinic'
loop_
_space_group_symop_operation_xyz
x,y,z
-x,-y,-z
loop_
_atom_site_type_symbol
_atom_site_label
_atom_site_fract_x
_atom_site_fract_y
_atom_site_fract_z
Si Si1 0.739764 0.214497 0.736942
Si Si2 0.674206 0.470337 0.399589
Si Si3 0.415605 0.230695 0.227912
Si Si4 0.049371 0.540832 0.772246
Si Si5 0.608075 0.893024 0.594515
Si Si6 0.882073 0.724862 0.355171
Si Si7 0.822737 0.252462 0.669406
O O1 0.542312 0.235298 0.503664
O O2 0.795435 0.252598 0.773539
O O3 0.650193 0.382699 0.073376
O O4 0.972062 0.989945 0.621922
O O5 0.693914 0.603824 0.662667
O O6 0.418711 0.625224 0.459046
O O7 0.907435 0.307564 0.442975
O O8 0.195971 0.297643 0.130545
O O9 0.624145 0.992079 0.933373
O O10 0.000000 0.500000 0.500000
O O11 0.284403 0.317917 0.668661
O O12 0.107096 0.650426 0.060750
O O13 0.768776 0.818248 0.535450
O O14 0.322571 0.088416 0.605667
O O15 0.000000 0.500000 0.000000
#
# Coordination Sequence:
#
# PCOD8017140 Si02
#       7
#     2   2   2   2   2   2   2
#     4  10  22  38  60  93 129 172 209 259 320 377
#     4  11  21  38  64  91 125 164 214 269 312 375
#     4  11  22  39  64  97 132 166 217 258 318 385
#     4  12  23  39  62  97 139 172 205 261 321 389
#     4  11  24  40  68  95 128 169 217 270 320 366
#     4  11  23  43  68  96 122 165 229 272 307 375
#     4  10  23  36  58  91 133 162 209 254 317 379
#
# _framework density 21.813393000000001
#
# number of rings (size 3 to 8) (size 9 to 14) (size 15 to 20)
#    0.000    1.143    2.857    4.286    6.000    3.429 
#    0.000    0.714    0.000    4.286    0.000    0.000 
#    0.000    0.000    0.000    0.000    0.000    0.000 
#
# Total GULP energy -173481.286184 kJ/mol
# GULP energy per Si atom -12391.520442 kJ/mol
# Density = 2.176375 g / cm^3
# Si number density = 21.813393 Si / 1000 Ang^3
#
#
#
# Elastic Constant Matrix: (Units=GPa)
#
#
# Indices 1 2 3 4 5 6 
#
# 1 54.6614 90.3111 55.7122 -4.2921 17.8188 -4.0573
# 2 90.3111 27.9062 22.3573 23.5274 28.5337 -56.7787
# 3 55.7122 22.3573 99.7388 14.6577 14.1222 -19.6484
# 4 -4.2921 23.5274 14.6577 38.0353 -8.8622 8.8309
# 5 17.8188 28.5337 14.1222 -8.8622 36.7615 -2.7880
# 6 -4.0573 -56.7787 -19.6484 8.8309 -2.7880 21.4840
#
#
#
# Elastic Compliance Matrix: (Units=1/GPa)
#
#
# Indices 1 2 3 4 5 6 
#
# 1 0.016246 0.006591 -0.004139 -0.007665 -0.011860 0.018315
# 2 0.006591 -0.000524 -0.005805 0.005073 0.000094 -0.007522
# 3 -0.004139 -0.005805 0.012758 -0.000578 0.001163 -0.004067
# 4 -0.007665 0.005073 -0.000578 0.023253 0.005804 0.002627
# 5 -0.011860 0.000094 0.001163 0.005804 0.033913 0.001088
# 6 0.018315 -0.007522 -0.004067 0.002627 0.001088 0.025468
#
#
# Mechanical properties :
#
#
# Convention : Reuss Voigt Hill
#
# Bulk Modulus (GPa) = 45.92270 57.67416 51.79843
# Shear Modulus (GPa) = 39.97518 20.18455 30.07987
#
# Velocity S-wave (km/s) = 4.28553 3.04522 3.71747
# Velocity P-wave (km/s) = 6.75173 6.23391 6.49798
#
# Compressibility (1/GPa) = 0.02177572
#
# Stress axis : x y z
#
# Youngs Moduli (GPa) = 61.55365 -1909.19296 78.38090
#
# Poissons Ratio (x) = 12.58436 0.32439
# Poissons Ratio (y) = -0.40573 0.45501
# Poissons Ratio (z) = 0.25475 -11.08313
#
# Static dielectric constant tensor:
#      x y z
#    x 3.681280 -0.165780 -0.094590 
#    y -0.165780 4.546260 0.288610 
#    z -0.094590 0.288610 3.937530 
# 
# 
# High freq. dielectric constant tensor:
#      x y z
#    x 1.815180 -0.018550 -0.008020 
#    y -0.018550 1.884580 0.012250 
#    z -0.008020 0.012250 1.860290 
# 
# From -- ./inp_files/467630.got.cif
#   From: 2010.06.25/outbox.cif.g09.slc.cpg/sg2_234_cif.got.tgz:467630.got - 2010.06.27 13:26:56.
