data_PCOD8017538
_publ_section_title
;
Structure prediction by ZEFSAII (Michael W. Deem and Ramdas Pophale) SiO2 
 PCOD8017538
Probable space group: P -1
;
_chemical_formula_sum "Si O2"
_cell_formula_units_Z 14
_cell_length_a 8.526625
_cell_length_b 14.710967
_cell_length_c 12.538785
_cell_angle_alpha 151.900361
_cell_angle_beta 116.141286
_cell_angle_gamma 61.914863
_cell_volume 652.357549
_symmetry_space_group_name_H-M "P -1"
_symmetry_group_IT_number 2
_symmetry_cell_setting 'triclinic'
loop_
_space_group_symop_operation_xyz
x,y,z
-x,-y,-z
loop_
_atom_site_type_symbol
_atom_site_label
_atom_site_fract_x
_atom_site_fract_y
_atom_site_fract_z
Si Si1 0.161640 0.952914 0.919477
Si Si2 0.551750 0.974077 0.366541
Si Si3 0.321238 0.726513 0.919798
Si Si4 0.831294 0.623347 0.136323
Si Si5 0.386652 0.621539 0.288670
Si Si6 0.090168 0.670103 0.430435
Si Si7 0.950250 0.634955 0.728522
O O1 0.313794 0.798459 0.867250
O O2 0.100075 0.864829 0.700968
O O3 0.205794 0.169916 0.134325
O O4 0.000000 0.000000 0.000000
O O5 0.743609 0.825893 0.258888
O O6 0.500000 0.000000 0.500000
O O7 0.563510 0.177307 0.524883
O O8 0.395206 0.890031 0.176871
O O9 0.443826 0.511500 0.742002
O O10 0.129455 0.710036 0.894167
O O11 0.891992 0.678617 0.329685
O O12 0.679396 0.487940 0.948373
O O13 0.000000 0.500000 0.000000
O O14 0.231340 0.655036 0.363391
O O15 0.128472 0.481618 0.323486
O O16 0.000000 0.500000 0.500000
#
# Coordination Sequence:
#
# PCOD8017538 Si02
#       7
#     2   2   2   2   2   2   2
#     4  10  22  39  62 100 125 165 218 263 323 380
#     4  11  26  40  68  98 132 174 220 270 331 385
#     4  10  24  42  65  93 134 164 219 271 322 389
#     4   9  23  43  65  96 133 170 221 263 329 388
#     4  10  25  45  64  95 136 171 216 265 329 387
#     4  11  23  41  69  94 130 174 213 267 327 379
#     4  11  23  40  68  94 129 165 220 268 317 386
#
# _framework density 21.460623999999999
#
# number of rings (size 3 to 8) (size 9 to 14) (size 15 to 20)
#    0.000    1.714    2.857    0.000   10.000    7.429 
#    0.000    1.429    0.000    0.000    0.000    0.000 
#    0.000    0.000    0.000    0.000    0.000    0.000 
#
# Total GULP energy -173492.487344 kJ/mol
# GULP energy per Si atom -12392.320525 kJ/mol
# Density = 2.141178 g / cm^3
# Si number density = 21.460624 Si / 1000 Ang^3
#
#
#
# Elastic Constant Matrix: (Units=GPa)
#
#
# Indices 1 2 3 4 5 6 
#
# 1 69.3428 44.3454 36.4099 5.9750 8.2465 10.5830
# 2 44.3454 146.9206 83.1710 22.0659 8.9315 4.2937
# 3 36.4099 83.1710 157.6538 6.6100 10.7193 7.1424
# 4 5.9750 22.0659 6.6100 51.5445 5.5410 2.5879
# 5 8.2465 8.9315 10.7193 5.5410 26.0911 6.5349
# 6 10.5830 4.2937 7.1424 2.5879 6.5349 39.5391
#
#
#
# Elastic Compliance Matrix: (Units=1/GPa)
#
#
# Indices 1 2 3 4 5 6 
#
# 1 0.019136 -0.004643 -0.001616 0.000486 -0.002928 -0.003874
# 2 -0.004643 0.011520 -0.004900 -0.003829 0.000071 0.001116
# 3 -0.001616 -0.004900 0.009394 0.001302 -0.001818 -0.000517
# 4 0.000486 -0.003829 0.001302 0.021252 -0.003709 -0.000727
# 5 -0.002928 0.000071 -0.001818 -0.003709 0.042171 -0.005623
# 6 -0.003874 0.001116 -0.000517 -0.000727 -0.005623 0.027277
#
#
# Mechanical properties :
#
#
# Convention : Reuss Voigt Hill
#
# Bulk Modulus (GPa) = 56.39432 77.97441 67.18436
# Shear Modulus (GPa) = 31.45085 37.43433 34.44259
#
# Velocity S-wave (km/s) = 3.83236 4.18104 4.01049
# Velocity P-wave (km/s) = 6.77626 7.72792 7.26768
#
# Compressibility (1/GPa) = 0.01773228
#
# Stress axis : x y z
#
# Youngs Moduli (GPa) = 52.25657 86.80810 106.45573
#
# Poissons Ratio (x) = 0.40305 0.17202
# Poissons Ratio (y) = 0.24263 0.52161
# Poissons Ratio (z) = 0.08444 0.42534
#
# Static dielectric constant tensor:
#      x y z
#    x 3.581110 -0.237000 -0.012700 
#    y -0.237000 4.876310 -0.048350 
#    z -0.012700 -0.048350 3.757940 
# 
# 
# High freq. dielectric constant tensor:
#      x y z
#    x 1.809470 -0.008610 0.008680 
#    y -0.008610 1.857100 0.004700 
#    z 0.008680 0.004700 1.863130 
# 
# From -- ./inp_files/78703.got.cif
#   From: 2010.06.25/outbox.cif.g09.slc.cpg/sg2_40_cif.got.tgz:78703.got - 2010.06.27 13:26:56.
