data_PCOD8017198
_publ_section_title
;
Structure prediction by ZEFSAII (Michael W. Deem and Ramdas Pophale) SiO2 
 PCOD8017198
Probable space group: P -1
;
_chemical_formula_sum "Si O2"
_cell_formula_units_Z 16
_cell_length_a 9.349843
_cell_length_b 18.589367
_cell_length_c 5.218301
_cell_angle_alpha 80.618207
_cell_angle_beta 72.087067
_cell_angle_gamma 120.776977
_cell_volume 682.156400
_symmetry_space_group_name_H-M "P -1"
_symmetry_group_IT_number 2
_symmetry_cell_setting 'triclinic'
loop_
_space_group_symop_operation_xyz
x,y,z
-x,-y,-z
loop_
_atom_site_type_symbol
_atom_site_label
_atom_site_fract_x
_atom_site_fract_y
_atom_site_fract_z
Si Si1 0.327238 0.741037 0.489938
Si Si2 0.180145 0.549380 0.548848
Si Si3 0.439845 0.371155 0.012242
Si Si4 0.642419 0.507377 0.222700
Si Si5 0.275999 0.184124 0.995533
Si Si6 0.742896 0.971181 0.661746
Si Si7 0.317461 0.829157 0.956530
Si Si8 0.103524 0.911377 0.990063
O O1 0.197544 0.631752 0.632018
O O2 0.541398 0.784967 0.280549
O O3 0.249766 0.772139 0.291893
O O4 0.320881 0.771859 0.758933
O O5 0.376716 0.585984 0.288373
O O6 0.163890 0.474908 0.795734
O O7 0.000000 0.500000 0.500000
O O8 0.314836 0.409720 0.025740
O O9 0.306110 0.262884 0.116937
O O10 0.527032 0.405453 0.224837
O O11 0.500000 0.500000 0.500000
O O12 0.211616 0.100427 0.268847
O O13 0.119381 0.155402 0.886448
O O14 0.522078 0.923568 0.830261
O O15 0.191302 0.990884 0.683208
O O16 0.847393 0.049608 0.772833
O O17 0.175741 0.850887 0.941427
#
# Coordination Sequence:
#
# PCOD8017198 Si02
#       8
#     2   2   2   2   2   2   2   2
#     4  10  24  43  64  94 130 170 215 258 325 382
#     4  10  22  38  62  93 123 168 209 264 314 380
#     4   9  20  42  62  91 123 168 208 255 325 376
#     4   9  19  39  63  89 124 160 209 254 319 382
#     4  10  23  41  65  95 126 169 212 270 312 381
#     4  11  23  41  65  94 130 168 213 264 325 378
#     4  11  23  44  66  92 128 174 210 264 321 385
#     4  12  24  42  64  98 127 168 219 267 316 379
#
# _framework density 23.455033
#
# number of rings (size 3 to 8) (size 9 to 14) (size 15 to 20)
#    0.000    1.750    0.000    3.750    5.250    3.500 
#   13.500    0.000    0.000    0.000    0.000    0.000 
#    0.000    0.000    0.000    0.000    0.000    0.000 
#
# Total GULP energy -198292.870781 kJ/mol
# GULP energy per Si atom -12393.304424 kJ/mol
# Density = 2.340165 g / cm^3
# Si number density = 23.455033 Si / 1000 Ang^3
#
#
#
# Elastic Constant Matrix: (Units=GPa)
#
#
# Indices 1 2 3 4 5 6 
#
# 1 165.2390 59.7596 2.8835 -4.0699 33.0421 -1.8786
# 2 59.7596 134.1369 12.1179 26.9787 3.8363 -11.1834
# 3 2.8835 12.1179 49.2013 17.3860 16.7849 2.8714
# 4 -4.0699 26.9787 17.3860 30.3339 3.1492 6.1759
# 5 33.0421 3.8363 16.7849 3.1492 24.0544 2.5650
# 6 -1.8786 -11.1834 2.8714 6.1759 2.5650 23.6217
#
#
#
# Elastic Compliance Matrix: (Units=1/GPa)
#
#
# Indices 1 2 3 4 5 6 
#
# 1 0.013276 -0.007723 0.005861 0.008184 -0.021837 -0.003081
# 2 -0.007723 0.014860 -0.001513 -0.016456 0.010405 0.009777
# 3 0.005861 -0.001513 0.036697 -0.016223 -0.031609 0.002963
# 4 0.008184 -0.016456 -0.016223 0.062650 -0.003240 -0.021196
# 5 -0.021837 0.010405 -0.031609 -0.003240 0.092622 -0.002179
# 6 -0.003081 0.009777 0.002963 -0.021196 -0.002179 0.052136
#
#
# Mechanical properties :
#
#
# Convention : Reuss Voigt Hill
#
# Bulk Modulus (GPa) = 17.21630 55.34437 36.28034
# Shear Modulus (GPa) = 16.75888 33.85642 25.30765
#
# Velocity S-wave (km/s) = 2.67593 3.80341 3.28836
# Velocity P-wave (km/s) = 4.11139 6.55249 5.46986
#
# Compressibility (1/GPa) = 0.05808447
#
# Stress axis : x y z
#
# Youngs Moduli (GPa) = 75.32550 67.29699 27.25047
#
# Poissons Ratio (x) = 0.51970 -0.15973
# Poissons Ratio (y) = 0.58170 0.04122
# Poissons Ratio (z) = -0.44152 0.10180
#
# Static dielectric constant tensor:
#      x y z
#    x 4.907170 -0.349520 0.559950 
#    y -0.349520 4.132070 -0.130480 
#    z 0.559950 -0.130480 4.177400 
# 
# 
# High freq. dielectric constant tensor:
#      x y z
#    x 1.943510 -0.011230 0.017900 
#    y -0.011230 1.930710 0.016370 
#    z 0.017900 0.016370 1.914620 
# 
# From -- ./inp_files/44600.got.cif
#   From: 2010.06.25/outbox.cif.g09.slc.cpg/sg2_23_cif.got.tgz:44600.got - 2010.06.27 13:26:56.
