data_PCOD8017384
_publ_section_title
;
Structure prediction by ZEFSAII (Michael W. Deem and Ramdas Pophale) SiO2 
 PCOD8017384
Probable space group: P -1
;
_chemical_formula_sum "Si O2"
_cell_formula_units_Z 16
_cell_length_a 9.505912
_cell_length_b 25.954635
_cell_length_c 9.413098
_cell_angle_alpha 153.699223
_cell_angle_beta 55.436382
_cell_angle_gamma 133.167614
_cell_volume 742.886614
_symmetry_space_group_name_H-M "P -1"
_symmetry_group_IT_number 2
_symmetry_cell_setting 'triclinic'
loop_
_space_group_symop_operation_xyz
x,y,z
-x,-y,-z
loop_
_atom_site_type_symbol
_atom_site_label
_atom_site_fract_x
_atom_site_fract_y
_atom_site_fract_z
Si Si1 0.201133 0.123114 0.745793
Si Si2 0.941350 0.868626 0.621330
Si Si3 0.703234 0.583093 0.175542
Si Si4 0.954917 0.456821 0.760214
Si Si5 0.296799 0.414330 0.478963
Si Si6 0.310501 0.070666 0.281921
Si Si7 0.294652 0.841932 0.871408
Si Si8 0.285950 0.946638 0.437000
O O1 0.369433 0.147989 0.591769
O O2 0.260428 0.075670 0.738095
O O3 0.195538 0.258212 0.113636
O O4 0.000000 0.000000 0.500000
O O5 0.797885 0.737995 0.467798
O O6 0.836480 0.882538 0.577024
O O7 0.132131 0.861461 0.438302
O O8 0.000000 0.000000 0.000000
O O9 0.669816 0.562711 0.313752
O O10 0.500000 0.500000 0.000000
O O11 0.864565 0.537358 0.925775
O O12 0.787520 0.307579 0.491525
O O13 0.156734 0.465683 0.611541
O O14 0.000000 0.500000 0.000000
O O15 0.500000 0.500000 0.500000
O O16 0.475405 0.095589 0.135155
O O17 0.208279 0.913285 0.992087
O O18 0.250791 0.856094 0.095026
O O19 0.500000 0.000000 0.500000
#
# Coordination Sequence:
#
# PCOD8017384 Si02
#       8
#     2   2   2   2   2   2   2   2
#     4  11  22  41  71  98 132 175 235 285 342 409
#     4  12  25  41  71  97 142 177 228 283 355 407
#     4  11  27  47  69 103 142 186 229 282 357 421
#     4  10  24  42  67  92 137 177 229 272 336 409
#     4  11  26  45  71  99 136 184 236 284 340 415
#     4  10  22  38  70  98 129 175 225 282 346 402
#     4  10  22  41  66  98 133 172 229 283 333 407
#     4  11  24  41  64 104 139 175 224 291 349 407
#
# _framework density 21.537607999999999
#
# number of rings (size 3 to 8) (size 9 to 14) (size 15 to 20)
#    0.000    1.250    1.250    3.750    8.750    2.000 
#    0.000    1.250    0.000    0.000    0.000    0.000 
#    0.000    0.000    0.000    0.000    0.000    0.000 
#
# Total GULP energy -198233.245362 kJ/mol
# GULP energy per Si atom -12389.577835 kJ/mol
# Density = 2.148859 g / cm^3
# Si number density = 21.537608 Si / 1000 Ang^3
#
#
#
# Elastic Constant Matrix: (Units=GPa)
#
#
# Indices 1 2 3 4 5 6 
#
# 1 139.9436 42.2499 44.0225 14.7890 -13.8012 6.6295
# 2 42.2499 126.4502 46.1443 -3.5469 5.9851 11.7774
# 3 44.0225 46.1443 135.7669 11.0376 -1.4260 5.4653
# 4 14.7890 -3.5469 11.0376 37.3880 3.0700 -2.6585
# 5 -13.8012 5.9851 -1.4260 3.0700 33.9993 -2.9001
# 6 6.6295 11.7774 5.4653 -2.6585 -2.9001 28.5649
#
#
#
# Elastic Compliance Matrix: (Units=1/GPa)
#
#
# Indices 1 2 3 4 5 6 
#
# 1 0.009416 -0.002787 -0.001717 -0.003898 0.004541 -0.000610
# 2 -0.002787 0.010409 -0.002786 0.002982 -0.003623 -0.003202
# 3 -0.001717 -0.002786 0.009076 -0.002320 0.000352 -0.000370
# 4 -0.003898 0.002982 -0.002320 0.029813 -0.004691 0.002418
# 5 0.004541 -0.003623 0.000352 -0.004691 0.032609 0.003247
# 6 -0.000610 -0.003202 -0.000370 0.002418 0.003247 0.037095
#
#
# Mechanical properties :
#
#
# Convention : Reuss Voigt Hill
#
# Bulk Modulus (GPa) = 69.82093 74.11045 71.96569
# Shear Modulus (GPa) = 33.83588 37.97336 35.90462
#
# Velocity S-wave (km/s) = 3.96790 4.20351 4.08740
# Velocity P-wave (km/s) = 7.31306 7.61865 7.46742
#
# Compressibility (1/GPa) = 0.01432235
#
# Stress axis : x y z
#
# Youngs Moduli (GPa) = 106.20380 96.06613 110.17790
#
# Poissons Ratio (x) = 0.26775 0.18914
# Poissons Ratio (y) = 0.29600 0.30694
# Poissons Ratio (z) = 0.18232 0.26762
#
# Static dielectric constant tensor:
#      x y z
#    x 4.016090 0.041630 -0.308220 
#    y 0.041630 3.980970 -0.217740 
#    z -0.308220 -0.217740 4.119080 
# 
# 
# High freq. dielectric constant tensor:
#      x y z
#    x 1.849590 0.008590 -0.013800 
#    y 0.008590 1.844370 -0.012150 
#    z -0.013800 -0.012150 1.851230 
# 
# From -- ./inp_files/226768.got.cif
#   From: 2010.06.25/outbox.cif.g09.slc.cpg/sg2_114_cif.got.tgz:226768.got - 2010.06.27 13:26:56.
