data_PCOD8017613
_publ_section_title
;
Structure prediction by ZEFSAII (Michael W. Deem and Ramdas Pophale) SiO2 
 PCOD8017613
Probable space group: P -1
;
_chemical_formula_sum "Si O2"
_cell_formula_units_Z 14
_cell_length_a 15.224081
_cell_length_b 11.622996
_cell_length_c 8.039991
_cell_angle_alpha 75.072409
_cell_angle_beta 64.397558
_cell_angle_gamma 130.337084
_cell_volume 609.980218
_symmetry_space_group_name_H-M "P -1"
_symmetry_group_IT_number 2
_symmetry_cell_setting 'triclinic'
loop_
_space_group_symop_operation_xyz
x,y,z
-x,-y,-z
loop_
_atom_site_type_symbol
_atom_site_label
_atom_site_fract_x
_atom_site_fract_y
_atom_site_fract_z
Si Si1 0.037391 0.140246 0.282390
Si Si2 0.550558 0.073221 0.740031
Si Si3 0.691643 0.401047 0.912735
Si Si4 0.671530 0.942862 0.198977
Si Si5 0.068811 0.478821 0.590456
Si Si6 0.604255 0.743873 0.674411
Si Si7 0.642610 0.674218 0.168388
O O1 0.150808 0.377956 0.167679
O O2 0.168026 0.212449 0.008395
O O3 0.000000 0.000000 0.500000
O O4 0.828938 0.959917 0.452206
O O5 0.790601 0.314582 0.456464
O O6 0.496364 0.145230 0.690832
O O7 0.500000 0.000000 0.000000
O O8 0.422776 0.838242 0.831112
O O9 0.807175 0.495050 0.612224
O O10 0.513596 0.307707 0.067870
O O11 0.600491 0.814510 0.479409
O O12 0.702932 0.876685 0.052593
O O13 0.882173 0.231534 0.935518
O O14 0.000000 0.500000 0.500000
O O15 0.476499 0.486039 0.844875
O O16 0.500000 0.500000 0.500000
#
# Coordination Sequence:
#
# PCOD8017613 Si02
#       7
#     2   2   2   2   2   2   2
#     4  11  24  42  64  94 126 166 211 256 312 368
#     4  10  22  39  63  90 125 159 205 256 309 364
#     4  10  23  41  64  90 131 161 208 257 310 373
#     4  11  22  41  66  92 125 166 208 257 311 366
#     4  11  22  39  63  95 119 161 214 253 304 366
#     4  10  25  42  62  92 130 168 204 255 317 369
#     4   9  22  42  65  93 126 160 212 256 314 368
#
# _framework density 22.951561999999999
#
# number of rings (size 3 to 8) (size 9 to 14) (size 15 to 20)
#    0.000    1.714    2.857    0.857    2.000   14.286 
#    0.000    1.429    0.000    0.000    0.000    0.000 
#    0.000    0.000    0.000    0.000    0.000    0.000 
#
# Total GULP energy -173455.911624 kJ/mol
# GULP energy per Si atom -12389.707973 kJ/mol
# Density = 2.289932 g / cm^3
# Si number density = 22.951562 Si / 1000 Ang^3
#
#
#
# Elastic Constant Matrix: (Units=GPa)
#
#
# Indices 1 2 3 4 5 6 
#
# 1 127.5424 49.9369 26.4484 -16.0820 -25.8982 7.6309
# 2 49.9369 96.8293 18.0103 -31.2941 -14.2939 -12.2936
# 3 26.4484 18.0103 83.7826 -17.6676 -30.2104 2.7453
# 4 -16.0820 -31.2941 -17.6676 53.4834 -0.6369 -6.6127
# 5 -25.8982 -14.2939 -30.2104 -0.6369 46.4084 -6.6411
# 6 7.6309 -12.2936 2.7453 -6.6127 -6.6411 32.9432
#
#
#
# Elastic Compliance Matrix: (Units=1/GPa)
#
#
# Indices 1 2 3 4 5 6 
#
# 1 0.011167 -0.005986 -0.001264 -0.001064 0.002930 -0.004338
# 2 -0.005986 0.019122 0.001839 0.011523 0.005595 0.011810
# 3 -0.001264 0.001839 0.017611 0.007067 0.011899 0.003329
# 4 -0.001064 0.011523 0.007067 0.029019 0.009632 0.011724
# 5 0.002930 0.005595 0.011899 0.009632 0.034104 0.009226
# 6 -0.004338 0.011810 0.003329 0.011724 0.009226 0.039703
#
#
# Mechanical properties :
#
#
# Convention : Reuss Voigt Hill
#
# Bulk Modulus (GPa) = 26.97016 55.21615 41.09315
# Shear Modulus (GPa) = 28.75127 40.81759 34.78443
#
# Velocity S-wave (km/s) = 3.54318 4.22171 3.89724
# Velocity P-wave (km/s) = 5.33997 6.91908 6.18017
#
# Compressibility (1/GPa) = 0.03707802
#
# Stress axis : x y z
#
# Youngs Moduli (GPa) = 89.55295 52.29654 56.78314
#
# Poissons Ratio (x) = 0.31304 0.07178
# Poissons Ratio (y) = 0.53605 -0.10445
# Poissons Ratio (z) = 0.11321 -0.09619
#
# Static dielectric constant tensor:
#      x y z
#    x 3.739380 -0.485120 -0.092280 
#    y -0.485120 5.577920 -0.598180 
#    z -0.092280 -0.598180 4.579140 
# 
# 
# High freq. dielectric constant tensor:
#      x y z
#    x 1.894350 -0.018830 -0.016640 
#    y -0.018830 1.905200 -0.025590 
#    z -0.016640 -0.025590 1.919210 
# 
# From -- ./inp_files/306979.got.cif
#   From: 2010.06.25/outbox.cif.g09.slc.cpg/sg2_154_cif.got.tgz:306979.got - 2010.06.27 13:26:56.
