data_PCOD8017266
_publ_section_title
;
Structure prediction by ZEFSAII (Michael W. Deem and Ramdas Pophale) SiO2 
 PCOD8017266
Probable space group: P -1
;
_chemical_formula_sum "Si O2"
_cell_formula_units_Z 14
_cell_length_a 8.584411
_cell_length_b 12.786918
_cell_length_c 14.050160
_cell_angle_alpha 130.816225
_cell_angle_beta 148.202715
_cell_angle_gamma 60.009265
_cell_volume 608.990958
_symmetry_space_group_name_H-M "P -1"
_symmetry_group_IT_number 2
_symmetry_cell_setting 'triclinic'
loop_
_space_group_symop_operation_xyz
x,y,z
-x,-y,-z
loop_
_atom_site_type_symbol
_atom_site_label
_atom_site_fract_x
_atom_site_fract_y
_atom_site_fract_z
Si Si1 0.099307 0.681297 0.197736
Si Si2 0.188197 0.106854 0.091479
Si Si3 0.847796 0.036879 0.679342
Si Si4 0.079680 0.414984 0.672042
Si Si5 0.301310 0.543335 0.051806
Si Si6 0.363843 0.400125 0.451574
Si Si7 0.870233 0.100607 0.416399
O O1 0.116461 0.846009 0.315982
O O2 0.123944 0.651735 0.079708
O O3 0.383370 0.628044 0.361151
O O4 0.783053 0.606835 0.028921
O O5 0.196644 0.257443 0.234417
O O6 0.514894 0.064440 0.217283
O O7 0.024194 0.094854 0.898209
O O8 0.000000 0.000000 0.000000
O O9 0.500000 0.000000 0.500000
O O10 0.999423 0.916558 0.633351
O O11 0.346629 0.398030 0.727888
O O12 0.848620 0.499969 0.546472
O O13 0.950913 0.269440 0.572973
O O14 0.195588 0.529628 0.880582
O O15 0.500000 0.500000 0.500000
O O16 0.000000 0.000000 0.500000
#
# Coordination Sequence:
#
# PCOD8017266 Si02
#       7
#     2   2   2   2   2   2   2
#     4  11  23  42  67  99 134 177 231 287 348 406
#     4  12  27  47  74 104 139 191 236 291 359 419
#     4  12  26  46  72 101 141 184 240 292 351 425
#     4  11  23  42  66  97 137 181 231 281 349 410
#     4  10  22  38  64  97 130 175 227 280 340 414
#     4  12  23  44  70  98 141 179 227 289 347 414
#     4  12  25  45  68 102 146 187 235 292 351 422
#
# _framework density 22.988848000000001
#
# number of rings (size 3 to 8) (size 9 to 14) (size 15 to 20)
#    0.000    0.571    2.857    5.571    2.000    5.143 
#    0.000    1.429    0.000    0.000    0.000    0.000 
#    0.000    0.000    0.000    0.000    0.000    0.000 
#
# Total GULP energy -173476.617736 kJ/mol
# GULP energy per Si atom -12391.186981 kJ/mol
# Density = 2.293652 g / cm^3
# Si number density = 22.988848 Si / 1000 Ang^3
#
#
#
# Elastic Constant Matrix: (Units=GPa)
#
#
# Indices 1 2 3 4 5 6 
#
# 1 99.8805 21.8854 36.0168 1.8990 30.0807 -2.9325
# 2 21.8854 135.0273 54.6637 1.2289 12.9235 6.5744
# 3 36.0168 54.6637 123.3749 1.8879 25.0057 3.9002
# 4 1.8990 1.2289 1.8879 37.8147 -2.6035 0.5432
# 5 30.0807 12.9235 25.0057 -2.6035 51.6087 2.4607
# 6 -2.9325 6.5744 3.9002 0.5432 2.4607 29.4569
#
#
#
# Elastic Compliance Matrix: (Units=1/GPa)
#
#
# Indices 1 2 3 4 5 6 
#
# 1 0.013009 -0.000685 -0.002237 -0.000999 -0.006487 0.002305
# 2 -0.000685 0.009131 -0.003800 -0.000048 0.000028 -0.001604
# 3 -0.002237 -0.003800 0.011101 -0.000525 -0.003123 -0.000574
# 4 -0.000999 -0.000048 -0.000525 0.026686 0.002228 -0.000698
# 5 -0.006487 0.000028 -0.003123 0.002228 0.024889 -0.002359
# 6 0.002305 -0.001604 -0.000574 -0.000698 -0.002359 0.034821
#
#
# Mechanical properties :
#
#
# Convention : Reuss Voigt Hill
#
# Bulk Modulus (GPa) = 50.51163 64.82385 57.66774
# Shear Modulus (GPa) = 35.79593 40.15718 37.97656
#
# Velocity S-wave (km/s) = 3.95029 4.18402 4.06883
# Velocity P-wave (km/s) = 6.54418 7.18335 6.87120
#
# Compressibility (1/GPa) = 0.01979742
#
# Stress axis : x y z
#
# Youngs Moduli (GPa) = 76.86886 109.51471 90.08124
#
# Poissons Ratio (x) = 0.07504 0.20150
# Poissons Ratio (y) = 0.05267 0.34231
# Poissons Ratio (z) = 0.17194 0.41615
#
# Static dielectric constant tensor:
#      x y z
#    x 4.072130 0.633900 -0.048440 
#    y 0.633900 1.967990 1.036880 
#    z -0.048440 1.036880 5.115160 
# 
# 
# High freq. dielectric constant tensor:
#      x y z
#    x 1.921060 -0.005850 0.004710 
#    y -0.005850 1.908750 0.009440 
#    z 0.004710 0.009440 1.912490 
# 
# From -- ./inp_files/306859.got.cif
#   From: 2010.06.25/outbox.cif.g09.slc.cpg/sg2_154_cif.got.tgz:306859.got - 2010.06.27 13:26:56.
