data_PCOD8017879
_publ_section_title
;
Structure prediction by ZEFSAII (Michael W. Deem and Ramdas Pophale) SiO2 
 PCOD8017879
Probable space group: P -1
;
_chemical_formula_sum "Si O2"
_cell_formula_units_Z 14
_cell_length_a 12.783065
_cell_length_b 5.965365
_cell_length_c 16.056462
_cell_angle_alpha 135.516043
_cell_angle_beta 44.969780
_cell_angle_gamma 113.191337
_cell_volume 590.926658
_symmetry_space_group_name_H-M "P -1"
_symmetry_group_IT_number 2
_symmetry_cell_setting 'triclinic'
loop_
_space_group_symop_operation_xyz
x,y,z
-x,-y,-z
loop_
_atom_site_type_symbol
_atom_site_label
_atom_site_fract_x
_atom_site_fract_y
_atom_site_fract_z
Si Si1 0.783071 0.840683 0.288153
Si Si2 0.945200 0.833070 0.778015
Si Si3 0.825411 0.434148 0.615802
Si Si4 0.471959 0.380893 0.079419
Si Si5 0.630598 0.554232 0.600656
Si Si6 0.664304 0.374969 0.117635
Si Si7 0.162031 0.282316 0.600910
O O1 0.755118 0.638583 0.169733
O O2 0.780079 0.631445 0.318191
O O3 0.655733 0.177813 0.456328
O O4 0.952391 0.902711 0.209419
O O5 0.947967 0.637913 0.635123
O O6 0.016805 0.562461 0.733637
O O7 0.774894 0.018670 0.946761
O O8 0.703566 0.451438 0.763637
O O9 0.740682 0.601690 0.626558
O O10 0.897658 0.052875 0.455783
O O11 0.583042 0.526099 0.117620
O O12 0.500000 0.500000 0.000000
O O13 0.500000 0.000000 0.000000
O O14 0.456991 0.685892 0.760651
O O15 0.684822 0.760599 0.551702
#
# Coordination Sequence:
#
# PCOD8017879 Si02
#       7
#     2   2   2   2   2   2   2
#     4  10  23  44  62  95 135 181 231 277 349 423
#     4  11  23  41  63  97 138 174 237 279 352 418
#     4  10  22  39  67  95 134 180 227 290 345 411
#     4  11  25  46  70 107 143 178 236 296 363 418
#     4   9  22  42  66  93 131 168 243 279 355 407
#     4  11  23  44  69  97 135 179 224 296 349 417
#     4  10  23  40  63  97 133 185 223 287 340 425
#
# _framework density 23.691602
#
# number of rings (size 3 to 8) (size 9 to 14) (size 15 to 20)
#    0.000    1.714    1.429    1.286    4.000    8.571 
#    5.143    0.000    0.000    0.000    0.000    0.000 
#    0.000    0.000    0.000    0.000    0.000    0.000 
#
# Total GULP energy -173448.866636 kJ/mol
# GULP energy per Si atom -12389.204760 kJ/mol
# Density = 2.363768 g / cm^3
# Si number density = 23.691602 Si / 1000 Ang^3
#
#
#
# Elastic Constant Matrix: (Units=GPa)
#
#
# Indices 1 2 3 4 5 6 
#
# 1 124.0728 54.8479 30.3437 5.8852 34.0370 17.8626
# 2 54.8479 99.2453 14.7639 -4.3204 13.0686 -6.6307
# 3 30.3437 14.7639 69.9349 9.0965 0.9548 -0.6153
# 4 5.8852 -4.3204 9.0965 29.1100 7.4215 7.2399
# 5 34.0370 13.0686 0.9548 7.4215 51.8545 1.0424
# 6 17.8626 -6.6307 -0.6153 7.2399 1.0424 33.7092
#
#
#
# Elastic Compliance Matrix: (Units=1/GPa)
#
#
# Indices 1 2 3 4 5 6 
#
# 1 0.016992 -0.007924 -0.005969 0.002294 -0.009156 -0.010881
# 2 -0.007924 0.014825 0.000115 0.001830 0.001067 0.006691
# 3 -0.005969 0.000115 0.017709 -0.006628 0.004415 0.004796
# 4 0.002294 0.001830 -0.006628 0.040478 -0.007449 -0.009440
# 5 -0.009156 0.001067 0.004415 -0.007449 0.025891 0.005941
# 6 -0.010881 0.006691 0.004796 -0.009440 0.005941 0.038679
#
#
# Mechanical properties :
#
#
# Convention : Reuss Voigt Hill
#
# Bulk Modulus (GPa) = 45.51920 54.79599 50.15759
# Shear Modulus (GPa) = 26.39165 35.82123 31.10644
#
# Velocity S-wave (km/s) = 3.34123 3.89264 3.62743
# Velocity P-wave (km/s) = 5.84295 6.58654 6.22586
#
# Compressibility (1/GPa) = 0.02196875
#
# Stress axis : x y z
#
# Youngs Moduli (GPa) = 58.85070 67.45579 56.46946
#
# Poissons Ratio (x) = 0.53453 0.33706
# Poissons Ratio (y) = 0.46634 -0.00648
# Poissons Ratio (z) = 0.35128 -0.00775
#
# Static dielectric constant tensor:
#      x y z
#    x 4.437910 -0.011150 0.151960 
#    y -0.011150 4.192370 -0.087080 
#    z 0.151960 -0.087080 4.520620 
# 
# 
# High freq. dielectric constant tensor:
#      x y z
#    x 1.942180 0.008330 0.004370 
#    y 0.008330 1.927430 -0.006520 
#    z 0.004370 -0.006520 1.947820 
# 
# From -- ./inp_files/67335.got.cif
#   From: 2010.06.25/outbox.cif.g09.slc.cpg/sg2_34_cif.got.tgz:67335.got - 2010.06.27 13:26:56.
