data_PCOD8017287
_publ_section_title
;
Structure prediction by ZEFSAII (Michael W. Deem and Ramdas Pophale) SiO2 
 PCOD8017287
Probable space group: P -1
;
_chemical_formula_sum "Si O2"
_cell_formula_units_Z 16
_cell_length_a 21.849268
_cell_length_b 9.030733
_cell_length_c 5.426257
_cell_angle_alpha 120.427360
_cell_angle_beta 96.252664
_cell_angle_gamma 47.216701
_cell_volume 629.093749
_symmetry_space_group_name_H-M "P -1"
_symmetry_group_IT_number 2
_symmetry_cell_setting 'triclinic'
loop_
_space_group_symop_operation_xyz
x,y,z
-x,-y,-z
loop_
_atom_site_type_symbol
_atom_site_label
_atom_site_fract_x
_atom_site_fract_y
_atom_site_fract_z
Si Si1 0.737361 0.036840 0.549623
Si Si2 0.035494 0.586863 0.248523
Si Si3 0.080530 0.954259 0.078151
Si Si4 0.171326 0.061906 0.006090
Si Si5 0.809385 0.536009 0.038506
Si Si6 0.626603 0.832369 0.997811
Si Si7 0.452108 0.678541 0.386311
Si Si8 0.503086 0.837323 0.184354
O O1 0.765338 0.083454 0.847167
O O2 0.630655 0.274096 0.681683
O O3 0.776960 0.026973 0.302482
O O4 0.768833 0.776150 0.377000
O O5 0.105703 0.357686 0.277742
O O6 0.093542 0.612716 0.155651
O O7 0.951166 0.849930 0.557853
O O8 0.000000 0.500000 0.000000
O O9 0.112616 0.006990 0.908804
O O10 0.168427 0.668210 0.948221
O O11 0.000000 0.000000 0.000000
O O12 0.735137 0.619597 0.877725
O O13 0.593166 0.963052 0.826939
O O14 0.587342 0.718511 0.940966
O O15 0.585574 0.054886 0.354751
O O16 0.500000 0.500000 0.500000
O O17 0.513403 0.618589 0.118833
O O18 0.500000 0.000000 0.500000
#
# Coordination Sequence:
#
# PCOD8017287 Si02
#       8
#     2   2   2   2   2   2   2   2
#     4  10  24  45  67  98 139 184 232 282 360 423
#     4  11  23  43  73  97 142 191 235 289 368 427
#     4  12  24  41  66 105 136 181 240 300 352 421
#     4  11  24  45  68  97 138 186 226 289 357 428
#     4  10  22  40  67 100 132 179 234 293 342 422
#     4   9  20  41  63  94 131 180 221 278 357 411
#     4  10  22  38  65  96 128 179 229 285 340 418
#     4   9  19  39  65  91 132 172 223 276 350 417
#
# _framework density 25.433411
#
# number of rings (size 3 to 8) (size 9 to 14) (size 15 to 20)
#    0.000    1.750    0.000    3.750    5.250    2.500 
#    9.000    0.000    0.000    0.000    0.000    0.000 
#    0.000    0.000    0.000    0.000    0.000    0.000 
#
# Total GULP energy -198243.111004 kJ/mol
# GULP energy per Si atom -12390.194438 kJ/mol
# Density = 2.537552 g / cm^3
# Si number density = 25.433411 Si / 1000 Ang^3
#
#
#
# Elastic Constant Matrix: (Units=GPa)
#
#
# Indices 1 2 3 4 5 6 
#
# 1 154.9823 63.7514 46.7027 -2.3224 1.0505 10.6558
# 2 63.7514 107.7061 46.4971 -17.3298 -11.4572 7.3306
# 3 46.7027 46.4971 77.1112 -9.7693 -7.8808 0.0297
# 4 -2.3224 -17.3298 -9.7693 40.6182 -4.0423 6.2090
# 5 1.0505 -11.4572 -7.8808 -4.0423 31.8466 -5.5039
# 6 10.6558 7.3306 0.0297 6.2090 -5.5039 57.5864
#
#
#
# Elastic Compliance Matrix: (Units=1/GPa)
#
#
# Indices 1 2 3 4 5 6 
#
# 1 0.009581 -0.004823 -0.003568 -0.002527 -0.003465 -0.001216
# 2 -0.004823 0.016118 -0.005515 0.005985 0.005126 -0.001312
# 3 -0.003568 -0.005515 0.019071 0.002145 0.003375 0.001444
# 4 -0.002527 0.005985 0.002145 0.028562 0.005907 -0.002810
# 5 -0.003465 0.005126 0.003375 0.005907 0.035416 0.002735
# 6 -0.001216 -0.001312 0.001444 -0.002810 0.002735 0.018321
#
#
# Mechanical properties :
#
#
# Convention : Reuss Voigt Hill
#
# Bulk Modulus (GPa) = 58.97318 72.63356 65.80337
# Shear Modulus (GPa) = 31.14619 38.20015 34.67317
#
# Velocity S-wave (km/s) = 3.50325 3.87973 3.69628
# Velocity P-wave (km/s) = 6.29296 6.97782 6.64422
#
# Compressibility (1/GPa) = 0.01695686
#
# Stress axis : x y z
#
# Youngs Moduli (GPa) = 104.37669 62.04408 52.43541
#
# Poissons Ratio (x) = 0.29923 0.18711
# Poissons Ratio (y) = 0.50339 0.28919
# Poissons Ratio (z) = 0.37245 0.34218
#
# Static dielectric constant tensor:
#      x y z
#    x 5.454930 0.093310 0.065670 
#    y 0.093310 3.802990 0.745510 
#    z 0.065670 0.745510 4.073960 
# 
# 
# High freq. dielectric constant tensor:
#      x y z
#    x 2.042050 0.006880 0.008370 
#    y 0.006880 2.023170 0.000520 
#    z 0.008370 0.000520 1.999010 
# 
# From -- ./inp_files/117403.got.cif
#   From: 2010.06.25/outbox.cif.g09.slc.cpg/sg2_59_cif.got.tgz:117403.got - 2010.06.27 13:26:56.
