data_PCOD8017587
_publ_section_title
;
Structure prediction by ZEFSAII (Michael W. Deem and Ramdas Pophale) SiO2 
 PCOD8017587
Probable space group: P -1
;
_chemical_formula_sum "Si O2"
_cell_formula_units_Z 16
_cell_length_a 11.972816
_cell_length_b 9.066827
_cell_length_c 8.470692
_cell_angle_alpha 105.453945
_cell_angle_beta 59.329659
_cell_angle_gamma 114.559205
_cell_volume 717.614771
_symmetry_space_group_name_H-M "P -1"
_symmetry_group_IT_number 2
_symmetry_cell_setting 'triclinic'
loop_
_space_group_symop_operation_xyz
x,y,z
-x,-y,-z
loop_
_atom_site_type_symbol
_atom_site_label
_atom_site_fract_x
_atom_site_fract_y
_atom_site_fract_z
Si Si1 0.266094 0.953976 0.909324
Si Si2 0.892436 0.856396 0.753317
Si Si3 0.569974 0.406949 0.755013
Si Si4 0.707986 0.577192 0.009115
Si Si5 0.157268 0.567765 0.862350
Si Si6 0.224538 0.343679 0.520251
Si Si7 0.439783 0.931739 0.358202
Si Si8 0.209720 0.049283 0.634450
O O1 0.205862 0.761372 0.873144
O O2 0.431686 0.009932 0.842065
O O3 0.237619 0.037387 0.794623
O O4 0.190151 0.015876 0.123650
O O5 0.841901 0.710674 0.875392
O O6 0.873369 0.782986 0.569848
O O7 0.053351 0.944355 0.681887
O O8 0.620674 0.445747 0.908199
O O9 0.630884 0.563804 0.643289
O O10 0.624111 0.261410 0.629087
O O11 0.404128 0.340442 0.832189
O O12 0.749898 0.480363 0.089445
O O13 0.167504 0.484243 0.662867
O O14 0.000000 0.500000 0.000000
O O15 0.240066 0.239724 0.630909
O O16 0.500000 0.000000 0.500000
O O17 0.311814 0.993006 0.429481
#
# Coordination Sequence:
#
# PCOD8017587 Si02
#       8
#     2   2   2   2   2   2   2   2
#     4  11  23  43  66  94 133 173 221 267 326 392
#     4  11  22  44  68  96 131 174 221 270 326 395
#     4  10  22  44  65  96 130 169 222 269 329 386
#     4  10  23  42  70  92 127 177 218 271 325 392
#     4  12  26  44  66  99 134 174 220 271 331 395
#     4  11  25  40  68  99 131 170 219 271 330 391
#     4  10  22  39  62  95 129 165 215 269 320 384
#     4  11  23  40  66  97 131 175 217 270 330 387
#
# _framework density 22.296085999999999
#
# number of rings (size 3 to 8) (size 9 to 14) (size 15 to 20)
#    0.000    1.250    1.250    4.500    3.500    2.500 
#    0.000    4.375    0.000    0.000    0.000    0.000 
#    0.000    0.000    0.000    0.000    0.000    0.000 
#
# Total GULP energy -198356.928506 kJ/mol
# GULP energy per Si atom -12397.308032 kJ/mol
# Density = 2.224534 g / cm^3
# Si number density = 22.296086 Si / 1000 Ang^3
#
#
#
# Elastic Constant Matrix: (Units=GPa)
#
#
# Indices 1 2 3 4 5 6 
#
# 1 85.4585 31.6408 50.9032 -0.0909 -25.3254 17.6630
# 2 31.6408 118.4185 35.0886 10.3095 -2.0449 6.8228
# 3 50.9032 35.0886 106.9283 13.4142 -12.3340 7.5134
# 4 -0.0909 10.3095 13.4142 41.2628 2.5950 -8.2884
# 5 -25.3254 -2.0449 -12.3340 2.5950 41.0873 -11.2888
# 6 17.6630 6.8228 7.5134 -8.2884 -11.2888 26.4193
#
#
#
# Elastic Compliance Matrix: (Units=1/GPa)
#
#
# Indices 1 2 3 4 5 6 
#
# 1 0.021644 -0.002967 -0.007987 0.001375 0.008709 -0.007280
# 2 -0.002967 0.009998 -0.001731 -0.002149 -0.002186 -0.001715
# 3 -0.007987 -0.001731 0.014169 -0.004107 -0.000416 0.000291
# 4 0.001375 -0.002149 -0.004107 0.028049 0.000425 0.009784
# 5 0.008709 -0.002186 -0.000416 0.000425 0.031804 0.008584
# 6 -0.007280 -0.001715 0.000291 0.009784 0.008584 0.049816
#
#
# Mechanical properties :
#
#
# Convention : Reuss Voigt Hill
#
# Bulk Modulus (GPa) = 48.91582 60.67447 54.79515
# Shear Modulus (GPa) = 26.64363 34.63208 30.63785
#
# Velocity S-wave (km/s) = 3.46061 3.94544 3.71096
# Velocity P-wave (km/s) = 6.16073 6.93019 6.55676
#
# Compressibility (1/GPa) = 0.02044328
#
# Stress axis : x y z
#
# Youngs Moduli (GPa) = 46.20174 100.01749 70.57763
#
# Poissons Ratio (x) = 0.29671 0.56368
# Poissons Ratio (y) = 0.13706 0.12215
# Poissons Ratio (z) = 0.36900 0.17311
#
# Static dielectric constant tensor:
#      x y z
#    x 4.241630 -0.005590 -0.407650 
#    y -0.005590 4.244420 0.117350 
#    z -0.407650 0.117350 4.485810 
# 
# 
# High freq. dielectric constant tensor:
#      x y z
#    x 1.862050 0.009850 -0.012410 
#    y 0.009850 1.899000 0.006830 
#    z -0.012410 0.006830 1.884500 
# 
# From -- ./inp_files/243195.got.cif
#   From: 2010.06.25/outbox.cif.g09.slc.cpg/sg2_122_cif.got.tgz:243195.got - 2010.06.27 13:26:56.
