data_PCOD8017271
_publ_section_title
;
Structure prediction by ZEFSAII (Michael W. Deem and Ramdas Pophale) SiO2 
 PCOD8017271
Probable space group: P -1
;
_chemical_formula_sum "Si O2"
_cell_formula_units_Z 12
_cell_length_a 14.857730
_cell_length_b 11.504011
_cell_length_c 11.423798
_cell_angle_alpha 43.652662
_cell_angle_beta 139.190568
_cell_angle_gamma 151.659512
_cell_volume 595.335135
_symmetry_space_group_name_H-M "P -1"
_symmetry_group_IT_number 2
_symmetry_cell_setting 'triclinic'
loop_
_space_group_symop_operation_xyz
x,y,z
-x,-y,-z
loop_
_atom_site_type_symbol
_atom_site_label
_atom_site_fract_x
_atom_site_fract_y
_atom_site_fract_z
Si Si1 0.529063 0.558661 0.622877
Si Si2 0.923385 0.718865 0.921176
Si Si3 0.571503 0.977428 0.411294
Si Si4 0.177534 0.714901 0.782321
Si Si5 0.155796 0.015343 0.701964
Si Si6 0.192850 0.787463 0.300353
O O1 0.500000 0.500000 0.500000
O O2 0.760030 0.721175 0.769472
O O3 0.367886 0.303479 0.724024
O O4 0.487694 0.715128 0.497355
O O5 0.800615 0.429057 0.006367
O O6 0.063298 0.862575 0.841070
O O7 0.076037 0.848376 0.089372
O O8 0.645029 0.127807 0.254118
O O9 0.757763 0.138077 0.569877
O O10 0.396440 0.939576 0.315751
O O11 0.957939 0.508962 0.649703
O O12 0.199651 0.902249 0.741164
O O13 0.000000 0.000000 0.500000
#
# Coordination Sequence:
#
# PCOD8017271 Si02
#       6
#     2   2   2   2   2   2
#     4  12  24  39  62  93 123 161 201 246 311 358
#     4  10  25  39  59  97 119 160 201 251 304 351
#     4  11  21  44  65  88 121 163 204 246 301 365
#     4  10  22  38  65  87 123 157 204 254 291 363
#     4  12  22  39  61  90 128 159 200 249 305 359
#     4   9  24  40  65  90 119 161 207 247 299 355
#
# _framework density 20.156713
#
# number of rings (size 3 to 8) (size 9 to 14) (size 15 to 20)
#    1.000    0.333    3.333    2.000    2.333    1.333 
#    0.000    0.833    0.000    0.000    0.000    0.000 
#    0.000    0.000    0.000    0.000    0.000    0.000 
#
# Total GULP energy -148755.119509 kJ/mol
# GULP energy per Si atom -12396.259959 kJ/mol
# Density = 2.011084 g / cm^3
# Si number density = 20.156713 Si / 1000 Ang^3
#
#
#
# Elastic Constant Matrix: (Units=GPa)
#
#
# Indices 1 2 3 4 5 6 
#
# 1 60.5997 22.3808 17.8764 -14.8605 -11.4610 23.4914
# 2 22.3808 94.1492 20.9813 -13.3659 -14.9286 12.7834
# 3 17.8764 20.9813 89.0134 -4.5995 -4.8624 13.1777
# 4 -14.8605 -13.3659 -4.5995 43.1093 14.2514 -3.1872
# 5 -11.4610 -14.9286 -4.8624 14.2514 26.2304 -4.2242
# 6 23.4914 12.7834 13.1777 -3.1872 -4.2242 33.3411
#
#
#
# Elastic Compliance Matrix: (Units=1/GPa)
#
#
# Indices 1 2 3 4 5 6 
#
# 1 0.026148 -0.002190 -0.001880 0.005556 0.004272 -0.015768
# 2 -0.002190 0.012796 -0.001969 0.001211 0.005007 -0.001835
# 3 -0.001880 -0.001969 0.012493 -0.000132 -0.000017 -0.002873
# 4 0.005556 0.001211 -0.000132 0.029724 -0.013573 -0.003205
# 5 0.004272 0.005007 -0.000017 -0.013573 0.050235 0.000144
# 6 -0.015768 -0.001835 -0.002873 -0.003205 0.000144 0.042654
#
#
# Mechanical properties :
#
#
# Convention : Reuss Voigt Hill
#
# Bulk Modulus (GPa) = 25.40633 40.69328 33.04980
# Shear Modulus (GPa) = 25.09452 32.70441 28.89946
#
# Velocity S-wave (km/s) = 3.53224 4.03241 3.79058
# Velocity P-wave (km/s) = 5.40994 6.47400 5.96574
#
# Compressibility (1/GPa) = 0.03936028
#
# Stress axis : x y z
#
# Youngs Moduli (GPa) = 38.24364 78.15105 80.04185
#
# Poissons Ratio (x) = 0.17112 0.15051
# Poissons Ratio (y) = 0.08374 0.15757
# Poissons Ratio (z) = 0.07191 0.15384
#
# Static dielectric constant tensor:
#      x y z
#    x 3.461860 0.158700 -0.192420 
#    y 0.158700 3.799290 -0.027970 
#    z -0.192420 -0.027970 3.664570 
# 
# 
# High freq. dielectric constant tensor:
#      x y z
#    x 1.779830 0.018060 -0.002650 
#    y 0.018060 1.790730 -0.001900 
#    z -0.002650 -0.001900 1.784920 
# 
# From -- ./inp_files/170975.got.cif
#   From: 2010.06.25/outbox.cif.g09.slc.cpg/sg2_86_cif.got.tgz:170975.got - 2010.06.27 13:26:56.
