data_PCOD8017181
_publ_section_title
;
Structure prediction by ZEFSAII (Michael W. Deem and Ramdas Pophale) SiO2 
 PCOD8017181
Probable space group: P -1
;
_chemical_formula_sum "Si O2"
_cell_formula_units_Z 16
_cell_length_a 15.756729
_cell_length_b 19.537290
_cell_length_c 15.819414
_cell_angle_alpha 19.785947
_cell_angle_beta 136.536021
_cell_angle_gamma 147.572848
_cell_volume 818.735625
_symmetry_space_group_name_H-M "P -1"
_symmetry_group_IT_number 2
_symmetry_cell_setting 'triclinic'
loop_
_space_group_symop_operation_xyz
x,y,z
-x,-y,-z
loop_
_atom_site_type_symbol
_atom_site_label
_atom_site_fract_x
_atom_site_fract_y
_atom_site_fract_z
Si Si1 0.926605 0.617888 0.851191
Si Si2 0.192484 0.904444 0.846064
Si Si3 0.117796 0.174167 0.578157
Si Si4 0.606000 0.344272 0.038256
Si Si5 0.496209 0.782169 0.594284
Si Si6 0.512819 0.357246 0.437278
Si Si7 0.673337 0.324753 0.735624
Si Si8 0.256628 0.292796 0.115811
O O1 0.960127 0.824474 0.566011
O O2 0.019375 0.763759 0.836801
O O3 0.727879 0.403730 0.981326
O O4 0.000000 0.500000 0.000000
O O5 0.218088 0.084611 0.732493
O O6 0.339031 0.084544 0.671972
O O7 0.177659 0.673890 0.152388
O O8 0.273964 0.473091 0.383879
O O9 0.946217 0.946000 0.774538
O O10 0.499497 0.017502 0.358151
O O11 0.488497 0.399218 0.856971
O O12 0.702515 0.531804 0.973840
O O13 0.460757 0.731110 0.528114
O O14 0.671191 0.855294 0.653791
O O15 0.339369 0.496319 0.859237
O O16 0.668073 0.457006 0.494068
O O17 0.500000 0.000000 0.000000
#
# Coordination Sequence:
#
# PCOD8017181 Si02
#       8
#     2   2   2   2   2   2   2   2
#     4  12  20  33  59  95 121 147 182 241 314 355
#     4  11  21  37  58  90 122 153 191 244 305 363
#     4  12  22  37  59  88 124 154 191 250 297 357
#     4  11  20  36  62  88 121 152 190 243 299 358
#     4  10  22  38  62  86 122 159 195 245 289 351
#     4  10  22  39  57  85 116 162 205 237 287 355
#     4  10  25  40  56  85 121 162 202 238 296 351
#     4  10  22  39  58  93 121 153 198 239 301 356
#
# _framework density 19.542328000000001
#
# number of rings (size 3 to 8) (size 9 to 14) (size 15 to 20)
#    0.000    1.250    3.750    3.750    1.750    3.000 
#    0.000    0.625    0.000    1.500    0.000    0.000 
#    0.000    0.000    0.000    0.000    0.000    0.000 
#
# Total GULP energy -198211.059574 kJ/mol
# GULP energy per Si atom -12388.191223 kJ/mol
# Density = 1.949785 g / cm^3
# Si number density = 19.542328 Si / 1000 Ang^3
#
#
#
# Elastic Constant Matrix: (Units=GPa)
#
#
# Indices 1 2 3 4 5 6 
#
# 1 79.8716 25.7169 29.9226 -4.1531 -2.6928 -21.5884
# 2 25.7169 104.4544 45.2368 1.9970 2.2884 -16.7733
# 3 29.9226 45.2368 92.7637 2.5195 13.0532 -22.0013
# 4 -4.1531 1.9970 2.5195 27.3642 -6.4326 -4.0991
# 5 -2.6928 2.2884 13.0532 -6.4326 30.6748 -21.8380
# 6 -21.5884 -16.7733 -22.0013 -4.0991 -21.8380 -5.8480
#
#
#
# Elastic Compliance Matrix: (Units=1/GPa)
#
#
# Indices 1 2 3 4 5 6 
#
# 1 0.012415 -0.002527 -0.004513 0.000304 -0.003354 -0.009294
# 2 -0.002527 0.012307 -0.005583 -0.001211 -0.000533 -0.002127
# 3 -0.004513 -0.005583 0.016204 -0.003347 -0.007119 0.000643
# 4 0.000304 -0.001211 -0.003347 0.035341 0.000535 -0.011824
# 5 -0.003354 -0.000533 -0.007119 0.000535 0.017545 -0.025202
# 6 -0.009294 -0.002127 0.000643 -0.011824 -0.025202 -0.030609
#
#
# Mechanical properties :
#
#
# Convention : Reuss Voigt Hill
#
# Bulk Modulus (GPa) = 63.77737 53.20469 58.49103
# Shear Modulus (GPa) = 53.37590 22.18577 37.78083
#
# Velocity S-wave (km/s) = 5.23185 3.37303 4.40168
# Velocity P-wave (km/s) = 8.31882 6.51569 7.47184
#
# Compressibility (1/GPa) = 0.01567954
#
# Stress axis : x y z
#
# Youngs Moduli (GPa) = 80.54673 81.25581 61.71463
#
# Poissons Ratio (x) = 0.20532 0.27852
# Poissons Ratio (y) = 0.20353 0.34456
# Poissons Ratio (z) = 0.36351 0.45366
#
# Static dielectric constant tensor:
#      x y z
#    x 4.094170 0.293410 0.681840 
#    y 0.293410 3.913080 0.572070 
#    z 0.681840 0.572070 4.153700 
# 
# 
# High freq. dielectric constant tensor:
#      x y z
#    x 1.756910 -0.008160 0.023050 
#    y -0.008160 1.741670 0.009510 
#    z 0.023050 0.009510 1.766140 
# 
# From -- ./inp_files/423563.got.cif
#   From: 2010.06.25/outbox.cif.g09.slc.cpg/sg2_212_cif.got.tgz:423563.got - 2010.06.27 13:26:56.
