data_PCOD8017430
_publ_section_title
;
Structure prediction by ZEFSAII (Michael W. Deem and Ramdas Pophale) SiO2 
 PCOD8017430
Probable space group: P -1
;
_chemical_formula_sum "Si O2"
_cell_formula_units_Z 16
_cell_length_a 8.605556
_cell_length_b 9.282614
_cell_length_c 22.285351
_cell_angle_alpha 63.667249
_cell_angle_beta 54.067736
_cell_angle_gamma 31.985989
_cell_volume 757.442217
_symmetry_space_group_name_H-M "P -1"
_symmetry_group_IT_number 2
_symmetry_cell_setting 'triclinic'
loop_
_space_group_symop_operation_xyz
x,y,z
-x,-y,-z
loop_
_atom_site_type_symbol
_atom_site_label
_atom_site_fract_x
_atom_site_fract_y
_atom_site_fract_z
Si Si1 0.252425 0.588862 0.654737
Si Si2 0.779852 0.340850 0.043945
Si Si3 0.783902 0.023480 0.581888
Si Si4 0.637561 0.549015 0.656334
Si Si5 0.792714 0.869181 0.818627
Si Si6 0.593962 0.960409 0.417791
Si Si7 0.412284 0.454406 0.821503
Si Si8 0.546226 0.200896 0.046893
O O1 0.539267 0.264193 0.641912
O O2 0.457958 0.606163 0.626110
O O3 0.994093 0.711502 0.740830
O O4 0.054911 0.739015 0.609672
O O5 0.564626 0.515034 0.119997
O O6 0.643383 0.273196 0.057528
O O7 0.742712 0.527715 0.977855
O O8 0.166229 0.048096 0.018347
O O9 0.543889 0.095711 0.577438
O O10 0.000000 0.000000 0.500000
O O11 0.496387 0.554749 0.745126
O O12 0.022912 0.267873 0.625315
O O13 0.570331 0.782564 0.628283
O O14 0.536055 0.898559 0.875721
O O15 0.033233 0.672788 0.855935
O O16 0.634935 0.152962 0.807025
O O17 0.500000 0.000000 0.500000
#
# Coordination Sequence:
#
# PCOD8017430 Si02
#       8
#     2   2   2   2   2   2   2   2
#     4  11  23  43  64  90 127 163 203 256 312 368
#     4  10  22  39  59  87 124 163 203 252 308 364
#     4  12  25  42  65  94 124 162 207 253 308 370
#     4  11  23  43  64  90 127 163 203 256 312 368
#     4  11  23  40  63  91 121 160 206 255 309 365
#     4  12  25  42  65  94 124 162 207 253 308 370
#     4  11  23  40  63  91 121 160 206 255 309 365
#     4  10  22  39  59  87 124 163 203 252 308 364
#
# _framework density 21.123723999999999
#
# number of rings (size 3 to 8) (size 9 to 14) (size 15 to 20)
#    0.000    1.000    0.000    8.250    0.000    5.000 
#    0.000    2.500    0.000    0.000    0.000    0.000 
#    0.000    0.000    0.000    0.000    0.000    0.000 
#
# Total GULP energy -198303.450658 kJ/mol
# GULP energy per Si atom -12393.965666 kJ/mol
# Density = 2.107565 g / cm^3
# Si number density = 21.123724 Si / 1000 Ang^3
#
#
#
# Elastic Constant Matrix: (Units=GPa)
#
#
# Indices 1 2 3 4 5 6 
#
# 1 80.0334 24.6614 54.8530 6.2020 -0.8513 -5.8188
# 2 24.6614 142.7961 60.9315 7.6749 -7.5381 -1.8133
# 3 54.8530 60.9315 131.8260 2.5462 -7.4965 12.7090
# 4 6.2020 7.6749 2.5462 32.4411 -0.5630 -1.8596
# 5 -0.8513 -7.5381 -7.4965 -0.5630 31.0981 2.8700
# 6 -5.8188 -1.8133 12.7090 -1.8596 2.8700 44.1246
#
#
#
# Elastic Compliance Matrix: (Units=1/GPa)
#
#
# Indices 1 2 3 4 5 6 
#
# 1 0.018782 0.000537 -0.008600 -0.002791 -0.001939 0.004984
# 2 0.000537 0.008966 -0.004432 -0.001769 0.000942 0.001580
# 3 -0.008600 -0.004432 0.013855 0.001339 0.002554 -0.005416
# 4 -0.002791 -0.001769 0.001339 0.031706 0.000347 0.000487
# 5 -0.001939 0.000942 0.002554 0.000347 0.033240 -0.003100
# 6 0.004984 0.001580 -0.005416 0.000487 -0.003100 0.025168
#
#
# Mechanical properties :
#
#
# Convention : Reuss Voigt Hill
#
# Bulk Modulus (GPa) = 60.19962 70.61639 65.40800
# Shear Modulus (GPa) = 30.81767 35.81339 33.31553
#
# Velocity S-wave (km/s) = 3.82372 4.12200 3.97566
# Velocity P-wave (km/s) = 6.93216 7.49380 7.21844
#
# Compressibility (1/GPa) = 0.01661140
#
# Stress axis : x y z
#
# Youngs Moduli (GPa) = 53.24313 111.52679 72.17812
#
# Poissons Ratio (x) = -0.05989 0.62075
# Poissons Ratio (y) = -0.02859 0.31993
# Poissons Ratio (z) = 0.45790 0.49434
#
# Static dielectric constant tensor:
#      x y z
#    x 3.746950 -0.065960 0.040440 
#    y -0.065960 4.058000 0.006160 
#    z 0.040440 0.006160 3.697660 
# 
# 
# High freq. dielectric constant tensor:
#      x y z
#    x 1.828450 -0.006080 -0.003530 
#    y -0.006080 1.847390 0.002310 
#    z -0.003530 0.002310 1.831680 
# 
# From -- ./inp_files/351959.got.cif
#   From: 2010.06.25/outbox.cif.g09.slc.cpg/sg2_176_cif.got.tgz:351959.got - 2010.06.27 13:26:56.
