data_PCOD8017273
_publ_section_title
;
Structure prediction by ZEFSAII (Michael W. Deem and Ramdas Pophale) SiO2 
 PCOD8017273
Probable space group: P -1
;
_chemical_formula_sum "Si O2"
_cell_formula_units_Z 14
_cell_length_a 11.718973
_cell_length_b 8.684406
_cell_length_c 7.832135
_cell_angle_alpha 105.556288
_cell_angle_beta 57.130781
_cell_angle_gamma 71.796789
_cell_volume 531.731714
_symmetry_space_group_name_H-M "P -1"
_symmetry_group_IT_number 2
_symmetry_cell_setting 'triclinic'
loop_
_space_group_symop_operation_xyz
x,y,z
-x,-y,-z
loop_
_atom_site_type_symbol
_atom_site_label
_atom_site_fract_x
_atom_site_fract_y
_atom_site_fract_z
Si Si1 0.547596 0.528903 0.215351
Si Si2 0.745850 0.052108 0.504016
Si Si3 0.204054 0.472321 0.182217
Si Si4 0.162682 0.200755 0.337801
Si Si5 0.179607 0.310274 0.818424
Si Si6 0.310752 0.469198 0.547096
Si Si7 0.020064 0.868025 0.787831
O O1 0.421345 0.761243 0.376034
O O2 0.447106 0.426421 0.279392
O O3 0.653694 0.462733 0.283078
O O4 0.667904 0.461694 0.929000
O O5 0.884654 0.095929 0.426206
O O6 0.721046 0.974483 0.679625
O O7 0.811989 0.886554 0.252521
O O8 0.234204 0.333162 0.279258
O O9 0.018065 0.660233 0.387377
O O10 0.251497 0.329061 0.940987
O O11 0.143271 0.104839 0.152982
O O12 0.292269 0.294467 0.558971
O O13 0.000000 0.500000 0.000000
O O14 0.131905 0.642670 0.679037
O O15 0.000000 0.000000 0.000000
#
# Coordination Sequence:
#
# PCOD8017273 Si02
#       7
#     2   2   2   2   2   2   2
#     4   9  21  42  62  92 131 170 206 260 317 378
#     4  11  23  39  65  95 131 160 212 265 314 374
#     4  10  22  38  65  91 128 171 214 250 321 374
#     4  11  23  40  64  96 126 163 211 271 309 378
#     4  11  19  37  68  97 122 170 213 263 309 368
#     4   9  20  38  65  91 126 165 215 256 309 381
#     4  11  23  40  67  95 121 164 214 267 315 368
#
# _framework density 26.329066000000001
#
# number of rings (size 3 to 8) (size 9 to 14) (size 15 to 20)
#    0.000    1.714    1.429    3.000    4.000    2.857 
#    0.000    4.286    9.429    0.000    0.000    0.000 
#    0.000    0.000    0.000    0.000    0.000    0.000 
#
# Total GULP energy -173439.133911 kJ/mol
# GULP energy per Si atom -12388.509565 kJ/mol
# Density = 2.626914 g / cm^3
# Si number density = 26.329066 Si / 1000 Ang^3
#
#
#
# Elastic Constant Matrix: (Units=GPa)
#
#
# Indices 1 2 3 4 5 6 
#
# 1 29.8125 14.5991 6.3637 -2.2169 -2.0336 -1.2139
# 2 14.5991 121.3417 25.2531 -27.0942 -10.7436 7.1806
# 3 6.3637 25.2531 80.9271 -25.5142 -9.8482 16.8860
# 4 -2.2169 -27.0942 -25.5142 43.0171 6.6125 -2.0460
# 5 -2.0336 -10.7436 -9.8482 6.6125 42.2639 -13.9323
# 6 -1.2139 7.1806 16.8860 -2.0460 -13.9323 43.9715
#
#
#
# Elastic Compliance Matrix: (Units=1/GPa)
#
#
# Indices 1 2 3 4 5 6 
#
# 1 0.036340 -0.004443 -0.002785 -0.002646 0.001414 0.003123
# 2 -0.004443 0.010340 -0.000790 0.005610 0.001052 -0.000914
# 3 -0.002785 -0.000790 0.016965 0.009102 0.000227 -0.005967
# 4 -0.002646 0.005610 0.009102 0.032306 -0.002923 -0.003908
# 5 0.001414 0.001052 0.000227 -0.002923 0.027234 0.008273
# 6 0.003123 -0.000914 -0.005967 -0.003908 0.008273 0.027708
#
#
# Mechanical properties :
#
#
# Convention : Reuss Voigt Hill
#
# Bulk Modulus (GPa) = 21.00455 36.05700 28.53078
# Shear Modulus (GPa) = 27.35255 38.24153 32.79704
#
# Velocity S-wave (km/s) = 3.22665 3.81523 3.53322
# Velocity P-wave (km/s) = 4.67726 5.75608 5.24448
#
# Compressibility (1/GPa) = 0.04760873
#
# Stress axis : x y z
#
# Youngs Moduli (GPa) = 27.51781 96.71206 58.94586
#
# Poissons Ratio (x) = 0.42970 0.16417
# Poissons Ratio (y) = 0.12226 0.04656
# Poissons Ratio (z) = 0.07664 0.07639
#
# Static dielectric constant tensor:
#      x y z
#    x 4.839150 0.335790 -0.044140 
#    y 0.335790 5.046150 -0.699260 
#    z -0.044140 -0.699260 5.010120 
# 
# 
# High freq. dielectric constant tensor:
#      x y z
#    x 2.057540 0.014110 0.009770 
#    y 0.014110 2.066390 -0.040420 
#    z 0.009770 -0.040420 2.030810 
# 
# From -- ./inp_files/187462.got.cif
#   From: 2010.06.25/outbox.cif.g09.slc.cpg/sg2_94_cif.got.tgz:187462.got - 2010.06.27 13:26:56.
