data_PCOD8017342
_publ_section_title
;
Structure prediction by ZEFSAII (Michael W. Deem and Ramdas Pophale) SiO2 
 PCOD8017342
Probable space group: P -1
;
_chemical_formula_sum "Si O2"
_cell_formula_units_Z 16
_cell_length_a 12.145006
_cell_length_b 8.943482
_cell_length_c 8.878695
_cell_angle_alpha 68.038563
_cell_angle_beta 96.399232
_cell_angle_gamma 120.125064
_cell_volume 770.102918
_symmetry_space_group_name_H-M "P -1"
_symmetry_group_IT_number 2
_symmetry_cell_setting 'triclinic'
loop_
_space_group_symop_operation_xyz
x,y,z
-x,-y,-z
loop_
_atom_site_type_symbol
_atom_site_label
_atom_site_fract_x
_atom_site_fract_y
_atom_site_fract_z
Si Si1 0.449834 0.829475 0.445525
Si Si2 0.173381 0.885907 0.019838
Si Si3 0.293323 0.262557 0.072189
Si Si4 0.008924 0.254594 0.492793
Si Si5 0.829558 0.327626 0.624930
Si Si6 0.440507 0.636247 0.797800
Si Si7 0.406523 0.935145 0.869289
Si Si8 0.975368 0.892693 0.766225
O O1 0.321550 0.797526 0.358305
O O2 0.428436 0.655055 0.608380
O O3 0.500000 0.000000 0.500000
O O4 0.551260 0.886760 0.302600
O O5 0.120445 0.718087 0.195607
O O6 0.260970 0.079538 0.044000
O O7 0.260152 0.857221 0.921963
O O8 0.053050 0.883695 0.924384
O O9 0.416473 0.325479 0.171980
O O10 0.175029 0.226170 0.174380
O O11 0.329420 0.428918 0.897874
O O12 0.133335 0.457012 0.455672
O O13 0.993733 0.193332 0.340742
O O14 0.886533 0.273740 0.510775
O O15 0.018771 0.107509 0.659228
O O16 0.415718 0.774517 0.842919
O O17 0.500000 0.000000 0.000000
#
# Coordination Sequence:
#
# PCOD8017342 Si02
#       8
#     2   2   2   2   2   2   2   2
#     4  10  22  38  67  95 126 167 209 269 325 378
#     4  12  24  41  68  95 130 174 213 268 325 386
#     4  11  23  43  65  94 137 169 216 267 334 383
#     4  10  26  44  63  95 129 176 218 270 317 387
#     4  11  23  43  67  94 135 164 223 269 320 382
#     4  10  24  41  68  95 127 173 216 270 322 395
#     4  11  21  41  64  96 128 164 217 267 323 381
#     4  11  26  43  68  91 136 176 213 266 330 390
#
# _framework density 20.776443
#
# number of rings (size 3 to 8) (size 9 to 14) (size 15 to 20)
#    0.000    1.250    3.750    1.125    7.000    2.500 
#    0.000    0.625    0.000    0.000    0.000    0.000 
#    0.000    0.000    0.000    0.000    0.000    0.000 
#
# Total GULP energy -198408.577935 kJ/mol
# GULP energy per Si atom -12400.536121 kJ/mol
# Density = 2.072915 g / cm^3
# Si number density = 20.776443 Si / 1000 Ang^3
#
#
#
# Elastic Constant Matrix: (Units=GPa)
#
#
# Indices 1 2 3 4 5 6 
#
# 1 91.8576 32.5147 44.3932 -7.8023 -10.9280 6.7301
# 2 32.5147 73.9444 43.3447 -19.8580 -2.7729 1.5020
# 3 44.3932 43.3447 161.2009 -19.2612 -5.2856 0.8188
# 4 -7.8023 -19.8580 -19.2612 32.4726 2.9569 0.5023
# 5 -10.9280 -2.7729 -5.2856 2.9569 37.1811 1.0876
# 6 6.7301 1.5020 0.8188 0.5023 1.0876 25.4274
#
#
#
# Elastic Compliance Matrix: (Units=1/GPa)
#
#
# Indices 1 2 3 4 5 6 
#
# 1 0.014540 -0.004987 -0.002694 -0.001439 0.003738 -0.003599
# 2 -0.004987 0.019877 -0.002893 0.009343 -0.001141 0.000103
# 3 -0.002694 -0.002893 0.007996 0.002324 -0.000073 0.000584
# 4 -0.001439 0.009343 0.002324 0.037771 -0.002374 -0.000890
# 5 0.003738 -0.001141 -0.000073 -0.002374 0.028148 -0.002077
# 6 -0.003599 0.000103 0.000584 -0.000890 -0.002077 0.040362
#
#
# Mechanical properties :
#
#
# Convention : Reuss Voigt Hill
#
# Bulk Modulus (GPa) = 47.02870 63.05643 55.04257
# Shear Modulus (GPa) = 28.25980 32.79958 30.52969
#
# Velocity S-wave (km/s) = 3.69207 3.97758 3.83748
# Velocity P-wave (km/s) = 6.39217 7.17710 6.79598
#
# Compressibility (1/GPa) = 0.02126361
#
# Stress axis : x y z
#
# Youngs Moduli (GPa) = 68.77566 50.31037 125.07026
#
# Poissons Ratio (x) = 0.25092 0.33697
# Poissons Ratio (y) = 0.34301 0.36178
# Poissons Ratio (z) = 0.18530 0.14553
#
# Static dielectric constant tensor:
#      x y z
#    x 3.709050 -0.067400 -0.220920 
#    y -0.067400 3.664230 -0.251960 
#    z -0.220920 -0.251960 4.241260 
# 
# 
# High freq. dielectric constant tensor:
#      x y z
#    x 1.810630 0.002280 -0.010280 
#    y 0.002280 1.802840 -0.009340 
#    z -0.010280 -0.009340 1.833620 
# 
# From -- ./inp_files/242597.got.cif
#   From: 2010.06.25/outbox.cif.g09.slc.cpg/sg2_122_cif.got.tgz:242597.got - 2010.06.27 13:26:56.
