data_PCOD8017714
_publ_section_title
;
Structure prediction by ZEFSAII (Michael W. Deem and Ramdas Pophale) SiO2 
 PCOD8017714
Probable space group: P -1
;
_chemical_formula_sum "Si O2"
_cell_formula_units_Z 16
_cell_length_a 6.522804
_cell_length_b 13.691873
_cell_length_c 10.977080
_cell_angle_alpha 82.835364
_cell_angle_beta 58.081131
_cell_angle_gamma 109.419050
_cell_volume 727.391774
_symmetry_space_group_name_H-M "P -1"
_symmetry_group_IT_number 2
_symmetry_cell_setting 'triclinic'
loop_
_space_group_symop_operation_xyz
x,y,z
-x,-y,-z
loop_
_atom_site_type_symbol
_atom_site_label
_atom_site_fract_x
_atom_site_fract_y
_atom_site_fract_z
Si Si1 0.650775 0.956975 0.867311
Si Si2 0.791581 0.528019 0.261239
Si Si3 0.629360 0.093799 0.285952
Si Si4 0.297356 0.592255 0.239188
Si Si5 0.274190 0.098162 0.610541
Si Si6 0.538842 0.348978 0.573954
Si Si7 0.521093 0.562159 0.856145
Si Si8 0.751664 0.757434 0.914169
O O1 0.447121 0.904273 0.828479
O O2 0.690441 0.860186 0.934156
O O3 0.947331 0.052367 0.713530
O O4 0.500000 0.000000 0.000000
O O5 0.674022 0.418490 0.400315
O O6 0.672059 0.612100 0.311832
O O7 0.748080 0.484884 0.140713
O O8 0.110427 0.598621 0.187288
O O9 0.399204 0.104232 0.436866
O O10 0.924103 0.200837 0.197679
O O11 0.641575 0.979222 0.323017
O O12 0.243170 0.626230 0.386282
O O13 0.265326 0.466421 0.281120
O O14 0.611016 0.677174 0.086254
O O15 0.396538 0.218992 0.612764
O O16 0.636292 0.692618 0.830507
O O17 0.500000 0.500000 0.000000
#
# Coordination Sequence:
#
# PCOD8017714 Si02
#       8
#     2   2   2   2   2   2   2   2
#     4  11  26  41  68  99 127 166 219 271 325 395
#     4  10  22  40  61  97 131 169 218 266 319 391
#     4  10  24  46  64  93 132 165 222 269 323 388
#     4  10  22  39  64  94 131 168 217 265 325 384
#     4  10  24  44  67  94 126 175 214 269 324 386
#     4  10  23  39  63  95 129 171 217 264 323 390
#     4   9  21  40  60  93 130 167 215 266 317 387
#     4  10  24  39  65  95 126 172 212 267 329 384
#
# _framework density 21.996397000000002
#
# number of rings (size 3 to 8) (size 9 to 14) (size 15 to 20)
#    0.000    2.000    0.000    0.750    8.750    5.000 
#    0.000    0.000    0.000    0.000    0.000    0.000 
#    0.000    0.000    0.000    0.000    0.000    0.000 
#
# Total GULP energy -198246.217809 kJ/mol
# GULP energy per Si atom -12390.388613 kJ/mol
# Density = 2.194633 g / cm^3
# Si number density = 21.996397 Si / 1000 Ang^3
#
#
#
# Elastic Constant Matrix: (Units=GPa)
#
#
# Indices 1 2 3 4 5 6 
#
# 1 103.5944 46.0296 46.0854 11.1020 3.1981 29.6085
# 2 46.0296 152.9222 49.3411 11.7122 -5.4098 13.8311
# 3 46.0854 49.3411 102.3884 6.9568 -11.5757 10.6961
# 4 11.1020 11.7122 6.9568 30.0587 3.2043 3.7041
# 5 3.1981 -5.4098 -11.5757 3.2043 39.6456 10.5564
# 6 29.6085 13.8311 10.6961 3.7041 10.5564 31.6118
#
#
#
# Elastic Compliance Matrix: (Units=1/GPa)
#
#
# Indices 1 2 3 4 5 6 
#
# 1 0.016748 -0.002041 -0.004943 -0.002709 0.000610 -0.013007
# 2 -0.002041 0.008294 -0.002767 -0.001824 0.000864 -0.000856
# 3 -0.004943 -0.002767 0.013863 -0.000730 0.004169 -0.000157
# 4 -0.002709 -0.001824 -0.000730 0.035431 -0.003244 0.000514
# 5 0.000610 0.000864 0.004169 -0.003244 0.029963 -0.011985
# 6 -0.013007 -0.000856 -0.000157 0.000514 -0.011985 0.048186
#
#
# Mechanical properties :
#
#
# Convention : Reuss Voigt Hill
#
# Bulk Modulus (GPa) = 51.54075 71.31303 61.42689
# Shear Modulus (GPa) = 28.01834 34.75981 31.38908
#
# Velocity S-wave (km/s) = 3.57286 3.97955 3.78168
# Velocity P-wave (km/s) = 6.36418 7.32164 6.85964
#
# Compressibility (1/GPa) = 0.01940212
#
# Stress axis : x y z
#
# Youngs Moduli (GPa) = 59.70905 120.56729 72.13685
#
# Poissons Ratio (x) = 0.24605 0.35658
# Poissons Ratio (y) = 0.12185 0.19963
# Poissons Ratio (z) = 0.29515 0.33366
#
# Static dielectric constant tensor:
#      x y z
#    x 4.049760 0.093930 -0.045210 
#    y 0.093930 4.329610 0.205690 
#    z -0.045210 0.205690 3.941960 
# 
# 
# High freq. dielectric constant tensor:
#      x y z
#    x 1.866260 0.004020 0.001440 
#    y 0.004020 1.874210 0.010750 
#    z 0.001440 0.010750 1.858430 
# 
# From -- ./inp_files/109885.got.cif
#   From: 2010.06.25/outbox.cif.g09.slc.cpg/sg2_55_cif.got.tgz:109885.got - 2010.06.27 13:26:56.
