data_PCOD8017462
_publ_section_title
;
Structure prediction by ZEFSAII (Michael W. Deem and Ramdas Pophale) SiO2 
 PCOD8017462
Probable space group: P -1
;
_chemical_formula_sum "Si O2"
_cell_formula_units_Z 14
_cell_length_a 14.351904
_cell_length_b 26.231080
_cell_length_c 14.307929
_cell_angle_alpha 19.517993
_cell_angle_beta 150.614075
_cell_angle_gamma 159.634040
_cell_volume 622.793091
_symmetry_space_group_name_H-M "P -1"
_symmetry_group_IT_number 2
_symmetry_cell_setting 'triclinic'
loop_
_space_group_symop_operation_xyz
x,y,z
-x,-y,-z
loop_
_atom_site_type_symbol
_atom_site_label
_atom_site_fract_x
_atom_site_fract_y
_atom_site_fract_z
Si Si1 0.342302 0.808391 0.018833
Si Si2 0.076563 0.162215 0.706977
Si Si3 0.637044 0.377900 0.810409
Si Si4 0.346993 0.158552 0.438268
Si Si5 0.732204 0.816631 0.462273
Si Si6 0.745648 0.483173 0.078851
Si Si7 0.503034 0.834259 0.749223
O O1 0.291718 0.730153 0.001425
O O2 0.561303 0.822722 0.231903
O O3 0.054188 0.637707 0.114673
O O4 0.438487 0.036587 0.710206
O O5 0.349837 0.275128 0.696065
O O6 0.123430 0.361470 0.443798
O O7 0.810081 0.994439 0.700502
O O8 0.000000 0.000000 0.000000
O O9 0.592888 0.326147 0.971433
O O10 0.376275 0.209718 0.484124
O O11 0.562891 0.382665 0.184739
O O12 0.049835 0.034159 0.356895
O O13 0.696019 0.616644 0.752819
O O14 0.680272 0.307395 0.254782
O O15 0.500000 0.000000 0.500000
#
# Coordination Sequence:
#
# PCOD8017462 Si02
#       7
#     2   2   2   2   2   2   2
#     4  11  24  40  66  97 126 167 213 262 320 383
#     4   9  21  37  58  83 121 163 211 248 303 365
#     4  10  22  39  60  88 128 163 208 260 306 371
#     4  10  23  46  65  95 127 164 211 269 324 385
#     4  10  24  43  69  93 126 165 213 267 327 379
#     4  11  25  40  65  96 129 166 219 258 318 381
#     4  11  23  39  59  91 129 170 207 256 313 376
#
# _framework density 22.479376999999999
#
# number of rings (size 3 to 8) (size 9 to 14) (size 15 to 20)
#    0.000    1.714    0.000    2.571    8.000    6.286 
#    0.000    0.000    0.000    0.000    0.000    0.000 
#    0.000    0.000    0.000    0.000    0.000    0.000 
#
# Total GULP energy -173500.531373 kJ/mol
# GULP energy per Si atom -12392.895098 kJ/mol
# Density = 2.242821 g / cm^3
# Si number density = 22.479377 Si / 1000 Ang^3
#
#
#
# Elastic Constant Matrix: (Units=GPa)
#
#
# Indices 1 2 3 4 5 6 
#
# 1 78.5890 4.1441 2.1213 -2.9373 0.7853 1.0977
# 2 4.1441 81.1102 23.2357 4.7364 -12.8089 5.2156
# 3 2.1213 23.2357 74.8112 -1.2541 8.0777 2.7342
# 4 -2.9373 4.7364 -1.2541 37.8537 4.4447 1.3537
# 5 0.7853 -12.8089 8.0777 4.4447 38.5676 -9.6310
# 6 1.0977 5.2156 2.7342 1.3537 -9.6310 25.0122
#
#
#
# Elastic Compliance Matrix: (Units=1/GPa)
#
#
# Indices 1 2 3 4 5 6 
#
# 1 0.012833 -0.000827 0.000039 0.001233 -0.000887 -0.000803
# 2 -0.000827 0.015123 -0.005436 -0.002912 0.006553 0.000158
# 3 0.000039 -0.005436 0.015863 0.002038 -0.006131 -0.003073
# 4 0.001233 -0.002912 0.002038 0.027698 -0.005425 -0.003258
# 5 -0.000887 0.006553 -0.006131 -0.005425 0.033127 0.012392
# 6 -0.000803 0.000158 -0.003073 -0.003258 0.012392 0.045267
#
#
# Mechanical properties :
#
#
# Convention : Reuss Voigt Hill
#
# Bulk Modulus (GPa) = 31.87701 32.61251 32.24476
# Shear Modulus (GPa) = 28.93257 33.95398 31.44328
#
# Velocity S-wave (km/s) = 3.59147 3.89067 3.74406
# Velocity P-wave (km/s) = 5.60442 5.89256 5.75030
#
# Compressibility (1/GPa) = 0.03137057
#
# Stress axis : x y z
#
# Youngs Moduli (GPa) = 77.92304 66.12416 63.04119
#
# Poissons Ratio (x) = 0.05470 -0.00245
# Poissons Ratio (y) = 0.06446 0.34268
# Poissons Ratio (z) = -0.00303 0.35943
#
# Static dielectric constant tensor:
#      x y z
#    x 4.039590 0.398750 0.056790 
#    y 0.398750 4.618840 -0.130120 
#    z 0.056790 -0.130120 4.129350 
# 
# 
# High freq. dielectric constant tensor:
#      x y z
#    x 1.883430 0.017580 0.010600 
#    y 0.017580 1.888230 -0.012000 
#    z 0.010600 -0.012000 1.887640 
# 
# From -- ./inp_files/323255.got.cif
#   From: 2010.06.25/outbox.cif.g09.slc.cpg/sg2_162_cif.got.tgz:323255.got - 2010.06.27 13:26:56.
