data_PCOD8017740
_publ_section_title
;
Structure prediction by ZEFSAII (Michael W. Deem and Ramdas Pophale) SiO2 
 PCOD8017740
Probable space group: P -1
;
_chemical_formula_sum "Si O2"
_cell_formula_units_Z 16
_cell_length_a 10.568045
_cell_length_b 16.032963
_cell_length_c 7.544355
_cell_angle_alpha 113.503654
_cell_angle_beta 131.527480
_cell_angle_gamma 94.827982
_cell_volume 756.055300
_symmetry_space_group_name_H-M "P -1"
_symmetry_group_IT_number 2
_symmetry_cell_setting 'triclinic'
loop_
_space_group_symop_operation_xyz
x,y,z
-x,-y,-z
loop_
_atom_site_type_symbol
_atom_site_label
_atom_site_fract_x
_atom_site_fract_y
_atom_site_fract_z
Si Si1 0.009230 0.767440 0.065997
Si Si2 0.999647 0.793650 0.697929
Si Si3 0.287343 0.970789 0.336993
Si Si4 0.459577 0.490322 0.161975
Si Si5 0.631653 0.347266 0.301502
Si Si6 0.596586 0.718378 0.627181
Si Si7 0.004074 0.348910 0.708059
Si Si8 0.623661 0.802409 0.353669
O O1 0.978305 0.724063 0.796291
O O2 0.823363 0.780965 0.953350
O O3 0.204611 0.885000 0.348788
O O4 0.023098 0.686214 0.141735
O O5 0.786576 0.772759 0.428137
O O6 0.079904 0.757257 0.578204
O O7 0.144913 0.917116 0.987354
O O8 0.500000 0.000000 0.500000
O O9 0.288572 0.074167 0.492179
O O10 0.571852 0.435992 0.306931
O O11 0.546386 0.601825 0.429285
O O12 0.500000 0.500000 0.000000
O O13 0.227310 0.428546 0.931149
O O14 0.533473 0.280195 0.331267
O O15 0.867509 0.399637 0.585282
O O16 0.562682 0.268718 0.003127
O O17 0.558918 0.775462 0.475638
#
# Coordination Sequence:
#
# PCOD8017740 Si02
#       8
#     2   2   2   2   2   2   2   2
#     4   9  22  42  65  94 131 177 213 268 336 375
#     4   9  20  41  67  90 134 174 214 273 326 384
#     4  10  22  39  65 100 134 171 222 274 326 395
#     4  12  24  49  68  96 137 173 221 276 333 389
#     4  12  26  41  70  99 130 177 220 269 334 389
#     4  11  23  44  70  93 133 175 220 277 325 396
#     4  12  24  44  67 101 137 170 224 272 323 401
#     4  11  21  45  64  96 131 175 225 264 334 389
#
# _framework density 21.162472999999999
#
# number of rings (size 3 to 8) (size 9 to 14) (size 15 to 20)
#    0.750    0.500    3.750    2.250    1.750    1.000 
#    2.250    2.500    0.000    0.000    0.000    0.000 
#    0.000    0.000    0.000    0.000    0.000    0.000 
#
# Total GULP energy -198333.565510 kJ/mol
# GULP energy per Si atom -12395.847844 kJ/mol
# Density = 2.111431 g / cm^3
# Si number density = 21.162473 Si / 1000 Ang^3
#
#
#
# Elastic Constant Matrix: (Units=GPa)
#
#
# Indices 1 2 3 4 5 6 
#
# 1 88.3058 34.5058 36.3186 -16.7449 26.3244 12.1508
# 2 34.5058 78.8102 46.2553 -5.3658 20.1618 11.6089
# 3 36.3186 46.2553 85.3225 -11.8856 22.8655 4.0318
# 4 -16.7449 -5.3658 -11.8856 35.7326 -1.0696 1.3494
# 5 26.3244 20.1618 22.8655 -1.0696 39.1338 0.3043
# 6 12.1508 11.6089 4.0318 1.3494 0.3043 30.1947
#
#
#
# Elastic Compliance Matrix: (Units=1/GPa)
#
#
# Indices 1 2 3 4 5 6 
#
# 1 0.018480 -0.002810 -0.002545 0.007351 -0.009246 -0.006251
# 2 -0.002810 0.020907 -0.009068 -0.001089 -0.003569 -0.005612
# 3 -0.002545 -0.009068 0.019465 0.003705 -0.004902 0.001795
# 4 0.007351 -0.001089 0.003705 0.032498 -0.005626 -0.004430
# 5 -0.009246 -0.003569 -0.004902 -0.005626 0.036278 0.005633
# 6 -0.006251 -0.005612 0.001795 -0.004430 0.005633 0.037693
#
#
# Mechanical properties :
#
#
# Convention : Reuss Voigt Hill
#
# Bulk Modulus (GPa) = 33.32925 54.06646 43.69785
# Shear Modulus (GPa) = 24.48958 30.03615 27.26286
#
# Velocity S-wave (km/s) = 3.40548 3.77146 3.59313
# Velocity P-wave (km/s) = 5.58985 6.67600 6.15692
#
# Compressibility (1/GPa) = 0.03000368
#
# Stress axis : x y z
#
# Youngs Moduli (GPa) = 54.11356 47.83143 51.37554
#
# Poissons Ratio (x) = 0.13443 0.13077
# Poissons Ratio (y) = 0.15208 0.46587
# Poissons Ratio (z) = 0.13774 0.43373
#
# Static dielectric constant tensor:
#      x y z
#    x 3.810970 0.165580 0.036470 
#    y 0.165580 3.918930 0.076450 
#    z 0.036470 0.076450 3.960210 
# 
# 
# High freq. dielectric constant tensor:
#      x y z
#    x 1.829580 0.008650 0.007500 
#    y 0.008650 1.810210 -0.004850 
#    z 0.007500 -0.004850 1.834390 
# 
# From -- ./inp_files/273953.got.cif
#   From: 2010.06.25/outbox.cif.g09.slc.cpg/sg2_137_cif.got.tgz:273953.got - 2010.06.27 13:26:56.
