data_PCOD8017917
_publ_section_title
;
Structure prediction by ZEFSAII (Michael W. Deem and Ramdas Pophale) SiO2 
 PCOD8017917
Probable space group: P -1
;
_chemical_formula_sum "Si O2"
_cell_formula_units_Z 16
_cell_length_a 9.169965
_cell_length_b 15.387352
_cell_length_c 8.678329
_cell_angle_alpha 85.741767
_cell_angle_beta 109.756493
_cell_angle_gamma 45.882462
_cell_volume 735.410709
_symmetry_space_group_name_H-M "P -1"
_symmetry_group_IT_number 2
_symmetry_cell_setting 'triclinic'
loop_
_space_group_symop_operation_xyz
x,y,z
-x,-y,-z
loop_
_atom_site_type_symbol
_atom_site_label
_atom_site_fract_x
_atom_site_fract_y
_atom_site_fract_z
Si Si1 0.146588 0.690387 0.179828
Si Si2 0.959525 0.100633 0.075678
Si Si3 0.618593 0.478066 0.203135
Si Si4 0.576948 0.670102 0.030424
Si Si5 0.663836 0.013340 0.508638
Si Si6 0.029687 0.552304 0.146060
Si Si7 0.498306 0.727329 0.641715
Si Si8 0.922425 0.217493 0.526118
O O1 0.434980 0.566219 0.270657
O O2 0.052565 0.640569 0.083224
O O3 0.069267 0.727657 0.325591
O O4 0.014577 0.824524 0.026109
O O5 0.151274 0.031971 0.289465
O O6 0.689155 0.198539 0.020797
O O7 0.000000 0.000000 0.000000
O O8 0.713528 0.532261 0.185942
O O9 0.826847 0.319754 0.340071
O O10 0.500000 0.500000 0.000000
O O11 0.775156 0.660207 0.135845
O O12 0.539386 0.673078 0.835065
O O13 0.812986 0.927290 0.417091
O O14 0.500000 0.000000 0.500000
O O15 0.498690 0.169084 0.388893
O O16 0.268906 0.415878 0.345954
O O17 0.000000 0.500000 0.000000
O O18 0.243993 0.794635 0.488596
#
# Coordination Sequence:
#
# PCOD8017917 Si02
#       8
#     2   2   2   2   2   2   2   2
#     4  11  24  41  70 106 131 181 233 286 349 409
#     4  11  25  47  70  98 144 185 238 281 346 425
#     4  11  19  39  66  99 132 171 229 272 340 410
#     4  10  22  39  68  96 128 183 222 276 342 406
#     4  12  29  44  69 103 137 188 235 291 347 416
#     4  10  22  40  67 100 133 174 226 285 341 407
#     4  11  22  42  69  97 139 176 231 275 355 407
#     4  12  23  43  71  98 141 178 232 286 349 423
#
# _framework density 21.756551999999999
#
# number of rings (size 3 to 8) (size 9 to 14) (size 15 to 20)
#    0.000    1.000    3.750    3.000    7.000    1.000 
#    0.000    1.875    0.000    0.000    0.000    0.000 
#    0.000    0.000    0.000    0.000    0.000    0.000 
#
# Total GULP energy -198211.289988 kJ/mol
# GULP energy per Si atom -12388.205624 kJ/mol
# Density = 2.170703 g / cm^3
# Si number density = 21.756552 Si / 1000 Ang^3
#
#
#
# Elastic Constant Matrix: (Units=GPa)
#
#
# Indices 1 2 3 4 5 6 
#
# 1 157.1583 58.5768 36.4649 -15.2886 6.6167 13.2413
# 2 58.5768 112.5328 39.6028 -3.5503 2.5879 10.5599
# 3 36.4649 39.6028 59.1625 -2.7470 -8.0694 -3.2345
# 4 -15.2886 -3.5503 -2.7470 33.7524 -1.3960 -3.9502
# 5 6.6167 2.5879 -8.0694 -1.3960 26.7929 -8.1027
# 6 13.2413 10.5599 -3.2345 -3.9502 -8.1027 43.3304
#
#
#
# Elastic Compliance Matrix: (Units=1/GPa)
#
#
# Indices 1 2 3 4 5 6 
#
# 1 0.009097 -0.002751 -0.004334 0.002972 -0.004012 -0.002913
# 2 -0.002751 0.013709 -0.008363 -0.001144 -0.004452 -0.004061
# 3 -0.004334 -0.008363 0.027346 0.000816 0.012522 0.007820
# 4 0.002972 -0.001144 0.000816 0.031318 0.002062 0.002672
# 5 -0.004012 -0.004452 0.012522 0.002062 0.046278 0.012088
# 6 -0.002913 -0.004061 0.007820 0.002672 0.012088 0.028046
#
#
# Mechanical properties :
#
#
# Convention : Reuss Voigt Hill
#
# Bulk Modulus (GPa) = 51.93502 66.46029 59.19765
# Shear Modulus (GPa) = 25.89203 33.72242 29.80723
#
# Velocity S-wave (km/s) = 3.45350 3.94126 3.70541
# Velocity P-wave (km/s) = 6.31070 7.16414 6.75092
#
# Compressibility (1/GPa) = 0.01925483
#
# Stress axis : x y z
#
# Youngs Moduli (GPa) = 109.92112 72.94574 36.56874
#
# Poissons Ratio (x) = 0.20066 0.15850
# Poissons Ratio (y) = 0.30237 0.30584
# Poissons Ratio (z) = 0.47644 0.61008
#
# Static dielectric constant tensor:
#      x y z
#    x 4.627970 0.231500 -0.045320 
#    y 0.231500 4.385800 -0.524650 
#    z -0.045320 -0.524650 4.062250 
# 
# 
# High freq. dielectric constant tensor:
#      x y z
#    x 1.868310 0.004660 -0.006000 
#    y 0.004660 1.858180 -0.013450 
#    z -0.006000 -0.013450 1.833690 
# 
# From -- ./inp_files/207019.got.cif
#   From: 2010.06.25/outbox.cif.g09.slc.cpg/sg2_104_cif.got.tgz:207019.got - 2010.06.27 13:26:56.
