data_PCOD8017366
_publ_section_title
;
Structure prediction by ZEFSAII (Michael W. Deem and Ramdas Pophale) SiO2 
 PCOD8017366
Probable space group: P -1
;
_chemical_formula_sum "Si O2"
_cell_formula_units_Z 14
_cell_length_a 7.103501
_cell_length_b 28.138911
_cell_length_c 5.098656
_cell_angle_alpha 69.148936
_cell_angle_beta 67.913512
_cell_angle_gamma 41.149344
_cell_volume 616.962882
_symmetry_space_group_name_H-M "P -1"
_symmetry_group_IT_number 2
_symmetry_cell_setting 'triclinic'
loop_
_space_group_symop_operation_xyz
x,y,z
-x,-y,-z
loop_
_atom_site_type_symbol
_atom_site_label
_atom_site_fract_x
_atom_site_fract_y
_atom_site_fract_z
Si Si1 0.234181 0.585232 0.497598
Si Si2 0.627412 0.923721 0.664312
Si Si3 0.599062 0.679054 0.583330
Si Si4 0.801749 0.341307 0.130263
Si Si5 0.179634 0.811614 0.885683
Si Si6 0.633215 0.864509 0.266964
Si Si7 0.575734 0.784329 0.096890
O O1 0.500000 0.500000 0.500000
O O2 0.260906 0.625639 0.191752
O O3 0.938885 0.605679 0.582048
O O4 0.217693 0.610092 0.748798
O O5 0.541109 0.896236 0.546923
O O6 0.978476 0.866424 0.636608
O O7 0.500000 0.000000 0.500000
O O8 0.487251 0.929263 0.000779
O O9 0.457243 0.729263 0.816477
O O10 0.573994 0.724713 0.275842
O O11 0.436606 0.655995 0.652324
O O12 0.118774 0.256474 0.127162
O O13 0.303672 0.838463 0.931120
O O14 0.981948 0.810093 0.174797
O O15 0.542429 0.823628 0.304962
#
# Coordination Sequence:
#
# PCOD8017366 Si02
#       7
#     2   2   2   2   2   2   2
#     4  11  26  44  66  98 136 176 220 267 325 399
#     4  10  22  43  66  94 136 178 218 273 337 399
#     4  11  24  40  69  96 134 172 221 275 334 388
#     4  11  24  42  69  95 133 174 219 271 333 386
#     4  10  22  38  68  95 132 169 224 276 333 385
#     4  10  23  40  68  93 132 174 219 276 338 390
#     4  11  23  40  67 102 133 169 230 280 335 397
#
# _framework density 22.691804999999999
#
# number of rings (size 3 to 8) (size 9 to 14) (size 15 to 20)
#    0.857    0.571    2.857    1.714    4.000    3.429 
#    0.000    1.429    0.000    0.000    0.000    0.000 
#    0.000    0.000    0.000    0.000    0.000    0.000 
#
# Total GULP energy -173487.130986 kJ/mol
# GULP energy per Si atom -12391.937928 kJ/mol
# Density = 2.264016 g / cm^3
# Si number density = 22.691805 Si / 1000 Ang^3
#
#
#
# Elastic Constant Matrix: (Units=GPa)
#
#
# Indices 1 2 3 4 5 6 
#
# 1 148.9804 36.7701 33.7484 -7.5005 16.1873 1.7791
# 2 36.7701 68.8718 8.6610 -7.2756 17.1077 2.2142
# 3 33.7484 8.6610 69.9143 3.6639 15.9269 -3.9976
# 4 -7.5005 -7.2756 3.6639 27.3198 7.7866 5.8161
# 5 16.1873 17.1077 15.9269 7.7866 48.0164 7.0006
# 6 1.7791 2.2142 -3.9976 5.8161 7.0006 23.7713
#
#
#
# Elastic Compliance Matrix: (Units=1/GPa)
#
#
# Indices 1 2 3 4 5 6 
#
# 1 0.008690 -0.003742 -0.003815 0.002337 -0.000511 -0.001365
# 2 -0.003742 0.018689 0.000592 0.005894 -0.006416 -0.000914
# 3 -0.003815 0.000592 0.017701 -0.002966 -0.005108 0.005437
# 4 0.002337 0.005894 -0.002966 0.043410 -0.007541 -0.009623
# 5 -0.000511 -0.006416 -0.005108 -0.007541 0.027130 -0.006368
# 6 -0.001365 -0.000914 0.005437 -0.009623 -0.006368 0.047399
#
#
# Mechanical properties :
#
#
# Convention : Reuss Voigt Hill
#
# Bulk Modulus (GPa) = 32.10397 49.56951 40.83674
# Shear Modulus (GPa) = 26.69048 33.72728 30.20888
#
# Velocity S-wave (km/s) = 3.43332 3.85946 3.65261
# Velocity P-wave (km/s) = 5.46768 6.46163 5.98532
#
# Compressibility (1/GPa) = 0.03114880
#
# Stress axis : x y z
#
# Youngs Moduli (GPa) = 115.08126 53.50811 56.49249
#
# Poissons Ratio (x) = 0.20022 0.21553
# Poissons Ratio (y) = 0.43062 -0.03342
# Poissons Ratio (z) = 0.43905 -0.03165
#
# Static dielectric constant tensor:
#      x y z
#    x 4.275180 -0.123640 0.116080 
#    y -0.123640 3.777660 0.038460 
#    z 0.116080 0.038460 4.025710 
# 
# 
# High freq. dielectric constant tensor:
#      x y z
#    x 1.905770 -0.002580 0.009450 
#    y -0.002580 1.856750 0.003420 
#    z 0.009450 0.003420 1.902600 
# 
# From -- ./inp_files/14479.got.cif
#   From: 2010.06.25/outbox.cif.g09.slc.cpg/sg2_8_cif.got.tgz:14479.got - 2010.06.27 13:26:56.
