data_PCOD8017249
_publ_section_title
;
Structure prediction by ZEFSAII (Michael W. Deem and Ramdas Pophale) SiO2 
 PCOD8017249
Probable space group: P -1
;
_chemical_formula_sum "Si O2"
_cell_formula_units_Z 16
_cell_length_a 20.644789
_cell_length_b 16.936138
_cell_length_c 11.021635
_cell_angle_alpha 24.273519
_cell_angle_beta 44.995063
_cell_angle_gamma 31.505146
_cell_volume 782.616370
_symmetry_space_group_name_H-M "P -1"
_symmetry_group_IT_number 2
_symmetry_cell_setting 'triclinic'
loop_
_space_group_symop_operation_xyz
x,y,z
-x,-y,-z
loop_
_atom_site_type_symbol
_atom_site_label
_atom_site_fract_x
_atom_site_fract_y
_atom_site_fract_z
Si Si1 0.700586 0.696460 0.476827
Si Si2 0.179082 0.580648 0.894732
Si Si3 0.911865 0.032665 0.741581
Si Si4 0.848015 0.769095 0.329928
Si Si5 0.061083 0.757364 0.355150
Si Si6 0.540260 0.780689 0.852499
Si Si7 0.400674 0.562598 0.946929
Si Si8 0.826903 0.837026 0.539803
O O1 0.771513 0.691952 0.502894
O O2 0.799975 0.542255 0.449050
O O3 0.568543 0.024911 0.168498
O O4 0.666496 0.529128 0.786296
O O5 0.159264 0.778638 0.546963
O O6 0.315675 0.408091 0.022342
O O7 0.176070 0.380151 0.111912
O O8 0.062390 0.751081 0.908920
O O9 0.914332 0.183978 0.631735
O O10 0.825188 0.980291 0.971707
O O11 0.799672 0.901097 0.342403
O O12 0.000000 0.500000 0.500000
O O13 0.966006 0.719917 0.552905
O O14 0.000000 0.000000 0.000000
O O15 0.500000 0.000000 0.500000
O O16 0.531364 0.588948 0.061252
O O17 0.286781 0.887500 0.620097
O O18 0.500000 0.500000 0.000000
#
# Coordination Sequence:
#
# PCOD8017249 Si02
#       8
#     2   2   2   2   2   2   2   2
#     4  11  21  37  59  92 123 159 213 263 309 364
#     4  11  24  43  61  94 129 174 206 260 325 380
#     4  11  24  41  64  92 135 162 210 268 323 371
#     4  12  20  36  65  94 122 165 214 259 309 379
#     4  12  21  36  61  96 124 161 211 271 312 365
#     4  10  22  38  64  87 126 167 215 254 310 379
#     4  11  21  35  57  94 126 158 203 269 315 359
#     4  12  21  34  65  90 125 163 216 257 315 368
#
# _framework density 20.444244999999999
#
# number of rings (size 3 to 8) (size 9 to 14) (size 15 to 20)
#    0.000    0.750    5.000    4.500    1.750    0.500 
#    0.000    2.500    0.000    0.000    0.000    0.000 
#    0.000    0.000    0.000    0.000    0.000    0.000 
#
# Total GULP energy -198340.233849 kJ/mol
# GULP energy per Si atom -12396.264616 kJ/mol
# Density = 2.039771 g / cm^3
# Si number density = 20.444245 Si / 1000 Ang^3
#
#
#
# Elastic Constant Matrix: (Units=GPa)
#
#
# Indices 1 2 3 4 5 6 
#
# 1 113.4844 31.8237 30.4978 -11.3335 -20.0808 -17.5510
# 2 31.8237 95.8653 37.4230 -40.6109 -8.5598 -1.3504
# 3 30.4978 37.4230 80.8606 -13.4358 -11.7761 -7.0948
# 4 -11.3335 -40.6109 -13.4358 44.9341 4.4182 -8.7425
# 5 -20.0808 -8.5598 -11.7761 4.4182 37.0582 -4.8316
# 6 -17.5510 -1.3504 -7.0948 -8.7425 -4.8316 41.2249
#
#
#
# Elastic Compliance Matrix: (Units=1/GPa)
#
#
# Indices 1 2 3 4 5 6 
#
# 1 0.011973 -0.002184 -0.001988 0.000951 0.005966 0.005585
# 2 -0.002184 0.020489 -0.005669 0.016717 0.000057 0.002317
# 3 -0.001988 -0.005669 0.016255 -0.000685 0.003119 0.001986
# 4 0.000951 0.016717 -0.000685 0.039122 0.000696 0.009213
# 5 0.005966 0.000057 0.003119 0.000696 0.032049 0.006983
# 6 0.005585 0.002317 0.001986 0.009213 0.006983 0.029825
#
#
# Mechanical properties :
#
#
# Convention : Reuss Voigt Hill
#
# Bulk Modulus (GPa) = 34.44227 54.41105 44.42666
# Shear Modulus (GPa) = 27.92138 37.34115 32.63126
#
# Velocity S-wave (km/s) = 3.69959 4.27838 3.99947
# Velocity P-wave (km/s) = 5.92729 7.14690 6.56548
#
# Compressibility (1/GPa) = 0.02903409
#
# Stress axis : x y z
#
# Youngs Moduli (GPa) = 83.52171 48.80709 61.51847
#
# Poissons Ratio (x) = 0.10660 0.12230
# Poissons Ratio (y) = 0.18242 0.34877
# Poissons Ratio (z) = 0.16604 0.27671
#
# Static dielectric constant tensor:
#      x y z
#    x 3.561150 0.121820 -0.346530 
#    y 0.121820 4.441470 -0.423830 
#    z -0.346530 -0.423830 3.859680 
# 
# 
# High freq. dielectric constant tensor:
#      x y z
#    x 1.796950 -0.006140 -0.032450 
#    y -0.006140 1.808260 -0.025320 
#    z -0.032450 -0.025320 1.779520 
# 
# From -- ./inp_files/306844.got.cif
#   From: 2010.06.25/outbox.cif.g09.slc.cpg/sg2_154_cif.got.tgz:306844.got - 2010.06.27 13:26:56.
