data_PCOD8017338
_publ_section_title
;
Structure prediction by ZEFSAII (Michael W. Deem and Ramdas Pophale) SiO2 
 PCOD8017338
Probable space group: P -1
;
_chemical_formula_sum "Si O2"
_cell_formula_units_Z 14
_cell_length_a 10.807127
_cell_length_b 11.328362
_cell_length_c 8.763369
_cell_angle_alpha 86.903405
_cell_angle_beta 120.034224
_cell_angle_gamma 51.640550
_cell_volume 614.326583
_symmetry_space_group_name_H-M "P -1"
_symmetry_group_IT_number 2
_symmetry_cell_setting 'triclinic'
loop_
_space_group_symop_operation_xyz
x,y,z
-x,-y,-z
loop_
_atom_site_type_symbol
_atom_site_label
_atom_site_fract_x
_atom_site_fract_y
_atom_site_fract_z
Si Si1 0.995316 0.862983 0.642726
Si Si2 0.045594 0.568708 0.235463
Si Si3 0.568266 0.272895 0.066496
Si Si4 0.158539 0.101516 0.779097
Si Si5 0.240747 0.785070 0.387828
Si Si6 0.859241 0.441277 0.050923
Si Si7 0.440461 0.433041 0.653574
O O1 0.201420 0.817258 0.730775
O O2 0.051198 0.737925 0.820429
O O3 0.931795 0.832264 0.453822
O O4 0.792326 0.069334 0.556113
O O5 0.242063 0.473394 0.477653
O O6 0.834013 0.771935 0.151648
O O7 0.993475 0.462891 0.212844
O O8 0.112994 0.572829 0.111053
O O9 0.611694 0.107943 0.060084
O O10 0.394785 0.386611 0.086040
O O11 0.471743 0.403899 0.855507
O O12 0.991660 0.131925 0.780890
O O13 0.400804 0.596950 0.589920
O O14 0.343350 0.744108 0.287119
#
# Coordination Sequence:
#
# PCOD8017338 Si02
#       7
#     2   2   2   2   2   2   2
#     4  11  24  38  65  96 128 161 201 260 314 362
#     4  10  25  45  62  88 126 169 210 248 314 359
#     4  11  24  39  67  98 123 159 209 254 316 364
#     4  10  23  41  63  94 128 164 201 257 309 369
#     4   9  20  37  61  95 130 155 197 256 312 363
#     4  11  25  43  65  89 124 168 208 260 299 375
#     4  10  22  38  67  93 126 167 201 256 307 374
#
# _framework density 22.789180999999999
#
# number of rings (size 3 to 8) (size 9 to 14) (size 15 to 20)
#    0.000    1.714    0.000    3.857   12.000    4.000 
#    0.000    0.714    0.000    0.000    0.000    0.000 
#    0.000    0.000    0.000    0.000    0.000    0.000 
#
# Total GULP energy -173619.087491 kJ/mol
# GULP energy per Si atom -12401.363392 kJ/mol
# Density = 2.273731 g / cm^3
# Si number density = 22.789181 Si / 1000 Ang^3
#
#
#
# Elastic Constant Matrix: (Units=GPa)
#
#
# Indices 1 2 3 4 5 6 
#
# 1 62.6776 35.4269 14.2566 -0.7225 -1.3628 -12.1112
# 2 35.4269 163.5371 32.5505 -5.5113 0.1708 -14.6941
# 3 14.2566 32.5505 60.3307 -2.3230 -2.4524 -8.9631
# 4 -0.7225 -5.5113 -2.3230 36.7800 1.7282 -0.1992
# 5 -1.3628 0.1708 -2.4524 1.7282 18.8379 3.9563
# 6 -12.1112 -14.6941 -8.9631 -0.1992 3.9563 21.7057
#
#
#
# Elastic Compliance Matrix: (Units=1/GPa)
#
#
# Indices 1 2 3 4 5 6 
#
# 1 0.019732 -0.003193 -0.001744 -0.000134 -0.000484 0.008215
# 2 -0.003193 0.007660 -0.003038 0.000967 -0.001287 0.002393
# 3 -0.001744 -0.003038 0.019414 0.000698 0.001368 0.004744
# 4 -0.000134 0.000967 0.000698 0.027515 -0.002794 0.001630
# 5 -0.000484 -0.001287 0.001368 -0.002794 0.055756 -0.010764
# 6 0.008215 0.002393 0.004744 0.001630 -0.010764 0.056210
#
#
# Mechanical properties :
#
#
# Convention : Reuss Voigt Hill
#
# Bulk Modulus (GPa) = 32.40987 50.11259 41.26123
# Shear Modulus (GPa) = 23.52689 29.08549 26.30619
#
# Velocity S-wave (km/s) = 3.21654 3.57639 3.40123
# Velocity P-wave (km/s) = 5.29597 6.25232 5.79391
#
# Compressibility (1/GPa) = 0.03085480
#
# Stress axis : x y z
#
# Youngs Moduli (GPa) = 50.68033 130.54551 51.50961
#
# Poissons Ratio (x) = 0.41685 0.08985
# Poissons Ratio (y) = 0.16183 0.15648
# Poissons Ratio (z) = 0.08840 0.39659
#
# Static dielectric constant tensor:
#      x y z
#    x 3.945140 -0.161700 -0.038330 
#    y -0.161700 4.694640 -0.023340 
#    z -0.038330 -0.023340 3.731590 
# 
# 
# High freq. dielectric constant tensor:
#      x y z
#    x 1.874290 -0.012380 -0.012810 
#    y -0.012380 1.928920 0.003270 
#    z -0.012810 0.003270 1.882530 
# 
# From -- ./inp_files/262544.got.cif
#   From: 2010.06.25/outbox.cif.g09.slc.cpg/sg2_132_cif.got.tgz:262544.got - 2010.06.27 13:26:56.
