data_PCOD8017873
_publ_section_title
;
Structure prediction by ZEFSAII (Michael W. Deem and Ramdas Pophale) SiO2 
 PCOD8017873
Probable space group: P -1
;
_chemical_formula_sum "Si O2"
_cell_formula_units_Z 16
_cell_length_a 5.476428
_cell_length_b 13.254198
_cell_length_c 16.636654
_cell_angle_alpha 46.335169
_cell_angle_beta 56.943554
_cell_angle_gamma 75.326368
_cell_volume 716.856121
_symmetry_space_group_name_H-M "P -1"
_symmetry_group_IT_number 2
_symmetry_cell_setting 'triclinic'
loop_
_space_group_symop_operation_xyz
x,y,z
-x,-y,-z
loop_
_atom_site_type_symbol
_atom_site_label
_atom_site_fract_x
_atom_site_fract_y
_atom_site_fract_z
Si Si1 0.552701 0.655348 0.172790
Si Si2 0.262811 0.834841 0.431459
Si Si3 0.653957 0.838444 0.209088
Si Si4 0.309816 0.890585 0.034639
Si Si5 0.887505 0.445608 0.925216
Si Si6 0.722475 0.990087 0.393922
Si Si7 0.226487 0.396553 0.292685
Si Si8 0.733827 0.296158 0.189678
O O1 0.507788 0.735217 0.219697
O O2 0.468140 0.758157 0.060779
O O3 0.342811 0.497674 0.292438
O O4 0.889247 0.642515 0.106855
O O5 0.433329 0.790855 0.348253
O O6 0.107202 0.687310 0.584452
O O7 0.519459 0.912610 0.401166
O O8 0.005222 0.920770 0.405169
O O9 0.990833 0.818578 0.171050
O O10 0.701240 0.011507 0.095384
O O11 0.500000 0.000000 0.000000
O O12 0.717059 0.501002 0.851899
O O13 0.034311 0.581343 0.876097
O O14 0.681702 0.337571 0.083004
O O15 0.855701 0.150566 0.251886
O O16 0.500000 0.000000 0.500000
O O17 0.425386 0.278242 0.305349
#
# Coordination Sequence:
#
# PCOD8017873 Si02
#       8
#     2   2   2   2   2   2   2   2
#     4  10  22  39  67  94 136 178 226 284 347 404
#     4  12  29  43  76 101 143 185 237 283 349 417
#     4  10  23  43  66 102 134 181 226 288 339 422
#     4   9  20  40  67  92 139 169 227 286 342 403
#     4  10  22  41  65 102 130 183 226 288 348 411
#     4  12  26  48  70 104 138 189 229 291 350 410
#     4  11  23  43  64  99 137 187 225 288 340 417
#     4  10  23  40  70  95 139 172 238 285 346 413
#
# _framework density 22.319682
#
# number of rings (size 3 to 8) (size 9 to 14) (size 15 to 20)
#    0.000    1.500    1.250    2.250    8.750    3.500 
#    0.000    2.500    0.000    0.000    0.000    0.000 
#    0.000    0.000    0.000    0.000    0.000    0.000 
#
# Total GULP energy -198238.138867 kJ/mol
# GULP energy per Si atom -12389.883679 kJ/mol
# Density = 2.226888 g / cm^3
# Si number density = 22.319682 Si / 1000 Ang^3
#
#
#
# Elastic Constant Matrix: (Units=GPa)
#
#
# Indices 1 2 3 4 5 6 
#
# 1 87.6113 24.3464 1.6782 1.6529 3.9322 -2.9800
# 2 24.3464 103.8809 26.6365 1.4887 7.9405 8.1845
# 3 1.6782 26.6365 83.0069 7.9558 4.8575 10.9044
# 4 1.6529 1.4887 7.9558 24.8535 -4.3490 11.3227
# 5 3.9322 7.9405 4.8575 -4.3490 22.8421 1.6617
# 6 -2.9800 8.1845 10.9044 11.3227 1.6617 26.3022
#
#
#
# Elastic Compliance Matrix: (Units=1/GPa)
#
#
# Indices 1 2 3 4 5 6 
#
# 1 0.012549 -0.003202 0.000703 -0.002786 -0.001978 0.003451
# 2 -0.003202 0.011614 -0.003268 0.001616 -0.002252 -0.003175
# 3 0.000703 -0.003268 0.013945 -0.003310 -0.002354 -0.003111
# 4 -0.002786 0.001616 -0.003310 0.054385 0.012697 -0.023660
# 5 -0.001978 -0.002252 -0.002354 0.012697 0.048335 -0.007067
# 6 0.003451 -0.003175 -0.003111 -0.023660 -0.007067 0.051321
#
#
# Mechanical properties :
#
#
# Convention : Reuss Voigt Hill
#
# Bulk Modulus (GPa) = 37.62983 42.20237 39.91610
# Shear Modulus (GPa) = 23.52491 29.58878 26.55684
#
# Velocity S-wave (km/s) = 3.25006 3.64494 3.45315
# Velocity P-wave (km/s) = 5.56596 6.05502 5.81563
#
# Compressibility (1/GPa) = 0.02657466
#
# Stress axis : x y z
#
# Youngs Moduli (GPa) = 79.68641 86.10239 71.70818
#
# Poissons Ratio (x) = 0.27572 -0.05043
# Poissons Ratio (y) = 0.25517 0.23435
# Poissons Ratio (z) = -0.05604 0.28139
#
# Static dielectric constant tensor:
#      x y z
#    x 4.317880 -0.180330 0.258060 
#    y -0.180330 4.260520 -0.236680 
#    z 0.258060 -0.236680 4.130130 
# 
# 
# High freq. dielectric constant tensor:
#      x y z
#    x 1.883650 -0.004470 -0.000480 
#    y -0.004470 1.885900 -0.011540 
#    z -0.000480 -0.011540 1.866060 
# 
# From -- ./inp_files/549400.got.cif
#   From: 2010.06.25/outbox.cif.g09.slc.cpg/sg2_275_cif.got.tgz:549400.got - 2010.06.27 13:26:56.
