data_PCOD8017404
_publ_section_title
;
Structure prediction by ZEFSAII (Michael W. Deem and Ramdas Pophale) SiO2 
 PCOD8017404
Probable space group: P -1
;
_chemical_formula_sum "Si O2"
_cell_formula_units_Z 12
_cell_length_a 16.017604
_cell_length_b 9.446333
_cell_length_c 9.698189
_cell_angle_alpha 108.328257
_cell_angle_beta 69.333284
_cell_angle_gamma 152.768695
_cell_volume 628.253133
_symmetry_space_group_name_H-M "P -1"
_symmetry_group_IT_number 2
_symmetry_cell_setting 'triclinic'
loop_
_space_group_symop_operation_xyz
x,y,z
-x,-y,-z
loop_
_atom_site_type_symbol
_atom_site_label
_atom_site_fract_x
_atom_site_fract_y
_atom_site_fract_z
Si Si1 0.188644 0.907431 0.647881
Si Si2 0.479290 0.276054 0.089924
Si Si3 0.925575 0.982114 0.664241
Si Si4 0.851292 0.196661 0.673421
Si Si5 0.863696 0.829803 0.151533
Si Si6 0.515102 0.362119 0.790329
O O1 0.233084 0.965760 0.477134
O O2 0.011015 0.550855 0.679485
O O3 0.142748 0.007142 0.751266
O O4 0.366216 0.097055 0.680121
O O5 0.662526 0.476729 0.114401
O O6 0.492813 0.472933 0.142889
O O7 0.306538 0.965518 0.185274
O O8 0.462591 0.204076 0.916918
O O9 0.722338 0.618935 0.705963
O O10 0.928427 0.160430 0.685500
O O11 0.000000 0.000000 0.500000
O O12 0.066929 0.169292 0.763946
O O13 0.000000 0.000000 0.000000
#
# Coordination Sequence:
#
# PCOD8017404 Si02
#       6
#     2   2   2   2   2   2
#     4  10  22  39  58  81 115 151 185 230 277 333
#     4   9  19  35  57  81 110 150 187 223 275 339
#     4  11  21  36  60  86 111 146 190 232 275 327
#     4  10  22  39  57  83 114 150 188 225 280 336
#     4  11  21  38  60  84 114 145 185 237 278 324
#     4   9  19  35  56  82 111 147 189 226 271 337
#
# _framework density 19.100581999999999
#
# number of rings (size 3 to 8) (size 9 to 14) (size 15 to 20)
#    0.000    2.000    3.333    0.000    4.667    2.667 
#    0.000    3.333    0.000    0.000    0.000    0.000 
#    0.000    0.000    0.000    0.000    0.000    0.000 
#
# Total GULP energy -148793.007583 kJ/mol
# GULP energy per Si atom -12399.417299 kJ/mol
# Density = 1.905711 g / cm^3
# Si number density = 19.100582 Si / 1000 Ang^3
#
#
#
# Elastic Constant Matrix: (Units=GPa)
#
#
# Indices 1 2 3 4 5 6 
#
# 1 87.8036 42.4436 53.3997 -0.6275 24.8452 27.8259
# 2 42.4436 71.1298 41.6835 -8.9522 17.5183 18.0036
# 3 53.3997 41.6835 134.6844 -15.3124 31.8609 18.4128
# 4 -0.6275 -8.9522 -15.3124 37.7221 8.8807 0.9513
# 5 24.8452 17.5183 31.8609 8.8807 35.2115 5.8002
# 6 27.8259 18.0036 18.4128 0.9513 5.8002 34.3171
#
#
#
# Elastic Compliance Matrix: (Units=1/GPa)
#
#
# Indices 1 2 3 4 5 6 
#
# 1 0.022551 -0.006703 -0.003673 -0.000728 -0.007164 -0.011567
# 2 -0.006703 0.022315 -0.001591 0.005993 -0.005683 -0.004624
# 3 -0.003673 -0.001591 0.012640 0.006982 -0.009560 -0.001547
# 4 -0.000728 0.005993 0.006982 0.034831 -0.016842 -0.004419
# 5 -0.007164 -0.005683 -0.009560 -0.016842 0.048151 0.006248
# 6 -0.011567 -0.004624 -0.001547 -0.004419 0.006248 0.040841
#
#
# Mechanical properties :
#
#
# Convention : Reuss Voigt Hill
#
# Bulk Modulus (GPa) = 29.78685 63.18574 46.48629
# Shear Modulus (GPa) = 23.09957 31.85621 27.47789
#
# Velocity S-wave (km/s) = 3.48136 4.08832 3.79699
# Velocity P-wave (km/s) = 5.63813 7.44568 6.60404
#
# Compressibility (1/GPa) = 0.03357186
#
# Stress axis : x y z
#
# Youngs Moduli (GPa) = 44.34416 44.81266 79.11184
#
# Poissons Ratio (x) = 0.30039 0.29059
# Poissons Ratio (y) = 0.29725 0.12585
# Poissons Ratio (z) = 0.16288 0.07129
#
# Static dielectric constant tensor:
#      x y z
#    x 3.732630 0.470090 0.224520 
#    y 0.470090 3.519110 -0.072000 
#    z 0.224520 -0.072000 3.804050 
# 
# 
# High freq. dielectric constant tensor:
#      x y z
#    x 1.733630 0.025570 0.015720 
#    y 0.025570 1.731550 -0.010850 
#    z 0.015720 -0.010850 1.760460 
# 
# From -- ./inp_files/144510.got.cif
#   From: 2010.06.25/outbox.cif.g09.slc.cpg/sg2_73_cif.got.tgz:144510.got - 2010.06.27 13:26:56.
