data_PCOD8017065
_publ_section_title
;
Structure prediction by ZEFSAII (Michael W. Deem and Ramdas Pophale) SiO2 
 PCOD8017065
Probable space group: P -1
;
_chemical_formula_sum "Si O2"
_cell_formula_units_Z 16
_cell_length_a 9.554347
_cell_length_b 8.993528
_cell_length_c 16.008515
_cell_angle_alpha 73.991477
_cell_angle_beta 38.612902
_cell_angle_gamma 63.465149
_cell_volume 761.359677
_symmetry_space_group_name_H-M "P -1"
_symmetry_group_IT_number 2
_symmetry_cell_setting 'triclinic'
loop_
_space_group_symop_operation_xyz
x,y,z
-x,-y,-z
loop_
_atom_site_type_symbol
_atom_site_label
_atom_site_fract_x
_atom_site_fract_y
_atom_site_fract_z
Si Si1 0.549306 0.667697 0.445972
Si Si2 0.586584 0.684923 0.069408
Si Si3 0.294437 0.466587 0.277831
Si Si4 0.388982 0.759946 0.971170
Si Si5 0.336366 0.088587 0.867428
Si Si6 0.241200 0.293263 0.488882
Si Si7 0.764121 0.017900 0.553490
Si Si8 0.998950 0.372684 0.871294
O O1 0.500000 0.500000 0.500000
O O2 0.576402 0.742582 0.512032
O O3 0.322218 0.807383 0.483497
O O4 0.793353 0.623339 0.286465
O O5 0.427446 0.595000 0.201566
O O6 0.564670 0.836809 0.114787
O O7 0.480085 0.772735 0.018528
O O8 0.864942 0.553129 0.949439
O O9 0.380115 0.350441 0.174677
O O10 0.364033 0.353694 0.346239
O O11 0.006318 0.558705 0.390403
O O12 0.259213 0.942885 0.962363
O O13 0.200580 0.668914 0.081941
O O14 0.550780 0.011800 0.712689
O O15 0.099954 0.231385 0.916835
O O16 0.182888 0.132269 0.514624
O O17 0.000000 0.000000 0.500000
#
# Coordination Sequence:
#
# PCOD8017065 Si02
#       8
#     2   2   2   2   2   2   2   2
#     4  11  26  43  68  98 130 166 218 268 323 383
#     4  11  22  39  65  93 126 162 214 261 316 377
#     4  10  22  37  70  92 126 171 215 257 326 380
#     4  11  21  42  64  94 122 167 212 263 313 384
#     4  11  23  40  62  94 128 162 211 262 321 374
#     4  11  22  42  66  94 131 174 216 261 324 380
#     4  11  25  43  65  95 135 171 215 265 319 387
#     4  10  23  42  63  88 128 163 206 260 321 381
#
# _framework density 21.015035000000001
#
# number of rings (size 3 to 8) (size 9 to 14) (size 15 to 20)
#    0.000    1.250    1.250    5.250    7.000    1.000 
#    0.000    2.500    0.000    0.000    0.000    0.000 
#    0.000    0.000    0.000    0.000    0.000    0.000 
#
# Total GULP energy -198474.112623 kJ/mol
# GULP energy per Si atom -12404.632039 kJ/mol
# Density = 2.096720 g / cm^3
# Si number density = 21.015035 Si / 1000 Ang^3
#
#
#
# Elastic Constant Matrix: (Units=GPa)
#
#
# Indices 1 2 3 4 5 6 
#
# 1 121.4827 41.0208 32.4862 5.8283 9.0443 -3.5019
# 2 41.0208 113.9493 29.7957 -15.8864 8.6635 -2.6217
# 3 32.4862 29.7957 73.9429 -12.3053 6.3337 -10.4381
# 4 5.8283 -15.8864 -12.3053 25.9439 -2.5311 2.4390
# 5 9.0443 8.6635 6.3337 -2.5311 23.4537 5.1152
# 6 -3.5019 -2.6217 -10.4381 2.4390 5.1152 42.5253
#
#
#
# Elastic Compliance Matrix: (Units=1/GPa)
#
#
# Indices 1 2 3 4 5 6 
#
# 1 0.011179 -0.003673 -0.004340 -0.007108 -0.002626 0.000353
# 2 -0.003673 0.011662 -0.001823 0.006968 -0.001595 -0.000239
# 3 -0.004340 -0.001823 0.018245 0.007898 -0.002571 0.003865
# 4 -0.007108 0.006968 0.007898 0.048641 0.003597 -0.001440
# 5 -0.002626 -0.001595 -0.002571 0.003597 0.046801 -0.006781
# 6 0.000353 -0.000239 0.003865 -0.001440 -0.006781 0.025377
#
#
# Mechanical properties :
#
#
# Convention : Reuss Voigt Hill
#
# Bulk Modulus (GPa) = 46.69547 57.33114 52.01331
# Shear Modulus (GPa) = 26.49515 32.12274 29.30894
#
# Velocity S-wave (km/s) = 3.55459 3.91392 3.73857
# Velocity P-wave (km/s) = 6.25420 6.91124 6.59091
#
# Compressibility (1/GPa) = 0.02141535
#
# Stress axis : x y z
#
# Youngs Moduli (GPa) = 89.45366 85.74865 54.80863
#
# Poissons Ratio (x) = 0.31494 0.23785
# Poissons Ratio (y) = 0.32855 0.09992
# Poissons Ratio (z) = 0.38819 0.15633
#
# Static dielectric constant tensor:
#      x y z
#    x 3.763400 -0.130860 0.142670 
#    y -0.130860 3.902590 -0.001530 
#    z 0.142670 -0.001530 3.826450 
# 
# 
# High freq. dielectric constant tensor:
#      x y z
#    x 1.826120 -0.006770 0.010670 
#    y -0.006770 1.833780 -0.000550 
#    z 0.010670 -0.000550 1.824590 
# 
# From -- ./inp_files/184866.got.cif
#   From: 2010.06.25/outbox.cif.g09.slc.cpg/sg2_93_cif.got.tgz:184866.got - 2010.06.27 13:26:56.
