data_PCOD8017137
_publ_section_title
;
Structure prediction by ZEFSAII (Michael W. Deem and Ramdas Pophale) SiO2 
 PCOD8017137
Probable space group: P -1
;
_chemical_formula_sum "Si O2"
_cell_formula_units_Z 16
_cell_length_a 14.277586
_cell_length_b 10.296976
_cell_length_c 12.217612
_cell_angle_alpha 52.905281
_cell_angle_beta 140.197021
_cell_angle_gamma 103.343826
_cell_volume 816.493786
_symmetry_space_group_name_H-M "P -1"
_symmetry_group_IT_number 2
_symmetry_cell_setting 'triclinic'
loop_
_space_group_symop_operation_xyz
x,y,z
-x,-y,-z
loop_
_atom_site_type_symbol
_atom_site_label
_atom_site_fract_x
_atom_site_fract_y
_atom_site_fract_z
Si Si1 0.299288 0.634917 0.850249
Si Si2 0.613801 0.851109 0.591654
Si Si3 0.214228 0.475557 0.406428
Si Si4 0.661608 0.437415 0.316080
Si Si5 0.855240 0.238920 0.979732
Si Si6 0.215348 0.939044 0.464273
Si Si7 0.119697 0.533964 0.914858
Si Si8 0.518878 0.299033 0.634445
O O1 0.314223 0.517001 0.812272
O O2 0.259948 0.841524 0.673822
O O3 0.155054 0.638605 0.793925
O O4 0.467972 0.541548 0.118301
O O5 0.502991 0.782794 0.458137
O O6 0.500000 0.000000 0.500000
O O7 0.695025 0.935730 0.536437
O O8 0.759412 0.682853 0.871406
O O9 0.238311 0.497890 0.545405
O O10 0.170989 0.667429 0.210567
O O11 0.382180 0.310004 0.593595
O O12 0.068892 0.421078 0.288549
O O13 0.725655 0.218467 0.496322
O O14 0.708426 0.183886 0.902959
O O15 0.855938 0.389571 0.987097
O O16 0.020366 0.053209 0.224745
O O17 0.500000 0.500000 0.500000
#
# Coordination Sequence:
#
# PCOD8017137 Si02
#       8
#     2   2   2   2   2   2   2   2
#     4   9  22  42  63  86 131 177 209 248 324 389
#     4  12  24  37  65  99 127 160 213 271 310 365
#     4  11  21  37  66  91 123 164 218 260 307 379
#     4   9  21  41  64  87 126 179 210 246 320 387
#     4  11  22  38  65  91 130 159 216 259 330 358
#     4  10  22  41  60  95 130 160 211 262 317 369
#     4  12  22  40  63  95 123 172 211 259 318 385
#     4  10  22  38  60  93 126 167 205 255 322 382
#
# _framework density 19.595984000000001
#
# number of rings (size 3 to 8) (size 9 to 14) (size 15 to 20)
#    0.750    0.750    3.750    2.625    5.250    2.500 
#    0.000    1.250    0.000    3.000    0.000    0.000 
#    0.000    0.000    0.000    0.000    0.000    0.000 
#
# Total GULP energy -198344.111468 kJ/mol
# GULP energy per Si atom -12396.506967 kJ/mol
# Density = 1.955138 g / cm^3
# Si number density = 19.595984 Si / 1000 Ang^3
#
#
#
# Elastic Constant Matrix: (Units=GPa)
#
#
# Indices 1 2 3 4 5 6 
#
# 1 102.4754 36.9230 56.8352 5.9869 10.9435 19.9573
# 2 36.9230 99.0550 48.9213 22.6316 7.1703 0.8479
# 3 56.8352 48.9213 119.2649 1.3161 26.3863 3.4039
# 4 5.9869 22.6316 1.3161 37.4248 3.7718 -1.4567
# 5 10.9435 7.1703 26.3863 3.7718 39.3855 5.2475
# 6 19.9573 0.8479 3.4039 -1.4567 5.2475 28.5301
#
#
#
# Elastic Compliance Matrix: (Units=1/GPa)
#
#
# Indices 1 2 3 4 5 6 
#
# 1 0.016572 -0.002377 -0.007075 -0.001622 0.002211 -0.011167
# 2 -0.002377 0.015746 -0.005788 -0.009144 0.002417 0.000974
# 3 -0.007075 -0.005788 0.015872 0.005158 -0.008788 0.005107
# 4 -0.001622 -0.009144 0.005158 0.032958 -0.004947 0.003384
# 5 0.002211 0.002417 -0.008788 -0.004947 0.031581 -0.006631
# 6 -0.011167 0.000974 0.005107 0.003384 -0.006631 0.043617
#
#
# Mechanical properties :
#
#
# Convention : Reuss Voigt Hill
#
# Bulk Modulus (GPa) = 56.46325 67.35047 61.90686
# Shear Modulus (GPa) = 25.94325 32.94247 29.44286
#
# Velocity S-wave (km/s) = 3.64250 4.10455 3.88041
# Velocity P-wave (km/s) = 6.82398 7.54369 7.19284
#
# Compressibility (1/GPa) = 0.01771063
#
# Stress axis : x y z
#
# Youngs Moduli (GPa) = 60.34122 63.50977 63.00394
#
# Poissons Ratio (x) = 0.15096 0.44576
# Poissons Ratio (y) = 0.14343 0.36465
# Poissons Ratio (z) = 0.42692 0.36757
#
# Static dielectric constant tensor:
#      x y z
#    x 3.691960 0.028110 0.369890 
#    y 0.028110 3.382090 0.100420 
#    z 0.369890 0.100420 3.699630 
# 
# 
# High freq. dielectric constant tensor:
#      x y z
#    x 1.762930 -0.006360 0.019500 
#    y -0.006360 1.746110 0.008330 
#    z 0.019500 0.008330 1.759920 
# 
# From -- ./inp_files/446997.got.cif
#   From: 2010.06.25/outbox.cif.g09.slc.cpg/sg2_224_cif.got.tgz:446997.got - 2010.06.27 13:26:56.
