data_PCOD8017038
_publ_section_title
;
Structure prediction by ZEFSAII (Michael W. Deem and Ramdas Pophale) SiO2 
 PCOD8017038
Probable space group: P -1
;
_chemical_formula_sum "Si O2"
_cell_formula_units_Z 16
_cell_length_a 13.855892
_cell_length_b 5.187656
_cell_length_c 11.617135
_cell_angle_alpha 81.019121
_cell_angle_beta 98.876442
_cell_angle_gamma 69.183493
_cell_volume 750.793027
_symmetry_space_group_name_H-M "P -1"
_symmetry_group_IT_number 2
_symmetry_cell_setting 'triclinic'
loop_
_space_group_symop_operation_xyz
x,y,z
-x,-y,-z
loop_
_atom_site_type_symbol
_atom_site_label
_atom_site_fract_x
_atom_site_fract_y
_atom_site_fract_z
Si Si1 0.830232 0.120336 0.913029
Si Si2 0.592873 0.196212 0.907337
Si Si3 0.115843 0.212353 0.459567
Si Si4 0.090700 0.068844 0.817073
Si Si5 0.250659 0.197285 0.697058
Si Si6 0.103880 0.400008 0.201918
Si Si7 0.095959 0.745427 0.632562
Si Si8 0.531488 0.160706 0.156865
O O1 0.711219 0.141089 0.898576
O O2 0.833855 0.400209 0.835802
O O3 0.895152 0.829913 0.877005
O O4 0.884873 0.105087 0.047989
O O5 0.518181 0.515184 0.834315
O O6 0.557266 0.972737 0.849102
O O7 0.585669 0.141138 0.044527
O O8 0.193180 0.282620 0.555935
O O9 0.160267 0.229469 0.339277
O O10 0.986046 0.395477 0.419563
O O11 0.122377 0.901537 0.517914
O O12 0.202457 0.023428 0.780901
O O13 0.018332 0.395504 0.808726
O O14 0.035929 0.942069 0.718273
O O15 0.208776 0.516233 0.718458
O O16 0.376617 0.029325 0.724731
#
# Coordination Sequence:
#
# PCOD8017038 Si02
#       8
#     2   2   2   2   2   2   2   2
#     4  12  26  43  66  90 133 178 211 257 310 385
#     4  10  22  42  63  94 125 156 211 265 326 379
#     4  10  23  39  58  95 127 174 217 254 311 377
#     4  11  24  39  60 100 130 166 216 255 318 382
#     4  11  22  37  68  95 129 163 204 281 319 372
#     4  12  26  41  63  91 135 183 212 244 302 393
#     4  10  22  37  66  88 136 166 208 276 313 366
#     4  10  22  39  68  95 122 155 203 277 332 368
#
# _framework density 21.310798999999999
#
# number of rings (size 3 to 8) (size 9 to 14) (size 15 to 20)
#    0.000    1.250    2.500    2.625   10.500    1.000 
#    0.000    0.000    0.000    4.500    0.000    0.000 
#    0.000    0.000    0.000    0.000    0.000    0.000 
#
# Total GULP energy -198227.197822 kJ/mol
# GULP energy per Si atom -12389.199864 kJ/mol
# Density = 2.126229 g / cm^3
# Si number density = 21.310799 Si / 1000 Ang^3
#
#
#
# Elastic Constant Matrix: (Units=GPa)
#
#
# Indices 1 2 3 4 5 6 
#
# 1 75.8211 21.3550 47.7172 -0.0092 4.6705 6.9800
# 2 21.3550 91.0511 48.5837 -5.4445 6.1133 7.0521
# 3 47.7172 48.5837 141.9970 -5.8357 -1.0060 4.8154
# 4 -0.0092 -5.4445 -5.8357 26.6032 -2.9319 3.2396
# 5 4.6705 6.1133 -1.0060 -2.9319 32.1566 -10.2455
# 6 6.9800 7.0521 4.8154 3.2396 -10.2455 31.5896
#
#
#
# Elastic Compliance Matrix: (Units=1/GPa)
#
#
# Indices 1 2 3 4 5 6 
#
# 1 0.017519 -0.000602 -0.005626 -0.001301 -0.004014 -0.004048
# 2 -0.000602 0.014168 -0.004463 0.001965 -0.003769 -0.003773
# 3 -0.005626 -0.004463 0.010496 0.001508 0.002549 0.001312
# 4 -0.001301 0.001965 0.001508 0.039015 0.002257 -0.003650
# 5 -0.004014 -0.003769 0.002549 0.002257 0.036843 0.013058
# 6 -0.004048 -0.003773 0.001312 -0.003650 0.013058 0.037802
#
#
# Mechanical properties :
#
#
# Convention : Reuss Voigt Hill
#
# Bulk Modulus (GPa) = 48.07516 60.46454 54.26985
# Shear Modulus (GPa) = 27.15051 30.81744 28.98398
#
# Velocity S-wave (km/s) = 3.57322 3.80688 3.69190
# Velocity P-wave (km/s) = 6.29539 6.91068 6.61020
#
# Compressibility (1/GPa) = 0.02080076
#
# Stress axis : x y z
#
# Youngs Moduli (GPa) = 57.08198 70.57958 95.27783
#
# Poissons Ratio (x) = 0.04247 0.53601
# Poissons Ratio (y) = 0.03435 0.42527
# Poissons Ratio (z) = 0.32113 0.31503
#
# Static dielectric constant tensor:
#      x y z
#    x 3.668230 0.188550 -0.022240 
#    y 0.188550 4.077750 -0.086530 
#    z -0.022240 -0.086530 3.969760 
# 
# 
# High freq. dielectric constant tensor:
#      x y z
#    x 1.817520 0.021310 0.001290 
#    y 0.021310 1.838140 -0.013010 
#    z 0.001290 -0.013010 1.833390 
# 
# From -- ./inp_files/92398.got.cif
#   From: 2010.06.25/outbox.cif.g09.slc.cpg/sg2_47_cif.got.tgz:92398.got - 2010.06.27 13:26:56.
