data_PCOD8017605
_publ_section_title
;
Structure prediction by ZEFSAII (Michael W. Deem and Ramdas Pophale) SiO2 
 PCOD8017605
Probable space group: P -1
;
_chemical_formula_sum "Si O2"
_cell_formula_units_Z 16
_cell_length_a 5.850405
_cell_length_b 27.066770
_cell_length_c 28.916014
_cell_angle_alpha 170.487194
_cell_angle_beta 119.289373
_cell_angle_gamma 59.140431
_cell_volume 645.115189
_symmetry_space_group_name_H-M "P -1"
_symmetry_group_IT_number 2
_symmetry_cell_setting 'triclinic'
loop_
_space_group_symop_operation_xyz
x,y,z
-x,-y,-z
loop_
_atom_site_type_symbol
_atom_site_label
_atom_site_fract_x
_atom_site_fract_y
_atom_site_fract_z
Si Si1 0.082388 0.499945 0.955673
Si Si2 0.573380 0.060219 0.629053
Si Si3 0.188425 0.927958 0.160317
Si Si4 0.837496 0.561238 0.736515
Si Si5 0.229626 0.199849 0.244194
Si Si6 0.488378 0.416900 0.042414
Si Si7 0.122650 0.274522 0.206663
Si Si8 0.379950 0.243259 0.394325
O O1 0.337629 0.214824 0.711987
O O2 0.827442 0.457588 0.860530
O O3 0.158203 0.824219 0.250728
O O4 0.000000 0.500000 0.000000
O O5 0.620237 0.693450 0.292126
O O6 0.503171 0.161597 0.768695
O O7 0.388860 0.943897 0.151103
O O8 0.360304 0.722563 0.026028
O O9 0.079013 0.269016 0.483575
O O10 0.935517 0.778498 0.984290
O O11 0.573452 0.451136 0.626719
O O12 0.749703 0.758849 0.862779
O O13 0.458243 0.184359 0.292590
O O14 0.000000 0.500000 0.500000
O O15 0.342873 0.198057 0.200161
O O16 0.100895 0.916672 0.981664
O O17 0.939792 0.615828 0.506476
#
# Coordination Sequence:
#
# PCOD8017605 Si02
#       8
#     2   2   2   2   2   2   2   2
#     4   9  21  40  66  96 128 164 199 248 310 361
#     4  10  22  40  64  96 127 158 205 251 300 369
#     4  11  25  42  59  89 123 160 213 259 292 358
#     4  11  24  41  64  86 119 165 208 254 311 362
#     4   9  17  35  60  88 120 152 191 259 309 367
#     4  11  23  40  62  89 126 166 205 253 304 353
#     4   9  19  37  59  88 123 148 200 256 308 375
#     4  10  22  39  63  83 120 163 202 250 315 364
#
# _framework density 24.801774000000002
#
# number of rings (size 3 to 8) (size 9 to 14) (size 15 to 20)
#    0.000    2.000    1.250    1.125    1.750    9.000 
#    0.000    5.625    0.000    0.000    0.000    0.000 
#    0.000    0.000    0.000    0.000    0.000    0.000 
#
# Total GULP energy -198269.736868 kJ/mol
# GULP energy per Si atom -12391.858554 kJ/mol
# Density = 2.474532 g / cm^3
# Si number density = 24.801774 Si / 1000 Ang^3
#
#
#
# Elastic Constant Matrix: (Units=GPa)
#
#
# Indices 1 2 3 4 5 6 
#
# 1 44.3544 23.2504 -3.9343 10.3369 30.5424 -7.7816
# 2 23.2504 155.5974 28.6424 23.0011 22.7307 -12.9461
# 3 -3.9343 28.6424 77.3583 13.2554 22.0185 -6.6639
# 4 10.3369 23.0011 13.2554 40.6353 2.3066 4.2922
# 5 30.5424 22.7307 22.0185 2.3066 39.0072 -4.4430
# 6 -7.7816 -12.9461 -6.6639 4.2922 -4.4430 26.3112
#
#
#
# Elastic Compliance Matrix: (Units=1/GPa)
#
#
# Indices 1 2 3 4 5 6 
#
# 1 0.137094 -0.001073 0.056675 -0.049565 -0.131188 0.040305
# 2 -0.001073 0.008101 -0.001336 -0.004115 -0.002475 0.003584
# 3 0.056675 -0.001336 0.040138 -0.025303 -0.062498 0.019844
# 4 -0.049565 -0.004115 -0.025303 0.047314 0.050147 -0.022343
# 5 -0.131188 -0.002475 -0.062498 0.050147 0.157855 -0.037371
# 6 0.040305 0.003584 0.019844 -0.022343 -0.037371 0.054050
#
#
# Mechanical properties :
#
#
# Convention : Reuss Voigt Hill
#
# Bulk Modulus (GPa) = 3.40293 41.46971 22.43632
# Shear Modulus (GPa) = 11.52142 36.48083 24.00113
#
# Velocity S-wave (km/s) = 2.15766 3.83939 3.11419
# Velocity P-wave (km/s) = 2.75361 6.03418 4.69008
#
# Compressibility (1/GPa) = 0.29386409
#
# Stress axis : x y z
#
# Youngs Moduli (GPa) = 7.29428 123.44012 24.91434
#
# Poissons Ratio (x) = 0.13244 -1.41201
# Poissons Ratio (y) = 0.00783 0.03328
# Poissons Ratio (z) = -0.41340 0.16489
#
# Static dielectric constant tensor:
#      x y z
#    x 4.511950 0.039110 0.140400 
#    y 0.039110 4.713740 -0.152660 
#    z 0.140400 -0.152660 4.100090 
# 
# 
# High freq. dielectric constant tensor:
#      x y z
#    x 1.970890 0.007000 0.010550 
#    y 0.007000 1.985080 0.002740 
#    z 0.010550 0.002740 1.989070 
# 
# From -- ./inp_files/12439.got.cif
#   From: 2010.06.25/outbox.cif.g09.slc.cpg/sg2_7_cif.got.tgz:12439.got - 2010.06.27 13:26:56.
