data_PCOD8017011
_publ_section_title
;
Structure prediction by ZEFSAII (Michael W. Deem and Ramdas Pophale) SiO2 
 PCOD8017011
Probable space group: P -1
;
_chemical_formula_sum "Si O2"
_cell_formula_units_Z 16
_cell_length_a 14.771556
_cell_length_b 14.322472
_cell_length_c 9.408389
_cell_angle_alpha 83.285672
_cell_angle_beta 108.694544
_cell_angle_gamma 36.165203
_cell_volume 823.884971
_symmetry_space_group_name_H-M "P -1"
_symmetry_group_IT_number 2
_symmetry_cell_setting 'triclinic'
loop_
_space_group_symop_operation_xyz
x,y,z
-x,-y,-z
loop_
_atom_site_type_symbol
_atom_site_label
_atom_site_fract_x
_atom_site_fract_y
_atom_site_fract_z
Si Si1 0.790917 0.334429 0.186303
Si Si2 0.678588 0.934123 0.485059
Si Si3 0.325583 0.759483 0.749026
Si Si4 0.066862 0.176427 0.579174
Si Si5 0.194682 0.349987 0.230104
Si Si6 0.480976 0.619504 0.533169
Si Si7 0.915937 0.346154 0.786700
Si Si8 0.831756 0.952083 0.779014
O O1 0.809270 0.211986 0.274144
O O2 0.857934 0.348455 0.341079
O O3 0.946594 0.207369 0.151989
O O4 0.548399 0.573147 0.979046
O O5 0.775698 0.882445 0.393776
O O6 0.800029 0.731013 0.626501
O O7 0.711528 0.982992 0.614279
O O8 0.422030 0.144242 0.295779
O O9 0.363801 0.719943 0.607809
O O10 0.187599 0.971065 0.682789
O O11 0.995604 0.271429 0.679981
O O12 0.164299 0.478284 0.259017
O O13 0.000000 0.500000 0.000000
O O14 0.500000 0.500000 0.500000
O O15 0.721682 0.446322 0.700056
O O16 0.333317 0.815117 0.321232
O O17 0.114496 0.142605 0.026102
#
# Coordination Sequence:
#
# PCOD8017011 Si02
#       8
#     2   2   2   2   2   2   2   2
#     4  10  22  37  64  87 120 176 218 259 309 379
#     4  10  22  42  68  93 120 167 211 259 321 388
#     4  11  21  40  60  89 125 173 222 255 319 371
#     4  11  24  40  63  90 132 166 206 268 317 377
#     4  11  22  42  73  94 122 165 213 263 325 383
#     4  12  25  40  65  95 133 172 217 266 309 377
#     4  12  25  41  64 100 129 167 215 267 321 373
#     4  11  22  41  65  92 127 168 217 259 312 384
#
# _framework density 19.420188
#
# number of rings (size 3 to 8) (size 9 to 14) (size 15 to 20)
#    0.000    1.000    6.250    1.125    1.750    4.000 
#    0.000    0.625    0.000    0.000    0.000    0.000 
#    0.000    0.000    0.000    0.000    0.000    0.000 
#
# Total GULP energy -198475.363307 kJ/mol
# GULP energy per Si atom -12404.710207 kJ/mol
# Density = 1.937599 g / cm^3
# Si number density = 19.420188 Si / 1000 Ang^3
#
#
#
# Elastic Constant Matrix: (Units=GPa)
#
#
# Indices 1 2 3 4 5 6 
#
# 1 107.1397 30.6881 36.0044 -3.6831 -0.9757 8.6515
# 2 30.6881 71.6923 34.0220 3.6465 -8.1979 12.3082
# 3 36.0044 34.0220 84.3664 -4.7339 -8.3509 2.3163
# 4 -3.6831 3.6465 -4.7339 22.1069 -0.6824 -4.5881
# 5 -0.9757 -8.1979 -8.3509 -0.6824 35.7370 -5.8923
# 6 8.6515 12.3082 2.3163 -4.5881 -5.8923 37.2007
#
#
#
# Elastic Compliance Matrix: (Units=1/GPa)
#
#
# Indices 1 2 3 4 5 6 
#
# 1 0.011653 -0.003209 -0.003713 0.001319 -0.001507 -0.001493
# 2 -0.003209 0.020094 -0.006751 -0.006482 0.001833 -0.005991
# 3 -0.003713 -0.006751 0.016625 0.004786 0.002837 0.003102
# 4 0.001319 -0.006482 0.004786 0.049251 0.001913 0.007917
# 5 -0.001507 0.001833 0.002837 0.001913 0.029807 0.004525
# 6 -0.001493 -0.005991 0.003102 0.007917 0.004525 0.030710
#
#
# Mechanical properties :
#
#
# Convention : Reuss Voigt Hill
#
# Bulk Modulus (GPa) = 47.56437 51.62528 49.59483
# Shear Modulus (GPa) = 25.97480 29.84117 27.90798
#
# Velocity S-wave (km/s) = 3.66117 3.92421 3.79497
# Velocity P-wave (km/s) = 6.51288 6.86830 6.69295
#
# Compressibility (1/GPa) = 0.02102414
#
# Stress axis : x y z
#
# Youngs Moduli (GPa) = 85.81696 49.76657 60.15215
#
# Poissons Ratio (x) = 0.15970 0.22334
# Poissons Ratio (y) = 0.27539 0.40611
# Poissons Ratio (z) = 0.31864 0.33600
#
# Static dielectric constant tensor:
#      x y z
#    x 3.879120 -0.013390 0.034250 
#    y -0.013390 3.326440 0.010490 
#    z 0.034250 0.010490 3.765690 
# 
# 
# High freq. dielectric constant tensor:
#      x y z
#    x 1.773450 -0.001190 -0.001740 
#    y -0.001190 1.738340 -0.014520 
#    z -0.001740 -0.014520 1.769330 
# 
# From -- ./inp_files/201293.got.cif
#   From: 2010.06.25/outbox.cif.g09.slc.cpg/sg2_101_cif.got.tgz:201293.got - 2010.06.27 13:26:56.
