data_PCOD8017050
_publ_section_title
;
Structure prediction by ZEFSAII (Michael W. Deem and Ramdas Pophale) SiO2 
 PCOD8017050
Probable space group: P -1
;
_chemical_formula_sum "Si O2"
_cell_formula_units_Z 14
_cell_length_a 13.900157
_cell_length_b 11.652449
_cell_length_c 11.777704
_cell_angle_alpha 62.144197
_cell_angle_beta 59.499662
_cell_angle_gamma 20.823065
_cell_volume 584.140632
_symmetry_space_group_name_H-M "P -1"
_symmetry_group_IT_number 2
_symmetry_cell_setting 'triclinic'
loop_
_space_group_symop_operation_xyz
x,y,z
-x,-y,-z
loop_
_atom_site_type_symbol
_atom_site_label
_atom_site_fract_x
_atom_site_fract_y
_atom_site_fract_z
Si Si1 0.033816 0.500740 0.161348
Si Si2 0.748851 0.297956 0.876374
Si Si3 0.228648 0.481873 0.679608
Si Si4 0.366252 0.401894 0.381141
Si Si5 0.362063 0.921062 0.180959
Si Si6 0.855387 0.338878 0.007497
Si Si7 0.030711 0.347145 0.631736
O O1 0.774300 0.675268 0.249788
O O2 0.132175 0.440036 0.255319
O O3 0.280782 0.161003 0.105478
O O4 0.987904 0.690064 0.040232
O O5 0.628282 0.463308 0.747087
O O6 0.500000 0.500000 0.000000
O O7 0.862029 0.298943 0.886622
O O8 0.995190 0.931763 0.884209
O O9 0.302131 0.470237 0.521043
O O10 0.455320 0.292748 0.717168
O O11 0.923135 0.855925 0.730860
O O12 0.103168 0.627670 0.366772
O O13 0.647996 0.025224 0.360203
O O14 0.532429 0.691623 0.075851
O O15 0.000000 0.500000 0.500000
#
# Coordination Sequence:
#
# PCOD8017050 Si02
#       7
#     2   2   2   2   2   2   2
#     4  10  22  37  67 102 134 170 218 270 345 395
#     4  11  27  44  71  95 131 184 232 277 324 392
#     4  10  23  41  67 102 133 173 214 273 348 400
#     4  12  24  43  67  99 141 169 225 278 333 395
#     4  10  24  43  66 101 138 173 218 273 341 404
#     4  11  24  47  65  97 134 183 228 274 327 398
#     4  12  22  37  67 103 138 172 209 282 344 396
#
# _framework density 23.966830999999999
#
# number of rings (size 3 to 8) (size 9 to 14) (size 15 to 20)
#    0.857    0.286    2.857    3.429    6.000    1.714 
#    0.000    1.429    0.000    0.000    0.000    0.000 
#    0.000    0.000    0.000    0.000    0.000    0.000 
#
# Total GULP energy -173438.376011 kJ/mol
# GULP energy per Si atom -12388.455429 kJ/mol
# Density = 2.391228 g / cm^3
# Si number density = 23.966831 Si / 1000 Ang^3
#
#
#
# Elastic Constant Matrix: (Units=GPa)
#
#
# Indices 1 2 3 4 5 6 
#
# 1 33.4496 22.2766 9.6754 -4.8203 -0.1164 3.9796
# 2 22.2766 139.3800 41.1370 -10.7497 -10.1538 21.9598
# 3 9.6754 41.1370 96.9804 -16.1660 -15.3050 23.0034
# 4 -4.8203 -10.7497 -16.1660 38.7670 -1.4134 2.7575
# 5 -0.1164 -10.1538 -15.3050 -1.4134 26.8280 5.8209
# 6 3.9796 21.9598 23.0034 2.7575 5.8209 36.2259
#
#
#
# Elastic Compliance Matrix: (Units=1/GPa)
#
#
# Indices 1 2 3 4 5 6 
#
# 1 0.033941 -0.005122 -0.001399 0.002085 -0.002593 0.000523
# 2 -0.005122 0.009677 -0.001369 0.001998 0.004103 -0.005245
# 3 -0.001399 -0.001369 0.017358 0.008043 0.012550 -0.012668
# 4 0.002085 0.001998 0.008043 0.031039 0.009245 -0.010396
# 5 -0.002593 0.004103 0.012550 0.009245 0.050586 -0.019004
# 6 0.000523 -0.005245 -0.012668 -0.010396 -0.019004 0.042616
#
#
# Mechanical properties :
#
#
# Convention : Reuss Voigt Hill
#
# Bulk Modulus (GPa) = 22.12652 46.22087 34.17370
# Shear Modulus (GPa) = 23.14154 33.47892 28.31023
#
# Velocity S-wave (km/s) = 3.11073 3.74155 3.44062
# Velocity P-wave (km/s) = 4.70684 6.16383 5.48394
#
# Compressibility (1/GPa) = 0.04519463
#
# Stress axis : x y z
#
# Youngs Moduli (GPa) = 29.46296 103.34086 57.61120
#
# Poissons Ratio (x) = 0.52933 0.08061
# Poissons Ratio (y) = 0.15092 0.07887
# Poissons Ratio (z) = 0.04123 0.14147
#
# Static dielectric constant tensor:
#      x y z
#    x 1.622490 1.467040 4.930400 
#    y 1.467040 3.516340 -2.865150 
#    z 4.930400 -2.865150 -4.667080 
# 
# 
# High freq. dielectric constant tensor:
#      x y z
#    x 1.936720 -0.004860 0.002860 
#    y -0.004860 1.945170 0.000340 
#    z 0.002860 0.000340 1.954170 
# 
# From -- ./inp_files/452190.got.cif
#   From: 2010.06.25/outbox.cif.g09.slc.cpg/sg2_227_cif.got.tgz:452190.got - 2010.06.27 13:26:56.
