data_PCOD8017047
_publ_section_title
;
Structure prediction by ZEFSAII (Michael W. Deem and Ramdas Pophale) SiO2 
 PCOD8017047
Probable space group: P -1
;
_chemical_formula_sum "Si O2"
_cell_formula_units_Z 16
_cell_length_a 11.649252
_cell_length_b 19.755264
_cell_length_c 17.512245
_cell_angle_alpha 31.093734
_cell_angle_beta 21.491536
_cell_angle_gamma 31.353510
_cell_volume 726.860337
_symmetry_space_group_name_H-M "P -1"
_symmetry_group_IT_number 2
_symmetry_cell_setting 'triclinic'
loop_
_space_group_symop_operation_xyz
x,y,z
-x,-y,-z
loop_
_atom_site_type_symbol
_atom_site_label
_atom_site_fract_x
_atom_site_fract_y
_atom_site_fract_z
Si Si1 0.258626 0.350590 0.472518
Si Si2 0.207757 0.937836 0.755714
Si Si3 0.914753 0.121455 0.538701
Si Si4 0.854279 0.185405 0.343976
Si Si5 0.110339 0.870846 0.112074
Si Si6 0.186855 0.193159 0.978800
Si Si7 0.709892 0.451737 0.990310
Si Si8 0.369478 0.253781 0.197976
O O1 0.486880 0.292237 0.460793
O O2 0.510513 0.363145 0.240768
O O3 0.000000 0.500000 0.500000
O O4 0.102432 0.234430 0.655568
O O5 0.358227 0.807847 0.845323
O O6 0.500000 0.000000 0.500000
O O7 0.911944 0.060755 0.857085
O O8 0.048329 0.895322 0.820239
O O9 0.917284 0.200100 0.380733
O O10 0.560474 0.119420 0.792781
O O11 0.062804 0.192507 0.446716
O O12 0.149373 0.968075 0.526289
O O13 0.123544 0.214843 0.089232
O O14 0.475396 0.783299 0.946803
O O15 0.000000 0.000000 0.000000
O O16 0.073175 0.342556 0.862017
O O17 0.500000 0.500000 0.000000
O O18 0.756278 0.582241 0.879038
#
# Coordination Sequence:
#
# PCOD8017047 Si02
#       8
#     2   2   2   2   2   2   2   2
#     4  11  22  41  69 100 135 181 229 288 352 418
#     4  11  22  39  66 100 135 171 237 304 345 397
#     4  11  25  43  70  95 142 190 228 288 354 422
#     4  10  24  43  67  99 137 184 238 280 349 426
#     4  10  22  37  66  97 136 170 228 293 343 399
#     4  11  24  43  70  98 135 186 234 290 352 417
#     4  11  23  42  66  98 138 179 227 289 355 419
#     4  11  23  42  62  99 136 178 234 284 348 418
#
# _framework density 22.012483
#
# number of rings (size 3 to 8) (size 9 to 14) (size 15 to 20)
#    0.000    1.250    2.500    4.125    8.750    0.500 
#    0.000    2.500    0.000    0.000    0.000    0.000 
#    0.000    0.000    0.000    0.000    0.000    0.000 
#
# Total GULP energy -198209.401951 kJ/mol
# GULP energy per Si atom -12388.087622 kJ/mol
# Density = 2.196238 g / cm^3
# Si number density = 22.012483 Si / 1000 Ang^3
#
#
#
# Elastic Constant Matrix: (Units=GPa)
#
#
# Indices 1 2 3 4 5 6 
#
# 1 61.9911 4.4771 16.7179 3.9602 1.4555 -2.5950
# 2 4.4771 115.3943 13.9370 -4.8773 -12.0305 3.0518
# 3 16.7179 13.9370 87.5377 -4.2854 -13.2080 6.5369
# 4 3.9602 -4.8773 -4.2854 39.9415 5.2621 -1.5263
# 5 1.4555 -12.0305 -13.2080 5.2621 31.9412 -1.3859
# 6 -2.5950 3.0518 6.5369 -1.5263 -1.3859 34.1682
#
#
#
# Elastic Compliance Matrix: (Units=1/GPa)
#
#
# Indices 1 2 3 4 5 6 
#
# 1 0.017450 -0.000576 -0.003807 -0.001845 -0.002198 0.001934
# 2 -0.000576 0.009143 -0.000820 0.000670 0.002997 -0.000552
# 3 -0.003807 -0.000820 0.013283 0.000936 0.005095 -0.002509
# 4 -0.001845 0.000670 0.000936 0.025889 -0.003514 0.000635
# 5 -0.002198 0.002997 0.005095 -0.003514 0.035216 -0.000138
# 6 0.001934 -0.000552 -0.002509 0.000635 -0.000138 0.029966
#
#
# Mechanical properties :
#
#
# Convention : Reuss Voigt Hill
#
# Bulk Modulus (GPa) = 33.93188 37.24303 35.58746
# Shear Modulus (GPa) = 33.07419 36.52958 34.80189
#
# Velocity S-wave (km/s) = 3.88044 4.07811 3.98050
# Velocity P-wave (km/s) = 5.96032 6.25543 6.10966
#
# Compressibility (1/GPa) = 0.02947081
#
# Stress axis : x y z
#
# Youngs Moduli (GPa) = 57.30606 109.37844 75.28367
#
# Poissons Ratio (x) = 0.06295 0.28664
# Poissons Ratio (y) = 0.03298 0.06170
# Poissons Ratio (z) = 0.21819 0.08964
#
# Static dielectric constant tensor:
#      x y z
#    x 3.973620 0.176950 0.220580 
#    y 0.176950 3.996090 0.166210 
#    z 0.220580 0.166210 4.016060 
# 
# 
# High freq. dielectric constant tensor:
#      x y z
#    x 1.849990 -0.001150 0.014040 
#    y -0.001150 1.879690 -0.000710 
#    z 0.014040 -0.000710 1.860950 
# 
# From -- ./inp_files/184303.got.cif
#   From: 2010.06.25/outbox.cif.g09.slc.cpg/sg2_93_cif.got.tgz:184303.got - 2010.06.27 13:26:56.
