data_PCOD8017192
_publ_section_title
;
Structure prediction by ZEFSAII (Michael W. Deem and Ramdas Pophale) SiO2 
 PCOD8017192
Probable space group: P -1
;
_chemical_formula_sum "Si O2"
_cell_formula_units_Z 16
_cell_length_a 11.550584
_cell_length_b 6.456976
_cell_length_c 24.044669
_cell_angle_alpha 124.979991
_cell_angle_beta 147.969599
_cell_angle_gamma 57.729873
_cell_volume 774.545494
_symmetry_space_group_name_H-M "P -1"
_symmetry_group_IT_number 2
_symmetry_cell_setting 'triclinic'
loop_
_space_group_symop_operation_xyz
x,y,z
-x,-y,-z
loop_
_atom_site_type_symbol
_atom_site_label
_atom_site_fract_x
_atom_site_fract_y
_atom_site_fract_z
Si Si1 0.470397 0.714768 0.608223
Si Si2 0.845492 0.832090 0.498889
Si Si3 0.681774 0.320728 0.337156
Si Si4 0.292939 0.206205 0.091113
Si Si5 0.298570 0.208553 0.444537
Si Si6 0.038838 0.431605 0.921653
Si Si7 0.275071 0.654406 0.953700
Si Si8 0.902519 0.893117 0.766026
O O1 0.458912 0.686014 0.665257
O O2 0.409605 0.461586 0.514672
O O3 0.715220 0.775750 0.706317
O O4 0.301662 0.924746 0.544100
O O5 0.759793 0.593507 0.395957
O O6 0.839482 0.775313 0.553127
O O7 0.097272 0.872465 0.594015
O O8 0.537495 0.248431 0.215576
O O9 0.114760 0.315925 0.082030
O O10 0.235677 0.360772 0.034794
O O11 0.301790 0.903576 0.039935
O O12 0.130868 0.146463 0.318847
O O13 0.500000 0.000000 0.500000
O O14 0.147017 0.471889 0.912252
O O15 0.893395 0.194369 0.821506
O O16 0.133680 0.741138 0.854816
O O17 0.500000 0.500000 0.000000
#
# Coordination Sequence:
#
# PCOD8017192 Si02
#       8
#     2   2   2   2   2   2   2   2
#     4  11  22  39  62  91 125 160 214 249 310 373
#     4  10  22  39  59  91 129 166 203 252 311 371
#     4  10  22  38  62  91 127 162 204 256 311 370
#     4  10  22  41  65  94 118 168 210 259 313 369
#     4  11  24  38  59  94 125 161 209 255 302 372
#     4  10  23  43  67  90 125 158 219 263 306 374
#     4  11  26  43  63  95 128 162 209 260 321 378
#     4  11  24  39  66  92 121 170 205 262 313 363
#
# _framework density 20.657277000000001
#
# number of rings (size 3 to 8) (size 9 to 14) (size 15 to 20)
#    0.000    1.500    1.250    2.625    3.500    8.000 
#    0.000    0.000    0.000    0.000    0.000    0.000 
#    0.000    0.000    0.000    0.000    0.000    0.000 
#
# Total GULP energy -198414.764756 kJ/mol
# GULP energy per Si atom -12400.922797 kJ/mol
# Density = 2.061026 g / cm^3
# Si number density = 20.657277 Si / 1000 Ang^3
#
#
#
# Elastic Constant Matrix: (Units=GPa)
#
#
# Indices 1 2 3 4 5 6 
#
# 1 39.4970 35.1461 18.6052 3.0519 -3.3239 -14.6044
# 2 35.1461 116.9225 58.0088 -3.0430 8.5376 -13.1555
# 3 18.6052 58.0088 158.9650 -0.6821 -10.2993 -8.7520
# 4 3.0519 -3.0430 -0.6821 28.5599 -4.4329 0.8633
# 5 -3.3239 8.5376 -10.2993 -4.4329 28.8535 -7.9047
# 6 -14.6044 -13.1555 -8.7520 0.8633 -7.9047 29.1069
#
#
#
# Elastic Compliance Matrix: (Units=1/GPa)
#
#
# Indices 1 2 3 4 5 6 
#
# 1 0.046290 -0.013521 0.001688 -0.004646 0.015220 0.021894
# 2 -0.013521 0.015204 -0.004710 0.001748 -0.008478 -0.003683
# 3 0.001688 -0.004710 0.008304 0.000262 0.005319 0.002651
# 4 -0.004646 0.001748 0.000262 0.036405 0.004254 -0.001387
# 5 0.015220 -0.008478 0.005319 0.004254 0.046368 0.017870
# 6 0.021894 -0.003683 0.002651 -0.001387 0.017870 0.049368
#
#
# Mechanical properties :
#
#
# Convention : Reuss Voigt Hill
#
# Bulk Modulus (GPa) = 27.23971 59.87831 43.55901
# Shear Modulus (GPa) = 20.22145 30.87902 25.55023
#
# Velocity S-wave (km/s) = 3.13214 3.87049 3.52072
# Velocity P-wave (km/s) = 5.12791 7.00170 6.13674
#
# Compressibility (1/GPa) = 0.03671111
#
# Stress axis : x y z
#
# Youngs Moduli (GPa) = 21.60299 65.77233 120.42794
#
# Poissons Ratio (x) = 0.88928 -0.20324
# Poissons Ratio (y) = 0.29209 0.56725
# Poissons Ratio (z) = -0.03646 0.30981
#
# Static dielectric constant tensor:
#      x y z
#    x 3.814830 0.076360 -0.103150 
#    y 0.076360 3.866700 -0.007380 
#    z -0.103150 -0.007380 3.871310 
# 
# 
# High freq. dielectric constant tensor:
#      x y z
#    x 1.801310 0.001510 -0.004340 
#    y 0.001510 1.816730 -0.003680 
#    z -0.004340 -0.003680 1.818390 
# 
# From -- ./inp_files/38032.got.cif
#   From: 2010.06.25/outbox.cif.g09.slc.cpg/sg2_20_cif.got.tgz:38032.got - 2010.06.27 13:26:56.
