data_PCOD8017794
_publ_section_title
;
Structure prediction by ZEFSAII (Michael W. Deem and Ramdas Pophale) SiO2 
 PCOD8017794
Probable space group: P -1
;
_chemical_formula_sum "Si O2"
_cell_formula_units_Z 16
_cell_length_a 14.433220
_cell_length_b 9.044893
_cell_length_c 14.588548
_cell_angle_alpha 149.453722
_cell_angle_beta 49.754715
_cell_angle_gamma 127.652272
_cell_volume 731.486064
_symmetry_space_group_name_H-M "P -1"
_symmetry_group_IT_number 2
_symmetry_cell_setting 'triclinic'
loop_
_space_group_symop_operation_xyz
x,y,z
-x,-y,-z
loop_
_atom_site_type_symbol
_atom_site_label
_atom_site_fract_x
_atom_site_fract_y
_atom_site_fract_z
Si Si1 0.784906 0.599862 0.716598
Si Si2 0.957234 0.072851 0.964241
Si Si3 0.846918 0.986299 0.347294
Si Si4 0.689717 0.526943 0.550188
Si Si5 0.485055 0.388561 0.050238
Si Si6 0.463226 0.696755 0.712144
Si Si7 0.621443 0.906001 0.333902
Si Si8 0.203635 0.443941 0.695596
O O1 0.781834 0.677230 0.650815
O O2 0.641601 0.515270 0.782975
O O3 0.843080 0.849234 0.880690
O O4 0.864004 0.334627 0.539711
O O5 0.064659 0.093895 0.832533
O O6 0.906310 0.378620 0.164234
O O7 0.000000 0.000000 0.000000
O O8 0.708914 0.875141 0.346494
O O9 0.864310 0.829876 0.349271
O O10 0.550341 0.615419 0.697343
O O11 0.743849 0.655438 0.487568
O O12 0.682790 0.169359 0.366880
O O13 0.598620 0.582819 0.132136
O O14 0.500000 0.500000 0.000000
O O15 0.494854 0.045141 0.864095
O O16 0.500000 0.500000 0.500000
O O17 0.315967 0.620006 0.778289
O O18 0.500000 0.000000 0.500000
#
# Coordination Sequence:
#
# PCOD8017794 Si02
#       8
#     2   2   2   2   2   2   2   2
#     4  11  25  45  67 102 132 178 228 275 335 408
#     4  12  26  48  70  93 132 181 237 278 331 395
#     4  11  25  43  72  97 137 178 223 277 336 403
#     4  10  22  42  68  98 143 179 212 274 349 401
#     4  12  24  37  68 100 139 171 231 270 339 404
#     4  10  22  39  65  99 140 179 217 273 344 401
#     4  11  21  42  67 102 138 174 219 277 340 406
#     4  11  23  43  67  99 134 177 226 276 338 389
#
# _framework density 21.873280000000001
#
# number of rings (size 3 to 8) (size 9 to 14) (size 15 to 20)
#    0.000    1.000    3.750    4.500    5.250    1.500 
#    0.000    3.750    0.000    0.000    0.000    0.000 
#    0.000    0.000    0.000    0.000    0.000    0.000 
#
# Total GULP energy -198280.394449 kJ/mol
# GULP energy per Si atom -12392.524653 kJ/mol
# Density = 2.182350 g / cm^3
# Si number density = 21.873280 Si / 1000 Ang^3
#
#
#
# Elastic Constant Matrix: (Units=GPa)
#
#
# Indices 1 2 3 4 5 6 
#
# 1 113.5383 30.9389 27.3646 6.8693 -7.1131 -21.6009
# 2 30.9389 91.0940 16.2848 -9.4544 -0.3477 -28.5188
# 3 27.3646 16.2848 79.6284 5.4106 -7.7533 -10.6870
# 4 6.8693 -9.4544 5.4106 35.1521 3.3544 -2.2155
# 5 -7.1131 -0.3477 -7.7533 3.3544 46.2511 2.8991
# 6 -21.6009 -28.5188 -10.6870 -2.2155 2.8991 37.3337
#
#
#
# Elastic Compliance Matrix: (Units=1/GPa)
#
#
# Indices 1 2 3 4 5 6 
#
# 1 0.010958 -0.002385 -0.002529 -0.002282 0.001185 0.003567
# 2 -0.002385 0.016097 -0.001561 0.005880 -0.001620 0.010944
# 3 -0.002529 -0.001561 0.014253 -0.002247 0.002081 0.001130
# 4 -0.002282 0.005880 -0.002247 0.031424 -0.003254 0.004646
# 5 0.001185 -0.001620 0.002081 -0.003254 0.022495 -0.001896
# 6 0.003567 0.010944 0.001130 0.004646 -0.001896 0.037956
#
#
# Mechanical properties :
#
#
# Convention : Reuss Voigt Hill
#
# Bulk Modulus (GPa) = 35.26221 48.15972 41.71097
# Shear Modulus (GPa) = 32.13647 37.72554 34.93100
#
# Velocity S-wave (km/s) = 3.83719 4.15749 4.00055
# Velocity P-wave (km/s) = 5.98232 6.71653 6.36003
#
# Compressibility (1/GPa) = 0.02835897
#
# Stress axis : x y z
#
# Youngs Moduli (GPa) = 91.25772 62.12221 70.15836
#
# Poissons Ratio (x) = 0.14818 0.17741
# Poissons Ratio (y) = 0.21768 0.10950
# Poissons Ratio (z) = 0.23077 0.09696
#
# Static dielectric constant tensor:
#      x y z
#    x 4.455510 -0.040320 -0.041360 
#    y -0.040320 3.867120 -0.054790 
#    z -0.041360 -0.054790 3.669060 
# 
# 
# High freq. dielectric constant tensor:
#      x y z
#    x 1.871370 -0.007830 -0.007520 
#    y -0.007830 1.849360 -0.002780 
#    z -0.007520 -0.002780 1.856810 
# 
# From -- ./inp_files/306910.got.cif
#   From: 2010.06.25/outbox.cif.g09.slc.cpg/sg2_154_cif.got.tgz:306910.got - 2010.06.27 13:26:56.
