data_PCOD8017946
_publ_section_title
;
Structure prediction by ZEFSAII (Michael W. Deem and Ramdas Pophale) SiO2 
 PCOD8017946
Probable space group: P -1
;
_chemical_formula_sum "Si O2"
_cell_formula_units_Z 16
_cell_length_a 9.290525
_cell_length_b 14.266027
_cell_length_c 9.664193
_cell_angle_alpha 63.700649
_cell_angle_beta 53.896495
_cell_angle_gamma 98.763523
_cell_volume 761.797860
_symmetry_space_group_name_H-M "P -1"
_symmetry_group_IT_number 2
_symmetry_cell_setting 'triclinic'
loop_
_space_group_symop_operation_xyz
x,y,z
-x,-y,-z
loop_
_atom_site_type_symbol
_atom_site_label
_atom_site_fract_x
_atom_site_fract_y
_atom_site_fract_z
Si Si1 0.275138 0.975933 0.181195
Si Si2 0.860990 0.787546 0.400335
Si Si3 0.292720 0.376702 0.136691
Si Si4 0.496899 0.827075 0.620192
Si Si5 0.253766 0.919194 0.535411
Si Si6 0.765997 0.796496 0.955798
Si Si7 0.586143 0.633823 0.428969
Si Si8 0.777782 0.445584 0.091001
O O1 0.284852 0.102159 0.122001
O O2 0.195702 0.895714 0.421443
O O3 0.113811 0.903046 0.189607
O O4 0.500000 0.000000 0.000000
O O5 0.830615 0.718767 0.606942
O O6 0.713409 0.842079 0.430949
O O7 0.802595 0.692840 0.364936
O O8 0.344117 0.309913 0.032072
O O9 0.500000 0.500000 0.000000
O O10 0.166075 0.430508 0.104301
O O11 0.374103 0.852920 0.554657
O O12 0.319886 0.680501 0.869069
O O13 0.577418 0.929382 0.630626
O O14 0.023866 0.858230 0.784040
O O15 0.645519 0.734278 0.208966
O O16 0.500000 0.500000 0.500000
O O17 0.397779 0.610077 0.650976
O O18 0.000000 0.500000 0.000000
#
# Coordination Sequence:
#
# PCOD8017946 Si02
#       8
#     2   2   2   2   2   2   2   2
#     4  12  28  43  67 102 137 179 228 288 342 405
#     4  11  23  44  69  98 139 173 230 276 345 407
#     4  12  21  41  72  98 126 184 220 273 338 408
#     4  10  22  39  70 100 128 178 230 276 332 415
#     4  11  23  44  69  98 134 176 232 280 340 412
#     4  12  24  43  73  94 139 178 223 283 348 398
#     4  11  24  43  66 103 131 176 224 279 338 405
#     4  11  24  41  67  99 138 175 228 276 336 402
#
# _framework density 21.002946999999999
#
# number of rings (size 3 to 8) (size 9 to 14) (size 15 to 20)
#    0.000    0.750    6.250    1.875    3.500    2.500 
#    0.000    0.000    0.000    3.000    0.000    0.000 
#    0.000    0.000    0.000    0.000    0.000    0.000 
#
# Total GULP energy -198261.104028 kJ/mol
# GULP energy per Si atom -12391.319002 kJ/mol
# Density = 2.095514 g / cm^3
# Si number density = 21.002947 Si / 1000 Ang^3
#
#
#
# Elastic Constant Matrix: (Units=GPa)
#
#
# Indices 1 2 3 4 5 6 
#
# 1 155.9117 66.4271 35.8484 -7.5058 -6.4858 -2.9670
# 2 66.4271 131.1235 20.1335 -20.7785 -2.5777 16.4126
# 3 35.8484 20.1335 69.6392 -0.1720 13.7750 -8.0925
# 4 -7.5058 -20.7785 -0.1720 22.8744 9.0657 2.6926
# 5 -6.4858 -2.5777 13.7750 9.0657 42.7390 -5.6723
# 6 -2.9670 16.4126 -8.0925 2.6926 -5.6723 48.2290
#
#
#
# Elastic Compliance Matrix: (Units=1/GPa)
#
#
# Indices 1 2 3 4 5 6 
#
# 1 0.009391 -0.004823 -0.003847 -0.002871 0.003264 0.002118
# 2 -0.004823 0.012836 -0.001323 0.011883 -0.002833 -0.005884
# 3 -0.003847 -0.001323 0.018238 -0.000185 -0.006163 0.002559
# 4 -0.002871 0.011883 -0.000185 0.060049 -0.013619 -0.009206
# 5 0.003264 -0.002833 -0.006163 -0.013619 0.029171 0.004322
# 6 0.002118 -0.005884 0.002559 -0.009206 0.004322 0.024319
#
#
# Mechanical properties :
#
#
# Convention : Reuss Voigt Hill
#
# Bulk Modulus (GPa) = 48.82354 66.83248 57.82801
# Shear Modulus (GPa) = 27.65261 38.38617 33.01939
#
# Velocity S-wave (km/s) = 3.63244 4.27975 3.96931
# Velocity P-wave (km/s) = 6.39448 7.50408 6.97139
#
# Compressibility (1/GPa) = 0.02048192
#
# Stress axis : x y z
#
# Youngs Moduli (GPa) = 106.48598 77.90318 54.83001
#
# Poissons Ratio (x) = 0.37570 0.21091
# Poissons Ratio (y) = 0.51355 0.07252
# Poissons Ratio (z) = 0.40960 0.10303
#
# Static dielectric constant tensor:
#      x y z
#    x 4.121410 0.718280 0.020340 
#    y 0.718280 6.241300 -0.008790 
#    z 0.020340 -0.008790 3.353160 
# 
# 
# High freq. dielectric constant tensor:
#      x y z
#    x 1.837020 0.016930 0.005120 
#    y 0.016930 1.834710 -0.027540 
#    z 0.005120 -0.027540 1.805170 
# 
# From -- ./inp_files/205844.got.cif
#   From: 2010.06.25/outbox.cif.g09.slc.cpg/sg2_103_cif.got.tgz:205844.got - 2010.06.27 13:26:56.
