data_PCOD8017320
_publ_section_title
;
Structure prediction by ZEFSAII (Michael W. Deem and Ramdas Pophale) SiO2 
 PCOD8017320
Probable space group: P -1
;
_chemical_formula_sum "Si O2"
_cell_formula_units_Z 14
_cell_length_a 7.686337
_cell_length_b 14.910942
_cell_length_c 11.379240
_cell_angle_alpha 122.084516
_cell_angle_beta 119.410886
_cell_angle_gamma 35.433407
_cell_volume 636.098764
_symmetry_space_group_name_H-M "P -1"
_symmetry_group_IT_number 2
_symmetry_cell_setting 'triclinic'
loop_
_space_group_symop_operation_xyz
x,y,z
-x,-y,-z
loop_
_atom_site_type_symbol
_atom_site_label
_atom_site_fract_x
_atom_site_fract_y
_atom_site_fract_z
Si Si1 0.364400 0.754132 0.523332
Si Si2 0.499129 0.854076 0.293814
Si Si3 0.241387 0.753896 0.241578
Si Si4 0.639484 0.872464 0.101355
Si Si5 0.036015 0.223834 0.444409
Si Si6 0.807242 0.457232 0.331336
Si Si7 0.630593 0.807415 0.805035
O O1 0.164638 0.849858 0.404744
O O2 0.716108 0.591503 0.483061
O O3 0.356094 0.858409 0.679681
O O4 0.240892 0.699533 0.510917
O O5 0.368110 0.787787 0.212944
O O6 0.640399 0.810104 0.180235
O O7 0.760963 0.767682 0.417677
O O8 0.233514 0.042493 0.356874
O O9 0.498048 0.563454 0.226546
O O10 0.953419 0.807945 0.133879
O O11 0.376334 0.066068 0.145272
O O12 0.589851 0.810216 0.933933
O O13 0.901749 0.319370 0.344787
O O14 0.065514 0.372091 0.260427
#
# Coordination Sequence:
#
# PCOD8017320 Si02
#       7
#     2   2   2   2   2   2   2
#     4  10  22  38  66  95 124 163 215 264 311 372
#     4  11  22  38  66  97 129 166 212 267 308 380
#     4  10  24  41  68  93 130 162 215 263 321 363
#     4  11  24  45  62  95 133 170 210 261 316 387
#     4  11  21  37  66  99 127 163 218 262 316 370
#     4  10  22  41  65  93 127 167 212 266 314 376
#     4  11  23  42  66  90 132 172 210 258 324 376
#
# _framework density 22.009160000000001
#
# number of rings (size 3 to 8) (size 9 to 14) (size 15 to 20)
#    0.857    0.571    2.857    2.571    4.000    1.714 
#    2.571    2.857    0.000    0.000    0.000    0.000 
#    0.000    0.000    0.000    0.000    0.000    0.000 
#
# Total GULP energy -173480.138678 kJ/mol
# GULP energy per Si atom -12391.438477 kJ/mol
# Density = 2.195907 g / cm^3
# Si number density = 22.009160 Si / 1000 Ang^3
#
#
#
# Elastic Constant Matrix: (Units=GPa)
#
#
# Indices 1 2 3 4 5 6 
#
# 1 105.3530 16.0228 33.9145 -4.2011 -17.2511 5.2939
# 2 16.0228 62.1741 40.9943 -5.6647 -13.2743 4.7131
# 3 33.9145 40.9943 87.7856 -5.2269 1.9108 -10.0930
# 4 -4.2011 -5.6647 -5.2269 24.7183 0.6481 -8.1276
# 5 -17.2511 -13.2743 1.9108 0.6481 21.8023 -3.6516
# 6 5.2939 4.7131 -10.0930 -8.1276 -3.6516 26.7873
#
#
#
# Elastic Compliance Matrix: (Units=1/GPa)
#
#
# Indices 1 2 3 4 5 6 
#
# 1 0.014257 0.005992 -0.009276 -0.000346 0.014839 -0.005449
# 2 0.005992 0.034022 -0.020026 0.000236 0.025329 -0.011191
# 3 -0.009276 -0.020026 0.026654 0.004631 -0.019640 0.014127
# 4 -0.000346 0.000236 0.004631 0.046684 0.000763 0.016040
# 5 0.014839 0.025329 -0.019640 0.000763 0.073979 -0.004473
# 6 -0.005449 -0.011191 0.014127 0.016040 -0.004473 0.049957
#
#
# Mechanical properties :
#
#
# Convention : Reuss Voigt Hill
#
# Bulk Modulus (GPa) = 35.32107 48.57509 41.94808
# Shear Modulus (GPa) = 16.57765 25.62033 21.09899
#
# Velocity S-wave (km/s) = 2.74746 3.41556 3.09956
# Velocity P-wave (km/s) = 5.11350 6.13783 5.64893
#
# Compressibility (1/GPa) = 0.02831171
#
# Stress axis : x y z
#
# Youngs Moduli (GPa) = 70.14341 29.39311 37.51739
#
# Poissons Ratio (x) = -0.17612 0.34801
# Poissons Ratio (y) = -0.42028 0.75133
# Poissons Ratio (z) = 0.65064 0.58863
#
# Static dielectric constant tensor:
#      x y z
#    x 3.736280 -0.143860 -0.216840 
#    y -0.143860 3.856680 -0.092160 
#    z -0.216840 -0.092160 3.812500 
# 
# 
# High freq. dielectric constant tensor:
#      x y z
#    x 1.852620 -0.010150 -0.018310 
#    y -0.010150 1.867170 -0.009670 
#    z -0.018310 -0.009670 1.848400 
# 
# From -- ./inp_files/403278.got.cif
#   From: 2010.06.25/outbox.cif.g09.slc.cpg/sg2_202_cif.got.tgz:403278.got - 2010.06.27 13:26:56.
