data_PCOD8017527
_publ_section_title
;
Structure prediction by ZEFSAII (Michael W. Deem and Ramdas Pophale) SiO2 
 PCOD8017527
Probable space group: P -1
;
_chemical_formula_sum "Si O2"
_cell_formula_units_Z 12
_cell_length_a 11.413189
_cell_length_b 9.342319
_cell_length_c 9.133787
_cell_angle_alpha 96.478111
_cell_angle_beta 51.258970
_cell_angle_gamma 63.135246
_cell_volume 557.449347
_symmetry_space_group_name_H-M "P -1"
_symmetry_group_IT_number 2
_symmetry_cell_setting 'triclinic'
loop_
_space_group_symop_operation_xyz
x,y,z
-x,-y,-z
loop_
_atom_site_type_symbol
_atom_site_label
_atom_site_fract_x
_atom_site_fract_y
_atom_site_fract_z
Si Si1 0.851643 0.675988 0.029718
Si Si2 0.841363 0.997674 0.203277
Si Si3 0.958141 0.017602 0.704240
Si Si4 0.474399 0.595572 0.877438
Si Si5 0.416732 0.385194 0.662965
Si Si6 0.157994 0.596278 0.603527
O O1 0.809184 0.865493 0.137513
O O2 0.647979 0.711097 0.196465
O O3 0.000000 0.500000 0.000000
O O4 0.965455 0.610391 0.773085
O O5 0.932515 0.919549 0.288852
O O6 0.622888 0.214750 0.398458
O O7 0.000000 0.000000 0.000000
O O8 0.715989 0.173222 0.941023
O O9 0.000000 0.000000 0.500000
O O10 0.063598 0.810368 0.664154
O O11 0.448864 0.496209 0.758735
O O12 0.678612 0.553726 0.667317
O O13 0.500000 0.500000 0.000000
O O14 0.255791 0.538045 0.683431
#
# Coordination Sequence:
#
# PCOD8017527 Si02
#       6
#     2   2   2   2   2   2
#     4  10  22  39  61  94 131 161 208 263 316 364
#     4  12  21  39  67  95 123 168 214 261 305 376
#     4  12  23  38  63  93 126 161 213 263 310 363
#     4  12  23  41  65  93 127 165 213 260 313 376
#     4  11  23  39  65  93 127 165 210 261 316 371
#     4  11  22  41  62  94 123 165 214 254 308 372
#
# _framework density 21.526617999999999
#
# number of rings (size 3 to 8) (size 9 to 14) (size 15 to 20)
#    0.000    0.667    5.000    4.000    0.000    0.000 
#    0.000    0.833    3.667    2.000    0.000    0.000 
#    0.000    0.000    0.000    0.000    0.000    0.000 
#
# Total GULP energy -148667.915054 kJ/mol
# GULP energy per Si atom -12388.992921 kJ/mol
# Density = 2.147762 g / cm^3
# Si number density = 21.526618 Si / 1000 Ang^3
#
#
#
# Elastic Constant Matrix: (Units=GPa)
#
#
# Indices 1 2 3 4 5 6 
#
# 1 33.8621 25.7221 33.8375 -8.8072 -6.5628 -2.3877
# 2 25.7221 102.7760 68.8541 1.4855 -10.9748 -8.8568
# 3 33.8375 68.8541 201.1952 -5.6596 -23.7823 6.5400
# 4 -8.8072 1.4855 -5.6596 50.1287 -2.1771 -6.3985
# 5 -6.5628 -10.9748 -23.7823 -2.1771 35.9531 -5.7788
# 6 -2.3877 -8.8568 6.5400 -6.3985 -5.7788 33.4008
#
#
#
# Elastic Compliance Matrix: (Units=1/GPa)
#
#
# Indices 1 2 3 4 5 6 
#
# 1 0.042140 -0.007147 -0.004088 0.007849 0.003941 0.004103
# 2 -0.007147 0.014570 -0.003821 -0.001557 0.001165 0.004004
# 3 -0.004088 -0.003821 0.007346 0.000044 0.002582 -0.002289
# 4 0.007849 -0.001557 0.000044 0.022142 0.003118 0.004921
# 5 0.003941 0.001165 0.002582 0.003118 0.031779 0.006181
# 6 0.004103 0.004004 -0.002289 0.004921 0.006181 0.033755
#
#
# Mechanical properties :
#
#
# Convention : Reuss Voigt Hill
#
# Bulk Modulus (GPa) = 29.45900 66.07341 47.76620
# Shear Modulus (GPa) = 25.88555 37.85783 31.87169
#
# Velocity S-wave (km/s) = 3.47146 4.19818 3.85199
# Velocity P-wave (km/s) = 5.45735 7.36614 6.48239
#
# Compressibility (1/GPa) = 0.03394548
#
# Stress axis : x y z
#
# Youngs Moduli (GPa) = 23.73041 68.63420 136.12580
#
# Poissons Ratio (x) = 0.49050 0.55651
# Poissons Ratio (y) = 0.16959 0.52007
# Poissons Ratio (z) = 0.09701 0.26222
#
# Static dielectric constant tensor:
#      x y z
#    x 5.382420 -2.150900 2.524870 
#    y -2.150900 9.314190 -7.140230 
#    z 2.524870 -7.140230 13.871050 
# 
# 
# High freq. dielectric constant tensor:
#      x y z
#    x 1.803490 -0.014360 -0.015450 
#    y -0.014360 1.848170 0.000940 
#    z -0.015450 0.000940 1.881900 
# 
# From -- ./inp_files/238824.got.cif
#   From: 2010.06.25/outbox.cif.g09.slc.cpg/sg2_120_cif.got.tgz:238824.got - 2010.06.27 13:26:56.
