data_PCOD8017104
_publ_section_title
;
Structure prediction by ZEFSAII (Michael W. Deem and Ramdas Pophale) SiO2 
 PCOD8017104
Probable space group: P -1
;
_chemical_formula_sum "Si O2"
_cell_formula_units_Z 14
_cell_length_a 17.186522
_cell_length_b 8.228232
_cell_length_c 5.548493
_cell_angle_alpha 118.810609
_cell_angle_beta 100.966885
_cell_angle_gamma 46.731486
_cell_volume 488.399344
_symmetry_space_group_name_H-M "P -1"
_symmetry_group_IT_number 2
_symmetry_cell_setting 'triclinic'
loop_
_space_group_symop_operation_xyz
x,y,z
-x,-y,-z
loop_
_atom_site_type_symbol
_atom_site_label
_atom_site_fract_x
_atom_site_fract_y
_atom_site_fract_z
Si Si1 0.109863 0.428639 0.896972
Si Si2 0.667713 0.105491 0.237266
Si Si3 0.760030 0.398752 0.419403
Si Si4 0.523262 0.615614 0.292189
Si Si5 0.049770 0.621537 0.500740
Si Si6 0.845064 0.209403 0.834528
Si Si7 0.566318 0.962145 0.786916
O O1 0.055178 0.472889 0.631944
O O2 0.210163 0.120768 0.754918
O O3 0.031269 0.544685 0.175021
O O4 0.147634 0.579932 0.003989
O O5 0.641912 0.358679 0.302761
O O6 0.574613 0.218337 0.457719
O O7 0.651352 0.986638 0.925476
O O8 0.833962 0.464765 0.520365
O O9 0.782040 0.250308 0.579566
O O10 0.633763 0.673433 0.528717
O O11 0.784776 0.245611 0.073655
O O12 0.519747 0.822117 0.308142
O O13 0.500000 0.500000 0.000000
O O14 0.963551 0.924892 0.703183
O O15 0.500000 0.000000 0.000000
#
# Coordination Sequence:
#
# PCOD8017104 Si02
#       7
#     2   2   2   2   2   2   2
#     4  10  17  26  46  70 104 133 167 208 274 320
#     4  10  19  35  53  76 102 150 176 230 270 316
#     4  10  18  30  45  69 103 142 171 212 264 319
#     4   9  20  35  54  72 101 140 189 227 271 314
#     4  10  17  27  45  72 103 135 168 215 274 327
#     4  10  17  28  46  68 105 136 170 213 275 324
#     4  11  22  35  52  77 110 150 184 219 265 321
#
# _framework density 28.665064999999998
#
# number of rings (size 3 to 8) (size 9 to 14) (size 15 to 20)
#    0.000    2.000    2.857    6.000    2.000    0.571 
#    0.000    0.000    0.000    0.000    0.000    0.000 
#    0.000   12.571    0.000    0.000    0.000    0.000 
#
# Total GULP energy -173601.136756 kJ/mol
# GULP energy per Si atom -12400.081197 kJ/mol
# Density = 2.859982 g / cm^3
# Si number density = 28.665065 Si / 1000 Ang^3
#
#
#
# Elastic Constant Matrix: (Units=GPa)
#
#
# Indices 1 2 3 4 5 6 
#
# 1 90.7754 74.0301 57.9433 -2.7750 -1.4249 8.4346
# 2 74.0301 284.2335 126.0258 0.6517 -2.4747 7.4966
# 3 57.9433 126.0258 217.2209 -6.4497 -18.5990 -5.9421
# 4 -2.7750 0.6517 -6.4497 71.1546 2.5522 4.5845
# 5 -1.4249 -2.4747 -18.5990 2.5522 61.7969 -0.6200
# 6 8.4346 7.4966 -5.9421 4.5845 -0.6200 49.9989
#
#
#
# Elastic Compliance Matrix: (Units=1/GPa)
#
#
# Indices 1 2 3 4 5 6 
#
# 1 0.015122 -0.002754 -0.002536 0.000567 -0.000573 -0.002499
# 2 -0.002754 0.005324 -0.002429 -0.000317 -0.000574 -0.000600
# 3 -0.002536 -0.002429 0.006909 0.000377 0.001924 0.001603
# 4 0.000567 -0.000317 0.000377 0.014215 -0.000486 -0.001313
# 5 -0.000573 -0.000574 0.001924 -0.000486 0.016752 0.000664
# 6 -0.002499 -0.000600 0.001603 -0.001313 0.000664 0.020831
#
#
# Mechanical properties :
#
#
# Convention : Reuss Voigt Hill
#
# Bulk Modulus (GPa) = 83.92394 123.13648 103.53021
# Shear Modulus (GPa) = 50.72766 58.87211 54.79988
#
# Velocity S-wave (km/s) = 4.21131 4.53680 4.37708
# Velocity P-wave (km/s) = 7.27927 8.39605 7.85752
#
# Compressibility (1/GPa) = 0.01191555
#
# Stress axis : x y z
#
# Youngs Moduli (GPa) = 66.12893 187.81719 144.73023
#
# Poissons Ratio (x) = 0.51732 0.36709
# Poissons Ratio (y) = 0.18215 0.35160
# Poissons Ratio (z) = 0.16773 0.45627
#
# Static dielectric constant tensor:
#      x y z
#    x 5.431990 0.055130 0.278320 
#    y 0.055130 6.172490 -0.710560 
#    z 0.278320 -0.710560 6.137970 
# 
# 
# High freq. dielectric constant tensor:
#      x y z
#    x 2.210550 0.000090 0.026680 
#    y 0.000090 2.188950 -0.021810 
#    z 0.026680 -0.021810 2.197100 
# 
# From -- ./inp_files/34092.got.cif
#   From: 2010.06.25/outbox.cif.g09.slc.cpg/sg2_18_cif.got.tgz:34092.got - 2010.06.27 13:26:56.
