data_PCOD8017894
_publ_section_title
;
Structure prediction by ZEFSAII (Michael W. Deem and Ramdas Pophale) SiO2 
 PCOD8017894
Probable space group: P -1
;
_chemical_formula_sum "Si O2"
_cell_formula_units_Z 16
_cell_length_a 9.755200
_cell_length_b 10.748975
_cell_length_c 15.068290
_cell_angle_alpha 100.984966
_cell_angle_beta 52.373355
_cell_angle_gamma 58.752095
_cell_volume 708.686950
_symmetry_space_group_name_H-M "P -1"
_symmetry_group_IT_number 2
_symmetry_cell_setting 'triclinic'
loop_
_space_group_symop_operation_xyz
x,y,z
-x,-y,-z
loop_
_atom_site_type_symbol
_atom_site_label
_atom_site_fract_x
_atom_site_fract_y
_atom_site_fract_z
Si Si1 0.948522 0.805973 0.260306
Si Si2 0.672199 0.043046 0.654379
Si Si3 0.779974 0.000311 0.994611
Si Si4 0.162760 0.295727 0.349333
Si Si5 0.863697 0.243634 0.009759
Si Si6 0.808469 0.390522 0.347881
Si Si7 0.282238 0.719484 0.267133
Si Si8 0.360419 0.259014 0.628066
O O1 0.870806 0.710047 0.311383
O O2 0.238658 0.687775 0.181383
O O3 0.667121 0.065788 0.424815
O O4 0.009589 0.760272 0.126208
O O5 0.631340 0.182826 0.759836
O O6 0.411479 0.207093 0.705904
O O7 0.671143 0.907882 0.683401
O O8 0.984416 0.875682 0.460258
O O9 0.932716 0.844084 0.998565
O O10 0.920118 0.857801 0.830320
O O11 0.420186 0.199798 0.170539
O O12 0.864607 0.095358 0.969943
O O13 0.000000 0.500000 0.500000
O O14 0.904301 0.387054 0.404877
O O15 0.531125 0.494016 0.193111
O O16 0.500000 0.500000 0.500000
O O17 0.769087 0.525406 0.310050
#
# Coordination Sequence:
#
# PCOD8017894 Si02
#       8
#     2   2   2   2   2   2   2   2
#     4  10  22  39  67  99 133 177 234 290 343 418
#     4  10  23  42  69  97 138 178 238 289 347 413
#     4  11  27  45  69 103 150 182 239 296 351 428
#     4  12  29  47  75 105 146 191 238 291 365 422
#     4  11  23  41  71  99 141 181 236 285 367 411
#     4  12  29  47  75 105 146 191 238 291 365 422
#     4  10  22  39  67  99 133 177 234 290 343 418
#     4  10  23  42  69  97 138 178 238 289 347 413
#
# _framework density 22.576965000000001
#
# number of rings (size 3 to 8) (size 9 to 14) (size 15 to 20)
#    0.000    1.250    0.000    3.750   21.000    1.000 
#    0.000    2.500    0.000    0.000    0.000    0.000 
#    0.000    0.000    0.000    0.000    0.000    0.000 
#
# Total GULP energy -198439.620943 kJ/mol
# GULP energy per Si atom -12402.476309 kJ/mol
# Density = 2.252558 g / cm^3
# Si number density = 22.576965 Si / 1000 Ang^3
#
#
#
# Elastic Constant Matrix: (Units=GPa)
#
#
# Indices 1 2 3 4 5 6 
#
# 1 135.5632 31.6774 41.8443 8.9050 11.7485 -5.0437
# 2 31.6774 102.6486 11.6026 10.8000 5.8636 0.3799
# 3 41.8443 11.6026 88.0429 5.8021 11.1886 4.1150
# 4 8.9050 10.8000 5.8021 30.4710 -0.3101 4.0520
# 5 11.7485 5.8636 11.1886 -0.3101 25.1097 4.1819
# 6 -5.0437 0.3799 4.1150 4.0520 4.1819 34.8354
#
#
#
# Elastic Compliance Matrix: (Units=1/GPa)
#
#
# Indices 1 2 3 4 5 6 
#
# 1 0.009512 -0.002185 -0.003906 -0.001603 -0.002613 0.002363
# 2 -0.002185 0.010845 0.000018 -0.003242 -0.001580 0.000130
# 3 -0.003906 0.000018 0.013898 -0.001346 -0.004127 -0.001555
# 4 -0.001603 -0.003242 -0.001346 0.035330 0.003300 -0.004543
# 5 -0.002613 -0.001580 -0.004127 0.003300 0.044224 -0.005566
# 6 0.002363 0.000130 -0.001555 -0.004543 -0.005566 0.030428
#
#
# Mechanical properties :
#
#
# Convention : Reuss Voigt Hill
#
# Bulk Modulus (GPa) = 45.22979 55.16701 50.19840
# Shear Modulus (GPa) = 30.53389 34.15857 32.34623
#
# Velocity S-wave (km/s) = 3.68154 3.89393 3.78922
# Velocity P-wave (km/s) = 6.17646 6.68618 6.43637
#
# Compressibility (1/GPa) = 0.02210932
#
# Stress axis : x y z
#
# Youngs Moduli (GPa) = 105.12546 92.20734 71.95295
#
# Poissons Ratio (x) = 0.20146 0.28103
# Poissons Ratio (y) = 0.22969 -0.00126
# Poissons Ratio (z) = 0.41059 -0.00162
#
# Static dielectric constant tensor:
#      x y z
#    x 4.394250 -0.051720 0.052220 
#    y -0.051720 4.083070 0.147680 
#    z 0.052220 0.147680 3.908840 
# 
# 
# High freq. dielectric constant tensor:
#      x y z
#    x 1.903730 0.004620 0.000640 
#    y 0.004620 1.885600 0.006290 
#    z 0.000640 0.006290 1.885820 
# 
# From -- ./inp_files/500540.got.cif
#   From: 2010.06.25/outbox.cif.g09.slc.cpg/sg2_251_cif.got.tgz:500540.got - 2010.06.27 13:26:56.
