data_PCOD8017508
_publ_section_title
;
Structure prediction by ZEFSAII (Michael W. Deem and Ramdas Pophale) SiO2 
 PCOD8017508
Probable space group: P -1
;
_chemical_formula_sum "Si O2"
_cell_formula_units_Z 14
_cell_length_a 14.403935
_cell_length_b 6.304627
_cell_length_c 9.281998
_cell_angle_alpha 53.494209
_cell_angle_beta 89.188928
_cell_angle_gamma 73.838315
_cell_volume 638.111756
_symmetry_space_group_name_H-M "P -1"
_symmetry_group_IT_number 2
_symmetry_cell_setting 'triclinic'
loop_
_space_group_symop_operation_xyz
x,y,z
-x,-y,-z
loop_
_atom_site_type_symbol
_atom_site_label
_atom_site_fract_x
_atom_site_fract_y
_atom_site_fract_z
Si Si1 0.942898 0.940631 0.386264
Si Si2 0.433323 0.811209 0.405209
Si Si3 0.461705 0.793694 0.735396
Si Si4 0.104749 0.578936 0.314323
Si Si5 0.759729 0.074712 0.809554
Si Si6 0.840852 0.467058 0.984643
Si Si7 0.656350 0.333876 0.975487
O O1 0.878381 0.746757 0.515165
O O2 0.010813 0.780272 0.318465
O O3 0.875421 0.237812 0.203178
O O4 0.000000 0.000000 0.500000
O O5 0.500000 0.500000 0.500000
O O6 0.420370 0.897559 0.537920
O O7 0.324125 0.878181 0.325017
O O8 0.492532 0.002282 0.260175
O O9 0.551109 0.499386 0.838203
O O10 0.365844 0.787044 0.825184
O O11 0.196922 0.673654 0.319713
O O12 0.090820 0.620767 0.124168
O O13 0.714837 0.086014 0.966011
O O14 0.843526 0.768668 0.916310
O O15 0.725978 0.519434 0.929179
#
# Coordination Sequence:
#
# PCOD8017508 Si02
#       7
#     2   2   2   2   2   2   2
#     4  11  25  46  72 101 129 172 218 267 336 404
#     4  11  22  38  62  91 128 171 219 268 322 376
#     4  10  22  39  61  89 126 171 219 269 314 377
#     4  10  25  45  70  97 136 169 218 268 334 399
#     4  11  23  41  67  97 132 174 220 268 327 387
#     4  11  24  44  67  98 136 172 217 276 329 392
#     4  10  22  40  61  89 128 169 216 268 322 375
#
# _framework density 21.939730000000001
#
# number of rings (size 3 to 8) (size 9 to 14) (size 15 to 20)
#    0.000    1.429    2.857    1.286    0.000   12.000 
#    0.000    0.000    0.000    0.000    0.000    0.000 
#    0.000    0.000    0.000    0.000    0.000    0.000 
#
# Total GULP energy -173544.642906 kJ/mol
# GULP energy per Si atom -12396.045922 kJ/mol
# Density = 2.188979 g / cm^3
# Si number density = 21.939730 Si / 1000 Ang^3
#
#
#
# Elastic Constant Matrix: (Units=GPa)
#
#
# Indices 1 2 3 4 5 6 
#
# 1 99.2873 49.2073 51.7628 2.2945 -19.1244 13.0613
# 2 49.2073 129.2405 50.6047 -7.7806 -10.7410 11.7704
# 3 51.7628 50.6047 117.0421 -6.6961 -10.3137 8.7904
# 4 2.2945 -7.7806 -6.6961 36.5447 -1.3104 -6.1571
# 5 -19.1244 -10.7410 -10.3137 -1.3104 36.9870 1.0847
# 6 13.0613 11.7704 8.7904 -6.1571 1.0847 34.7472
#
#
#
# Elastic Compliance Matrix: (Units=1/GPa)
#
#
# Indices 1 2 3 4 5 6 
#
# 1 0.016217 -0.003521 -0.004975 -0.003206 0.005991 -0.004400
# 2 -0.003521 0.010397 -0.002698 0.001754 0.000544 -0.001222
# 3 -0.004975 -0.002698 0.012022 0.001958 0.000063 0.000088
# 4 -0.003206 0.001754 0.001958 0.029197 0.000277 0.005281
# 5 0.005991 0.000544 0.000063 0.000277 0.030418 -0.003353
# 6 -0.004400 -0.001222 0.000088 0.005281 -0.003353 0.031865
#
#
# Mechanical properties :
#
#
# Convention : Reuss Voigt Hill
#
# Bulk Modulus (GPa) = 61.54641 72.07993 66.81317
# Shear Modulus (GPa) = 31.66179 34.58877 33.12528
#
# Velocity S-wave (km/s) = 3.80297 3.97487 3.88987
# Velocity P-wave (km/s) = 6.88454 7.34786 7.11997
#
# Compressibility (1/GPa) = 0.01624790
#
# Stress axis : x y z
#
# Youngs Moduli (GPa) = 61.66247 96.18549 83.18394
#
# Poissons Ratio (x) = 0.33868 0.41383
# Poissons Ratio (y) = 0.21712 0.22441
# Poissons Ratio (z) = 0.30676 0.25949
#
# Static dielectric constant tensor:
#      x y z
#    x 4.092880 -0.097290 0.108010 
#    y -0.097290 4.879450 -1.009790 
#    z 0.108010 -1.009790 5.344800 
# 
# 
# High freq. dielectric constant tensor:
#      x y z
#    x 1.863250 0.008540 -0.014190 
#    y 0.008540 1.871860 0.004500 
#    z -0.014190 0.004500 1.856080 
# 
# From -- ./inp_files/40109.got.cif
#   From: 2010.06.25/outbox.cif.g09.slc.cpg/sg2_21_cif.got.tgz:40109.got - 2010.06.27 13:26:56.
