data_PCOD8017524
_publ_section_title
;
Structure prediction by ZEFSAII (Michael W. Deem and Ramdas Pophale) SiO2 
 PCOD8017524
Probable space group: P -1
;
_chemical_formula_sum "Si O2"
_cell_formula_units_Z 16
_cell_length_a 14.531558
_cell_length_b 14.935085
_cell_length_c 8.606117
_cell_angle_alpha 95.364657
_cell_angle_beta 76.734769
_cell_angle_gamma 29.222610
_cell_volume 697.625167
_symmetry_space_group_name_H-M "P -1"
_symmetry_group_IT_number 2
_symmetry_cell_setting 'triclinic'
loop_
_space_group_symop_operation_xyz
x,y,z
-x,-y,-z
loop_
_atom_site_type_symbol
_atom_site_label
_atom_site_fract_x
_atom_site_fract_y
_atom_site_fract_z
Si Si1 0.424975 0.292424 0.312212
Si Si2 0.688197 0.812977 0.121779
Si Si3 0.792178 0.195782 0.238340
Si Si4 0.785748 0.686244 0.734655
Si Si5 0.075259 0.211627 0.912571
Si Si6 0.871146 0.962688 0.396418
Si Si7 0.372979 0.313940 0.686115
Si Si8 0.740013 0.363614 0.556036
O O1 0.318078 0.324207 0.222448
O O2 0.375623 0.289965 0.498629
O O3 0.283117 0.509714 0.402879
O O4 0.720766 0.035060 0.129673
O O5 0.796880 0.803205 0.169853
O O6 0.687897 0.725334 0.211913
O O7 0.414117 0.067750 0.209408
O O8 0.861999 0.644787 0.874468
O O9 0.847962 0.234881 0.328098
O O10 0.533580 0.437996 0.287090
O O11 0.769500 0.129820 0.349758
O O12 0.000000 0.000000 0.000000
O O13 0.000000 0.500000 0.500000
O O14 0.999167 0.231892 0.782522
O O15 0.837419 0.428696 0.148204
O O16 0.070268 0.831753 0.414159
O O17 0.634540 0.128567 0.604291
#
# Coordination Sequence:
#
# PCOD8017524 Si02
#       8
#     2   2   2   2   2   2   2   2
#     4  10  23  41  63  99 132 181 223 282 340 397
#     4  10  23  40  61  98 131 192 238 274 328 395
#     4  11  26  50  76 101 135 178 217 280 357 422
#     4  10  22  39  61  93 139 176 234 283 335 391
#     4  10  22  41  66  93 142 178 236 274 329 396
#     4  11  26  45  70 110 133 178 226 281 348 409
#     4  11  23  41  66  94 139 182 231 284 330 397
#     4  11  25  47  73 102 141 166 226 283 344 422
#
# _framework density 22.934954000000001
#
# number of rings (size 3 to 8) (size 9 to 14) (size 15 to 20)
#    0.000    1.500    2.500    1.500    5.250    7.000 
#    0.000    0.000    0.000    0.000    0.000    0.000 
#    0.000    0.000    0.000    0.000    0.000    0.000 
#
# Total GULP energy -198316.995076 kJ/mol
# GULP energy per Si atom -12394.812192 kJ/mol
# Density = 2.288275 g / cm^3
# Si number density = 22.934954 Si / 1000 Ang^3
#
#
#
# Elastic Constant Matrix: (Units=GPa)
#
#
# Indices 1 2 3 4 5 6 
#
# 1 90.2002 30.6445 20.9352 5.0571 25.5088 -7.0491
# 2 30.6445 69.3252 24.8181 12.2343 -1.2402 -3.7774
# 3 20.9352 24.8181 118.1455 26.7396 16.2031 -0.3746
# 4 5.0571 12.2343 26.7396 30.0639 5.5463 1.4831
# 5 25.5088 -1.2402 16.2031 5.5463 34.6063 3.9945
# 6 -7.0491 -3.7774 -0.3746 1.4831 3.9945 40.6958
#
#
#
# Elastic Compliance Matrix: (Units=1/GPa)
#
#
# Indices 1 2 3 4 5 6 
#
# 1 0.018325 -0.008668 -0.000091 0.003054 -0.014693 0.003700
# 2 -0.008668 0.020452 -0.002638 -0.006235 0.009394 -0.000322
# 3 -0.000091 -0.002638 0.011506 -0.008410 -0.004131 0.000557
# 4 0.003054 -0.006235 -0.008410 0.043826 -0.005423 -0.001192
# 5 -0.014693 0.009394 -0.004131 -0.005423 0.043535 -0.005787
# 6 0.003700 -0.000322 0.000557 -0.001192 -0.005787 0.025800
#
#
# Mechanical properties :
#
#
# Convention : Reuss Voigt Hill
#
# Bulk Modulus (GPa) = 36.37839 47.82962 42.10401
# Shear Modulus (GPa) = 25.58829 34.49142 30.03985
#
# Velocity S-wave (km/s) = 3.34382 3.88220 3.62302
# Velocity P-wave (km/s) = 5.55015 6.40273 5.99163
#
# Compressibility (1/GPa) = 0.02748885
#
# Stress axis : x y z
#
# Youngs Moduli (GPa) = 54.56893 48.89530 86.90871
#
# Poissons Ratio (x) = 0.42384 0.00789
# Poissons Ratio (y) = 0.47302 0.22930
# Poissons Ratio (z) = 0.00495 0.12901
#
# Static dielectric constant tensor:
#      x y z
#    x 4.910990 -0.141520 0.601680 
#    y -0.141520 4.083360 0.310260 
#    z 0.601680 0.310260 4.271960 
# 
# 
# High freq. dielectric constant tensor:
#      x y z
#    x 1.917000 -0.003410 0.022150 
#    y -0.003410 1.897160 0.027600 
#    z 0.022150 0.027600 1.898880 
# 
# From -- ./inp_files/315218.got.cif
#   From: 2010.06.25/outbox.cif.g09.slc.cpg/sg2_158_cif.got.tgz:315218.got - 2010.06.27 13:26:56.
