data_PCOD8017334
_publ_section_title
;
Structure prediction by ZEFSAII (Michael W. Deem and Ramdas Pophale) SiO2 
 PCOD8017334
Probable space group: P -1
;
_chemical_formula_sum "Si O2"
_cell_formula_units_Z 16
_cell_length_a 11.337103
_cell_length_b 14.580883
_cell_length_c 8.766374
_cell_angle_alpha 72.810248
_cell_angle_beta 110.265870
_cell_angle_gamma 148.836621
_cell_volume 703.470659
_symmetry_space_group_name_H-M "P -1"
_symmetry_group_IT_number 2
_symmetry_cell_setting 'triclinic'
loop_
_space_group_symop_operation_xyz
x,y,z
-x,-y,-z
loop_
_atom_site_type_symbol
_atom_site_label
_atom_site_fract_x
_atom_site_fract_y
_atom_site_fract_z
Si Si1 0.978415 0.753516 0.265352
Si Si2 0.488280 0.477644 0.687887
Si Si3 0.692580 0.100374 0.247243
Si Si4 0.838885 0.309608 0.480370
Si Si5 0.229472 0.188801 0.209152
Si Si6 0.301786 0.177267 0.903433
Si Si7 0.637169 0.907601 0.544440
Si Si8 0.266204 0.942687 0.031104
O O1 0.084730 0.716468 0.345888
O O2 0.023956 0.807702 0.079811
O O3 0.717600 0.594914 0.284554
O O4 0.129208 0.926916 0.337661
O O5 0.500000 0.500000 0.500000
O O6 0.718876 0.670352 0.774747
O O7 0.458759 0.345820 0.781036
O O8 0.868588 0.276172 0.345045
O O9 0.665536 0.972745 0.358361
O O10 0.442682 0.990962 0.183875
O O11 0.802335 0.159889 0.100621
O O12 0.573642 0.170834 0.434784
O O13 0.000000 0.500000 0.500000
O O14 0.379821 0.218357 0.383371
O O15 0.316940 0.230095 0.054845
O O16 0.957839 0.991903 0.196596
O O17 0.395168 0.127599 0.966458
#
# Coordination Sequence:
#
# PCOD8017334 Si02
#       8
#     2   2   2   2   2   2   2   2
#     4  11  20  43  67  95 136 178 228 277 343 403
#     4  12  28  44  67 105 137 175 240 290 332 410
#     4  10  22  38  67 104 128 175 228 276 335 406
#     4  11  21  37  64 101 140 176 224 277 339 407
#     4  11  23  43  73  98 135 180 229 282 345 410
#     4  11  23  45  68  97 135 189 223 275 360 402
#     4  11  19  41  70  98 132 179 228 270 341 411
#     4  11  21  41  72  96 135 177 231 277 340 412
#
# _framework density 22.744374000000001
#
# number of rings (size 3 to 8) (size 9 to 14) (size 15 to 20)
#    0.000    1.000    5.000    2.625    1.750    2.500 
#    0.000    0.625    0.000    0.000    0.000    0.000 
#    0.000    0.000    0.000    0.000    0.000    0.000 
#
# Total GULP energy -198236.163555 kJ/mol
# GULP energy per Si atom -12389.760222 kJ/mol
# Density = 2.269261 g / cm^3
# Si number density = 22.744374 Si / 1000 Ang^3
#
#
#
# Elastic Constant Matrix: (Units=GPa)
#
#
# Indices 1 2 3 4 5 6 
#
# 1 64.3099 25.2222 34.9017 -8.5637 1.5456 -2.9354
# 2 25.2222 92.7379 51.0057 -5.6260 -4.4393 -25.6195
# 3 34.9017 51.0057 125.9645 -11.0557 -7.6952 -10.9394
# 4 -8.5637 -5.6260 -11.0557 32.1306 -5.2409 -1.9267
# 5 1.5456 -4.4393 -7.6952 -5.2409 40.0955 3.1153
# 6 -2.9354 -25.6195 -10.9394 -1.9267 3.1153 32.1542
#
#
#
# Elastic Compliance Matrix: (Units=1/GPa)
#
#
# Indices 1 2 3 4 5 6 
#
# 1 0.019412 -0.003592 -0.003943 0.002837 -0.001367 -0.002129
# 2 -0.003592 0.018092 -0.005124 0.001249 0.000359 0.012384
# 3 -0.003943 -0.005124 0.011379 0.002274 0.002116 -0.000640
# 4 0.002837 0.001249 0.002274 0.033849 0.004609 0.003609
# 5 -0.001367 0.000359 0.002116 0.004609 0.026148 -0.001376
# 6 -0.002129 0.012384 -0.000640 0.003609 -0.001376 0.040905
#
#
# Mechanical properties :
#
#
# Convention : Reuss Voigt Hill
#
# Bulk Modulus (GPa) = 42.43518 56.14127 49.28823
# Shear Modulus (GPa) = 27.32850 32.33491 29.83171
#
# Velocity S-wave (km/s) = 3.47010 3.77459 3.62554
# Velocity P-wave (km/s) = 5.89520 6.61316 6.26447
#
# Compressibility (1/GPa) = 0.02356535
#
# Stress axis : x y z
#
# Youngs Moduli (GPa) = 51.51396 55.27247 87.87886
#
# Poissons Ratio (x) = 0.19855 0.34655
# Poissons Ratio (y) = 0.18505 0.45025
# Poissons Ratio (z) = 0.20314 0.28319
#
# Static dielectric constant tensor:
#      x y z
#    x 4.256600 -1.276900 0.803000 
#    y -1.276900 7.872810 -2.275750 
#    z 0.803000 -2.275750 5.405150 
# 
# 
# High freq. dielectric constant tensor:
#      x y z
#    x 1.896530 -0.016800 0.018400 
#    y -0.016800 1.875340 -0.001460 
#    z 0.018400 -0.001460 1.908810 
# 
# From -- ./inp_files/272654.got.cif
#   From: 2010.06.25/outbox.cif.g09.slc.cpg/sg2_137_cif.got.tgz:272654.got - 2010.06.27 13:26:56.
