data_PCOD8017438
_publ_section_title
;
Structure prediction by ZEFSAII (Michael W. Deem and Ramdas Pophale) SiO2 
 PCOD8017438
Probable space group: P -1
;
_chemical_formula_sum "Si O2"
_cell_formula_units_Z 16
_cell_length_a 28.241209
_cell_length_b 13.551406
_cell_length_c 11.710573
_cell_angle_alpha 149.173560
_cell_angle_beta 149.892185
_cell_angle_gamma 20.727812
_cell_volume 763.962367
_symmetry_space_group_name_H-M "P -1"
_symmetry_group_IT_number 2
_symmetry_cell_setting 'triclinic'
loop_
_space_group_symop_operation_xyz
x,y,z
-x,-y,-z
loop_
_atom_site_type_symbol
_atom_site_label
_atom_site_fract_x
_atom_site_fract_y
_atom_site_fract_z
Si Si1 0.090810 0.397307 0.699096
Si Si2 0.309743 0.779633 0.463706
Si Si3 0.705119 0.803627 0.565409
Si Si4 0.430158 0.393357 0.883707
Si Si5 0.992949 0.748960 0.435905
Si Si6 0.701262 0.118283 0.070021
Si Si7 0.627028 0.253293 0.683052
Si Si8 0.912761 0.160582 0.862962
O O1 0.002067 0.442365 0.661798
O O2 0.000000 0.500000 0.500000
O O3 0.245714 0.064494 0.676433
O O4 0.115099 0.577695 0.963453
O O5 0.472091 0.500539 0.552031
O O6 0.273090 0.856522 0.327639
O O7 0.239052 0.700662 0.292480
O O8 0.593170 0.800994 0.351279
O O9 0.861550 0.471019 0.550607
O O10 0.659446 0.993437 0.545853
O O11 0.706434 0.943087 0.813365
O O12 0.361262 0.586453 0.816734
O O13 0.598408 0.195128 0.033366
O O14 0.353828 0.607466 0.046129
O O15 0.857629 0.934165 0.255436
O O16 0.987541 0.951203 0.701009
O O17 0.000000 0.000000 0.000000
#
# Coordination Sequence:
#
# PCOD8017438 Si02
#       8
#     2   2   2   2   2   2   2   2
#     4  11  21  38  60  87 125 163 200 246 303 360
#     4  10  22  39  59  90 128 164 206 248 299 367
#     4  11  24  39  67  91 122 164 208 255 310 363
#     4  10  22  41  66  86 123 164 207 256 310 367
#     4  11  24  39  64  95 126 161 205 257 306 363
#     4  10  23  44  61  90 124 159 208 260 310 363
#     4  10  23  39  60  90 127 163 202 256 303 360
#     4  11  23  37  63  90 123 164 204 245 300 370
#
# _framework density 20.943438
#
# number of rings (size 3 to 8) (size 9 to 14) (size 15 to 20)
#    0.000    1.500    2.500    3.000    1.750    4.500 
#    0.000    2.500    0.000    0.000    0.000    0.000 
#    0.000    0.000    0.000    0.000    0.000    0.000 
#
# Total GULP energy -198380.343023 kJ/mol
# GULP energy per Si atom -12398.771439 kJ/mol
# Density = 2.089577 g / cm^3
# Si number density = 20.943438 Si / 1000 Ang^3
#
#
#
# Elastic Constant Matrix: (Units=GPa)
#
#
# Indices 1 2 3 4 5 6 
#
# 1 73.0859 23.5301 26.6442 20.7553 3.4811 0.3379
# 2 23.5301 81.9839 32.5025 -0.3155 12.6938 1.9265
# 3 26.6442 32.5025 108.9281 29.2768 13.0409 12.8027
# 4 20.7553 -0.3155 29.2768 32.0538 13.8000 -2.8662
# 5 3.4811 12.6938 13.0409 13.8000 23.6586 0.9136
# 6 0.3379 1.9265 12.8027 -2.8662 0.9136 32.0068
#
#
#
# Elastic Compliance Matrix: (Units=1/GPa)
#
#
# Indices 1 2 3 4 5 6 
#
# 1 0.021451 -0.009087 0.002085 -0.021943 0.013480 -0.002863
# 2 -0.009087 0.020883 -0.008252 0.021909 -0.018277 0.004623
# 3 0.002085 -0.008252 0.016782 -0.020604 0.007209 -0.008289
# 4 -0.021943 0.021909 -0.020604 0.086730 -0.048388 0.016302
# 5 0.013480 -0.018277 0.007209 -0.048388 0.074666 -0.008390
# 6 -0.002863 0.004623 -0.008289 0.016302 -0.008390 0.036010
#
#
# Mechanical properties :
#
#
# Convention : Reuss Voigt Hill
#
# Bulk Modulus (GPa) = 34.95791 47.70573 41.33182
# Shear Modulus (GPa) = 16.85969 29.63192 23.24581
#
# Velocity S-wave (km/s) = 2.84035 3.76554 3.33518
# Velocity P-wave (km/s) = 5.24258 6.46015 5.88295
#
# Compressibility (1/GPa) = 0.02860583
#
# Stress axis : x y z
#
# Youngs Moduli (GPa) = 46.61833 47.88652 59.58939
#
# Poissons Ratio (x) = 0.43517 -0.12424
# Poissons Ratio (y) = 0.42364 0.49174
# Poissons Ratio (z) = -0.09720 0.39516
#
# Static dielectric constant tensor:
#      x y z
#    x 4.407880 0.076420 0.376980 
#    y 0.076420 3.809290 0.322230 
#    z 0.376980 0.322230 4.459930 
# 
# 
# High freq. dielectric constant tensor:
#      x y z
#    x 1.827920 -0.003370 -0.004840 
#    y -0.003370 1.825010 0.004590 
#    z -0.004840 0.004590 1.817080 
# 
# From -- ./inp_files/477690.got.cif
#   From: 2010.06.25/outbox.cif.g09.slc.cpg/sg2_239_cif.got.tgz:477690.got - 2010.06.27 13:26:56.
