data_PCOD8017819
_publ_section_title
;
Structure prediction by ZEFSAII (Michael W. Deem and Ramdas Pophale) SiO2 
 PCOD8017819
Probable space group: P -1
;
_chemical_formula_sum "Si O2"
_cell_formula_units_Z 14
_cell_length_a 13.128130
_cell_length_b 13.473757
_cell_length_c 8.791671
_cell_angle_alpha 52.039935
_cell_angle_beta 103.434137
_cell_angle_gamma 141.841510
_cell_volume 648.920868
_symmetry_space_group_name_H-M "P -1"
_symmetry_group_IT_number 2
_symmetry_cell_setting 'triclinic'
loop_
_space_group_symop_operation_xyz
x,y,z
-x,-y,-z
loop_
_atom_site_type_symbol
_atom_site_label
_atom_site_fract_x
_atom_site_fract_y
_atom_site_fract_z
Si Si1 0.375906 0.767269 0.105999
Si Si2 0.597741 0.762802 0.277997
Si Si3 0.008177 0.860606 0.084115
Si Si4 0.545063 0.922888 0.685563
Si Si5 0.989349 0.372529 0.499934
Si Si6 0.316390 0.454321 0.954731
Si Si7 0.582744 0.590171 0.697413
O O1 0.449678 0.726836 0.271569
O O2 0.146255 0.556591 0.247696
O O3 0.424582 0.803648 0.911557
O O4 0.500000 0.000000 0.000000
O O5 0.664611 0.796544 0.444277
O O6 0.477976 0.541039 0.351231
O O7 0.781993 0.977604 0.037710
O O8 0.944682 0.697298 0.344782
O O9 0.884850 0.708632 0.033189
O O10 0.000000 0.000000 0.000000
O O11 0.468858 0.721823 0.763149
O O12 0.500000 0.000000 0.500000
O O13 0.774542 0.144995 0.574287
O O14 0.000000 0.500000 0.500000
O O15 0.400445 0.434876 0.887055
O O16 0.272454 0.345153 0.207587
#
# Coordination Sequence:
#
# PCOD8017819 Si02
#       7
#     2   2   2   2   2   2   2
#     4  12  25  46  76 102 138 189 243 292 353 432
#     4  11  22  44  67 102 139 187 242 281 353 437
#     4  12  24  41  72 107 141 191 238 293 361 429
#     4  12  27  47  72 105 143 184 239 305 358 418
#     4  12  25  49  75 102 140 193 243 292 359 435
#     4  11  23  43  64 101 146 179 233 298 353 410
#     4  10  22  39  66  92 140 188 223 291 351 413
#
# _framework density 21.574278
#
# number of rings (size 3 to 8) (size 9 to 14) (size 15 to 20)
#    0.000    0.571    5.714    1.714    6.000    1.143 
#    2.571    0.000    0.000    0.000    0.000    0.000 
#    0.000    0.000    0.000    0.000    0.000    0.000 
#
# Total GULP energy -173434.908870 kJ/mol
# GULP energy per Si atom -12388.207776 kJ/mol
# Density = 2.152517 g / cm^3
# Si number density = 21.574278 Si / 1000 Ang^3
#
#
#
# Elastic Constant Matrix: (Units=GPa)
#
#
# Indices 1 2 3 4 5 6 
#
# 1 104.2072 46.8414 48.5030 -2.8872 6.4625 4.9105
# 2 46.8414 119.4703 43.7258 5.6875 15.7452 17.8341
# 3 48.5030 43.7258 121.9630 15.8144 4.0295 16.3956
# 4 -2.8872 5.6875 15.8144 38.8350 12.1545 5.0155
# 5 6.4625 15.7452 4.0295 12.1545 47.0013 -6.8605
# 6 4.9105 17.8341 16.3956 5.0155 -6.8605 32.1953
#
#
#
# Elastic Compliance Matrix: (Units=1/GPa)
#
#
# Indices 1 2 3 4 5 6 
#
# 1 0.013606 -0.003956 -0.004660 0.003508 -0.000794 0.001773
# 2 -0.003956 0.012093 -0.001895 0.000917 -0.004491 -0.006230
# 3 -0.004660 -0.001895 0.011754 -0.004752 0.001020 -0.003267
# 4 0.003508 0.000917 -0.004752 0.031438 -0.009316 -0.005505
# 5 -0.000794 -0.004491 0.001020 -0.009316 0.026554 0.009199
# 6 0.001773 -0.006230 -0.003267 -0.005505 0.009199 0.038723
#
#
# Mechanical properties :
#
#
# Convention : Reuss Voigt Hill
#
# Bulk Modulus (GPa) = 60.86169 69.30902 65.08535
# Shear Modulus (GPa) = 31.12003 37.37768 34.24885
#
# Velocity S-wave (km/s) = 3.80209 4.16686 3.98865
# Velocity P-wave (km/s) = 6.89537 7.43948 7.17258
#
# Compressibility (1/GPa) = 0.01643070
#
# Stress axis : x y z
#
# Youngs Moduli (GPa) = 73.49486 82.68951 85.08078
#
# Poissons Ratio (x) = 0.32715 0.39645
# Poissons Ratio (y) = 0.29077 0.16125
# Poissons Ratio (z) = 0.34246 0.15672
#
# Static dielectric constant tensor:
#      x y z
#    x 3.663860 0.124970 0.387760 
#    y 0.124970 3.993910 0.053580 
#    z 0.387760 0.053580 4.026370 
# 
# 
# High freq. dielectric constant tensor:
#      x y z
#    x 1.851880 0.001500 0.012300 
#    y 0.001500 1.844710 0.007480 
#    z 0.012300 0.007480 1.856380 
# 
# From -- ./inp_files/186409.got.cif
#   From: 2010.06.25/outbox.cif.g09.slc.cpg/sg2_94_cif.got.tgz:186409.got - 2010.06.27 13:26:56.
