data_PCOD8017127
_publ_section_title
;
Structure prediction by ZEFSAII (Michael W. Deem and Ramdas Pophale) SiO2 
 PCOD8017127
Probable space group: P -1
;
_chemical_formula_sum "Si O2"
_cell_formula_units_Z 14
_cell_length_a 17.929114
_cell_length_b 8.229623
_cell_length_c 5.046632
_cell_angle_alpha 87.395165
_cell_angle_beta 118.290994
_cell_angle_gamma 119.366040
_cell_volume 554.212729
_symmetry_space_group_name_H-M "P -1"
_symmetry_group_IT_number 2
_symmetry_cell_setting 'triclinic'
loop_
_space_group_symop_operation_xyz
x,y,z
-x,-y,-z
loop_
_atom_site_type_symbol
_atom_site_label
_atom_site_fract_x
_atom_site_fract_y
_atom_site_fract_z
Si Si1 0.127405 0.309196 0.660693
Si Si2 0.409469 0.696415 0.968087
Si Si3 0.310879 0.456385 0.314375
Si Si4 0.929524 0.423990 0.641073
Si Si5 0.274861 0.059968 0.207893
Si Si6 0.103222 0.933509 0.584586
Si Si7 0.625961 0.969296 0.143848
O O1 0.140283 0.484919 0.488485
O O2 0.015886 0.182424 0.596394
O O3 0.145435 0.155162 0.542520
O O4 0.202876 0.403637 0.026206
O O5 0.329650 0.556559 0.623942
O O6 0.393337 0.868301 0.994052
O O7 0.394424 0.589641 0.228526
O O8 0.521261 0.774807 0.052141
O O9 0.315783 0.269322 0.380665
O O10 0.866240 0.188579 0.546149
O O11 0.000000 0.500000 0.500000
O O12 0.000000 0.500000 0.000000
O O13 0.303553 0.953770 0.480281
O O14 0.324479 0.079475 0.005246
O O15 0.154719 0.948192 0.957148
#
# Coordination Sequence:
#
# PCOD8017127 Si02
#       7
#     2   2   2   2   2   2   2
#     4   9  21  42  65  95 136 175 216 269 323 388
#     4  11  25  44  67  96 132 173 217 275 340 396
#     4  11  24  42  68  99 130 175 222 269 333 392
#     4  10  22  38  60  90 119 166 219 256 312 374
#     4  11  24  42  68  99 130 175 222 269 333 392
#     4   9  21  42  65  95 136 175 216 269 323 388
#     4  11  25  44  67  96 132 173 217 275 340 396
#
# _framework density 25.261057999999998
#
# number of rings (size 3 to 8) (size 9 to 14) (size 15 to 20)
#    0.000    1.714    0.000    2.571    4.000   10.857 
#    0.000    8.571    0.000    0.000    0.000    0.000 
#    0.000    0.000    0.000    0.000    0.000    0.000 
#
# Total GULP energy -173531.055486 kJ/mol
# GULP energy per Si atom -12395.075392 kJ/mol
# Density = 2.520356 g / cm^3
# Si number density = 25.261058 Si / 1000 Ang^3
#
#
#
# Elastic Constant Matrix: (Units=GPa)
#
#
# Indices 1 2 3 4 5 6 
#
# 1 61.2639 12.3152 12.2435 0.0893 5.0004 -7.7501
# 2 12.3152 85.2798 7.9724 14.5318 -8.4345 -47.0686
# 3 12.2435 7.9724 99.9075 0.1600 0.8422 -23.7657
# 4 0.0893 14.5318 0.1600 39.4317 4.5667 1.3479
# 5 5.0004 -8.4345 0.8422 4.5667 34.0740 5.1879
# 6 -7.7501 -47.0686 -23.7657 1.3479 5.1879 48.2322
#
#
#
# Elastic Compliance Matrix: (Units=1/GPa)
#
#
# Indices 1 2 3 4 5 6 
#
# 1 0.017636 -0.004097 -0.002275 0.001953 -0.003509 -0.001962
# 2 -0.004097 0.034741 0.006312 -0.014694 0.005507 0.036173
# 3 -0.002275 0.006312 0.012666 -0.002799 0.000116 0.012101
# 4 0.001953 -0.014694 -0.002799 0.031985 -0.005754 -0.015680
# 5 -0.003509 0.005507 0.000116 -0.005754 0.031749 0.001613
# 6 -0.001962 0.036173 0.012101 -0.015680 0.001613 0.061946
#
#
# Mechanical properties :
#
#
# Convention : Reuss Voigt Hill
#
# Bulk Modulus (GPa) = 15.40260 34.61259 25.00760
# Shear Modulus (GPa) = 23.53111 38.60891 31.07001
#
# Velocity S-wave (km/s) = 3.05539 3.91371 3.51088
# Velocity P-wave (km/s) = 4.30788 5.84419 5.13383
#
# Compressibility (1/GPa) = 0.06492408
#
# Stress axis : x y z
#
# Youngs Moduli (GPa) = 56.70112 28.78411 78.94902
#
# Poissons Ratio (x) = 0.11793 0.17959
# Poissons Ratio (y) = 0.23231 -0.49830
# Poissons Ratio (z) = 0.12898 -0.18168
#
# Static dielectric constant tensor:
#      x y z
#    x 0.669820 4.037910 -0.537790 
#    y 4.037910 -0.105640 1.121060 
#    z -0.537790 1.121060 4.301700 
# 
# 
# High freq. dielectric constant tensor:
#      x y z
#    x 1.998950 -0.014000 0.015460 
#    y -0.014000 2.020130 0.006530 
#    z 0.015460 0.006530 2.012220 
# 
# From -- ./inp_files/116982.got.cif
#   From: 2010.06.25/outbox.cif.g09.slc.cpg/sg2_59_cif.got.tgz:116982.got - 2010.06.27 13:26:56.
