data_PCOD8017174
_publ_section_title
;
Structure prediction by ZEFSAII (Michael W. Deem and Ramdas Pophale) SiO2 
 PCOD8017174
Probable space group: P -1
;
_chemical_formula_sum "Si O2"
_cell_formula_units_Z 14
_cell_length_a 6.478363
_cell_length_b 9.207744
_cell_length_c 15.423967
_cell_angle_alpha 103.364471
_cell_angle_beta 134.924779
_cell_angle_gamma 80.545353
_cell_volume 633.790013
_symmetry_space_group_name_H-M "P -1"
_symmetry_group_IT_number 2
_symmetry_cell_setting 'triclinic'
loop_
_space_group_symop_operation_xyz
x,y,z
-x,-y,-z
loop_
_atom_site_type_symbol
_atom_site_label
_atom_site_fract_x
_atom_site_fract_y
_atom_site_fract_z
Si Si1 0.302534 0.811671 0.018739
Si Si2 0.698461 0.323945 0.550550
Si Si3 0.903049 0.597738 0.566213
Si Si4 0.846136 0.010000 0.839844
Si Si5 0.544686 0.264128 0.297770
Si Si6 0.025007 0.209958 0.777697
Si Si7 0.030499 0.470763 0.106943
O O1 0.150252 0.857438 0.070690
O O2 0.643663 0.841163 0.123061
O O3 0.235677 0.637168 0.958208
O O4 0.146949 0.915056 0.914786
O O5 0.859324 0.486729 0.620317
O O6 0.411882 0.323989 0.527788
O O7 0.609547 0.283762 0.421483
O O8 0.922938 0.208910 0.646474
O O9 0.000000 0.500000 0.500000
O O10 0.157203 0.721751 0.669134
O O11 0.823535 0.090015 0.751253
O O12 0.576129 0.902868 0.768906
O O13 0.329922 0.387654 0.210904
O O14 0.982061 0.375263 0.824673
O O15 0.000000 0.500000 0.000000
#
# Coordination Sequence:
#
# PCOD8017174 Si02
#       7
#     2   2   2   2   2   2   2
#     4  10  23  43  62  89 126 168 204 252 316 357
#     4  10  22  38  61  94 122 159 207 254 301 369
#     4   9  18  37  59  86 122 162 200 246 307 354
#     4  10  23  43  61  90 128 166 205 250 306 378
#     4  10  23  42  64  88 128 167 199 250 314 364
#     4  12  23  39  66  94 127 157 209 258 306 368
#     4  11  22  40  64  95 123 154 211 263 297 362
#
# _framework density 22.089334999999998
#
# number of rings (size 3 to 8) (size 9 to 14) (size 15 to 20)
#    0.000    1.714    1.429    3.429    2.000    4.000 
#    5.143    1.429    0.000    0.000    0.000    0.000 
#    0.000    0.000    0.000    0.000    0.000    0.000 
#
# Total GULP energy -173493.921861 kJ/mol
# GULP energy per Si atom -12392.422990 kJ/mol
# Density = 2.203906 g / cm^3
# Si number density = 22.089335 Si / 1000 Ang^3
#
#
#
# Elastic Constant Matrix: (Units=GPa)
#
#
# Indices 1 2 3 4 5 6 
#
# 1 93.7495 41.1775 36.9520 0.4811 26.1696 22.8028
# 2 41.1775 113.9660 52.4822 -11.7619 12.1745 18.7906
# 3 36.9520 52.4822 117.6555 -11.7384 1.0025 26.4920
# 4 0.4811 -11.7619 -11.7384 23.1952 12.2485 -5.7432
# 5 26.1696 12.1745 1.0025 12.2485 40.8488 9.3356
# 6 22.8028 18.7906 26.4920 -5.7432 9.3356 27.4499
#
#
#
# Elastic Compliance Matrix: (Units=1/GPa)
#
#
# Indices 1 2 3 4 5 6 
#
# 1 0.016911 -0.003063 -0.002343 -0.000573 -0.008078 -0.007063
# 2 -0.003063 0.012814 -0.004173 0.006602 -0.003846 0.000489
# 3 -0.002343 -0.004173 0.013187 -0.000230 0.004676 -0.009562
# 4 -0.000573 0.006602 -0.000230 0.063966 -0.024895 0.018030
# 5 -0.008078 -0.003846 0.004676 -0.024895 0.041461 -0.014479
# 6 -0.007063 0.000489 -0.009562 0.018030 -0.014479 0.059888
#
#
# Mechanical properties :
#
#
# Convention : Reuss Voigt Hill
#
# Bulk Modulus (GPa) = 42.09618 65.17716 53.63667
# Shear Modulus (GPa) = 21.24920 31.28272 26.26596
#
# Velocity S-wave (km/s) = 3.10492 3.76731 3.45204
# Velocity P-wave (km/s) = 5.65267 6.96375 6.34218
#
# Compressibility (1/GPa) = 0.02375513
#
# Stress axis : x y z
#
# Youngs Moduli (GPa) = 59.13184 78.03746 75.83325
#
# Poissons Ratio (x) = 0.23903 0.17768
# Poissons Ratio (y) = 0.18112 0.31643
# Poissons Ratio (z) = 0.13855 0.32563
#
# Static dielectric constant tensor:
#      x y z
#    x 4.042940 0.360530 0.277990 
#    y 0.360530 4.220950 0.089090 
#    z 0.277990 0.089090 4.134090 
# 
# 
# High freq. dielectric constant tensor:
#      x y z
#    x 1.860110 0.016840 0.007940 
#    y 0.016840 1.870480 -0.004830 
#    z 0.007940 -0.004830 1.866790 
# 
# From -- ./inp_files/360750.got.cif
#   From: 2010.06.25/outbox.cif.g09.slc.cpg/sg2_181_cif.got.tgz:360750.got - 2010.06.27 13:26:56.
