data_PCOD8017919
_publ_section_title
;
Structure prediction by ZEFSAII (Michael W. Deem and Ramdas Pophale) SiO2 
 PCOD8017919
Probable space group: P -1
;
_chemical_formula_sum "Si O2"
_cell_formula_units_Z 16
_cell_length_a 10.295197
_cell_length_b 9.111374
_cell_length_c 14.276900
_cell_angle_alpha 130.905789
_cell_angle_beta 85.369220
_cell_angle_gamma 63.687156
_cell_volume 759.160236
_symmetry_space_group_name_H-M "P -1"
_symmetry_group_IT_number 2
_symmetry_cell_setting 'triclinic'
loop_
_space_group_symop_operation_xyz
x,y,z
-x,-y,-z
loop_
_atom_site_type_symbol
_atom_site_label
_atom_site_fract_x
_atom_site_fract_y
_atom_site_fract_z
Si Si1 0.276511 0.191064 0.007384
Si Si2 0.942568 0.268752 0.084689
Si Si3 0.368808 0.363284 0.248949
Si Si4 0.710467 0.525252 0.036774
Si Si5 0.299919 0.217085 0.573933
Si Si6 0.814687 0.080194 0.550044
Si Si7 0.651569 0.195503 0.796226
Si Si8 0.203410 0.315732 0.405347
O O1 0.301214 0.321079 0.142921
O O2 0.105767 0.246768 0.068359
O O3 0.257095 0.316518 0.961050
O O4 0.428913 0.883967 0.857716
O O5 0.877536 0.317297 0.001676
O O6 0.790715 0.508342 0.257425
O O7 0.000000 0.000000 0.000000
O O8 0.339421 0.623052 0.347954
O O9 0.262320 0.422915 0.374590
O O10 0.537147 0.698678 0.183446
O O11 0.655895 0.405859 0.921708
O O12 0.284642 0.267081 0.483788
O O13 0.500000 0.000000 0.500000
O O14 0.203006 0.115956 0.578533
O O15 0.790159 0.049542 0.645620
O O16 0.000000 0.000000 0.500000
O O17 0.723242 0.956098 0.761207
O O18 0.000000 0.500000 0.500000
#
# Coordination Sequence:
#
# PCOD8017919 Si02
#       8
#     2   2   2   2   2   2   2   2
#     4  11  24  42  66 101 143 173 228 285 350 407
#     4  12  28  44  71  99 137 181 231 282 345 421
#     4  11  23  40  70 103 131 174 232 293 336 399
#     4  11  23  43  67  93 137 178 219 279 346 411
#     4  11  27  48  70  97 143 189 226 281 363 428
#     4  11  22  43  68 100 134 177 235 285 344 412
#     4  10  22  39  68  97 125 176 226 271 349 398
#     4  11  22  41  68  99 135 169 236 290 339 407
#
# _framework density 21.075921000000001
#
# number of rings (size 3 to 8) (size 9 to 14) (size 15 to 20)
#    0.000    1.000    2.500    4.875    7.000    0.000 
#    0.000    0.625    0.000    0.000    0.000    0.000 
#    0.000    0.000    0.000    0.000    0.000    0.000 
#
# Total GULP energy -198245.986009 kJ/mol
# GULP energy per Si atom -12390.374126 kJ/mol
# Density = 2.102795 g / cm^3
# Si number density = 21.075921 Si / 1000 Ang^3
#
#
#
# Elastic Constant Matrix: (Units=GPa)
#
#
# Indices 1 2 3 4 5 6 
#
# 1 78.8850 33.9054 31.5487 6.9461 -10.0829 -0.9432
# 2 33.9054 124.3640 41.2690 14.3943 8.2641 -6.3679
# 3 31.5487 41.2690 94.8962 16.5414 -9.2347 3.5195
# 4 6.9461 14.3943 16.5414 43.1209 6.7649 1.0010
# 5 -10.0829 8.2641 -9.2347 6.7649 31.0607 10.6611
# 6 -0.9432 -6.3679 3.5195 1.0010 10.6611 36.9954
#
#
#
# Elastic Compliance Matrix: (Units=1/GPa)
#
#
# Indices 1 2 3 4 5 6 
#
# 1 0.016396 -0.003898 -0.002858 -0.001204 0.006386 -0.001789
# 2 -0.003898 0.011285 -0.004360 -0.000479 -0.006924 0.004266
# 3 -0.002858 -0.004360 0.015101 -0.004915 0.007239 -0.004213
# 4 -0.001204 -0.000479 -0.004915 0.026673 -0.008221 0.002002
# 5 0.006386 -0.006924 0.007239 -0.008221 0.045019 -0.014468
# 6 -0.001789 0.004266 -0.004213 0.002002 -0.014468 0.032235
#
#
# Mechanical properties :
#
#
# Convention : Reuss Voigt Hill
#
# Bulk Modulus (GPa) = 48.66281 56.84352 52.75316
# Shear Modulus (GPa) = 28.44275 34.99687 31.71981
#
# Velocity S-wave (km/s) = 3.67759 4.07936 3.88368
# Velocity P-wave (km/s) = 6.41657 7.01553 6.72272
#
# Compressibility (1/GPa) = 0.02054957
#
# Stress axis : x y z
#
# Youngs Moduli (GPa) = 60.99019 88.61693 66.21879
#
# Poissons Ratio (x) = 0.34546 0.18925
# Poissons Ratio (y) = 0.23776 0.28871
# Poissons Ratio (z) = 0.17431 0.38637
#
# Static dielectric constant tensor:
#      x y z
#    x 3.699660 0.032590 -0.120530 
#    y 0.032590 3.901330 0.142390 
#    z -0.120530 0.142390 4.152410 
# 
# 
# High freq. dielectric constant tensor:
#      x y z
#    x 1.822470 0.009630 -0.012710 
#    y 0.009630 1.836530 0.015750 
#    z -0.012710 0.015750 1.833410 
# 
# From -- ./inp_files/495709.got.cif
#   From: 2010.06.25/outbox.cif.g09.slc.cpg/sg2_248_cif.got.tgz:495709.got - 2010.06.27 13:26:56.
