data_PCOD8017592
_publ_section_title
;
Structure prediction by ZEFSAII (Michael W. Deem and Ramdas Pophale) SiO2 
 PCOD8017592
Probable space group: P -1
;
_chemical_formula_sum "Si O2"
_cell_formula_units_Z 16
_cell_length_a 11.960681
_cell_length_b 15.173454
_cell_length_c 15.089447
_cell_angle_alpha 27.572642
_cell_angle_beta 35.247459
_cell_angle_gamma 44.914893
_cell_volume 730.257923
_symmetry_space_group_name_H-M "P -1"
_symmetry_group_IT_number 2
_symmetry_cell_setting 'triclinic'
loop_
_space_group_symop_operation_xyz
x,y,z
-x,-y,-z
loop_
_atom_site_type_symbol
_atom_site_label
_atom_site_fract_x
_atom_site_fract_y
_atom_site_fract_z
Si Si1 0.366761 0.134014 0.066797
Si Si2 0.116589 0.410940 0.258555
Si Si3 0.799401 0.502595 0.071748
Si Si4 0.533113 0.134653 0.603889
Si Si5 0.160048 0.740680 0.068480
Si Si6 0.429846 0.118332 0.355496
Si Si7 0.772803 0.145008 0.725530
Si Si8 0.123606 0.965138 0.051900
O O1 0.419875 0.962333 0.248092
O O2 0.211465 0.040409 0.181827
O O3 0.280617 0.293721 0.039144
O O4 0.554036 0.211047 0.819781
O O5 0.071424 0.559129 0.234012
O O6 0.251131 0.255856 0.355187
O O7 0.909527 0.316754 0.445197
O O8 0.190263 0.513729 0.027885
O O9 0.634526 0.346811 0.350994
O O10 0.000000 0.500000 0.000000
O O11 0.296996 0.114179 0.769006
O O12 0.625588 0.029818 0.554583
O O13 0.079176 0.935021 0.908583
O O14 0.390637 0.736328 0.914804
O O15 0.111648 0.763199 0.184711
O O16 0.500000 0.000000 0.500000
O O17 0.858164 0.089138 0.812117
#
# Coordination Sequence:
#
# PCOD8017592 Si02
#       8
#     2   2   2   2   2   2   2   2
#     4  10  23  47  65  95 135 170 226 272 322 394
#     4  12  25  40  67 104 134 168 226 270 329 403
#     4  12  27  41  69 101 134 176 215 271 334 397
#     4  10  22  43  67  93 134 180 215 265 333 388
#     4  10  22  39  62  96 130 169 220 270 325 392
#     4  11  22  41  63  91 137 177 211 275 330 385
#     4  10  23  42  68  91 129 178 212 282 323 379
#     4   9  21  43  65  91 132 175 221 270 327 392
#
# _framework density 21.910067000000002
#
# number of rings (size 3 to 8) (size 9 to 14) (size 15 to 20)
#    0.000    1.500    1.250    2.625    5.250    1.500 
#    0.000    2.500    0.000    0.000    0.000    0.000 
#    0.000    0.000    0.000    0.000    0.000    0.000 
#
# Total GULP energy -198241.027582 kJ/mol
# GULP energy per Si atom -12390.064224 kJ/mol
# Density = 2.186020 g / cm^3
# Si number density = 21.910067 Si / 1000 Ang^3
#
#
#
# Elastic Constant Matrix: (Units=GPa)
#
#
# Indices 1 2 3 4 5 6 
#
# 1 121.0115 24.2682 37.3859 5.9087 1.8141 18.8004
# 2 24.2682 117.0498 15.9780 -15.7677 -10.0040 13.3783
# 3 37.3859 15.9780 105.2072 7.8186 -11.3830 5.2517
# 4 5.9087 -15.7677 7.8186 22.5156 2.2773 -0.6099
# 5 1.8141 -10.0040 -11.3830 2.2773 39.5608 -0.4844
# 6 18.8004 13.3783 5.2517 -0.6099 -0.4844 37.4575
#
#
#
# Elastic Compliance Matrix: (Units=1/GPa)
#
#
# Indices 1 2 3 4 5 6 
#
# 1 0.010427 -0.001767 -0.003206 -0.002799 -0.001738 -0.004221
# 2 -0.001767 0.010626 -0.001251 0.008077 0.001912 -0.002577
# 3 -0.003206 -0.001251 0.011505 -0.004362 0.003397 0.000416
# 4 -0.002799 0.008077 -0.004362 0.052531 -0.002109 -0.000040
# 5 -0.001738 0.001912 0.003397 -0.002109 0.026940 0.000027
# 6 -0.004221 -0.002577 0.000416 -0.000040 0.000027 0.029677
#
#
# Mechanical properties :
#
#
# Convention : Reuss Voigt Hill
#
# Bulk Modulus (GPa) = 49.72532 55.39253 52.55893
# Shear Modulus (GPa) = 31.08307 37.61587 34.34947
#
# Velocity S-wave (km/s) = 3.77060 4.14796 3.96378
# Velocity P-wave (km/s) = 6.45764 6.94820 6.70740
#
# Compressibility (1/GPa) = 0.02011048
#
# Stress axis : x y z
#
# Youngs Moduli (GPa) = 95.90331 94.10497 86.91616
#
# Poissons Ratio (x) = 0.16632 0.27868
# Poissons Ratio (y) = 0.16950 0.10869
# Poissons Ratio (z) = 0.30749 0.11768
#
# Static dielectric constant tensor:
#      x y z
#    x 4.169940 0.107700 -0.246500 
#    y 0.107700 3.967380 0.203110 
#    z -0.246500 0.203110 3.928440 
# 
# 
# High freq. dielectric constant tensor:
#      x y z
#    x 1.880360 0.014260 -0.011750 
#    y 0.014260 1.860340 0.011590 
#    z -0.011750 0.011590 1.847590 
# 
# From -- ./inp_files/515213.got.cif
#   From: 2010.06.25/outbox.cif.g09.slc.cpg/sg2_258_cif.got.tgz:515213.got - 2010.06.27 13:26:56.
