data_PCOD8017114
_publ_section_title
;
Structure prediction by ZEFSAII (Michael W. Deem and Ramdas Pophale) SiO2 
 PCOD8017114
Probable space group: P -1
;
_chemical_formula_sum "Si O2"
_cell_formula_units_Z 14
_cell_length_a 8.652605
_cell_length_b 11.485444
_cell_length_c 11.975194
_cell_angle_alpha 78.148915
_cell_angle_beta 85.822647
_cell_angle_gamma 142.321949
_cell_volume 654.471888
_symmetry_space_group_name_H-M "P -1"
_symmetry_group_IT_number 2
_symmetry_cell_setting 'triclinic'
loop_
_space_group_symop_operation_xyz
x,y,z
-x,-y,-z
loop_
_atom_site_type_symbol
_atom_site_label
_atom_site_fract_x
_atom_site_fract_y
_atom_site_fract_z
Si Si1 0.642110 0.307212 0.805834
Si Si2 0.317935 0.274921 0.195927
Si Si3 0.675294 0.552474 0.635002
Si Si4 0.902183 0.810868 0.368997
Si Si5 0.813172 0.152762 0.839518
Si Si6 0.040444 0.903033 0.951814
Si Si7 0.316419 0.667368 0.958323
O O1 0.787861 0.494397 0.679136
O O2 0.815919 0.296529 0.803522
O O3 0.325059 0.084684 0.831273
O O4 0.635276 0.362090 0.918298
O O5 0.407995 0.425365 0.255183
O O6 0.582300 0.360961 0.135602
O O7 0.203548 0.268430 0.091668
O O8 0.080448 0.042423 0.306726
O O9 0.904877 0.762999 0.505731
O O10 0.407773 0.355659 0.614868
O O11 0.016830 0.782176 0.288169
O O12 0.501186 0.904991 0.898894
O O13 0.959443 0.203884 0.937072
O O14 0.000000 0.000000 0.000000
O O15 0.000000 0.500000 0.000000
#
# Coordination Sequence:
#
# PCOD8017114 Si02
#       7
#     2   2   2   2   2   2   2
#     4  11  22  38  58  93 131 167 199 250 325 373
#     4  11  22  40  70  92 127 162 207 267 309 370
#     4  11  24  39  66  95 119 170 215 257 304 372
#     4  10  22  45  64  88 127 162 219 263 302 360
#     4  10  22  39  67  85 131 173 190 263 323 365
#     4  11  17  39  64  92 121 163 205 249 323 364
#     4  10  22  38  59  98 128 159 205 256 317 379
#
# _framework density 21.391293000000001
#
# number of rings (size 3 to 8) (size 9 to 14) (size 15 to 20)
#    0.000    1.429    5.714    2.143    2.000    3.429 
#    2.571    0.000    0.000    2.571    0.000    0.000 
#    0.000    0.000    0.000    0.000    0.000    0.000 
#
# Total GULP energy -173574.481574 kJ/mol
# GULP energy per Si atom -12398.177255 kJ/mol
# Density = 2.134261 g / cm^3
# Si number density = 21.391293 Si / 1000 Ang^3
#
#
#
# Elastic Constant Matrix: (Units=GPa)
#
#
# Indices 1 2 3 4 5 6 
#
# 1 127.3009 29.7541 58.5873 -8.2201 24.6737 -9.2334
# 2 29.7541 51.3554 28.2493 -3.1917 12.1017 2.7602
# 3 58.5873 28.2493 104.5658 8.2482 13.1708 -0.8830
# 4 -8.2201 -3.1917 8.2482 23.0366 3.4534 -5.4289
# 5 24.6737 12.1017 13.1708 3.4534 25.2205 -9.1373
# 6 -9.2334 2.7602 -0.8830 -5.4289 -9.1373 33.9341
#
#
#
# Elastic Compliance Matrix: (Units=1/GPa)
#
#
# Indices 1 2 3 4 5 6 
#
# 1 0.014129 -0.001619 -0.006974 0.009403 -0.009720 0.002682
# 2 -0.001619 0.026511 -0.005368 0.005515 -0.010815 -0.004766
# 3 -0.006974 -0.005368 0.015415 -0.009525 0.001902 -0.002072
# 4 0.009403 0.005515 -0.009525 0.054436 -0.011630 0.007439
# 5 -0.009720 -0.010815 0.001902 -0.011630 0.059452 0.012432
# 6 0.002682 -0.004766 -0.002072 0.007439 0.012432 0.035070
#
#
# Mechanical properties :
#
#
# Convention : Reuss Voigt Hill
#
# Bulk Modulus (GPa) = 35.54531 57.37817 46.46174
# Shear Modulus (GPa) = 20.63454 27.54700 24.09077
#
# Velocity S-wave (km/s) = 3.10921 3.59244 3.35952
# Velocity P-wave (km/s) = 5.43529 6.63995 6.06759
#
# Compressibility (1/GPa) = 0.02813310
#
# Stress axis : x y z
#
# Youngs Moduli (GPa) = 70.77654 37.72085 64.87147
#
# Poissons Ratio (x) = 0.06108 0.45239
# Poissons Ratio (y) = 0.11460 0.34822
# Poissons Ratio (z) = 0.49357 0.20248
#
# Static dielectric constant tensor:
#      x y z
#    x 3.964370 0.153710 0.182600 
#    y 0.153710 3.868180 -0.018790 
#    z 0.182600 -0.018790 4.068430 
# 
# 
# High freq. dielectric constant tensor:
#      x y z
#    x 1.836300 -0.002550 0.005460 
#    y -0.002550 1.833670 -0.004230 
#    z 0.005460 -0.004230 1.831780 
# 
# From -- ./inp_files/330987.got.cif
#   From: 2010.06.25/outbox.cif.g09.slc.cpg/sg2_166_cif.got.tgz:330987.got - 2010.06.27 13:26:56.
