data_PCOD8017975
_publ_section_title
;
Structure prediction by ZEFSAII (Michael W. Deem and Ramdas Pophale) SiO2 
 PCOD8017975
Probable space group: P -1
;
_chemical_formula_sum "Si O2"
_cell_formula_units_Z 14
_cell_length_a 18.045567
_cell_length_b 9.277679
_cell_length_c 11.184841
_cell_angle_alpha 112.240660
_cell_angle_beta 46.860640
_cell_angle_gamma 148.112035
_cell_volume 614.671104
_symmetry_space_group_name_H-M "P -1"
_symmetry_group_IT_number 2
_symmetry_cell_setting 'triclinic'
loop_
_space_group_symop_operation_xyz
x,y,z
-x,-y,-z
loop_
_atom_site_type_symbol
_atom_site_label
_atom_site_fract_x
_atom_site_fract_y
_atom_site_fract_z
Si Si1 0.642729 0.076880 0.940930
Si Si2 0.217864 0.207883 0.801269
Si Si3 0.295780 0.423355 0.526336
Si Si4 0.614435 0.786102 0.696571
Si Si5 0.941818 0.601299 0.206078
Si Si6 0.666319 0.050339 0.169294
Si Si7 0.884310 0.251630 0.335486
O O1 0.877962 0.455795 0.793403
O O2 0.623372 0.878093 0.844531
O O3 0.500000 0.000000 0.000000
O O4 0.563877 0.965594 0.130283
O O5 0.330168 0.426739 0.628170
O O6 0.374314 0.442443 0.812716
O O7 0.179989 0.973214 0.753874
O O8 0.000000 0.000000 0.000000
O O9 0.269739 0.226333 0.421754
O O10 0.094101 0.264680 0.681626
O O11 0.495274 0.784751 0.373601
O O12 0.737950 0.060473 0.552948
O O13 0.861827 0.385308 0.334393
O O14 0.810140 0.384150 0.163545
O O15 0.186608 0.902959 0.004725
#
# Coordination Sequence:
#
# PCOD8017975 Si02
#       7
#     2   2   2   2   2   2   2
#     4  11  25  42  68  97 138 185 219 270 334 411
#     4  11  24  40  71 100 135 172 226 283 336 388
#     4  11  24  40  67  98 129 175 217 285 335 382
#     4  11  24  43  66 100 138 174 225 274 338 404
#     4  10  22  39  71  96 130 173 225 284 330 384
#     4  10  23  41  64  98 136 171 228 274 329 400
#     4  10  22  45  67  99 130 177 228 279 323 403
#
# _framework density 22.776406999999999
#
# number of rings (size 3 to 8) (size 9 to 14) (size 15 to 20)
#    0.000    1.429    0.000    5.143   12.000    0.571 
#    0.000    2.857    0.000    0.000    0.000    0.000 
#    0.000    0.000    0.000    0.000    0.000    0.000 
#
# Total GULP energy -173636.622281 kJ/mol
# GULP energy per Si atom -12402.615877 kJ/mol
# Density = 2.272457 g / cm^3
# Si number density = 22.776407 Si / 1000 Ang^3
#
#
#
# Elastic Constant Matrix: (Units=GPa)
#
#
# Indices 1 2 3 4 5 6 
#
# 1 124.6063 42.0407 32.3677 9.8470 -9.9170 -2.8824
# 2 42.0407 84.6849 26.9207 2.2916 -1.6769 10.9940
# 3 32.3677 26.9207 81.2458 0.0212 -6.0447 0.8848
# 4 9.8470 2.2916 0.0212 34.6038 -5.8737 -7.8098
# 5 -9.9170 -1.6769 -6.0447 -5.8737 38.2919 8.2572
# 6 -2.8824 10.9940 0.8848 -7.8098 8.2572 38.1622
#
#
#
# Elastic Compliance Matrix: (Units=1/GPa)
#
#
# Indices 1 2 3 4 5 6 
#
# 1 0.010540 -0.004495 -0.002613 -0.002132 0.001493 0.001392
# 2 -0.004495 0.015787 -0.003391 -0.000900 -0.000073 -0.004977
# 3 -0.002613 -0.003391 0.014588 0.001313 0.001601 0.000364
# 4 -0.002132 -0.000900 0.001313 0.031415 0.003182 0.005808
# 5 0.001493 -0.000073 0.001601 0.003182 0.028403 -0.005398
# 6 0.001392 -0.004977 0.000364 0.005808 -0.005398 0.030091
#
#
# Mechanical properties :
#
#
# Convention : Reuss Voigt Hill
#
# Bulk Modulus (GPa) = 50.21082 54.79946 52.50514
# Shear Modulus (GPa) = 31.55308 34.82545 33.18927
#
# Velocity S-wave (km/s) = 3.72605 3.91450 3.82144
# Velocity P-wave (km/s) = 6.37215 6.67406 6.52485
#
# Compressibility (1/GPa) = 0.01991602
#
# Stress axis : x y z
#
# Youngs Moduli (GPa) = 94.87394 63.34221 68.55032
#
# Poissons Ratio (x) = 0.28475 0.17913
# Poissons Ratio (y) = 0.42649 0.23246
# Poissons Ratio (z) = 0.24792 0.21480
#
# Static dielectric constant tensor:
#      x y z
#    x 4.095510 -0.101580 -0.017890 
#    y -0.101580 4.039380 0.106340 
#    z -0.017890 0.106340 4.271060 
# 
# 
# High freq. dielectric constant tensor:
#      x y z
#    x 1.897790 -0.009310 -0.000270 
#    y -0.009310 1.878900 0.001290 
#    z -0.000270 0.001290 1.908970 
# 
# From -- ./inp_files/391832.got.cif
#   From: 2010.06.25/outbox.cif.g09.slc.cpg/sg2_196_cif.got.tgz:391832.got - 2010.06.27 13:26:56.
