data_PCOD8017241
_publ_section_title
;
Structure prediction by ZEFSAII (Michael W. Deem and Ramdas Pophale) SiO2 
 PCOD8017241
Probable space group: P -1
;
_chemical_formula_sum "Si O2"
_cell_formula_units_Z 16
_cell_length_a 11.570252
_cell_length_b 9.073138
_cell_length_c 8.678884
_cell_angle_alpha 106.738994
_cell_angle_beta 107.279244
_cell_angle_gamma 72.541624
_cell_volume 809.874795
_symmetry_space_group_name_H-M "P -1"
_symmetry_group_IT_number 2
_symmetry_cell_setting 'triclinic'
loop_
_space_group_symop_operation_xyz
x,y,z
-x,-y,-z
loop_
_atom_site_type_symbol
_atom_site_label
_atom_site_fract_x
_atom_site_fract_y
_atom_site_fract_z
Si Si1 0.482859 0.038705 0.687384
Si Si2 0.804320 0.609899 0.968126
Si Si3 0.469198 0.333054 0.979211
Si Si4 0.071800 0.838634 0.564360
Si Si5 0.325261 0.880271 0.786382
Si Si6 0.958012 0.330683 0.775443
Si Si7 0.264479 0.078727 0.116649
Si Si8 0.936274 0.006589 0.816155
O O1 0.480358 0.220220 0.796201
O O2 0.500000 0.000000 0.500000
O O3 0.366603 0.983560 0.697216
O O4 0.595758 0.924156 0.785187
O O5 0.839156 0.444844 0.842255
O O6 0.806591 0.739719 0.876774
O O7 0.672142 0.633859 0.006850
O O8 0.913558 0.616018 0.134447
O O9 0.500000 0.500000 0.000000
O O10 0.563610 0.250201 0.127445
O O11 0.220369 0.810277 0.640710
O O12 0.058021 0.682854 0.418940
O O13 0.001812 0.846493 0.702500
O O14 0.000000 0.000000 0.500000
O O15 0.254660 0.998388 0.924039
O O16 0.955322 0.159429 0.784739
O O17 0.207240 0.994846 0.208232
O O18 0.000000 0.000000 0.000000
#
# Coordination Sequence:
#
# PCOD8017241 Si02
#       8
#     2   2   2   2   2   2   2   2
#     4  11  25  40  66  97 123 166 217 268 316 384
#     4  11  21  42  63  85 129 166 214 248 330 371
#     4  11  25  43  68  92 126 176 216 266 321 385
#     4  10  22  38  63  95 128 158 210 265 315 371
#     4  11  21  43  67  92 126 169 215 260 318 386
#     4  10  24  38  62  92 125 169 202 266 313 382
#     4  11  20  40  63  89 121 165 212 255 308 380
#     4  11  20  35  65  89 116 160 212 251 307 377
#
# _framework density 19.756139000000001
#
# number of rings (size 3 to 8) (size 9 to 14) (size 15 to 20)
#    0.000    1.250    5.000    1.500    7.000    0.000 
#    2.250    1.875    0.000    0.000    0.000    0.000 
#    0.000    0.000    0.000    0.000    0.000    0.000 
#
# Total GULP energy -198229.026367 kJ/mol
# GULP energy per Si atom -12389.314148 kJ/mol
# Density = 1.971117 g / cm^3
# Si number density = 19.756139 Si / 1000 Ang^3
#
#
#
# Elastic Constant Matrix: (Units=GPa)
#
#
# Indices 1 2 3 4 5 6 
#
# 1 126.8054 35.2001 53.8003 13.4253 -10.5764 -7.3330
# 2 35.2001 82.1494 51.0362 15.8988 -3.4623 -3.5219
# 3 53.8003 51.0362 153.4829 27.7656 -13.7633 -11.9897
# 4 13.4253 15.8988 27.7656 27.0180 -5.0038 -2.4074
# 5 -10.5764 -3.4623 -13.7633 -5.0038 32.7568 -7.0056
# 6 -7.3330 -3.5219 -11.9897 -2.4074 -7.0056 32.4332
#
#
#
# Elastic Compliance Matrix: (Units=1/GPa)
#
#
# Indices 1 2 3 4 5 6 
#
# 1 0.009869 -0.002611 -0.002158 -0.000591 0.002254 0.001593
# 2 -0.002611 0.016561 -0.003954 -0.004785 -0.001693 -0.000975
# 3 -0.002158 -0.003954 0.010219 -0.006305 0.002860 0.003010
# 4 -0.000591 -0.004785 -0.006305 0.047512 0.004224 0.001455
# 5 0.002254 -0.001693 0.002860 0.004224 0.034899 0.009235
# 6 0.001593 -0.000975 0.003010 0.001455 0.009235 0.034302
#
#
# Mechanical properties :
#
#
# Convention : Reuss Voigt Hill
#
# Bulk Modulus (GPa) = 52.07335 71.39009 61.73172
# Shear Modulus (GPa) = 28.21538 33.26835 30.74187
#
# Velocity S-wave (km/s) = 3.78323 4.10805 3.94898
# Velocity P-wave (km/s) = 6.74530 7.66260 7.21854
#
# Compressibility (1/GPa) = 0.01920368
#
# Stress axis : x y z
#
# Youngs Moduli (GPa) = 101.32759 60.38281 97.86000
#
# Poissons Ratio (x) = 0.15763 0.21117
# Poissons Ratio (y) = 0.26452 0.38695
# Poissons Ratio (z) = 0.21865 0.23876
#
# Static dielectric constant tensor:
#      x y z
#    x 4.054320 -0.058360 0.513750 
#    y -0.058360 3.553020 0.132460 
#    z 0.513750 0.132460 3.950720 
# 
# 
# High freq. dielectric constant tensor:
#      x y z
#    x 1.786680 -0.011450 -0.000080 
#    y -0.011450 1.748860 0.006360 
#    z -0.000080 0.006360 1.775220 
# 
# From -- ./inp_files/177561.got.cif
#   From: 2010.06.25/outbox.cif.g09.slc.cpg/sg2_89_cif.got.tgz:177561.got - 2010.06.27 13:26:56.
