data_PCOD8017035
_publ_section_title
;
Structure prediction by ZEFSAII (Michael W. Deem and Ramdas Pophale) SiO2 
 PCOD8017035
Probable space group: P -1
;
_chemical_formula_sum "Si O2"
_cell_formula_units_Z 14
_cell_length_a 9.486923
_cell_length_b 20.964527
_cell_length_c 11.481223
_cell_angle_alpha 28.550423
_cell_angle_beta 38.310030
_cell_angle_gamma 39.564415
_cell_volume 650.342434
_symmetry_space_group_name_H-M "P -1"
_symmetry_group_IT_number 2
_symmetry_cell_setting 'triclinic'
loop_
_space_group_symop_operation_xyz
x,y,z
-x,-y,-z
loop_
_atom_site_type_symbol
_atom_site_label
_atom_site_fract_x
_atom_site_fract_y
_atom_site_fract_z
Si Si1 0.546496 0.875987 0.329323
Si Si2 0.300278 0.720730 0.896499
Si Si3 0.847419 0.325652 0.451652
Si Si4 0.764143 0.548323 0.972880
Si Si5 0.055313 0.409493 0.798584
Si Si6 0.064370 0.706402 0.297639
Si Si7 0.487135 0.815344 0.202902
O O1 0.351139 0.847502 0.589228
O O2 0.525973 0.805608 0.331522
O O3 0.805991 0.810387 0.318710
O O4 0.490035 0.040240 0.092739
O O5 0.541163 0.598929 0.952082
O O6 0.198274 0.772850 0.006927
O O7 0.111734 0.664931 0.040405
O O8 0.786205 0.314793 0.645149
O O9 0.773787 0.201837 0.630803
O O10 0.125479 0.325015 0.263511
O O11 0.700163 0.470494 0.252604
O O12 0.968034 0.439846 0.939722
O O13 0.046083 0.555922 0.507169
O O14 0.320195 0.308430 0.787299
#
# Coordination Sequence:
#
# PCOD8017035 Si02
#       7
#     2   2   2   2   2   2   2
#     4  11  25  47  63  97 129 175 218 263 318 385
#     4  12  22  40  69  95 135 167 215 272 312 385
#     4  10  22  42  64  96 137 167 207 273 324 379
#     4  10  22  37  66 104 128 165 215 269 325 378
#     4  11  22  39  69 101 124 169 220 267 325 374
#     4  11  24  42  68  99 130 168 217 264 327 382
#     4  11  25  44  67  92 135 171 215 267 323 380
#
# _framework density 21.527118999999999
#
# number of rings (size 3 to 8) (size 9 to 14) (size 15 to 20)
#    0.000    1.143    4.286    2.571    2.000    7.429 
#    2.571    0.714    0.000    0.000    0.000    0.000 
#    0.000    0.000    0.000    0.000    0.000    0.000 
#
# Total GULP energy -173542.816578 kJ/mol
# GULP energy per Si atom -12395.915470 kJ/mol
# Density = 2.147812 g / cm^3
# Si number density = 21.527119 Si / 1000 Ang^3
#
#
#
# Elastic Constant Matrix: (Units=GPa)
#
#
# Indices 1 2 3 4 5 6 
#
# 1 109.7572 15.3948 55.5009 6.0255 5.7249 7.5228
# 2 15.3948 62.8769 29.3255 5.9117 2.8617 -8.8207
# 3 55.5009 29.3255 136.3250 16.4315 19.3386 6.9974
# 4 6.0255 5.9117 16.4315 25.7064 1.7345 6.1510
# 5 5.7249 2.8617 19.3386 1.7345 34.7219 -1.4662
# 6 7.5228 -8.8207 6.9974 6.1510 -1.4662 15.7929
#
#
#
# Elastic Compliance Matrix: (Units=1/GPa)
#
#
# Indices 1 2 3 4 5 6 
#
# 1 0.011848 -0.001753 -0.004429 0.001699 0.000350 -0.005289
# 2 -0.001753 0.021194 -0.004281 -0.005941 0.001944 0.017063
# 3 -0.004429 -0.004281 0.011511 -0.003938 -0.005315 -0.004341
# 4 0.001699 -0.005941 -0.003938 0.047455 -0.000852 -0.020945
# 5 0.000350 0.001944 -0.005315 -0.000852 0.031862 0.006564
# 6 -0.005289 0.017063 -0.004341 -0.020945 0.006564 0.086060
#
#
# Mechanical properties :
#
#
# Convention : Reuss Voigt Hill
#
# Bulk Modulus (GPa) = 42.32603 56.60016 49.46310
# Shear Modulus (GPa) = 20.94413 29.16011 25.05212
#
# Velocity S-wave (km/s) = 3.12255 3.68445 3.41507
# Velocity P-wave (km/s) = 5.71881 6.66707 6.21106
#
# Compressibility (1/GPa) = 0.02362612
#
# Stress axis : x y z
#
# Youngs Moduli (GPa) = 84.40503 47.18397 86.87368
#
# Poissons Ratio (x) = 0.08270 0.38479
# Poissons Ratio (y) = 0.14793 0.37191
# Poissons Ratio (z) = 0.37386 0.20200
#
# Static dielectric constant tensor:
#      x y z
#    x 4.059350 0.012560 0.083780 
#    y 0.012560 3.533490 0.214540 
#    z 0.083780 0.214540 4.115760 
# 
# 
# High freq. dielectric constant tensor:
#      x y z
#    x 1.863440 -0.006310 0.007170 
#    y -0.006310 1.801390 0.018880 
#    z 0.007170 0.018880 1.855460 
# 
# From -- ./inp_files/404429.got.cif
#   From: 2010.06.25/outbox.cif.g09.slc.cpg/sg2_203_cif.got.tgz:404429.got - 2010.06.27 13:26:56.
