data_PCOD8017753
_publ_section_title
;
Structure prediction by ZEFSAII (Michael W. Deem and Ramdas Pophale) SiO2 
 PCOD8017753
Probable space group: P -1
;
_chemical_formula_sum "Si O2"
_cell_formula_units_Z 14
_cell_length_a 11.433853
_cell_length_b 13.516778
_cell_length_c 9.657816
_cell_angle_alpha 126.758602
_cell_angle_beta 123.332579
_cell_angle_gamma 34.480054
_cell_volume 671.762736
_symmetry_space_group_name_H-M "P -1"
_symmetry_group_IT_number 2
_symmetry_cell_setting 'triclinic'
loop_
_space_group_symop_operation_xyz
x,y,z
-x,-y,-z
loop_
_atom_site_type_symbol
_atom_site_label
_atom_site_fract_x
_atom_site_fract_y
_atom_site_fract_z
Si Si1 0.944687 0.506818 0.812785
Si Si2 0.721451 0.295838 0.320342
Si Si3 0.894863 0.793245 0.527347
Si Si4 0.549816 0.196644 0.639355
Si Si5 0.794542 0.208725 0.002539
Si Si6 0.110312 0.571811 0.751268
Si Si7 0.484363 0.319262 0.402976
O O1 0.702578 0.628613 0.751864
O O2 0.090573 0.299730 0.678927
O O3 0.980178 0.603116 0.820497
O O4 0.000000 0.500000 0.000000
O O5 0.653944 0.295124 0.122642
O O6 0.672781 0.218144 0.332282
O O7 0.586777 0.503555 0.436816
O O8 0.964879 0.174720 0.376381
O O9 0.977877 0.655383 0.592945
O O10 0.662472 0.993024 0.579056
O O11 0.314251 0.353668 0.673646
O O12 0.565484 0.189653 0.477428
O O13 0.671178 0.232241 0.814520
O O14 0.839543 0.320671 0.085315
O O15 0.000000 0.000000 0.000000
#
# Coordination Sequence:
#
# PCOD8017753 Si02
#       7
#     2   2   2   2   2   2   2
#     4  11  25  46  64  90 133 172 213 265 317 381
#     4   9  19  40  62  91 134 159 208 269 306 376
#     4  10  22  44  65  98 125 163 219 262 316 381
#     4  12  22  39  70  97 123 169 211 265 321 374
#     4  11  21  40  65 102 128 159 217 264 314 375
#     4  11  23  43  68  91 134 169 208 265 318 379
#     4  10  22  39  65  91 126 174 211 253 327 375
#
# _framework density 20.840691
#
# number of rings (size 3 to 8) (size 9 to 14) (size 15 to 20)
#    0.000    1.429    7.143    0.857    2.000    3.429 
#    2.571    0.714    0.000    0.000    0.000    0.000 
#    0.000    0.000    0.000    0.000    0.000    0.000 
#
# Total GULP energy -173569.016045 kJ/mol
# GULP energy per Si atom -12397.786860 kJ/mol
# Density = 2.079326 g / cm^3
# Si number density = 20.840691 Si / 1000 Ang^3
#
#
#
# Elastic Constant Matrix: (Units=GPa)
#
#
# Indices 1 2 3 4 5 6 
#
# 1 115.4989 33.0457 45.3167 -2.4253 -27.1553 -9.7580
# 2 33.0457 120.3977 37.9339 -2.5893 -0.9043 3.1150
# 3 45.3167 37.9339 156.4547 -14.2406 -8.2483 1.2402
# 4 -2.4253 -2.5893 -14.2406 27.0802 4.5842 1.5872
# 5 -27.1553 -0.9043 -8.2483 4.5842 23.8876 0.4022
# 6 -9.7580 3.1150 1.2402 1.5872 0.4022 11.9821
#
#
#
# Elastic Compliance Matrix: (Units=1/GPa)
#
#
# Indices 1 2 3 4 5 6 
#
# 1 0.016487 -0.003786 -0.003443 -0.004617 0.018047 0.014773
# 2 -0.003786 0.009920 -0.001416 0.000949 -0.004507 -0.005490
# 3 -0.003443 -0.001416 0.008055 0.004345 -0.001957 -0.003779
# 4 -0.004617 0.000949 0.004345 0.041395 -0.011496 -0.009554
# 5 0.018047 -0.004507 -0.001957 -0.011496 0.063478 0.015464
# 6 0.014773 -0.005490 -0.003779 -0.009554 0.015464 0.098054
#
#
# Mechanical properties :
#
#
# Convention : Reuss Voigt Hill
#
# Bulk Modulus (GPa) = 58.24186 69.43822 63.84004
# Shear Modulus (GPa) = 19.20105 30.99364 25.09735
#
# Velocity S-wave (km/s) = 3.03863 3.86057 3.47399
# Velocity P-wave (km/s) = 6.34964 7.29814 6.84035
#
# Compressibility (1/GPa) = 0.01716978
#
# Stress axis : x y z
#
# Youngs Moduli (GPa) = 60.65555 100.80831 124.15349
#
# Poissons Ratio (x) = 0.38168 0.42748
# Poissons Ratio (y) = 0.22965 0.17582
# Poissons Ratio (z) = 0.20885 0.14276
#
# Static dielectric constant tensor:
#      x y z
#    x 3.995580 -0.128870 -0.098640 
#    y -0.128870 3.694380 0.051450 
#    z -0.098640 0.051450 3.946350 
# 
# 
# High freq. dielectric constant tensor:
#      x y z
#    x 1.811380 -0.001430 0.001260 
#    y -0.001430 1.804100 0.001660 
#    z 0.001260 0.001660 1.821130 
# 
# From -- ./inp_files/270963.got.cif
#   From: 2010.06.25/outbox.cif.g09.slc.cpg/sg2_136_cif.got.tgz:270963.got - 2010.06.27 13:26:56.
