data_PCOD8017151
_publ_section_title
;
Structure prediction by ZEFSAII (Michael W. Deem and Ramdas Pophale) SiO2 
 PCOD8017151
Probable space group: P -1
;
_chemical_formula_sum "Si O2"
_cell_formula_units_Z 16
_cell_length_a 7.867415
_cell_length_b 19.318059
_cell_length_c 20.529602
_cell_angle_alpha 159.730606
_cell_angle_beta 43.072065
_cell_angle_gamma 136.538961
_cell_volume 727.244098
_symmetry_space_group_name_H-M "P -1"
_symmetry_group_IT_number 2
_symmetry_cell_setting 'triclinic'
loop_
_space_group_symop_operation_xyz
x,y,z
-x,-y,-z
loop_
_atom_site_type_symbol
_atom_site_label
_atom_site_fract_x
_atom_site_fract_y
_atom_site_fract_z
Si Si1 0.376697 0.653577 0.125527
Si Si2 0.113792 0.122957 0.981626
Si Si3 0.430799 0.550700 0.872623
Si Si4 0.370471 0.942573 0.867239
Si Si5 0.116205 0.184576 0.585698
Si Si6 0.208612 0.251317 0.480325
Si Si7 0.838729 0.958336 0.246533
Si Si8 0.768785 0.315739 0.083208
O O1 0.096511 0.674234 0.246302
O O2 0.547140 0.879440 0.278075
O O3 0.500000 0.500000 0.000000
O O4 0.340659 0.578953 0.995579
O O5 0.274161 0.351728 0.132704
O O6 0.215887 0.983912 0.883409
O O7 0.128042 0.998635 0.801454
O O8 0.826339 0.146792 0.099966
O O9 0.273718 0.656907 0.957634
O O10 0.364189 0.310205 0.663060
O O11 0.546837 0.777748 0.655310
O O12 0.541306 0.148417 0.027183
O O13 0.203601 0.119938 0.433096
O O14 0.000000 0.000000 0.500000
O O15 0.223995 0.486347 0.699707
O O16 0.953575 0.162413 0.433386
O O17 0.970906 0.765834 0.056441
#
# Coordination Sequence:
#
# PCOD8017151 Si02
#       8
#     2   2   2   2   2   2   2   2
#     4  11  23  39  62  86 116 163 208 251 305 354
#     4   9  19  39  62  93 110 159 197 251 300 357
#     4   9  20  40  62  80 119 158 202 244 299 364
#     4   9  19  39  68  81 122 155 205 239 302 367
#     4  11  25  38  59  90 120 162 209 246 300 367
#     4  10  22  39  58  88 124 157 196 247 303 359
#     4  10  22  38  61  85 127 150 198 255 301 350
#     4   9  19  39  60  86 118 161 197 241 300 365
#
# _framework density 22.000865999999998
#
# number of rings (size 3 to 8) (size 9 to 14) (size 15 to 20)
#    0.000    2.250    0.000    1.875    8.750    2.500 
#    4.500   13.750    0.000    0.000    0.000    0.000 
#    0.000    0.000    0.000    0.000    0.000    0.000 
#
# Total GULP energy -198331.918811 kJ/mol
# GULP energy per Si atom -12395.744926 kJ/mol
# Density = 2.195079 g / cm^3
# Si number density = 22.000866 Si / 1000 Ang^3
#
#
#
# Elastic Constant Matrix: (Units=GPa)
#
#
# Indices 1 2 3 4 5 6 
#
# 1 70.4731 20.9411 30.1714 7.7947 30.7198 10.4324
# 2 20.9411 104.2504 31.0200 -1.6015 19.0571 16.1379
# 3 30.1714 31.0200 98.2905 13.1611 27.6416 9.3136
# 4 7.7947 -1.6015 13.1611 28.5698 2.2529 -2.1132
# 5 30.7198 19.0571 27.6416 2.2529 37.4444 7.8159
# 6 10.4324 16.1379 9.3136 -2.1132 7.8159 26.6834
#
#
#
# Elastic Compliance Matrix: (Units=1/GPa)
#
#
# Indices 1 2 3 4 5 6 
#
# 1 0.023337 -0.000758 -0.001203 -0.004804 -0.016811 -0.003703
# 2 -0.000758 0.011776 -0.002536 0.001864 -0.002559 -0.005044
# 3 -0.001203 -0.002536 0.014441 -0.005945 -0.007768 -0.001232
# 4 -0.004804 0.001864 -0.005945 0.039189 0.004032 0.004749
# 5 -0.016811 -0.002559 -0.007768 0.004032 0.047893 -0.002877
# 6 -0.003703 -0.005044 -0.001232 0.004749 -0.002877 0.043623
#
#
# Mechanical properties :
#
#
# Convention : Reuss Voigt Hill
#
# Bulk Modulus (GPa) = 24.65392 48.58656 36.62024
# Shear Modulus (GPa) = 24.65817 31.26495 27.96156
#
# Velocity S-wave (km/s) = 3.35144 3.77381 3.56888
# Velocity P-wave (km/s) = 5.11922 6.41254 5.80203
#
# Compressibility (1/GPa) = 0.04056151
#
# Stress axis : x y z
#
# Youngs Moduli (GPa) = 42.84997 84.91670 69.24842
#
# Poissons Ratio (x) = 0.06433 0.08330
# Poissons Ratio (y) = 0.03246 0.17561
# Poissons Ratio (z) = 0.05155 0.21534
#
# Static dielectric constant tensor:
#      x y z
#    x 4.137030 0.219850 0.241960 
#    y 0.219850 4.225650 0.033760 
#    z 0.241960 0.033760 3.748700 
# 
# 
# High freq. dielectric constant tensor:
#      x y z
#    x 1.874440 0.009040 0.019010 
#    y 0.009040 1.876880 0.001180 
#    z 0.019010 0.001180 1.837300 
# 
# From -- ./inp_files/590227.got.cif
#   From: 2010.06.25/outbox.cif.g09.slc.cpg/sg2_296_cif.got.tgz:590227.got - 2010.06.27 13:26:56.
