data_PCOD8017817
_publ_section_title
;
Structure prediction by ZEFSAII (Michael W. Deem and Ramdas Pophale) SiO2 
 PCOD8017817
Probable space group: P -1
;
_chemical_formula_sum "Si O2"
_cell_formula_units_Z 16
_cell_length_a 21.813895
_cell_length_b 11.901228
_cell_length_c 8.979830
_cell_angle_alpha 36.236948
_cell_angle_beta 128.537567
_cell_angle_gamma 147.299503
_cell_volume 733.085032
_symmetry_space_group_name_H-M "P -1"
_symmetry_group_IT_number 2
_symmetry_cell_setting 'triclinic'
loop_
_space_group_symop_operation_xyz
x,y,z
-x,-y,-z
loop_
_atom_site_type_symbol
_atom_site_label
_atom_site_fract_x
_atom_site_fract_y
_atom_site_fract_z
Si Si1 0.535666 0.414176 0.857761
Si Si2 0.690919 0.324378 0.916169
Si Si3 0.849780 0.714061 0.296418
Si Si4 0.127939 0.860796 0.948695
Si Si5 0.497761 0.745017 0.362623
Si Si6 0.698661 0.155841 0.812975
Si Si7 0.046986 0.771104 0.598362
Si Si8 0.788425 0.736590 0.871017
O O1 0.515963 0.604466 0.656250
O O2 0.517791 0.356316 0.718965
O O3 0.664832 0.581218 0.916019
O O4 0.439508 0.120425 0.113685
O O5 0.617365 0.340408 0.683197
O O6 0.742184 0.270452 0.928687
O O7 0.785817 0.597538 0.868241
O O8 0.609123 0.079114 0.177802
O O9 0.733340 0.395642 0.506759
O O10 0.958116 0.787247 0.438189
O O11 0.852002 0.926988 0.140786
O O12 0.854034 0.741312 0.095179
O O13 0.112547 0.907465 0.708155
O O14 0.239991 0.927131 0.058406
O O15 0.015977 0.543992 0.172956
O O16 0.138592 0.950519 0.409137
#
# Coordination Sequence:
#
# PCOD8017817 Si02
#       8
#     2   2   2   2   2   2   2   2
#     4   9  19  34  57  95 126 157 203 247 300 366
#     4   9  18  34  61  91 119 163 203 249 298 352
#     4  11  24  44  61  88 129 164 201 252 309 367
#     4  10  23  43  68  92 117 158 212 257 306 356
#     4   8  16  32  55  88 127 155 204 253 287 347
#     4  10  22  39  66  92 124 163 203 255 296 361
#     4  10  23  43  66  90 115 158 216 261 299 353
#     4  11  23  39  62  92 127 165 196 249 316 367
#
# _framework density 21.825572999999999
#
# number of rings (size 3 to 8) (size 9 to 14) (size 15 to 20)
#    0.000    2.250    0.000    2.250    8.750    3.000 
#    4.500    0.625    0.000    0.000    0.000    0.000 
#    0.000    0.000    0.000    0.000    0.000    0.000 
#
# Total GULP energy -198359.448038 kJ/mol
# GULP energy per Si atom -12397.465502 kJ/mol
# Density = 2.177590 g / cm^3
# Si number density = 21.825573 Si / 1000 Ang^3
#
#
#
# Elastic Constant Matrix: (Units=GPa)
#
#
# Indices 1 2 3 4 5 6 
#
# 1 64.7426 31.3685 36.7734 -14.5059 5.6329 0.5264
# 2 31.3685 43.8378 44.5513 -11.2396 -4.7286 10.5815
# 3 36.7734 44.5513 124.5844 -14.5898 -9.8836 -3.9268
# 4 -14.5059 -11.2396 -14.5898 25.2094 0.0053 -4.9413
# 5 5.6329 -4.7286 -9.8836 0.0053 37.8939 -11.8705
# 6 0.5264 10.5815 -3.9268 -4.9413 -11.8705 23.7467
#
#
#
# Elastic Compliance Matrix: (Units=1/GPa)
#
#
# Indices 1 2 3 4 5 6 
#
# 1 0.027093 -0.019365 -0.000173 0.008367 -0.004077 0.007702
# 2 -0.019365 0.062157 -0.017872 -0.000108 -0.004151 -0.032321
# 3 -0.000173 -0.017872 0.015925 0.004033 0.006560 0.014719
# 4 0.008367 -0.000108 0.004033 0.049247 0.003751 0.012652
# 5 -0.004077 -0.004151 0.006560 0.003751 0.034835 0.021219
# 6 0.007702 -0.032321 0.014719 0.012652 0.021219 0.072016
#
#
# Mechanical properties :
#
#
# Convention : Reuss Voigt Hill
#
# Bulk Modulus (GPa) = 32.94274 50.95015 41.94645
# Shear Modulus (GPa) = 14.44201 25.40143 19.92172
#
# Velocity S-wave (km/s) = 2.57515 3.41521 3.02449
# Velocity P-wave (km/s) = 4.89574 6.24071 5.60869
#
# Compressibility (1/GPa) = 0.03035570
#
# Stress axis : x y z
#
# Youngs Moduli (GPa) = 36.90952 16.08825 62.79246
#
# Poissons Ratio (x) = 0.31154 0.01087
# Poissons Ratio (y) = 0.71474 1.12224
# Poissons Ratio (z) = 0.00639 0.28753
#
# Static dielectric constant tensor:
#      x y z
#    x 3.916970 0.168500 0.196040 
#    y 0.168500 3.762880 -0.347840 
#    z 0.196040 -0.347840 4.180000 
# 
# 
# High freq. dielectric constant tensor:
#      x y z
#    x 1.843000 0.013770 0.009180 
#    y 0.013770 1.838450 -0.026740 
#    z 0.009180 -0.026740 1.860960 
# 
# From -- ./inp_files/353348.got.cif
#   From: 2010.06.25/outbox.cif.g09.slc.cpg/sg2_177_cif.got.tgz:353348.got - 2010.06.27 13:26:56.
