data_PCOD8017755
_publ_section_title
;
Structure prediction by ZEFSAII (Michael W. Deem and Ramdas Pophale) SiO2 
 PCOD8017755
Probable space group: P -1
;
_chemical_formula_sum "Si O2"
_cell_formula_units_Z 16
_cell_length_a 9.303774
_cell_length_b 13.522399
_cell_length_c 17.031250
_cell_angle_alpha 153.870762
_cell_angle_beta 57.396921
_cell_angle_gamma 127.124101
_cell_volume 752.360464
_symmetry_space_group_name_H-M "P -1"
_symmetry_group_IT_number 2
_symmetry_cell_setting 'triclinic'
loop_
_space_group_symop_operation_xyz
x,y,z
-x,-y,-z
loop_
_atom_site_type_symbol
_atom_site_label
_atom_site_fract_x
_atom_site_fract_y
_atom_site_fract_z
Si Si1 0.531316 0.632334 0.502034
Si Si2 0.372728 0.852704 0.149653
Si Si3 0.666706 0.630268 0.909653
Si Si4 0.196524 0.596304 0.160701
Si Si5 0.076865 0.894123 0.760354
Si Si6 0.761361 0.469902 0.607800
Si Si7 0.032971 0.864146 0.174018
Si Si8 0.944562 0.830520 0.470146
O O1 0.500000 0.500000 0.500000
O O2 0.384693 0.485552 0.377629
O O3 0.733108 0.689671 0.448171
O O4 0.492496 0.879348 0.704843
O O5 0.289092 0.826932 0.244451
O O6 0.221993 0.820536 0.104196
O O7 0.474081 0.661719 0.972341
O O8 0.658593 0.474469 0.879193
O O9 0.698462 0.475457 0.718767
O O10 0.816009 0.889194 0.060380
O O11 0.043547 0.633080 0.289554
O O12 0.115126 0.390973 0.974298
O O13 0.212536 0.785361 0.596231
O O14 0.948176 0.684137 0.700298
O O15 0.953985 0.983450 0.800036
O O16 0.974785 0.002934 0.360640
O O17 0.000000 0.000000 0.500000
#
# Coordination Sequence:
#
# PCOD8017755 Si02
#       8
#     2   2   2   2   2   2   2   2
#     4  11  24  43  67  98 134 171 213 272 328 378
#     4  11  22  43  62  95 138 162 213 275 320 382
#     4  11  24  40  64  97 126 167 219 266 325 389
#     4  11  23  42  66  94 128 174 215 266 324 386
#     4  10  22  43  64  91 128 173 219 264 319 393
#     4  11  22  41  68  87 131 176 212 266 327 379
#     4  10  22  39  65  92 127 168 214 266 325 373
#     4  11  22  40  67  95 128 169 222 264 312 388
#
# _framework density 21.266401999999999
#
# number of rings (size 3 to 8) (size 9 to 14) (size 15 to 20)
#    0.000    1.250    3.750    3.375    1.750    1.000 
#    4.500    1.875    0.000    0.000    0.000    0.000 
#    0.000    0.000    0.000    0.000    0.000    0.000 
#
# Total GULP energy -198359.657593 kJ/mol
# GULP energy per Si atom -12397.478600 kJ/mol
# Density = 2.121800 g / cm^3
# Si number density = 21.266402 Si / 1000 Ang^3
#
#
#
# Elastic Constant Matrix: (Units=GPa)
#
#
# Indices 1 2 3 4 5 6 
#
# 1 120.3235 42.7577 40.4317 -8.5051 -8.8593 -20.1381
# 2 42.7577 81.0116 19.7550 4.7957 0.6623 1.7279
# 3 40.4317 19.7550 97.5335 -11.8166 -0.7193 -2.3222
# 4 -8.5051 4.7957 -11.8166 32.0195 -3.0724 -4.5162
# 5 -8.8593 0.6623 -0.7193 -3.0724 41.0186 -4.6618
# 6 -20.1381 1.7279 -2.3222 -4.5162 -4.6618 29.3161
#
#
#
# Elastic Compliance Matrix: (Units=1/GPa)
#
#
# Indices 1 2 3 4 5 6 
#
# 1 0.015193 -0.007797 -0.003646 0.006103 0.005207 0.012376
# 2 -0.007797 0.017368 -0.001303 -0.006614 -0.003397 -0.008042
# 3 -0.003646 -0.001303 0.012445 0.003650 -0.000382 -0.000941
# 4 0.006103 -0.006614 0.003650 0.037351 0.005595 0.011515
# 5 0.005207 -0.003397 -0.000382 0.005595 0.026983 0.008900
# 6 0.012376 -0.008042 -0.000941 0.011515 0.008900 0.046201
#
#
# Mechanical properties :
#
#
# Convention : Reuss Voigt Hill
#
# Bulk Modulus (GPa) = 51.24953 56.08416 53.66684
# Shear Modulus (GPa) = 26.66113 33.53244 30.09679
#
# Velocity S-wave (km/s) = 3.54457 3.97518 3.76603
# Velocity P-wave (km/s) = 6.39555 6.89194 6.64838
#
# Compressibility (1/GPa) = 0.01951237
#
# Stress axis : x y z
#
# Youngs Moduli (GPa) = 65.81929 57.57712 80.35051
#
# Poissons Ratio (x) = 0.44896 0.29299
# Poissons Ratio (y) = 0.51323 0.10472
# Poissons Ratio (z) = 0.24000 0.07504
#
# Static dielectric constant tensor:
#      x y z
#    x 3.926380 -0.079200 -0.094800 
#    y -0.079200 3.698850 0.007060 
#    z -0.094800 0.007060 4.031880 
# 
# 
# High freq. dielectric constant tensor:
#      x y z
#    x 1.840510 -0.012490 -0.004730 
#    y -0.012490 1.825120 0.007330 
#    z -0.004730 0.007330 1.836370 
# 
# From -- ./inp_files/279223.got.cif
#   From: 2010.06.25/outbox.cif.g09.slc.cpg/sg2_140_cif.got.tgz:279223.got - 2010.06.27 13:26:56.
