data_PCOD8017516
_publ_section_title
;
Structure prediction by ZEFSAII (Michael W. Deem and Ramdas Pophale) SiO2 
 PCOD8017516
Probable space group: P -1
;
_chemical_formula_sum "Si O2"
_cell_formula_units_Z 16
_cell_length_a 9.055712
_cell_length_b 21.073555
_cell_length_c 9.962141
_cell_angle_alpha 134.765122
_cell_angle_beta 54.530537
_cell_angle_gamma 145.482291
_cell_volume 764.881978
_symmetry_space_group_name_H-M "P -1"
_symmetry_group_IT_number 2
_symmetry_cell_setting 'triclinic'
loop_
_space_group_symop_operation_xyz
x,y,z
-x,-y,-z
loop_
_atom_site_type_symbol
_atom_site_label
_atom_site_fract_x
_atom_site_fract_y
_atom_site_fract_z
Si Si1 0.683088 0.352176 0.809595
Si Si2 0.746878 0.001749 0.014467
Si Si3 0.256577 0.614871 0.461424
Si Si4 0.736752 0.498926 0.239746
Si Si5 0.258858 0.056450 0.518864
Si Si6 0.363973 0.851826 0.765580
Si Si7 0.075356 0.948207 0.726523
Si Si8 0.397252 0.344192 0.442325
O O1 0.719755 0.419509 0.750277
O O2 0.438239 0.199426 0.696144
O O3 0.950488 0.393786 0.761458
O O4 0.623304 0.402052 0.031439
O O5 0.833285 0.134341 0.127830
O O6 0.706766 0.974972 0.156390
O O7 0.474232 0.887251 0.911930
O O8 0.961225 0.007796 0.859199
O O9 0.226851 0.710567 0.595660
O O10 0.503141 0.672498 0.503455
O O11 0.000000 0.500000 0.500000
O O12 0.607695 0.412290 0.313286
O O13 0.655893 0.572342 0.369521
O O14 0.407069 0.051243 0.320493
O O15 0.000000 0.000000 0.500000
O O16 0.193274 0.967574 0.546960
O O17 0.866578 0.801669 0.671466
#
# Coordination Sequence:
#
# PCOD8017516 Si02
#       8
#     2   2   2   2   2   2   2   2
#     4  10  23  43  65  90 129 166 210 259 316 375
#     4  10  22  39  61  91 122 159 210 253 309 373
#     4  11  21  40  64  88 123 165 208 253 306 367
#     4  10  24  43  65  95 126 167 208 264 319 366
#     4  11  22  41  63  91 131 169 200 259 321 369
#     4  10  22  41  61  87 127 163 204 254 313 371
#     4  11  23  39  64  95 125 160 209 258 313 375
#     4  11  23  42  66  94 126 162 214 259 312 378
#
# _framework density 20.91826
#
# number of rings (size 3 to 8) (size 9 to 14) (size 15 to 20)
#    0.000    1.500    3.750    0.750    7.000    1.000 
#    0.000    1.250    0.000    0.000    0.000    0.000 
#    0.000    0.000    0.000    0.000    0.000    0.000 
#
# Total GULP energy -198334.275084 kJ/mol
# GULP energy per Si atom -12395.892193 kJ/mol
# Density = 2.087065 g / cm^3
# Si number density = 20.918260 Si / 1000 Ang^3
#
#
#
# Elastic Constant Matrix: (Units=GPa)
#
#
# Indices 1 2 3 4 5 6 
#
# 1 93.7370 26.9809 50.3674 6.3844 6.8271 -14.8655
# 2 26.9809 96.9985 37.2251 -0.9336 0.0652 -1.1080
# 3 50.3674 37.2251 123.0723 2.6142 8.6943 -4.7030
# 4 6.3844 -0.9336 2.6142 24.7636 -5.8530 5.4495
# 5 6.8271 0.0652 8.6943 -5.8530 41.6054 2.2492
# 6 -14.8655 -1.1080 -4.7030 5.4495 2.2492 27.7809
#
#
#
# Elastic Compliance Matrix: (Units=1/GPa)
#
#
# Indices 1 2 3 4 5 6 
#
# 1 0.016322 -0.002491 -0.005222 -0.006499 -0.002998 0.009268
# 2 -0.002491 0.012096 -0.002854 0.002138 0.001388 -0.001865
# 3 -0.005222 -0.002854 0.011196 -0.000091 -0.001444 -0.000878
# 4 -0.006499 0.002138 -0.000091 0.047070 0.008424 -0.013323
# 5 -0.002998 0.001388 -0.001444 0.008424 0.026313 -0.005576
# 6 0.009268 -0.001865 -0.000878 -0.013323 -0.005576 0.043797
#
#
# Mechanical properties :
#
#
# Convention : Reuss Voigt Hill
#
# Bulk Modulus (GPa) = 54.11271 60.32830 57.22051
# Shear Modulus (GPa) = 27.16079 32.11228 29.63653
#
# Velocity S-wave (km/s) = 3.60728 3.92233 3.76809
# Velocity P-wave (km/s) = 6.57835 7.02961 6.80772
#
# Compressibility (1/GPa) = 0.01847995
#
# Stress axis : x y z
#
# Youngs Moduli (GPa) = 61.26717 82.67315 89.31611
#
# Poissons Ratio (x) = 0.20590 0.46645
# Poissons Ratio (y) = 0.15259 0.25491
# Poissons Ratio (z) = 0.31996 0.23595
#
# Static dielectric constant tensor:
#      x y z
#    x 1.945920 0.808150 -0.978580 
#    y 0.808150 3.217430 0.441910 
#    z -0.978580 0.441910 3.345760 
# 
# 
# High freq. dielectric constant tensor:
#      x y z
#    x 1.825370 -0.005950 0.018260 
#    y -0.005950 1.800900 -0.001600 
#    z 0.018260 -0.001600 1.830320 
# 
# From -- ./inp_files/224022.got.cif
#   From: 2010.06.25/outbox.cif.g09.slc.cpg/sg2_113_cif.got.tgz:224022.got - 2010.06.27 13:26:56.
