data_PCOD8017069
_publ_section_title
;
Structure prediction by ZEFSAII (Michael W. Deem and Ramdas Pophale) SiO2 
 PCOD8017069
Probable space group: P -1
;
_chemical_formula_sum "Si O2"
_cell_formula_units_Z 12
_cell_length_a 9.153338
_cell_length_b 9.300049
_cell_length_c 11.122815
_cell_angle_alpha 103.605142
_cell_angle_beta 94.375302
_cell_angle_gamma 46.543251
_cell_volume 663.099956
_symmetry_space_group_name_H-M "P -1"
_symmetry_group_IT_number 2
_symmetry_cell_setting 'triclinic'
loop_
_space_group_symop_operation_xyz
x,y,z
-x,-y,-z
loop_
_atom_site_type_symbol
_atom_site_label
_atom_site_fract_x
_atom_site_fract_y
_atom_site_fract_z
Si Si1 0.566601 0.117192 0.991338
Si Si2 0.878576 0.892635 0.749442
Si Si3 0.272175 0.173203 0.476615
Si Si4 0.937621 0.531853 0.681551
Si Si5 0.930494 0.974151 0.111986
Si Si6 0.857476 0.480713 0.923001
O O1 0.367293 0.354380 0.003361
O O2 0.695283 0.093010 0.107446
O O3 0.500000 0.000000 0.000000
O O4 0.695394 0.033120 0.860926
O O5 0.785997 0.939165 0.618153
O O6 0.005140 0.654138 0.742939
O O7 0.027231 0.931355 0.764623
O O8 0.230831 0.337923 0.411467
O O9 0.130441 0.299512 0.608294
O O10 0.500000 0.000000 0.500000
O O11 0.838850 0.524692 0.788749
O O12 0.064363 0.737694 0.097111
O O13 0.000000 0.000000 0.000000
O O14 0.000000 0.500000 0.000000
#
# Coordination Sequence:
#
# PCOD8017069 Si02
#       6
#     2   2   2   2   2   2
#     4  11  19  36  57  86 115 150 193 228 287 350
#     4   9  19  38  56  83 116 145 190 242 280 329
#     4   9  19  37  62  81 109 153 199 233 279 336
#     4   9  20  37  57  85 111 146 201 230 279 342
#     4  10  22  38  53  85 125 151 185 240 289 340
#     4  12  22  34  60  88 117 154 187 238 289 344
#
# _framework density 18.096819
#
# number of rings (size 3 to 8) (size 9 to 14) (size 15 to 20)
#    1.000    1.000    3.333    1.000    2.333    4.000 
#    3.000    0.833    0.000    2.000    0.000    0.000 
#    0.000    0.000    0.000    0.000    0.000    0.000 
#
# Total GULP energy -148668.505403 kJ/mol
# GULP energy per Si atom -12389.042117 kJ/mol
# Density = 1.805563 g / cm^3
# Si number density = 18.096819 Si / 1000 Ang^3
#
#
#
# Elastic Constant Matrix: (Units=GPa)
#
#
# Indices 1 2 3 4 5 6 
#
# 1 120.9866 51.8450 44.1519 12.9823 28.4215 -10.3060
# 2 51.8450 111.5579 31.0277 11.9847 11.6071 -12.3103
# 3 44.1519 31.0277 97.3101 16.1362 10.4020 -10.3844
# 4 12.9823 11.9847 16.1362 28.4165 3.5945 -4.3657
# 5 28.4215 11.6071 10.4020 3.5945 31.5972 1.3011
# 6 -10.3060 -12.3103 -10.3844 -4.3657 1.3011 39.6933
#
#
#
# Elastic Compliance Matrix: (Units=1/GPa)
#
#
# Indices 1 2 3 4 5 6 
#
# 1 0.013892 -0.004155 -0.003590 -0.001082 -0.009730 0.001579
# 2 -0.004155 0.011688 -0.001302 -0.001989 0.000017 0.001986
# 3 -0.003590 -0.001302 0.013360 -0.005130 -0.000173 0.001601
# 4 -0.001082 -0.001989 -0.005130 0.039931 -0.001240 0.002193
# 5 -0.009730 0.000017 -0.000173 -0.001240 0.040758 -0.004039
# 6 0.001579 0.001986 0.001601 0.002193 -0.004039 0.027012
#
#
# Mechanical properties :
#
#
# Convention : Reuss Voigt Hill
#
# Bulk Modulus (GPa) = 47.96843 64.87822 56.42332
# Shear Modulus (GPa) = 29.12323 33.46340 31.29331
#
# Velocity S-wave (km/s) = 4.01596 4.30482 4.16290
# Velocity P-wave (km/s) = 6.93311 7.78698 7.37242
#
# Compressibility (1/GPa) = 0.02084705
#
# Stress axis : x y z
#
# Youngs Moduli (GPa) = 71.98190 85.55780 74.84782
#
# Poissons Ratio (x) = 0.35548 0.26874
# Poissons Ratio (y) = 0.29907 0.09742
# Poissons Ratio (z) = 0.25845 0.11136
#
# Static dielectric constant tensor:
#      x y z
#    x 4.000130 -0.140480 0.522760 
#    y -0.140480 2.912590 0.186280 
#    z 0.522760 0.186280 3.604090 
# 
# 
# High freq. dielectric constant tensor:
#      x y z
#    x 1.679360 -0.005330 0.011840 
#    y -0.005330 1.699900 0.006010 
#    z 0.011840 0.006010 1.699400 
# 
# From -- ./inp_files/162703.got.cif
#   From: 2010.06.25/outbox.cif.g09.slc.cpg/sg2_82_cif.got.tgz:162703.got - 2010.06.27 13:26:56.
