data_PCOD8017971
_publ_section_title
;
Structure prediction by ZEFSAII (Michael W. Deem and Ramdas Pophale) SiO2 
 PCOD8017971
Probable space group: P -1
;
_chemical_formula_sum "Si O2"
_cell_formula_units_Z 14
_cell_length_a 5.959848
_cell_length_b 17.838345
_cell_length_c 12.068951
_cell_angle_alpha 140.576586
_cell_angle_beta 110.538060
_cell_angle_gamma 56.234086
_cell_volume 669.844070
_symmetry_space_group_name_H-M "P -1"
_symmetry_group_IT_number 2
_symmetry_cell_setting 'triclinic'
loop_
_space_group_symop_operation_xyz
x,y,z
-x,-y,-z
loop_
_atom_site_type_symbol
_atom_site_label
_atom_site_fract_x
_atom_site_fract_y
_atom_site_fract_z
Si Si1 0.203698 0.319228 0.120141
Si Si2 0.261793 0.748054 0.730588
Si Si3 0.417118 0.834065 0.647264
Si Si4 0.525611 0.134822 0.780687
Si Si5 0.955805 0.883753 0.041352
Si Si6 0.007911 0.418890 0.516637
Si Si7 0.684718 0.076603 0.503853
O O1 0.446265 0.282097 0.207229
O O2 0.018361 0.481945 0.272442
O O3 0.316969 0.272962 0.963226
O O4 0.029644 0.249055 0.052731
O O5 0.227524 0.800603 0.657962
O O6 0.247087 0.609778 0.564973
O O7 0.025284 0.858182 0.893983
O O8 0.730427 0.727143 0.597212
O O9 0.352884 0.828291 0.499510
O O10 0.343624 0.987127 0.844312
O O11 0.517674 0.163832 0.680957
O O12 0.829901 0.081898 0.819389
O O13 0.429917 0.024705 0.664240
O O14 0.000000 0.500000 0.500000
O O15 0.000000 0.000000 0.500000
#
# Coordination Sequence:
#
# PCOD8017971 Si02
#       7
#     2   2   2   2   2   2   2
#     4  11  22  43  65  91 132 171 210 257 312 383
#     4  11  24  38  66  91 134 168 212 251 326 367
#     4  12  25  38  65  98 128 165 211 265 313 376
#     4  10  22  39  71  91 127 166 209 263 328 356
#     4  11  22  41  63 100 127 162 214 264 315 376
#     4  12  25  43  60  93 135 174 209 250 312 388
#     4  11  22  43  65  98 126 159 214 269 318 368
#
# _framework density 20.900389000000001
#
# number of rings (size 3 to 8) (size 9 to 14) (size 15 to 20)
#    0.000    0.857    5.714    0.857    2.000    2.286 
#    0.000    0.714    0.000    4.286    0.000    0.000 
#    0.000    0.000    0.000    0.000    0.000    0.000 
#
# Total GULP energy -173533.514575 kJ/mol
# GULP energy per Si atom -12395.251041 kJ/mol
# Density = 2.085282 g / cm^3
# Si number density = 20.900389 Si / 1000 Ang^3
#
#
#
# Elastic Constant Matrix: (Units=GPa)
#
#
# Indices 1 2 3 4 5 6 
#
# 1 108.4490 44.3816 67.4347 -11.9893 -2.9575 11.6682
# 2 44.3816 83.4726 48.4088 -11.2395 -7.3513 7.5059
# 3 67.4347 48.4088 152.4179 3.5431 -13.9340 7.0585
# 4 -11.9893 -11.2395 3.5431 32.8489 3.1031 -17.0143
# 5 -2.9575 -7.3513 -13.9340 3.1031 54.6071 -6.1836
# 6 11.6682 7.5059 7.0585 -17.0143 -6.1836 39.6001
#
#
#
# Elastic Compliance Matrix: (Units=1/GPa)
#
#
# Indices 1 2 3 4 5 6 
#
# 1 0.014850 -0.004237 -0.005409 0.004145 -0.001502 -0.001062
# 2 -0.004237 0.017001 -0.003602 0.005088 0.000965 0.001005
# 3 -0.005409 -0.003602 0.010480 -0.005341 0.002022 -0.001571
# 4 0.004145 0.005088 -0.005341 0.043278 -0.000964 0.017210
# 5 -0.001502 0.000965 0.002022 -0.000964 0.019213 0.002485
# 6 -0.001062 0.001005 -0.001571 0.017210 0.002485 0.033437
#
#
# Mechanical properties :
#
#
# Convention : Reuss Voigt Hill
#
# Bulk Modulus (GPa) = 63.15013 73.86554 68.50783
# Shear Modulus (GPa) = 29.40605 37.68552 33.54578
#
# Velocity S-wave (km/s) = 3.75502 4.25090 4.01063
# Velocity P-wave (km/s) = 7.00576 7.71440 7.36860
#
# Compressibility (1/GPa) = 0.01583528
#
# Stress axis : x y z
#
# Youngs Moduli (GPa) = 67.34088 58.81861 95.42381
#
# Poissons Ratio (x) = 0.24924 0.51612
# Poissons Ratio (y) = 0.28535 0.34368
# Poissons Ratio (z) = 0.36423 0.21184
#
# Static dielectric constant tensor:
#      x y z
#    x 4.082940 0.074770 -0.355190 
#    y 0.074770 3.555860 0.087660 
#    z -0.355190 0.087660 4.444640 
# 
# 
# High freq. dielectric constant tensor:
#      x y z
#    x 1.840170 0.006850 -0.014110 
#    y 0.006850 1.775000 -0.001050 
#    z -0.014110 -0.001050 1.828030 
# 
# From -- ./inp_files/28108.got.cif
#   From: 2010.06.25/outbox.cif.g09.slc.cpg/sg2_15_cif.got.tgz:28108.got - 2010.06.27 13:26:56.
