data_PCOD8017805
_publ_section_title
;
Structure prediction by ZEFSAII (Michael W. Deem and Ramdas Pophale) SiO2 
 PCOD8017805
Probable space group: P -1
;
_chemical_formula_sum "Si O2"
_cell_formula_units_Z 12
_cell_length_a 9.042894
_cell_length_b 13.770455
_cell_length_c 5.066389
_cell_angle_alpha 110.940936
_cell_angle_beta 111.519629
_cell_angle_gamma 54.332034
_cell_volume 468.137796
_symmetry_space_group_name_H-M "P -1"
_symmetry_group_IT_number 2
_symmetry_cell_setting 'triclinic'
loop_
_space_group_symop_operation_xyz
x,y,z
-x,-y,-z
loop_
_atom_site_type_symbol
_atom_site_label
_atom_site_fract_x
_atom_site_fract_y
_atom_site_fract_z
Si Si1 0.303815 0.017196 0.804800
Si Si2 0.627806 0.444053 0.778584
Si Si3 0.683411 0.644603 0.000440
Si Si4 0.076704 0.150410 0.290017
Si Si5 0.708881 0.211182 0.362400
Si Si6 0.876223 0.641238 0.610481
O O1 0.319521 0.890149 0.613220
O O2 0.224737 0.103499 0.581864
O O3 0.500000 0.000000 0.000000
O O4 0.165903 0.068535 0.012192
O O5 0.500000 0.500000 0.500000
O O6 0.768510 0.496226 0.921678
O O7 0.728019 0.297149 0.679693
O O8 0.500000 0.500000 0.000000
O O9 0.464706 0.710572 0.867857
O O10 0.791996 0.673428 0.879052
O O11 0.703964 0.692796 0.342776
O O12 0.013751 0.289653 0.308364
O O13 0.894989 0.147620 0.247274
O O14 0.000000 0.500000 0.500000
#
# Coordination Sequence:
#
# PCOD8017805 Si02
#       6
#     2   2   2   2   2   2
#     4  12  27  48  73 101 139 189 238 287 349 421
#     4  10  22  39  66 103 138 176 224 278 341 408
#     4  11  24  44  70 102 137 184 231 280 347 417
#     4  12  27  46  71 106 140 182 237 293 349 415
#     4  11  25  46  72 104 143 183 232 296 352 413
#     4  12  25  45  69 100 140 184 229 284 345 414
#
# _framework density 25.633478
#
# number of rings (size 3 to 8) (size 9 to 14) (size 15 to 20)
#    0.000    0.667    0.000    8.000    0.000   10.667 
#    0.000    0.000    0.000    0.000    0.000    0.000 
#    0.000    0.000    0.000    0.000    0.000    0.000 
#
# Total GULP energy -148803.284592 kJ/mol
# GULP energy per Si atom -12400.273716 kJ/mol
# Density = 2.557513 g / cm^3
# Si number density = 25.633478 Si / 1000 Ang^3
#
#
#
# Elastic Constant Matrix: (Units=GPa)
#
#
# Indices 1 2 3 4 5 6 
#
# 1 93.4685 41.2219 11.2791 9.7919 -1.0882 19.5989
# 2 41.2219 131.2894 21.0720 17.1901 -4.4526 27.5212
# 3 11.2791 21.0720 89.0061 6.3587 -28.9713 11.2212
# 4 9.7919 17.1901 6.3587 37.7141 7.1290 3.2208
# 5 -1.0882 -4.4526 -28.9713 7.1290 46.5849 6.3343
# 6 19.5989 27.5212 11.2212 3.2208 6.3343 51.9409
#
#
#
# Elastic Compliance Matrix: (Units=1/GPa)
#
#
# Indices 1 2 3 4 5 6 
#
# 1 0.012951 -0.003127 -0.000190 -0.001746 0.000582 -0.003152
# 2 -0.003127 0.010070 -0.000736 -0.003603 0.001521 -0.003959
# 3 -0.000190 -0.000736 0.015771 -0.003989 0.010891 -0.004027
# 4 -0.001746 -0.003603 -0.003989 0.030561 -0.007882 0.002496
# 5 0.000582 0.001521 0.010891 -0.007882 0.030504 -0.006610
# 6 -0.003152 -0.003959 -0.004027 0.002496 -0.006610 0.024061
#
#
# Mechanical properties :
#
#
# Convention : Reuss Voigt Hill
#
# Bulk Modulus (GPa) = 32.58661 51.21222 41.89941
# Shear Modulus (GPa) = 35.14906 43.26071 39.20489
#
# Velocity S-wave (km/s) = 3.70701 4.11258 3.91505
# Velocity P-wave (km/s) = 5.57339 6.52480 6.06777
#
# Compressibility (1/GPa) = 0.03068746
#
# Stress axis : x y z
#
# Youngs Moduli (GPa) = 77.21223 99.30540 63.40673
#
# Poissons Ratio (x) = 0.31052 0.01202
# Poissons Ratio (y) = 0.24144 0.04667
# Poissons Ratio (z) = 0.01463 0.07309
#
# Static dielectric constant tensor:
#      x y z
#    x 4.495520 0.278080 0.166850 
#    y 0.278080 5.305240 0.338150 
#    z 0.166850 0.338150 5.112530 
# 
# 
# High freq. dielectric constant tensor:
#      x y z
#    x 2.021490 0.017130 0.004260 
#    y 0.017130 2.034850 0.004560 
#    z 0.004260 0.004560 2.034830 
# 
# From -- ./inp_files/36382.got.cif
#   From: 2010.06.25/outbox.cif.g09.slc.cpg/sg2_19_cif.got.tgz:36382.got - 2010.06.27 13:26:56.
