data_PCOD8017021
_publ_section_title
;
Structure prediction by ZEFSAII (Michael W. Deem and Ramdas Pophale) SiO2 
 PCOD8017021
Probable space group: P -1
;
_chemical_formula_sum "Si O2"
_cell_formula_units_Z 16
_cell_length_a 9.747884
_cell_length_b 11.837967
_cell_length_c 10.353330
_cell_angle_alpha 52.439244
_cell_angle_beta 56.526370
_cell_angle_gamma 61.298593
_cell_volume 771.020531
_symmetry_space_group_name_H-M "P -1"
_symmetry_group_IT_number 2
_symmetry_cell_setting 'triclinic'
loop_
_space_group_symop_operation_xyz
x,y,z
-x,-y,-z
loop_
_atom_site_type_symbol
_atom_site_label
_atom_site_fract_x
_atom_site_fract_y
_atom_site_fract_z
Si Si1 0.683943 0.192621 0.964643
Si Si2 0.531725 0.264522 0.587236
Si Si3 0.674065 0.813323 0.806695
Si Si4 0.911056 0.205999 0.068611
Si Si5 0.162834 0.954305 0.535745
Si Si6 0.819724 0.511662 0.021160
Si Si7 0.533583 0.451303 0.696429
Si Si8 0.713114 0.894763 0.027367
O O1 0.652657 0.356865 0.808632
O O2 0.516647 0.183792 0.138581
O O3 0.843654 0.164684 0.995137
O O4 0.713829 0.065743 0.928408
O O5 0.707375 0.182482 0.494062
O O6 0.586267 0.362616 0.600994
O O7 0.435285 0.383427 0.447597
O O8 0.421543 0.153183 0.773012
O O9 0.747368 0.909848 0.598388
O O10 0.790604 0.651768 0.844855
O O11 0.671886 0.874233 0.913287
O O12 0.889475 0.083680 0.268294
O O13 0.810886 0.366932 0.047642
O O14 0.107853 0.205885 0.956637
O O15 0.000000 0.000000 0.500000
O O16 0.665361 0.543794 0.180422
O O17 0.000000 0.500000 0.000000
#
# Coordination Sequence:
#
# PCOD8017021 Si02
#       8
#     2   2   2   2   2   2   2   2
#     4  11  24  42  63  95 130 169 210 256 327 381
#     4  11  21  40  67  94 124 162 220 262 303 378
#     4  11  22  38  69  92 123 167 215 258 314 369
#     4  12  26  41  65  94 133 167 206 268 322 374
#     4  12  23  40  64  98 127 163 215 268 309 370
#     4  11  19  40  62  93 125 161 215 256 309 373
#     4  10  22  37  64  97 123 167 207 263 314 369
#     4  12  21  44  66  93 124 173 215 259 308 382
#
# _framework density 20.751718
#
# number of rings (size 3 to 8) (size 9 to 14) (size 15 to 20)
#    0.000    0.750    7.500    1.500    0.000    2.500 
#    0.000    0.625    0.000    0.000    0.000    0.000 
#    0.000    0.000    0.000    0.000    0.000    0.000 
#
# Total GULP energy -198363.249897 kJ/mol
# GULP energy per Si atom -12397.703119 kJ/mol
# Density = 2.070449 g / cm^3
# Si number density = 20.751718 Si / 1000 Ang^3
#
#
#
# Elastic Constant Matrix: (Units=GPa)
#
#
# Indices 1 2 3 4 5 6 
#
# 1 83.8041 11.2181 22.0653 3.2376 9.7712 -9.7691
# 2 11.2181 76.3314 26.7068 -21.5169 6.6915 -13.7954
# 3 22.0653 26.7068 96.2871 -19.8946 11.2887 -3.2551
# 4 3.2376 -21.5169 -19.8946 34.3253 -6.7548 -5.3877
# 5 9.7712 6.6915 11.2887 -6.7548 20.7673 -4.0005
# 6 -9.7691 -13.7954 -3.2551 -5.3877 -4.0005 26.5208
#
#
#
# Elastic Compliance Matrix: (Units=1/GPa)
#
#
# Indices 1 2 3 4 5 6 
#
# 1 0.014027 -0.001432 -0.003068 -0.004746 -0.005583 0.002239
# 2 -0.001432 0.020142 -0.002220 0.013972 0.002416 0.012881
# 3 -0.003068 -0.002220 0.013316 0.006022 -0.003101 0.000105
# 4 -0.004746 0.013972 0.006022 0.047242 0.013263 0.017857
# 5 -0.005583 0.002416 -0.003101 0.013263 0.057977 0.010259
# 6 0.002239 0.012881 0.000105 0.017857 0.010259 0.050419
#
#
# Mechanical properties :
#
#
# Convention : Reuss Voigt Hill
#
# Bulk Modulus (GPa) = 29.37106 41.82254 35.59680
# Shear Modulus (GPa) = 21.93835 29.41817 25.67826
#
# Velocity S-wave (km/s) = 3.25496 3.76922 3.52149
# Velocity P-wave (km/s) = 5.32078 6.25622 5.80736
#
# Compressibility (1/GPa) = 0.03404712
#
# Stress axis : x y z
#
# Youngs Moduli (GPa) = 71.28930 49.64628 75.10018
#
# Poissons Ratio (x) = 0.07109 0.23038
# Poissons Ratio (y) = 0.10208 0.16670
# Poissons Ratio (z) = 0.21869 0.11020
#
# Static dielectric constant tensor:
#      x y z
#    x 3.463190 -0.278280 -0.090220 
#    y -0.278280 4.055020 -0.353920 
#    z -0.090220 -0.353920 4.193850 
# 
# 
# High freq. dielectric constant tensor:
#      x y z
#    x 1.782750 -0.027010 -0.006890 
#    y -0.027010 1.827190 -0.020000 
#    z -0.006890 -0.020000 1.813020 
# 
# From -- ./inp_files/307255.got.cif
#   From: 2010.06.25/outbox.cif.g09.slc.cpg/sg2_154_cif.got.tgz:307255.got - 2010.06.27 13:26:56.
