data_PCOD8017289
_publ_section_title
;
Structure prediction by ZEFSAII (Michael W. Deem and Ramdas Pophale) SiO2 
 PCOD8017289
Probable space group: P -1
;
_chemical_formula_sum "Si O2"
_cell_formula_units_Z 16
_cell_length_a 17.074236
_cell_length_b 13.646803
_cell_length_c 9.359170
_cell_angle_alpha 120.514741
_cell_angle_beta 67.934585
_cell_angle_gamma 156.112764
_cell_volume 735.822088
_symmetry_space_group_name_H-M "P -1"
_symmetry_group_IT_number 2
_symmetry_cell_setting 'triclinic'
loop_
_space_group_symop_operation_xyz
x,y,z
-x,-y,-z
loop_
_atom_site_type_symbol
_atom_site_label
_atom_site_fract_x
_atom_site_fract_y
_atom_site_fract_z
Si Si1 0.162343 0.613050 0.117624
Si Si2 0.887958 0.997473 0.495338
Si Si3 0.800401 0.893725 0.798843
Si Si4 0.435617 0.772623 0.719184
Si Si5 0.811727 0.587091 0.913092
Si Si6 0.413206 0.556032 0.807207
Si Si7 0.038080 0.410749 0.747302
Si Si8 0.267048 0.429710 0.357911
O O1 0.230917 0.598501 0.167929
O O2 0.024293 0.541101 0.234007
O O3 0.360916 0.917511 0.148056
O O4 0.037084 0.407844 0.919808
O O5 0.910425 0.999711 0.651354
O O6 0.697287 0.696939 0.344619
O O7 0.873946 0.118886 0.586627
O O8 0.083039 0.200952 0.425648
O O9 0.648715 0.814954 0.836530
O O10 0.673920 0.630069 0.746253
O O11 0.963866 0.115012 0.971334
O O12 0.369066 0.603832 0.762973
O O13 0.262018 0.654148 0.725412
O O14 0.450934 0.722081 0.521497
O O15 0.796571 0.587772 0.756490
O O16 0.655722 0.481154 0.019344
#
# Coordination Sequence:
#
# PCOD8017289 Si02
#       8
#     2   2   2   2   2   2   2   2
#     4  11  23  40  67  91 131 171 216 268 317 379
#     4  11  21  44  67  99 128 162 219 273 321 375
#     4  12  23  41  68  97 130 169 221 268 321 384
#     4  11  23  41  65 100 124 167 222 269 314 381
#     4  12  26  46  61  97 140 175 210 264 331 391
#     4  12  25  39  72 101 128 167 217 275 326 378
#     4  10  22  38  65  97 125 163 216 271 319 370
#     4  11  25  43  67  94 138 176 208 267 333 386
#
# _framework density 21.744387
#
# number of rings (size 3 to 8) (size 9 to 14) (size 15 to 20)
#    0.000    0.750    5.000    3.000    3.500    1.000 
#    0.000    2.500    0.000    0.000    0.000    0.000 
#    0.000    0.000    0.000    0.000    0.000    0.000 
#
# Total GULP energy -198337.616033 kJ/mol
# GULP energy per Si atom -12396.101002 kJ/mol
# Density = 2.169490 g / cm^3
# Si number density = 21.744387 Si / 1000 Ang^3
#
#
#
# Elastic Constant Matrix: (Units=GPa)
#
#
# Indices 1 2 3 4 5 6 
#
# 1 112.3932 41.4150 39.0518 -6.5366 -14.9118 -5.7332
# 2 41.4150 75.0571 28.8568 7.1285 -9.3715 8.7315
# 3 39.0518 28.8568 65.5783 4.9682 -9.9451 1.5696
# 4 -6.5366 7.1285 4.9682 14.5003 -6.6461 -5.4715
# 5 -14.9118 -9.3715 -9.9451 -6.6461 28.7386 8.2885
# 6 -5.7332 8.7315 1.5696 -5.4715 8.2885 23.7145
#
#
#
# Elastic Compliance Matrix: (Units=1/GPa)
#
#
# Indices 1 2 3 4 5 6 
#
# 1 0.017546 -0.009624 -0.007365 0.021872 0.005154 0.011518
# 2 -0.009624 0.023627 -0.002457 -0.020392 0.001818 -0.016204
# 3 -0.007365 -0.002457 0.021983 -0.010779 0.002092 -0.005549
# 4 0.021872 -0.020392 -0.010779 0.113202 0.017481 0.033518
# 5 0.005154 0.001818 0.002092 0.017481 0.046197 -0.011675
# 6 0.011518 -0.016204 -0.005549 0.033518 -0.011675 0.063100
#
#
# Mechanical properties :
#
#
# Convention : Reuss Voigt Hill
#
# Bulk Modulus (GPa) = 41.21398 52.40841 46.81120
# Shear Modulus (GPa) = 15.03155 22.97101 19.00128
#
# Velocity S-wave (km/s) = 2.63208 3.25377 2.95930
# Velocity P-wave (km/s) = 5.31339 6.18631 5.76639
#
# Compressibility (1/GPa) = 0.02426361
#
# Stress axis : x y z
#
# Youngs Moduli (GPa) = 56.99382 42.32493 45.49022
#
# Poissons Ratio (x) = 0.40732 0.33503
# Poissons Ratio (y) = 0.54848 0.11178
# Poissons Ratio (z) = 0.41976 0.10401
#
# Static dielectric constant tensor:
#      x y z
#    x 4.065610 -0.111590 -0.441860 
#    y -0.111590 3.681380 0.249390 
#    z -0.441860 0.249390 3.997270 
# 
# 
# High freq. dielectric constant tensor:
#      x y z
#    x 1.863560 0.000650 -0.026560 
#    y 0.000650 1.836280 0.022100 
#    z -0.026560 0.022100 1.842410 
# 
# From -- ./inp_files/306040.got.cif
#   From: 2010.06.25/outbox.cif.g09.slc.cpg/sg2_154_cif.got.tgz:306040.got - 2010.06.27 13:26:56.
