data_PCOD8017549
_publ_section_title
;
Structure prediction by ZEFSAII (Michael W. Deem and Ramdas Pophale) SiO2 
 PCOD8017549
Probable space group: P -1
;
_chemical_formula_sum "Si O2"
_cell_formula_units_Z 14
_cell_length_a 18.314405
_cell_length_b 5.022637
_cell_length_c 10.297714
_cell_angle_alpha 86.318559
_cell_angle_beta 46.656958
_cell_angle_gamma 73.154349
_cell_volume 646.871434
_symmetry_space_group_name_H-M "P -1"
_symmetry_group_IT_number 2
_symmetry_cell_setting 'triclinic'
loop_
_space_group_symop_operation_xyz
x,y,z
-x,-y,-z
loop_
_atom_site_type_symbol
_atom_site_label
_atom_site_fract_x
_atom_site_fract_y
_atom_site_fract_z
Si Si1 0.216795 0.153225 0.904646
Si Si2 0.488167 0.606805 0.720346
Si Si3 0.977622 0.508590 0.731509
Si Si4 0.784951 0.862310 0.807436
Si Si5 0.078535 0.925914 0.525497
Si Si6 0.438809 0.133681 0.942227
Si Si7 0.668341 0.408014 0.317051
O O1 0.291512 0.336646 0.777651
O O2 0.235042 0.898216 0.786443
O O3 0.093250 0.364334 0.056672
O O4 0.247448 0.997382 0.014210
O O5 0.467274 0.410778 0.864199
O O6 0.610362 0.474349 0.524785
O O7 0.411502 0.635669 0.691303
O O8 0.472843 0.913617 0.788673
O O9 0.896074 0.594809 0.701829
O O10 0.032210 0.171668 0.683279
O O11 0.075632 0.633706 0.599857
O O12 0.806203 0.080858 0.669660
O O13 0.688233 0.768666 0.876502
O O14 0.000000 0.000000 0.500000
O O15 0.500000 0.000000 0.000000
#
# Coordination Sequence:
#
# PCOD8017549 Si02
#       7
#     2   2   2   2   2   2   2
#     4  10  19  28  49  77 105 130 159 202 258 317
#     4  11  21  37  53  73 100 132 180 219 255 292
#     4   9  18  27  45  69 105 130 158 194 258 316
#     4   9  19  30  48  67 107 133 171 197 248 302
#     4  10  17  27  42  70  97 143 151 199 250 310
#     4  12  24  38  52  73 105 145 180 205 242 299
#     4  11  19  33  54  76 100 133 169 217 265 301
#
# _framework density 21.642634000000001
#
# number of rings (size 3 to 8) (size 9 to 14) (size 15 to 20)
#    0.857    0.857    2.857    3.857    0.000    5.714 
#    0.000    0.000    0.000    0.000    0.000    0.000 
#    0.000   22.857    0.000    0.000    0.000    0.000 
#
# Total GULP energy -173452.667167 kJ/mol
# GULP energy per Si atom -12389.476226 kJ/mol
# Density = 2.159337 g / cm^3
# Si number density = 21.642634 Si / 1000 Ang^3
#
#
#
# Elastic Constant Matrix: (Units=GPa)
#
#
# Indices 1 2 3 4 5 6 
#
# 1 26.0595 6.6891 22.7642 -8.7902 -8.4060 1.1409
# 2 6.6891 85.3796 24.9430 10.4775 -7.8359 20.2086
# 3 22.7642 24.9430 118.5210 -4.4750 -32.3338 14.2013
# 4 -8.7902 10.4775 -4.4750 29.2786 8.1163 -1.7575
# 5 -8.4060 -7.8359 -32.3338 8.1163 21.9083 -5.3071
# 6 1.1409 20.2086 14.2013 -1.7575 -5.3071 12.2962
#
#
#
# Elastic Compliance Matrix: (Units=1/GPa)
#
#
# Indices 1 2 3 4 5 6 
#
# 1 0.056502 -0.010085 -0.010965 0.020258 0.001003 0.027324
# 2 -0.010085 0.023706 0.002252 -0.014568 0.003333 -0.041270
# 3 -0.010965 0.002252 0.017507 -0.008400 0.022010 -0.014604
# 4 0.020258 -0.014568 -0.008400 0.052023 -0.021902 0.029747
# 5 0.001003 0.003333 0.022010 -0.021902 0.088843 0.004223
# 6 0.027324 -0.041270 -0.014604 0.029747 0.004223 0.169558
#
#
# Mechanical properties :
#
#
# Convention : Reuss Voigt Hill
#
# Bulk Modulus (GPa) = 16.63357 37.63920 27.13638
# Shear Modulus (GPa) = 10.73479 24.40088 17.56783
#
# Velocity S-wave (km/s) = 2.22953 3.36139 2.85217
# Velocity P-wave (km/s) = 3.78549 5.70037 4.83860
#
# Compressibility (1/GPa) = 0.06011939
#
# Stress axis : x y z
#
# Youngs Moduli (GPa) = 17.69854 42.18254 57.12055
#
# Poissons Ratio (x) = 0.42539 0.62635
# Poissons Ratio (y) = 0.17848 -0.12864
# Poissons Ratio (z) = 0.19407 -0.09500
#
# Static dielectric constant tensor:
#      x y z
#    x 3.303200 0.359220 -0.460440 
#    y 0.359220 3.992370 -0.001220 
#    z -0.460440 -0.001220 4.516530 
# 
# 
# High freq. dielectric constant tensor:
#      x y z
#    x 1.770100 0.030420 -0.034410 
#    y 0.030420 1.847250 0.008240 
#    z -0.034410 0.008240 1.868110 
# 
# From -- ./inp_files/323659.got.cif
#   From: 2010.06.25/outbox.cif.g09.slc.cpg/sg2_162_cif.got.tgz:323659.got - 2010.06.27 13:26:56.
