data_PCOD8017883
_publ_section_title
;
Structure prediction by ZEFSAII (Michael W. Deem and Ramdas Pophale) SiO2 
 PCOD8017883
Probable space group: P -1
;
_chemical_formula_sum "Si O2"
_cell_formula_units_Z 14
_cell_length_a 10.699317
_cell_length_b 10.407891
_cell_length_c 12.110340
_cell_angle_alpha 48.675174
_cell_angle_beta 84.091898
_cell_angle_gamma 122.280559
_cell_volume 596.348459
_symmetry_space_group_name_H-M "P -1"
_symmetry_group_IT_number 2
_symmetry_cell_setting 'triclinic'
loop_
_space_group_symop_operation_xyz
x,y,z
-x,-y,-z
loop_
_atom_site_type_symbol
_atom_site_label
_atom_site_fract_x
_atom_site_fract_y
_atom_site_fract_z
Si Si1 0.412076 0.186049 0.466036
Si Si2 0.429251 0.819954 0.001871
Si Si3 0.338265 0.705280 0.438436
Si Si4 0.944281 0.594945 0.872006
Si Si5 0.507364 0.359625 0.733918
Si Si6 0.332206 0.411450 0.986238
Si Si7 0.919003 0.067858 0.896795
O O1 0.508980 0.137901 0.557435
O O2 0.451473 0.395001 0.420792
O O3 0.534919 0.329731 0.258866
O O4 0.164177 0.897188 0.627274
O O5 0.612662 0.054526 0.757796
O O6 0.205090 0.641490 0.077310
O O7 0.401947 0.596449 0.176574
O O8 0.500000 0.000000 0.000000
O O9 0.393095 0.622057 0.390037
O O10 0.095295 0.406593 0.664661
O O11 0.820294 0.621580 0.919175
O O12 0.000000 0.500000 0.000000
O O13 0.257407 0.038909 0.948166
O O14 0.500000 0.500000 0.000000
O O15 0.183260 0.110927 0.107299
O O16 0.000000 0.000000 0.000000
#
# Coordination Sequence:
#
# PCOD8017883 Si02
#       7
#     2   2   2   2   2   2   2
#     4  11  23  41  69  98 129 177 226 271 333 397
#     4  10  24  44  63  96 135 166 221 277 330 396
#     4  11  21  40  65  98 130 172 218 276 328 389
#     4  12  25  44  71  97 135 181 222 275 341 396
#     4  10  22  39  67  96 132 168 222 279 323 391
#     4  11  26  44  66 104 140 168 225 288 329 392
#     4  11  22  38  68  99 125 174 226 268 327 395
#
# _framework density 23.476206999999999
#
# number of rings (size 3 to 8) (size 9 to 14) (size 15 to 20)
#    0.000    1.143    4.286    3.000    2.000    5.714 
#    0.000    0.000    0.000    0.000    0.000    0.000 
#    0.000    0.000    0.000    0.000    0.000    0.000 
#
# Total GULP energy -173465.647876 kJ/mol
# GULP energy per Si atom -12390.403420 kJ/mol
# Density = 2.342277 g / cm^3
# Si number density = 23.476207 Si / 1000 Ang^3
#
#
#
# Elastic Constant Matrix: (Units=GPa)
#
#
# Indices 1 2 3 4 5 6 
#
# 1 64.1029 15.4825 -0.3940 -0.8037 -1.5685 28.7843
# 2 15.4825 102.1487 19.0141 -8.7694 -5.8906 34.7871
# 3 -0.3940 19.0141 134.8453 -17.4087 -8.7337 25.6201
# 4 -0.8037 -8.7694 -17.4087 39.5580 17.3903 0.5319
# 5 -1.5685 -5.8906 -8.7337 17.3903 39.8764 4.1646
# 6 28.7843 34.7871 25.6201 0.5319 4.1646 45.1513
#
#
#
# Elastic Compliance Matrix: (Units=1/GPa)
#
#
# Indices 1 2 3 4 5 6 
#
# 1 0.024076 0.002802 0.003923 0.001495 0.003666 -0.020089
# 2 0.002802 0.014186 0.001120 0.002690 0.002702 -0.013632
# 3 0.003923 0.001120 0.009597 0.003952 0.001639 -0.009007
# 4 0.001495 0.002690 0.003952 0.033304 -0.012734 -0.004486
# 5 0.003666 0.002702 0.001639 -0.012734 0.032388 -0.008186
# 6 -0.020089 -0.013632 -0.009007 -0.004486 -0.008186 0.051376
#
#
# Mechanical properties :
#
#
# Convention : Reuss Voigt Hill
#
# Bulk Modulus (GPa) = 15.73607 41.03358 28.38482
# Shear Modulus (GPa) = 29.33921 42.71677 36.02799
#
# Velocity S-wave (km/s) = 3.53900 4.27028 3.92172
# Velocity P-wave (km/s) = 4.83911 6.46765 5.71172
#
# Compressibility (1/GPa) = 0.06354829
#
# Stress axis : x y z
#
# Youngs Moduli (GPa) = 41.53450 70.49366 104.19815
#
# Poissons Ratio (x) = -0.19751 -0.40872
# Poissons Ratio (y) = -0.11637 -0.11673
# Poissons Ratio (z) = -0.16292 -0.07897
#
# Static dielectric constant tensor:
#      x y z
#    x 5.686990 0.624530 0.360750 
#    y 0.624530 4.459290 0.014720 
#    z 0.360750 0.014720 4.716180 
# 
# 
# High freq. dielectric constant tensor:
#      x y z
#    x 1.926160 0.018750 0.008350 
#    y 0.018750 1.929800 0.002950 
#    z 0.008350 0.002950 1.941630 
# 
# From -- ./inp_files/419780.got.cif
#   From: 2010.06.25/outbox.cif.g09.slc.cpg/sg2_210_cif.got.tgz:419780.got - 2010.06.27 13:26:56.
