data_PCOD8017107
_publ_section_title
;
Structure prediction by ZEFSAII (Michael W. Deem and Ramdas Pophale) SiO2 
 PCOD8017107
Probable space group: P -1
;
_chemical_formula_sum "Si O2"
_cell_formula_units_Z 14
_cell_length_a 10.820040
_cell_length_b 15.267292
_cell_length_c 7.994032
_cell_angle_alpha 123.152471
_cell_angle_beta 89.331967
_cell_angle_gamma 46.368893
_cell_volume 613.571235
_symmetry_space_group_name_H-M "P -1"
_symmetry_group_IT_number 2
_symmetry_cell_setting 'triclinic'
loop_
_space_group_symop_operation_xyz
x,y,z
-x,-y,-z
loop_
_atom_site_type_symbol
_atom_site_label
_atom_site_fract_x
_atom_site_fract_y
_atom_site_fract_z
Si Si1 0.048814 0.973054 0.274771
Si Si2 0.877274 0.314417 0.098522
Si Si3 0.654835 0.912340 0.657939
Si Si4 0.592455 0.267291 0.504443
Si Si5 0.676164 0.001691 0.399256
Si Si6 0.439810 0.814968 0.937109
Si Si7 0.069518 0.560347 0.475861
O O1 0.107356 0.821748 0.023379
O O2 0.250744 0.909318 0.168372
O O3 0.000000 0.000000 0.500000
O O4 0.816355 0.181491 0.415666
O O5 0.633801 0.509586 0.228279
O O6 0.924792 0.344746 0.299125
O O7 0.069299 0.212787 0.860236
O O8 0.623729 0.004022 0.588355
O O9 0.902175 0.697251 0.467525
O O10 0.487147 0.934420 0.669279
O O11 0.583071 0.043543 0.941895
O O12 0.586806 0.216572 0.274190
O O13 0.634071 0.154777 0.535720
O O14 0.686952 0.618703 0.798663
O O15 0.000000 0.500000 0.500000
#
# Coordination Sequence:
#
# PCOD8017107 Si02
#       7
#     2   2   2   2   2   2   2
#     4  11  24  41  61  92 126 162 208 253 307 367
#     4  10  22  41  64  87 123 163 202 258 308 354
#     4  11  22  38  61  88 126 163 201 255 309 362
#     4  10  22  40  62  87 120 159 205 255 305 364
#     4  10  22  38  59  91 124 163 204 249 311 369
#     4  11  23  39  64  92 121 163 210 252 304 366
#     4  11  24  41  65  96 123 159 208 253 306 368
#
# _framework density 22.817233999999999
#
# number of rings (size 3 to 8) (size 9 to 14) (size 15 to 20)
#    0.000    1.429    0.000    6.429    0.000    8.000 
#    0.000    3.571    0.000    0.000    0.000    0.000 
#    0.000    0.000    0.000    0.000    0.000    0.000 
#
# Total GULP energy -173507.764899 kJ/mol
# GULP energy per Si atom -12393.411778 kJ/mol
# Density = 2.276530 g / cm^3
# Si number density = 22.817234 Si / 1000 Ang^3
#
#
#
# Elastic Constant Matrix: (Units=GPa)
#
#
# Indices 1 2 3 4 5 6 
#
# 1 88.5927 16.8059 21.7906 15.9095 6.1454 -28.7383
# 2 16.8059 107.4325 26.5999 35.1180 -8.0974 -23.6917
# 3 21.7906 26.5999 75.2299 32.9578 -9.4622 -21.5756
# 4 15.9095 35.1180 32.9578 41.2234 -11.7640 -15.5229
# 5 6.1454 -8.0974 -9.4622 -11.7640 36.6090 5.7486
# 6 -28.7383 -23.6917 -21.5756 -15.5229 5.7486 38.9896
#
#
#
# Elastic Compliance Matrix: (Units=1/GPa)
#
#
# Indices 1 2 3 4 5 6 
#
# 1 0.016035 0.000979 -0.000832 -0.003713 -0.005659 0.011309
# 2 0.000979 0.013642 0.001237 -0.011339 -0.001315 0.005374
# 3 -0.000832 0.001237 0.021743 -0.015919 0.000002 0.005832
# 4 -0.003713 -0.011339 -0.015919 0.051200 0.010388 0.000416
# 5 -0.005659 -0.001315 0.000002 0.010388 0.032189 -0.005580
# 6 0.011309 0.005374 0.005832 0.000416 -0.005580 0.041465
#
#
# Mechanical properties :
#
#
# Convention : Reuss Voigt Hill
#
# Bulk Modulus (GPa) = 18.45487 44.62754 31.54120
# Shear Modulus (GPa) = 26.10035 37.10166 31.60100
#
# Velocity S-wave (km/s) = 3.38581 4.03679 3.72555
# Velocity P-wave (km/s) = 4.83639 6.42874 5.68856
#
# Compressibility (1/GPa) = 0.05418624
#
# Stress axis : x y z
#
# Youngs Moduli (GPa) = 62.36552 73.30560 45.99095
#
# Poissons Ratio (x) = -0.07176 0.03827
# Poissons Ratio (y) = -0.06105 -0.05687
# Poissons Ratio (z) = 0.05190 -0.09065
#
# Static dielectric constant tensor:
#      x y z
#    x 4.565520 -0.482660 -0.076820 
#    y -0.482660 4.088480 0.310460 
#    z -0.076820 0.310460 4.198710 
# 
# 
# High freq. dielectric constant tensor:
#      x y z
#    x 1.912780 -0.027060 -0.001740 
#    y -0.027060 1.899350 0.007620 
#    z -0.001740 0.007620 1.900240 
# 
# From -- ./inp_files/278402.got.cif
#   From: 2010.06.25/outbox.cif.g09.slc.cpg/sg2_140_cif.got.tgz:278402.got - 2010.06.27 13:26:56.
