data_PCOD8017138
_publ_section_title
;
Structure prediction by ZEFSAII (Michael W. Deem and Ramdas Pophale) SiO2 
 PCOD8017138
Probable space group: P -1
;
_chemical_formula_sum "Si O2"
_cell_formula_units_Z 16
_cell_length_a 7.770372
_cell_length_b 8.584675
_cell_length_c 16.043235
_cell_angle_alpha 106.450606
_cell_angle_beta 80.288963
_cell_angle_gamma 51.543911
_cell_volume 714.027387
_symmetry_space_group_name_H-M "P -1"
_symmetry_group_IT_number 2
_symmetry_cell_setting 'triclinic'
loop_
_space_group_symop_operation_xyz
x,y,z
-x,-y,-z
loop_
_atom_site_type_symbol
_atom_site_label
_atom_site_fract_x
_atom_site_fract_y
_atom_site_fract_z
Si Si1 0.693005 0.641347 0.283879
Si Si2 0.799544 0.148934 0.791697
Si Si3 0.725137 0.364861 0.104211
Si Si4 0.798485 0.187084 0.610605
Si Si5 0.471279 0.006096 0.229931
Si Si6 0.128432 0.061180 0.899015
Si Si7 0.282286 0.265806 0.535356
Si Si8 0.245743 0.453916 0.407584
O O1 0.793796 0.421713 0.190639
O O2 0.418738 0.799479 0.368549
O O3 0.669418 0.812928 0.252801
O O4 0.844640 0.576551 0.345791
O O5 0.554052 0.417168 0.869010
O O6 0.905915 0.121984 0.686558
O O7 0.712146 0.017820 0.788885
O O8 0.014778 0.055651 0.823702
O O9 0.748976 0.159413 0.088716
O O10 0.912299 0.292200 0.004067
O O11 0.665794 0.442924 0.631554
O O12 0.000000 0.000000 0.500000
O O13 0.652592 0.953749 0.135210
O O14 0.307660 0.258870 0.316560
O O15 0.368222 0.347615 0.473823
O O16 0.050747 0.326118 0.521158
O O17 0.500000 0.000000 0.500000
#
# Coordination Sequence:
#
# PCOD8017138 Si02
#       8
#     2   2   2   2   2   2   2   2
#     4  10  22  40  61  88 132 157 215 271 310 384
#     4  10  24  41  64  93 132 168 213 273 323 382
#     4   9  22  43  62  98 125 159 224 273 312 404
#     4  10  22  38  60  93 127 164 217 263 311 389
#     4  10  22  41  62  99 124 165 225 262 315 399
#     4  11  22  42  71  87 130 174 210 268 338 381
#     4  11  23  39  63  91 123 171 212 255 322 383
#     4  11  24  38  63  89 130 166 210 271 310 386
#
# _framework density 22.408106
#
# number of rings (size 3 to 8) (size 9 to 14) (size 15 to 20)
#    0.000    2.000    1.250    2.625    8.750    3.500 
#    0.000    2.500    0.000    0.000    0.000    0.000 
#    0.000    0.000    0.000    0.000    0.000    0.000 
#
# Total GULP energy -198262.633198 kJ/mol
# GULP energy per Si atom -12391.414575 kJ/mol
# Density = 2.235710 g / cm^3
# Si number density = 22.408106 Si / 1000 Ang^3
#
#
#
# Elastic Constant Matrix: (Units=GPa)
#
#
# Indices 1 2 3 4 5 6 
#
# 1 50.2074 20.7767 24.3221 -8.4002 -3.4752 14.3225
# 2 20.7767 89.4449 22.7558 3.5219 -8.2015 13.0558
# 3 24.3221 22.7558 128.6905 2.9541 -13.8617 11.0886
# 4 -8.4002 3.5219 2.9541 37.8012 -0.0013 -3.0430
# 5 -3.4752 -8.2015 -13.8617 -0.0013 34.5650 -6.9868
# 6 14.3225 13.0558 11.0886 -3.0430 -6.9868 28.4045
#
#
#
# Elastic Compliance Matrix: (Units=1/GPa)
#
#
# Indices 1 2 3 4 5 6 
#
# 1 0.027321 -0.004291 -0.003871 0.005959 -0.001868 -0.010114
# 2 -0.004291 0.013162 -0.000999 -0.002372 0.001613 -0.003353
# 3 -0.003871 -0.000999 0.009076 -0.001523 0.002896 -0.000583
# 4 0.005959 -0.002372 -0.001523 0.028251 -0.000240 0.001647
# 5 -0.001868 0.001613 0.002896 -0.000240 0.031669 0.006834
# 6 -0.010114 -0.003353 -0.000583 0.001647 0.006834 0.043932
#
#
# Mechanical properties :
#
#
# Convention : Reuss Voigt Hill
#
# Bulk Modulus (GPa) = 32.01462 44.89464 38.45463
# Shear Modulus (GPa) = 27.45051 33.52002 30.48526
#
# Velocity S-wave (km/s) = 3.50383 3.87187 3.69244
# Velocity P-wave (km/s) = 5.53960 6.32985 5.94786
#
# Compressibility (1/GPa) = 0.03123573
#
# Stress axis : x y z
#
# Youngs Moduli (GPa) = 36.60126 75.97766 110.18032
#
# Poissons Ratio (x) = 0.32603 0.42656
# Poissons Ratio (y) = 0.15706 0.11010
# Poissons Ratio (z) = 0.14170 0.07592
#
# Static dielectric constant tensor:
#      x y z
#    x 3.828200 0.133230 -0.013400 
#    y 0.133230 4.215410 -0.324720 
#    z -0.013400 -0.324720 4.394000 
# 
# 
# High freq. dielectric constant tensor:
#      x y z
#    x 1.856750 0.009430 -0.007680 
#    y 0.009430 1.892510 -0.002070 
#    z -0.007680 -0.002070 1.890550 
# 
# From -- ./inp_files/495203.got.cif
#   From: 2010.06.25/outbox.cif.g09.slc.cpg/sg2_248_cif.got.tgz:495203.got - 2010.06.27 13:26:56.
