data_PCOD8017687
_publ_section_title
;
Structure prediction by ZEFSAII (Michael W. Deem and Ramdas Pophale) SiO2 
 PCOD8017687
Probable space group: P -1
;
_chemical_formula_sum "Si O2"
_cell_formula_units_Z 16
_cell_length_a 6.542180
_cell_length_b 16.421952
_cell_length_c 8.754284
_cell_angle_alpha 117.297270
_cell_angle_beta 100.441375
_cell_angle_gamma 60.016876
_cell_volume 722.525496
_symmetry_space_group_name_H-M "P -1"
_symmetry_group_IT_number 2
_symmetry_cell_setting 'triclinic'
loop_
_space_group_symop_operation_xyz
x,y,z
-x,-y,-z
loop_
_atom_site_type_symbol
_atom_site_label
_atom_site_fract_x
_atom_site_fract_y
_atom_site_fract_z
Si Si1 0.724708 0.694823 0.427295
Si Si2 0.057504 0.593970 0.119308
Si Si3 0.871246 0.065381 0.759446
Si Si4 0.499960 0.058973 0.895819
Si Si5 0.356478 0.924791 0.578602
Si Si6 0.531219 0.426186 0.650143
Si Si7 0.989113 0.759905 0.007838
Si Si8 0.151568 0.632883 0.635434
O O1 0.565515 0.813220 0.559077
O O2 0.551940 0.645832 0.333514
O O3 0.861190 0.682893 0.276631
O O4 0.914140 0.637147 0.538027
O O5 0.314045 0.542258 0.190481
O O6 0.068774 0.653108 0.020166
O O7 0.000000 0.500000 0.000000
O O8 0.749375 0.057581 0.894707
O O9 0.697462 0.076826 0.607660
O O10 0.907589 0.167332 0.848935
O O11 0.119659 0.959839 0.679697
O O12 0.295338 0.177924 0.981840
O O13 0.451900 0.005835 0.696031
O O14 0.500000 0.000000 0.000000
O O15 0.294126 0.525917 0.652639
O O16 0.685498 0.360116 0.469968
O O17 0.085341 0.729155 0.822615
#
# Coordination Sequence:
#
# PCOD8017687 Si02
#       8
#     2   2   2   2   2   2   2   2
#     4  11  22  40  65  90 124 168 214 261 317 381
#     4  11  25  42  65  98 131 165 213 268 320 381
#     4  10  23  42  63  91 127 166 212 260 316 384
#     4  11  24  41  63  94 130 166 208 263 321 376
#     4  10  22  39  64  91 122 167 212 260 314 375
#     4  10  23  42  63  90 125 169 212 260 323 379
#     4  11  24  41  64  94 126 167 212 260 320 379
#     4  10  23  40  61  90 125 164 214 264 314 383
#
# _framework density 22.144545999999998
#
# number of rings (size 3 to 8) (size 9 to 14) (size 15 to 20)
#    0.000    1.500    0.000    3.750    0.000   15.000 
#    0.000    0.000    0.000    0.000    0.000    0.000 
#    0.000    0.000    0.000    0.000    0.000    0.000 
#
# Total GULP energy -198403.169084 kJ/mol
# GULP energy per Si atom -12400.198068 kJ/mol
# Density = 2.209414 g / cm^3
# Si number density = 22.144546 Si / 1000 Ang^3
#
#
#
# Elastic Constant Matrix: (Units=GPa)
#
#
# Indices 1 2 3 4 5 6 
#
# 1 122.2619 52.6748 42.8948 3.7831 -9.6853 -3.3648
# 2 52.6748 106.8277 34.7086 4.9146 -4.8688 -17.1844
# 3 42.8948 34.7086 113.2274 6.4399 1.4780 -7.5354
# 4 3.7831 4.9146 6.4399 27.6509 0.6548 -7.2449
# 5 -9.6853 -4.8688 1.4780 0.6548 33.8135 0.0112
# 6 -3.3648 -17.1844 -7.5354 -7.2449 0.0112 37.4367
#
#
#
# Elastic Compliance Matrix: (Units=1/GPa)
#
#
# Indices 1 2 3 4 5 6 
#
# 1 0.011506 -0.004854 -0.003001 -0.000578 0.002740 -0.001911
# 2 -0.004854 0.013237 -0.001882 0.000120 0.000594 0.005284
# 3 -0.003001 -0.001882 0.010701 -0.001520 -0.001569 0.000727
# 4 -0.000578 0.000120 -0.001520 0.038468 -0.000829 0.007142
# 5 0.002740 0.000594 -0.001569 -0.000829 0.030529 0.000033
# 6 -0.001911 0.005284 0.000727 0.007142 0.000033 0.030494
#
#
# Mechanical properties :
#
#
# Convention : Reuss Voigt Hill
#
# Bulk Modulus (GPa) = 62.61645 66.98595 64.80120
# Shear Modulus (GPa) = 31.30257 33.91613 32.60935
#
# Velocity S-wave (km/s) = 3.76381 3.91779 3.84157
# Velocity P-wave (km/s) = 6.87212 7.12604 7.00023
#
# Compressibility (1/GPa) = 0.01597024
#
# Stress axis : x y z
#
# Youngs Moduli (GPa) = 86.91367 75.54399 93.45166
#
# Poissons Ratio (x) = 0.36670 0.28043
# Poissons Ratio (y) = 0.42189 0.17585
# Poissons Ratio (z) = 0.26081 0.14215
#
# Static dielectric constant tensor:
#      x y z
#    x 4.048120 -0.283260 -0.087690 
#    y -0.283260 3.793530 0.048550 
#    z -0.087690 0.048550 4.102590 
# 
# 
# High freq. dielectric constant tensor:
#      x y z
#    x 1.878430 -0.017280 -0.007400 
#    y -0.017280 1.861380 0.003490 
#    z -0.007400 0.003490 1.880770 
# 
# From -- ./inp_files/90201.got.cif
#   From: 2010.06.25/outbox.cif.g09.slc.cpg/sg2_46_cif.got.tgz:90201.got - 2010.06.27 13:26:56.
