data_PCOD8017967
_publ_section_title
;
Structure prediction by ZEFSAII (Michael W. Deem and Ramdas Pophale) SiO2 
 PCOD8017967
Probable space group: P -1
;
_chemical_formula_sum "Si O2"
_cell_formula_units_Z 16
_cell_length_a 12.345567
_cell_length_b 11.803510
_cell_length_c 11.225882
_cell_angle_alpha 67.740631
_cell_angle_beta 41.152708
_cell_angle_gamma 97.952089
_cell_volume 715.872012
_symmetry_space_group_name_H-M "P -1"
_symmetry_group_IT_number 2
_symmetry_cell_setting 'triclinic'
loop_
_space_group_symop_operation_xyz
x,y,z
-x,-y,-z
loop_
_atom_site_type_symbol
_atom_site_label
_atom_site_fract_x
_atom_site_fract_y
_atom_site_fract_z
Si Si1 0.380966 0.805403 0.048048
Si Si2 0.492922 0.382752 0.964266
Si Si3 0.937410 0.442537 0.210288
Si Si4 0.245776 0.223045 0.624540
Si Si5 0.057260 0.372674 0.659782
Si Si6 0.503033 0.133441 0.798905
Si Si7 0.133726 0.115335 0.022962
Si Si8 0.740699 0.606034 0.030323
O O1 0.494403 0.986148 0.829641
O O2 0.514004 0.752338 0.908531
O O3 0.388061 0.802681 0.185881
O O4 0.119208 0.677305 0.275333
O O5 0.699842 0.475662 0.662206
O O6 0.271344 0.296212 0.101303
O O7 0.500000 0.500000 0.000000
O O8 0.001316 0.586102 0.186896
O O9 0.666477 0.281678 0.507961
O O10 0.000000 0.500000 0.000000
O O11 0.066309 0.388606 0.170171
O O12 0.055556 0.231116 0.759397
O O13 0.244480 0.168555 0.779295
O O14 0.501110 0.405569 0.314889
O O15 0.139602 0.061442 0.689022
O O16 0.261694 0.080152 0.013574
O O17 0.180610 0.278865 0.963451
#
# Coordination Sequence:
#
# PCOD8017967 Si02
#       8
#     2   2   2   2   2   2   2   2
#     4  11  22  42  68  98 138 176 224 282 346 412
#     4  11  23  40  68  99 131 179 226 280 342 411
#     4  12  25  44  69 100 138 185 233 280 343 415
#     4  10  22  39  70  98 128 182 229 290 339 407
#     4  11  22  43  68  98 133 179 231 279 346 408
#     4  11  23  42  68 100 136 183 225 282 346 409
#     4  11  20  43  67  96 136 175 238 280 347 403
#     4  11  23  41  61  97 137 172 230 281 341 406
#
# _framework density 22.350363999999999
#
# number of rings (size 3 to 8) (size 9 to 14) (size 15 to 20)
#    0.000    1.000    3.750    3.750    1.750    0.000 
#    6.750    1.250    0.000    0.000    0.000    0.000 
#    0.000    0.000    0.000    0.000    0.000    0.000 
#
# Total GULP energy -198222.640860 kJ/mol
# GULP energy per Si atom -12388.915054 kJ/mol
# Density = 2.229949 g / cm^3
# Si number density = 22.350364 Si / 1000 Ang^3
#
#
#
# Elastic Constant Matrix: (Units=GPa)
#
#
# Indices 1 2 3 4 5 6 
#
# 1 83.8243 17.3768 2.9219 3.8675 -9.8911 -1.1540
# 2 17.3768 124.7266 34.7051 -7.3573 -8.4673 -0.6611
# 3 2.9219 34.7051 47.2417 -15.3331 -5.5171 11.5329
# 4 3.8675 -7.3573 -15.3331 35.0775 -1.5997 -1.3122
# 5 -9.8911 -8.4673 -5.5171 -1.5997 32.1645 0.3259
# 6 -1.1540 -0.6611 11.5329 -1.3122 0.3259 43.4104
#
#
#
# Elastic Compliance Matrix: (Units=1/GPa)
#
#
# Indices 1 2 3 4 5 6 
#
# 1 0.012752 -0.001734 0.000388 -0.001437 0.003459 0.000140
# 2 -0.001734 0.010640 -0.008596 -0.001214 0.000709 0.002358
# 3 0.000388 -0.008596 0.034395 0.013061 0.004496 -0.008897
# 4 -0.001437 -0.001214 0.013061 0.034173 0.003204 -0.002518
# 5 0.003459 0.000709 0.004496 0.003204 0.033284 -0.001245
# 6 0.000140 0.002358 -0.008897 -0.002518 -0.001245 0.025373
#
#
# Mechanical properties :
#
#
# Convention : Reuss Voigt Hill
#
# Bulk Modulus (GPa) = 26.38247 40.64447 33.51347
# Shear Modulus (GPa) = 27.30244 35.51640 31.40942
#
# Velocity S-wave (km/s) = 3.49888 3.99064 3.75283
# Velocity P-wave (km/s) = 5.30590 6.28158 5.81424
#
# Compressibility (1/GPa) = 0.03790395
#
# Stress axis : x y z
#
# Youngs Moduli (GPa) = 78.41937 93.98553 29.07408
#
# Poissons Ratio (x) = 0.16296 -0.01129
# Poissons Ratio (y) = 0.13597 0.24992
# Poissons Ratio (z) = -0.03046 0.80790
#
# Static dielectric constant tensor:
#      x y z
#    x 4.490210 -0.346320 -0.193690 
#    y -0.346320 4.490610 -0.263320 
#    z -0.193690 -0.263320 3.740360 
# 
# 
# High freq. dielectric constant tensor:
#      x y z
#    x 1.900200 -0.008910 -0.012860 
#    y -0.008910 1.894390 -0.016470 
#    z -0.012860 -0.016470 1.844280 
# 
# From -- ./inp_files/285186.got.cif
#   From: 2010.06.25/outbox.cif.g09.slc.cpg/sg2_143_cif.got.tgz:285186.got - 2010.06.27 13:26:56.
