data_PCOD8017374
_publ_section_title
;
Structure prediction by ZEFSAII (Michael W. Deem and Ramdas Pophale) SiO2 
 PCOD8017374
Probable space group: P -1
;
_chemical_formula_sum "Si O2"
_cell_formula_units_Z 16
_cell_length_a 18.713032
_cell_length_b 8.838825
_cell_length_c 5.239559
_cell_angle_alpha 79.481834
_cell_angle_beta 60.314496
_cell_angle_gamma 63.470674
_cell_volume 672.781855
_symmetry_space_group_name_H-M "P -1"
_symmetry_group_IT_number 2
_symmetry_cell_setting 'triclinic'
loop_
_space_group_symop_operation_xyz
x,y,z
-x,-y,-z
loop_
_atom_site_type_symbol
_atom_site_label
_atom_site_fract_x
_atom_site_fract_y
_atom_site_fract_z
Si Si1 0.530637 0.642675 0.816947
Si Si2 0.070294 0.228924 0.911089
Si Si3 0.642367 0.049073 0.081580
Si Si4 0.972439 0.348508 0.555797
Si Si5 0.257090 0.930306 0.615990
Si Si6 0.282218 0.555607 0.730576
Si Si7 0.352632 0.270350 0.062613
Si Si8 0.820245 0.557562 0.440420
O O1 0.619455 0.556944 0.522725
O O2 0.554408 0.738899 0.979459
O O3 0.500000 0.500000 0.000000
O O4 0.450137 0.785391 0.758107
O O5 0.995016 0.250762 0.817777
O O6 0.104059 0.380713 0.807906
O O7 0.151998 0.051776 0.751995
O O8 0.029962 0.224230 0.262383
O O9 0.695093 0.079346 0.737588
O O10 0.620286 0.885730 0.129713
O O11 0.698348 0.007187 0.254747
O O12 0.000000 0.500000 0.500000
O O13 0.865989 0.428570 0.639675
O O14 0.266768 0.746296 0.737698
O O15 0.200968 0.548537 0.710389
O O16 0.293096 0.461512 0.008690
O O17 0.272254 0.271723 0.392819
#
# Coordination Sequence:
#
# PCOD8017374 Si02
#       8
#     2   2   2   2   2   2   2   2
#     4  11  24  45  68  98 139 179 231 275 343 404
#     4  11  22  42  68 100 132 175 228 275 334 398
#     4  12  26  45  72  97 139 177 229 288 330 398
#     4  10  22  38  69 102 131 173 222 281 332 397
#     4  12  26  45  69  99 139 183 221 279 344 403
#     4  11  26  42  69  97 138 185 222 279 342 409
#     4  11  25  42  69 102 134 177 228 287 334 397
#     4  10  22  40  66  99 133 172 225 278 335 401
#
# _framework density 23.781853000000002
#
# number of rings (size 3 to 8) (size 9 to 14) (size 15 to 20)
#    0.000    1.000    2.500    4.125   12.250    1.500 
#    0.000    1.250    0.000    0.000    0.000    0.000 
#    0.000    0.000    0.000    0.000    0.000    0.000 
#
# Total GULP energy -198341.408430 kJ/mol
# GULP energy per Si atom -12396.338027 kJ/mol
# Density = 2.372772 g / cm^3
# Si number density = 23.781853 Si / 1000 Ang^3
#
#
#
# Elastic Constant Matrix: (Units=GPa)
#
#
# Indices 1 2 3 4 5 6 
#
# 1 82.3414 13.7943 17.1528 3.8295 9.1277 -18.1967
# 2 13.7943 98.1630 2.5101 10.3259 -3.1906 -9.9187
# 3 17.1528 2.5101 62.1859 7.5807 11.1384 -6.8945
# 4 3.8295 10.3259 7.5807 28.6394 -4.4407 2.4276
# 5 9.1277 -3.1906 11.1384 -4.4407 38.0391 0.1256
# 6 -18.1967 -9.9187 -6.8945 2.4276 0.1256 40.9240
#
#
#
# Elastic Compliance Matrix: (Units=1/GPa)
#
#
# Indices 1 2 3 4 5 6 
#
# 1 0.014619 -0.001309 -0.002557 -0.001784 -0.003097 0.005868
# 2 -0.001309 0.011050 0.000576 -0.004077 0.000588 0.002433
# 3 -0.002557 0.000576 0.018752 -0.005901 -0.005526 0.002529
# 4 -0.001784 -0.004077 -0.005901 0.039624 0.006457 -0.005146
# 5 -0.003097 0.000588 -0.005526 0.006457 0.029462 -0.002639
# 6 0.005868 0.002433 0.002529 -0.005146 -0.002639 0.028374
#
#
# Mechanical properties :
#
#
# Convention : Reuss Voigt Hill
#
# Bulk Modulus (GPa) = 26.42528 34.40053 30.41291
# Shear Modulus (GPa) = 31.04131 35.46937 33.25534
#
# Velocity S-wave (km/s) = 3.61675 3.86611 3.74351
# Velocity P-wave (km/s) = 5.34573 5.86733 5.61259
#
# Compressibility (1/GPa) = 0.03784254
#
# Stress axis : x y z
#
# Youngs Moduli (GPa) = 68.40192 90.49624 53.32657
#
# Poissons Ratio (x) = 0.11847 0.13636
# Poissons Ratio (y) = 0.08955 -0.03074
# Poissons Ratio (z) = 0.17491 -0.05217
#
# Static dielectric constant tensor:
#      x y z
#    x 4.643830 -0.393960 0.247710 
#    y -0.393960 4.263290 0.158760 
#    z 0.247710 0.158760 3.849880 
# 
# 
# High freq. dielectric constant tensor:
#      x y z
#    x 1.952520 -0.017440 0.001440 
#    y -0.017440 1.938350 0.011840 
#    z 0.001440 0.011840 1.941290 
# 
# From -- ./inp_files/37629.got.cif
#   From: 2010.06.25/outbox.cif.g09.slc.cpg/sg2_19_cif.got.tgz:37629.got - 2010.06.27 13:26:56.
