data_PCOD8017943
_publ_section_title
;
Structure prediction by ZEFSAII (Michael W. Deem and Ramdas Pophale) SiO2 
 PCOD8017943
Probable space group: P -1
;
_chemical_formula_sum "Si O2"
_cell_formula_units_Z 16
_cell_length_a 9.513319
_cell_length_b 12.478047
_cell_length_c 18.670073
_cell_angle_alpha 43.983398
_cell_angle_beta 30.054280
_cell_angle_gamma 54.655691
_cell_volume 764.528624
_symmetry_space_group_name_H-M "P -1"
_symmetry_group_IT_number 2
_symmetry_cell_setting 'triclinic'
loop_
_space_group_symop_operation_xyz
x,y,z
-x,-y,-z
loop_
_atom_site_type_symbol
_atom_site_label
_atom_site_fract_x
_atom_site_fract_y
_atom_site_fract_z
Si Si1 0.218460 0.575469 0.075910
Si Si2 0.776905 0.392663 0.457690
Si Si3 0.573384 0.638798 0.514275
Si Si4 0.237085 0.943802 0.376043
Si Si5 0.919874 0.091826 0.811996
Si Si6 0.033118 0.595153 0.866807
Si Si7 0.292243 0.108367 0.125391
Si Si8 0.814182 0.067744 0.108140
O O1 0.099216 0.519350 0.079926
O O2 0.017483 0.518873 0.258083
O O3 0.500000 0.500000 0.000000
O O4 0.250232 0.760934 0.967627
O O5 0.661557 0.464817 0.546901
O O6 0.548038 0.335126 0.524343
O O7 0.877039 0.230819 0.515925
O O8 0.844255 0.760017 0.356548
O O9 0.356075 0.646622 0.672623
O O10 0.297018 0.056355 0.229240
O O11 0.516408 0.957334 0.296018
O O12 0.000000 0.000000 0.500000
O O13 0.884623 0.026705 0.778464
O O14 0.619750 0.145160 0.940699
O O15 0.015332 0.947948 0.885485
O O16 0.862932 0.739819 0.883024
O O17 0.000000 0.500000 0.000000
O O18 0.000000 0.000000 0.000000
#
# Coordination Sequence:
#
# PCOD8017943 Si02
#       8
#     2   2   2   2   2   2   2   2
#     4  11  24  42  67 102 134 175 225 285 338 396
#     4  10  22  39  69  97 135 170 226 278 332 398
#     4  10  22  42  69  98 129 180 227 275 333 408
#     4  12  24  43  65 101 136 173 224 285 337 399
#     4  11  24  45  69 100 135 178 231 281 343 405
#     4  11  25  46  66  93 138 179 223 275 348 411
#     4  11  26  44  67  98 140 176 226 290 340 405
#     4  12  23  40  74  98 130 181 232 272 339 406
#
# _framework density 20.927928999999999
#
# number of rings (size 3 to 8) (size 9 to 14) (size 15 to 20)
#    0.000    1.000    2.500    4.500    5.250    2.500 
#    4.500    1.250    0.000    0.000    0.000    0.000 
#    0.000    0.000    0.000    0.000    0.000    0.000 
#
# Total GULP energy -198287.391202 kJ/mol
# GULP energy per Si atom -12392.961950 kJ/mol
# Density = 2.088030 g / cm^3
# Si number density = 20.927929 Si / 1000 Ang^3
#
#
#
# Elastic Constant Matrix: (Units=GPa)
#
#
# Indices 1 2 3 4 5 6 
#
# 1 70.2017 22.5808 35.1998 6.0159 -8.5392 4.0782
# 2 22.5808 163.8585 58.5236 2.3499 1.5930 -19.8849
# 3 35.1998 58.5236 110.4427 4.7204 -13.7910 2.3277
# 4 6.0159 2.3499 4.7204 40.7496 1.4883 -0.7232
# 5 -8.5392 1.5930 -13.7910 1.4883 28.7666 0.8800
# 6 4.0782 -19.8849 2.3277 -0.7232 0.8800 27.6324
#
#
#
# Elastic Compliance Matrix: (Units=1/GPa)
#
#
# Indices 1 2 3 4 5 6 
#
# 1 0.017638 -0.001284 -0.004347 -0.002211 0.003439 -0.003328
# 2 -0.001284 0.008938 -0.004935 0.000500 -0.003487 0.007161
# 3 -0.004347 -0.004935 0.013916 -0.000975 0.005836 -0.004293
# 4 -0.002211 0.000500 -0.000975 0.025068 -0.002494 0.001504
# 5 0.003439 -0.003487 0.005836 -0.002494 0.039051 -0.004817
# 6 -0.003328 0.007161 -0.004293 0.001504 -0.004817 0.042389
#
#
# Mechanical properties :
#
#
# Convention : Reuss Voigt Hill
#
# Bulk Modulus (GPa) = 51.65097 64.12348 57.88722
# Shear Modulus (GPa) = 28.63927 34.64297 31.64112
#
# Velocity S-wave (km/s) = 3.70330 4.07301 3.89255
# Velocity P-wave (km/s) = 6.55895 7.26814 6.92263
#
# Compressibility (1/GPa) = 0.01936072
#
# Stress axis : x y z
#
# Youngs Moduli (GPa) = 56.69422 111.88141 71.85990
#
# Poissons Ratio (x) = 0.14361 0.31241
# Poissons Ratio (y) = 0.07277 0.35462
# Poissons Ratio (z) = 0.24647 0.55212
#
# Static dielectric constant tensor:
#      x y z
#    x 3.560990 0.556880 0.069380 
#    y 0.556880 2.687860 -0.101260 
#    z 0.069380 -0.101260 3.742360 
# 
# 
# High freq. dielectric constant tensor:
#      x y z
#    x 1.810310 -0.000650 -0.007760 
#    y -0.000650 1.842820 0.003710 
#    z -0.007760 0.003710 1.824210 
# 
# From -- ./inp_files/559740.got.cif
#   From: 2010.06.25/outbox.cif.g09.slc.cpg/sg2_280_cif.got.tgz:559740.got - 2010.06.27 13:26:56.
