data_PCOD8017686
_publ_section_title
;
Structure prediction by ZEFSAII (Michael W. Deem and Ramdas Pophale) SiO2 
 PCOD8017686
Probable space group: P -1
;
_chemical_formula_sum "Si O2"
_cell_formula_units_Z 16
_cell_length_a 16.398656
_cell_length_b 13.431976
_cell_length_c 20.586252
_cell_angle_alpha 154.986130
_cell_angle_beta 154.445499
_cell_angle_gamma 42.012004
_cell_volume 754.841543
_symmetry_space_group_name_H-M "P -1"
_symmetry_group_IT_number 2
_symmetry_cell_setting 'triclinic'
loop_
_space_group_symop_operation_xyz
x,y,z
-x,-y,-z
loop_
_atom_site_type_symbol
_atom_site_label
_atom_site_fract_x
_atom_site_fract_y
_atom_site_fract_z
Si Si1 0.376480 0.368490 0.976553
Si Si2 0.729894 0.029437 0.434046
Si Si3 0.953790 0.854231 0.071033
Si Si4 0.398746 0.561233 0.362649
Si Si5 0.837295 0.594729 0.407376
Si Si6 0.156054 0.453599 0.993757
Si Si7 0.653476 0.339820 0.995238
Si Si8 0.176443 0.078504 0.121053
O O1 0.623139 0.462745 0.215303
O O2 0.288450 0.399368 0.000699
O O3 0.312664 0.534028 0.976323
O O4 0.276604 0.068800 0.703274
O O5 0.620639 0.226690 0.476821
O O6 0.968254 0.181416 0.718044
O O7 0.591190 0.763146 0.217918
O O8 0.726066 0.716442 0.858462
O O9 0.932528 0.969124 0.054676
O O10 0.089476 0.097337 0.356026
O O11 0.065093 0.658709 0.027698
O O12 0.644347 0.626048 0.570239
O O13 0.299994 0.572957 0.229220
O O14 0.810647 0.520298 0.268552
O O15 0.000000 0.500000 0.500000
O O16 0.695743 0.087955 0.869719
O O17 0.000000 0.000000 0.000000
#
# Coordination Sequence:
#
# PCOD8017686 Si02
#       8
#     2   2   2   2   2   2   2   2
#     4  11  24  38  66  92 129 159 204 261 310 363
#     4   9  19  40  60  86 121 163 199 249 304 369
#     4  11  23  41  65  89 128 165 206 254 311 374
#     4  10  24  39  66  91 121 165 216 249 304 375
#     4  11  23  40  65  94 120 166 213 251 305 373
#     4  11  24  39  63  99 123 157 208 264 312 352
#     4  10  22  39  64  91 121 166 214 242 307 381
#     4  11  23  41  62  90 129 163 202 263 313 362
#
# _framework density 21.196503
#
# number of rings (size 3 to 8) (size 9 to 14) (size 15 to 20)
#    0.000    1.500    1.250    4.500   10.500    0.500 
#    0.000    0.000    0.000    1.500    0.000    0.000 
#    0.000    0.000    0.000    0.000    0.000    0.000 
#
# Total GULP energy -198345.597449 kJ/mol
# GULP energy per Si atom -12396.599841 kJ/mol
# Density = 2.114826 g / cm^3
# Si number density = 21.196503 Si / 1000 Ang^3
#
#
#
# Elastic Constant Matrix: (Units=GPa)
#
#
# Indices 1 2 3 4 5 6 
#
# 1 113.9118 31.3315 38.9309 -2.5010 5.7464 -3.2206
# 2 31.3315 68.9985 21.0580 -12.7629 -7.6585 7.2943
# 3 38.9309 21.0580 135.2424 2.6394 1.2468 -10.4579
# 4 -2.5010 -12.7629 2.6394 29.0082 -5.7453 -0.8292
# 5 5.7464 -7.6585 1.2468 -5.7453 29.5180 -0.2404
# 6 -3.2206 7.2943 -10.4579 -0.8292 -0.2404 26.5090
#
#
#
# Elastic Compliance Matrix: (Units=1/GPa)
#
#
# Indices 1 2 3 4 5 6 
#
# 1 0.011215 -0.005419 -0.002164 -0.001930 -0.003858 0.001904
# 2 -0.005419 0.021480 -0.002632 0.010755 0.008774 -0.007191
# 3 -0.002164 -0.002632 0.008777 -0.002239 -0.001037 0.003845
# 4 -0.001930 0.010755 -0.002239 0.041403 0.011298 -0.002680
# 5 -0.003858 0.008774 -0.001037 0.011298 0.039127 -0.002584
# 6 0.001904 -0.007191 0.003845 -0.002680 -0.002584 0.041342
#
#
# Mechanical properties :
#
#
# Convention : Reuss Voigt Hill
#
# Bulk Modulus (GPa) = 47.51990 55.64371 51.58181
# Shear Modulus (GPa) = 26.20708 32.12921 29.16814
#
# Velocity S-wave (km/s) = 3.52004 3.89752 3.71358
# Velocity P-wave (km/s) = 6.24407 6.82368 6.54030
#
# Compressibility (1/GPa) = 0.02104381
#
# Stress axis : x y z
#
# Youngs Moduli (GPa) = 89.16809 46.55436 113.92910
#
# Poissons Ratio (x) = 0.25226 0.24655
# Poissons Ratio (y) = 0.48316 0.29983
# Poissons Ratio (z) = 0.19297 0.12252
#
# Static dielectric constant tensor:
#      x y z
#    x 4.741320 -0.792090 1.387200 
#    y -0.792090 4.135100 -0.898880 
#    z 1.387200 -0.898880 6.106920 
# 
# 
# High freq. dielectric constant tensor:
#      x y z
#    x 1.819960 -0.002060 -0.001770 
#    y -0.002060 1.816670 0.001030 
#    z -0.001770 0.001030 1.855120 
# 
# From -- ./inp_files/331699.got.cif
#   From: 2010.06.25/outbox.cif.g09.slc.cpg/sg2_166_cif.got.tgz:331699.got - 2010.06.27 13:26:56.
