data_PCOD8017601
_publ_section_title
;
Structure prediction by ZEFSAII (Michael W. Deem and Ramdas Pophale) SiO2 
 PCOD8017601
Probable space group: P -1
;
_chemical_formula_sum "Si O2"
_cell_formula_units_Z 16
_cell_length_a 23.395012
_cell_length_b 16.527941
_cell_length_c 4.976851
_cell_angle_alpha 110.812971
_cell_angle_beta 104.130526
_cell_angle_gamma 21.575173
_cell_volume 640.284626
_symmetry_space_group_name_H-M "P -1"
_symmetry_group_IT_number 2
_symmetry_cell_setting 'triclinic'
loop_
_space_group_symop_operation_xyz
x,y,z
-x,-y,-z
loop_
_atom_site_type_symbol
_atom_site_label
_atom_site_fract_x
_atom_site_fract_y
_atom_site_fract_z
Si Si1 0.681571 0.379499 0.585378
Si Si2 0.598504 0.674222 0.991393
Si Si3 0.641849 0.184483 0.502145
Si Si4 0.396781 0.216777 0.364785
Si Si5 0.924209 0.805925 0.991595
Si Si6 0.237851 0.834174 0.083530
Si Si7 0.283442 0.058436 0.317000
Si Si8 0.745786 0.710973 0.324803
O O1 0.712809 0.437243 0.763714
O O2 0.488447 0.624798 0.661126
O O3 0.788554 0.176599 0.671877
O O4 0.720086 0.301407 0.230234
O O5 0.643971 0.690533 0.864796
O O6 0.623192 0.676272 0.322596
O O7 0.411103 0.899401 0.032750
O O8 0.624351 0.280618 0.834415
O O9 0.624102 0.113307 0.527863
O O10 0.819339 0.961412 0.322612
O O11 0.281662 0.295394 0.419171
O O12 0.580151 0.929697 0.224902
O O13 0.110744 0.534746 0.955100
O O14 0.913246 0.906182 0.905614
O O15 0.860927 0.806571 0.771252
O O16 0.206184 0.254650 0.546632
#
# Coordination Sequence:
#
# PCOD8017601 Si02
#       8
#     2   2   2   2   2   2   2   2
#     4  12  21  37  66  90 129 172 211 264 311 378
#     4  11  22  43  68  96 129 158 221 277 312 368
#     4  11  22  38  57  99 138 172 204 257 315 388
#     4  10  24  46  68  98 120 166 225 270 312 370
#     4  11  23  41  60  98 141 170 205 258 322 387
#     4  11  24  37  59  95 133 171 215 247 317 389
#     4  10  22  39  62  99 134 169 208 254 326 392
#     4  10  23  44  68  93 128 175 213 265 317 383
#
# _framework density 24.988887999999999
#
# number of rings (size 3 to 8) (size 9 to 14) (size 15 to 20)
#    0.000    1.250    2.500    4.125    1.750    5.000 
#   13.500    0.000    0.000    4.500    0.000    0.000 
#    0.000    0.000    0.000    0.000    0.000    0.000 
#
# Total GULP energy -198260.078250 kJ/mol
# GULP energy per Si atom -12391.254891 kJ/mol
# Density = 2.493201 g / cm^3
# Si number density = 24.988888 Si / 1000 Ang^3
#
#
#
# Elastic Constant Matrix: (Units=GPa)
#
#
# Indices 1 2 3 4 5 6 
#
# 1 82.9823 36.6873 11.0106 7.7796 7.0362 31.5844
# 2 36.6873 61.1263 31.8307 6.8522 5.3504 20.1057
# 3 11.0106 31.8307 82.8848 3.4035 9.5525 10.6656
# 4 7.7796 6.8522 3.4035 33.7484 11.1668 -3.5844
# 5 7.0362 5.3504 9.5525 11.1668 46.1963 1.9480
# 6 31.5844 20.1057 10.6656 -3.5844 1.9480 37.2091
#
#
#
# Elastic Compliance Matrix: (Units=1/GPa)
#
#
# Indices 1 2 3 4 5 6 
#
# 1 0.021890 -0.009090 0.002816 -0.004700 -0.001101 -0.014872
# 2 -0.009090 0.028714 -0.009066 -0.003776 0.001083 -0.005621
# 3 0.002816 -0.009066 0.015698 0.000280 -0.002615 -0.001828
# 4 -0.004700 -0.003776 0.000280 0.035065 -0.007791 0.009735
# 5 -0.001101 0.001083 -0.002615 -0.007791 0.024152 -0.000916
# 6 -0.014872 -0.005621 -0.001828 0.009735 -0.000916 0.044046
#
#
# Mechanical properties :
#
#
# Convention : Reuss Voigt Hill
#
# Bulk Modulus (GPa) = 28.07226 42.89451 35.48338
# Shear Modulus (GPa) = 23.57184 33.26172 28.41678
#
# Velocity S-wave (km/s) = 3.07464 3.65233 3.37586
# Velocity P-wave (km/s) = 4.88496 5.91512 5.42455
#
# Compressibility (1/GPa) = 0.03562235
#
# Stress axis : x y z
#
# Youngs Moduli (GPa) = 45.68229 34.82663 63.70402
#
# Poissons Ratio (x) = 0.31658 -0.17942
# Poissons Ratio (y) = 0.41526 0.57754
# Poissons Ratio (z) = -0.12866 0.31574
#
# Static dielectric constant tensor:
#      x y z
#    x 4.499560 0.410400 0.295350 
#    y 0.410400 4.112260 0.013620 
#    z 0.295350 0.013620 4.477630 
# 
# 
# High freq. dielectric constant tensor:
#      x y z
#    x 1.992210 0.035240 0.028500 
#    y 0.035240 1.958980 -0.009080 
#    z 0.028500 -0.009080 2.004890 
# 
# From -- ./inp_files/127454.got.cif
#   From: 2010.06.25/outbox.cif.g09.slc.cpg/sg2_64_cif.got.tgz:127454.got - 2010.06.27 13:26:56.
