data_PCOD8017453
_publ_section_title
;
Structure prediction by ZEFSAII (Michael W. Deem and Ramdas Pophale) SiO2 
 PCOD8017453
Probable space group: P -1
;
_chemical_formula_sum "Si O2"
_cell_formula_units_Z 14
_cell_length_a 14.868822
_cell_length_b 14.072259
_cell_length_c 8.638909
_cell_angle_alpha 95.372267
_cell_angle_beta 84.499483
_cell_angle_gamma 158.909284
_cell_volume 647.412917
_symmetry_space_group_name_H-M "P -1"
_symmetry_group_IT_number 2
_symmetry_cell_setting 'triclinic'
loop_
_space_group_symop_operation_xyz
x,y,z
-x,-y,-z
loop_
_atom_site_type_symbol
_atom_site_label
_atom_site_fract_x
_atom_site_fract_y
_atom_site_fract_z
Si Si1 0.743083 0.347429 0.902570
Si Si2 0.194105 0.237706 0.893509
Si Si3 0.765195 0.036875 0.579847
Si Si4 0.598077 0.509234 0.798605
Si Si5 0.117505 0.049639 0.360449
Si Si6 0.280406 0.567655 0.394573
Si Si7 0.235133 0.853961 0.084454
O O1 0.744462 0.381436 0.730486
O O2 0.758814 0.249444 0.881692
O O3 0.986096 0.630528 0.991367
O O4 0.484630 0.127392 0.989952
O O5 0.310295 0.256198 0.797056
O O6 0.359902 0.465098 0.018077
O O7 0.091837 0.200634 0.761459
O O8 0.000000 0.000000 0.000000
O O9 0.772269 0.089820 0.754166
O O10 0.022839 0.316928 0.493744
O O11 0.734222 0.891804 0.578590
O O12 0.520408 0.833646 0.498581
O O13 0.718867 0.724151 0.743392
O O14 0.674456 0.493099 0.687922
O O15 0.000000 0.000000 0.500000
#
# Coordination Sequence:
#
# PCOD8017453 Si02
#       7
#     2   2   2   2   2   2   2
#     4  10  23  45  74  96 133 171 211 276 329 391
#     4   9  21  37  57  85 113 167 218 271 311 372
#     4  12  27  41  66 101 134 174 222 266 331 388
#     4  10  22  39  60  86 126 167 227 260 324 376
#     4  11  22  39  60  85 131 174 213 266 319 377
#     4  12  26  42  65  99 134 176 211 275 327 392
#     4  10  23  46  71 102 127 169 222 266 331 397
#
# _framework density 21.624531000000001
#
# number of rings (size 3 to 8) (size 9 to 14) (size 15 to 20)
#    0.000    1.429    1.429    2.571    6.000    5.714 
#    0.000    0.000    0.000    0.000    0.000    0.000 
#    0.000    0.000    0.000    0.000    0.000    0.000 
#
# Total GULP energy -173466.838659 kJ/mol
# GULP energy per Si atom -12390.488476 kJ/mol
# Density = 2.157531 g / cm^3
# Si number density = 21.624531 Si / 1000 Ang^3
#
#
#
# Elastic Constant Matrix: (Units=GPa)
#
#
# Indices 1 2 3 4 5 6 
#
# 1 51.0081 29.3663 40.3494 -1.2808 2.6975 6.7457
# 2 29.3663 123.9362 47.5614 1.1222 6.4706 24.3515
# 3 40.3494 47.5614 123.7536 2.2223 9.8321 8.2145
# 4 -1.2808 1.1222 2.2223 42.1729 7.7172 0.2135
# 5 2.6975 6.4706 9.8321 7.7172 44.6768 2.5091
# 6 6.7457 24.3515 8.2145 0.2135 2.5091 25.1487
#
#
#
# Elastic Compliance Matrix: (Units=1/GPa)
#
#
# Indices 1 2 3 4 5 6 
#
# 1 0.027897 -0.003313 -0.007757 0.001283 0.000381 -0.001790
# 2 -0.003313 0.011839 -0.002802 -0.000159 -0.000330 -0.009625
# 3 -0.007757 -0.002802 0.011755 -0.000476 -0.001694 0.001127
# 4 0.001283 -0.000159 -0.000476 0.024548 -0.004200 0.000176
# 5 0.000381 -0.000330 -0.001694 -0.004200 0.023593 -0.001548
# 6 -0.001790 -0.009625 0.001127 0.000176 -0.001548 0.049349
#
#
# Mechanical properties :
#
#
# Convention : Reuss Voigt Hill
#
# Bulk Modulus (GPa) = 42.11061 59.25022 50.68042
# Shear Modulus (GPa) = 27.07985 34.49440 30.78712
#
# Velocity S-wave (km/s) = 3.54259 3.99827 3.77731
# Velocity P-wave (km/s) = 6.02072 6.98383 6.52008
#
# Compressibility (1/GPa) = 0.02374698
#
# Stress axis : x y z
#
# Youngs Moduli (GPa) = 35.84617 84.46817 85.07188
#
# Poissons Ratio (x) = 0.27986 0.65990
# Poissons Ratio (y) = 0.11876 0.23835
# Poissons Ratio (z) = 0.27806 0.23665
#
# Static dielectric constant tensor:
#      x y z
#    x 3.753990 0.153450 0.152510 
#    y 0.153450 5.147080 1.697130 
#    z 0.152510 1.697130 5.635590 
# 
# 
# High freq. dielectric constant tensor:
#      x y z
#    x 1.834160 0.020300 0.002040 
#    y 0.020300 1.857950 -0.000760 
#    z 0.002040 -0.000760 1.874600 
# 
# From -- ./inp_files/51353.got.cif
#   From: 2010.06.25/outbox.cif.g09.slc.cpg/sg2_26_cif.got.tgz:51353.got - 2010.06.27 13:26:56.
