data_PCOD8017525
_publ_section_title
;
Structure prediction by ZEFSAII (Michael W. Deem and Ramdas Pophale) SiO2 
 PCOD8017525
Probable space group: P -1
;
_chemical_formula_sum "Si O2"
_cell_formula_units_Z 14
_cell_length_a 12.939166
_cell_length_b 12.895411
_cell_length_c 11.398053
_cell_angle_alpha 99.040733
_cell_angle_beta 69.787033
_cell_angle_gamma 156.879723
_cell_volume 630.703022
_symmetry_space_group_name_H-M "P -1"
_symmetry_group_IT_number 2
_symmetry_cell_setting 'triclinic'
loop_
_space_group_symop_operation_xyz
x,y,z
-x,-y,-z
loop_
_atom_site_type_symbol
_atom_site_label
_atom_site_fract_x
_atom_site_fract_y
_atom_site_fract_z
Si Si1 0.081620 0.713894 0.358784
Si Si2 0.918562 0.165723 0.200668
Si Si3 0.434669 0.522601 0.926419
Si Si4 0.083989 0.946323 0.311580
Si Si5 0.662833 0.161874 0.340883
Si Si6 0.273811 0.487698 0.351494
Si Si7 0.469507 0.453711 0.355858
O O1 0.897848 0.467736 0.308714
O O2 0.900407 0.571827 0.526741
O O3 0.109811 0.845183 0.296989
O O4 0.415946 0.966661 0.302320
O O5 0.855603 0.233213 0.237215
O O6 0.078350 0.274344 0.279408
O O7 0.608475 0.824370 0.241861
O O8 0.146196 0.340431 0.036452
O O9 0.734912 0.863030 0.845695
O O10 0.362376 0.394655 0.811630
O O11 0.500000 0.500000 0.000000
O O12 0.239986 0.148462 0.395480
O O13 0.730206 0.674457 0.393563
O O14 0.500000 0.000000 0.500000
O O15 0.291130 0.407105 0.424323
#
# Coordination Sequence:
#
# PCOD8017525 Si02
#       7
#     2   2   2   2   2   2   2
#     4  12  24  43  65  88 135 157 213 253 314 366
#     4  12  24  37  65  96 122 156 217 254 316 347
#     4  10  22  42  65  92 127 162 205 258 297 379
#     4  10  24  41  61  92 129 174 192 255 311 369
#     4  12  23  43  64  94 119 168 208 267 300 364
#     4  12  22  37  64  97 121 166 197 261 312 371
#     4  10  22  39  61  94 128 157 209 236 323 364
#
# _framework density 22.197451999999998
#
# number of rings (size 3 to 8) (size 9 to 14) (size 15 to 20)
#    0.857    0.000    4.286    3.857    2.000    2.286 
#    0.000    1.429    0.000    0.000    0.000    0.000 
#    0.000    0.000    0.000    0.000    0.000    0.000 
#
# Total GULP energy -173647.820644 kJ/mol
# GULP energy per Si atom -12403.415760 kJ/mol
# Density = 2.214693 g / cm^3
# Si number density = 22.197452 Si / 1000 Ang^3
#
#
#
# Elastic Constant Matrix: (Units=GPa)
#
#
# Indices 1 2 3 4 5 6 
#
# 1 130.9781 47.0868 17.1689 -14.6649 -9.1096 -2.9179
# 2 47.0868 138.1956 6.3434 -14.1791 -0.1058 2.0481
# 3 17.1689 6.3434 62.7399 -12.7337 -16.1329 4.6470
# 4 -14.6649 -14.1791 -12.7337 31.0683 -1.7719 0.4092
# 5 -9.1096 -0.1058 -16.1329 -1.7719 37.5570 -0.1922
# 6 -2.9179 2.0481 4.6470 0.4092 -0.1922 47.7897
#
#
#
# Elastic Compliance Matrix: (Units=1/GPa)
#
#
# Indices 1 2 3 4 5 6 
#
# 1 0.009265 -0.002837 -0.001309 0.002634 0.001805 0.000799
# 2 -0.002837 0.008468 0.000416 0.002683 -0.000362 -0.000601
# 3 -0.001309 0.000416 0.020402 0.008466 0.008836 -0.002119
# 4 0.002634 0.002683 0.008466 0.038487 0.006094 -0.001082
# 5 0.001805 -0.000362 0.008836 0.006094 0.031143 -0.000660
# 6 0.000799 -0.000601 -0.002119 -0.001082 -0.000660 0.021212
#
#
# Mechanical properties :
#
#
# Convention : Reuss Voigt Hill
#
# Bulk Modulus (GPa) = 32.59897 52.56798 42.58347
# Shear Modulus (GPa) = 34.09239 40.70397 37.39818
#
# Velocity S-wave (km/s) = 3.92327 4.28684 4.10908
# Velocity P-wave (km/s) = 5.93637 6.94522 6.46052
#
# Compressibility (1/GPa) = 0.03067582
#
# Stress axis : x y z
#
# Youngs Moduli (GPa) = 107.93813 118.09849 49.01419
#
# Poissons Ratio (x) = 0.33502 0.06415
# Poissons Ratio (y) = 0.30619 -0.02040
# Poissons Ratio (z) = 0.14126 -0.04916
#
# Static dielectric constant tensor:
#      x y z
#    x 3.989200 0.026780 -0.193500 
#    y 0.026780 4.015200 -0.059470 
#    z -0.193500 -0.059470 3.982280 
# 
# 
# High freq. dielectric constant tensor:
#      x y z
#    x 1.879120 0.002070 -0.009950 
#    y 0.002070 1.883100 -0.006790 
#    z -0.009950 -0.006790 1.868360 
# 
# From -- ./inp_files/454845.got.cif
#   From: 2010.06.25/outbox.cif.g09.slc.cpg/sg2_228_cif.got.tgz:454845.got - 2010.06.27 13:26:56.
