data_PCOD8017727
_publ_section_title
;
Structure prediction by ZEFSAII (Michael W. Deem and Ramdas Pophale) SiO2 
 PCOD8017727
Probable space group: P -1
;
_chemical_formula_sum "Si O2"
_cell_formula_units_Z 16
_cell_length_a 11.400953
_cell_length_b 11.383516
_cell_length_c 12.225605
_cell_angle_alpha 77.875035
_cell_angle_beta 59.495146
_cell_angle_gamma 127.644339
_cell_volume 700.561818
_symmetry_space_group_name_H-M "P -1"
_symmetry_group_IT_number 2
_symmetry_cell_setting 'triclinic'
loop_
_space_group_symop_operation_xyz
x,y,z
-x,-y,-z
loop_
_atom_site_type_symbol
_atom_site_label
_atom_site_fract_x
_atom_site_fract_y
_atom_site_fract_z
Si Si1 0.439009 0.529062 0.663696
Si Si2 0.484803 0.347020 0.819439
Si Si3 0.972590 0.688918 0.260212
Si Si4 0.266070 0.675732 0.401600
Si Si5 0.780656 0.669539 0.804025
Si Si6 0.169902 0.461305 0.992113
Si Si7 0.002144 0.956884 0.271633
Si Si8 0.712583 0.179502 0.102075
O O1 0.483288 0.423835 0.695224
O O2 0.195902 0.357376 0.733593
O O3 0.390006 0.566556 0.791161
O O4 0.700293 0.761373 0.428547
O O5 0.529060 0.242194 0.787039
O O6 0.742519 0.576458 0.723504
O O7 0.201582 0.153493 0.045756
O O8 0.802845 0.453228 0.433949
O O9 0.058894 0.854641 0.277973
O O10 0.207806 0.806896 0.058971
O O11 0.000000 0.500000 0.500000
O O12 0.418612 0.911828 0.317451
O O13 0.943333 0.917326 0.672403
O O14 0.500000 0.500000 0.000000
O O15 0.890750 0.660801 0.846092
O O16 0.288781 0.678148 0.928369
O O17 0.901276 0.273424 0.089869
#
# Coordination Sequence:
#
# PCOD8017727 Si02
#       8
#     2   2   2   2   2   2   2   2
#     4  11  23  41  68 101 131 163 225 273 330 397
#     4  11  24  44  62  99 137 170 219 270 337 392
#     4  11  25  43  67 102 130 171 226 270 330 404
#     4  12  28  45  67  98 134 180 226 272 334 400
#     4  10  22  39  64  97 134 171 213 267 337 392
#     4  10  22  46  69  98 134 182 223 272 331 393
#     4  11  22  40  69  98 130 175 205 281 335 382
#     4  10  25  47  70  92 137 182 225 276 326 390
#
# _framework density 22.838812000000001
#
# number of rings (size 3 to 8) (size 9 to 14) (size 15 to 20)
#    0.000    1.250    5.000    0.375    3.500    4.500 
#    0.000    1.875    0.000    0.000    0.000    0.000 
#    0.000    0.000    0.000    0.000    0.000    0.000 
#
# Total GULP energy -198243.532553 kJ/mol
# GULP energy per Si atom -12390.220785 kJ/mol
# Density = 2.278683 g / cm^3
# Si number density = 22.838812 Si / 1000 Ang^3
#
#
#
# Elastic Constant Matrix: (Units=GPa)
#
#
# Indices 1 2 3 4 5 6 
#
# 1 80.5830 29.1169 24.7174 -3.3985 0.6095 -7.6720
# 2 29.1169 107.1096 36.8573 -23.6309 12.1598 -27.0913
# 3 24.7174 36.8573 90.3662 -16.9116 2.3949 -1.7387
# 4 -3.3985 -23.6309 -16.9116 37.0169 -1.3822 4.6621
# 5 0.6095 12.1598 2.3949 -1.3822 29.7894 0.3901
# 6 -7.6720 -27.0913 -1.7387 4.6621 0.3901 31.6282
#
#
#
# Elastic Compliance Matrix: (Units=1/GPa)
#
#
# Indices 1 2 3 4 5 6 
#
# 1 0.014520 -0.003315 -0.003054 -0.002239 0.001187 0.000830
# 2 -0.003315 0.017235 -0.004429 0.006823 -0.006462 0.012789
# 3 -0.003054 -0.004429 0.014353 0.004034 0.000960 -0.004352
# 4 -0.002239 0.006823 0.004034 0.032862 -0.001548 0.000698
# 5 0.001187 -0.006462 0.000960 -0.001548 0.036104 -0.005412
# 6 0.000830 0.012789 -0.004352 0.000698 -0.005412 0.042498
#
#
# Mechanical properties :
#
#
# Convention : Reuss Voigt Hill
#
# Bulk Modulus (GPa) = 40.79418 51.04910 45.92164
# Shear Modulus (GPa) = 26.68969 32.17807 29.43388
#
# Velocity S-wave (km/s) = 3.42220 3.75763 3.59383
# Velocity P-wave (km/s) = 5.78929 6.42081 6.11321
#
# Compressibility (1/GPa) = 0.02451330
#
# Stress axis : x y z
#
# Youngs Moduli (GPa) = 68.87201 58.02155 69.66966
#
# Poissons Ratio (x) = 0.19233 0.21276
# Poissons Ratio (y) = 0.22830 0.30854
# Poissons Ratio (z) = 0.21033 0.25696
#
# Static dielectric constant tensor:
#      x y z
#    x 3.915860 0.322690 -0.191410 
#    y 0.322690 5.670250 0.227280 
#    z -0.191410 0.227280 3.837910 
# 
# 
# High freq. dielectric constant tensor:
#      x y z
#    x 1.886370 -0.016140 -0.004790 
#    y -0.016140 1.914160 -0.002750 
#    z -0.004790 -0.002750 1.895400 
# 
# From -- ./inp_files/428121.got.cif
#   From: 2010.06.25/outbox.cif.g09.slc.cpg/sg2_215_cif.got.tgz:428121.got - 2010.06.27 13:26:56.
