data_PCOD8017020
_publ_section_title
;
Structure prediction by ZEFSAII (Michael W. Deem and Ramdas Pophale) SiO2 
 PCOD8017020
Probable space group: P -1
;
_chemical_formula_sum "Si O2"
_cell_formula_units_Z 14
_cell_length_a 17.217908
_cell_length_b 27.231414
_cell_length_c 9.304338
_cell_angle_alpha 34.713801
_cell_angle_beta 34.462668
_cell_angle_gamma 16.360829
_cell_volume 682.181445
_symmetry_space_group_name_H-M "P -1"
_symmetry_group_IT_number 2
_symmetry_cell_setting 'triclinic'
loop_
_space_group_symop_operation_xyz
x,y,z
-x,-y,-z
loop_
_atom_site_type_symbol
_atom_site_label
_atom_site_fract_x
_atom_site_fract_y
_atom_site_fract_z
Si Si1 0.938503 0.956367 0.377111
Si Si2 0.707298 0.711385 0.932954
Si Si3 0.663897 0.487063 0.852758
Si Si4 0.557960 0.442712 0.386323
Si Si5 0.683834 0.153038 0.557957
Si Si6 0.216672 0.982798 0.840684
Si Si7 0.015573 0.269648 0.583528
O O1 0.223554 0.754862 0.477655
O O2 0.710163 0.076099 0.564735
O O3 0.806035 0.982289 0.377442
O O4 0.000334 0.023764 0.098537
O O5 0.541110 0.781427 0.869216
O O6 0.761223 0.784174 0.689132
O O7 0.495219 0.801487 0.164675
O O8 0.000000 0.500000 0.000000
O O9 0.489709 0.668686 0.655164
O O10 0.964916 0.321126 0.707057
O O11 0.500000 0.500000 0.000000
O O12 0.680939 0.456434 0.071925
O O13 0.500000 0.500000 0.500000
O O14 0.276409 0.557704 0.471603
O O15 0.000000 0.000000 0.500000
O O16 0.125832 0.112439 0.768699
#
# Coordination Sequence:
#
# PCOD8017020 Si02
#       7
#     2   2   2   2   2   2   2
#     4  11  23  41  66 102 130 171 228 278 331 391
#     4  12  25  45  68  97 136 178 224 275 342 403
#     4  10  22  37  64  96 132 166 223 273 323 386
#     4  11  22  39  68  98 137 172 222 272 334 396
#     4  12  23  42  69 100 130 178 230 275 326 400
#     4  11  24  41  68  95 136 173 222 278 337 395
#     4  11  22  44  64  99 133 176 222 279 333 398
#
# _framework density 20.522399
#
# number of rings (size 3 to 8) (size 9 to 14) (size 15 to 20)
#    0.000    0.857    4.286    4.714    4.000    0.000 
#    0.000    2.857    0.000    0.000    0.000    0.000 
#    0.000    0.000    0.000    0.000    0.000    0.000 
#
# Total GULP energy -173541.816327 kJ/mol
# GULP energy per Si atom -12395.844023 kJ/mol
# Density = 2.047569 g / cm^3
# Si number density = 20.522399 Si / 1000 Ang^3
#
#
#
# Elastic Constant Matrix: (Units=GPa)
#
#
# Indices 1 2 3 4 5 6 
#
# 1 94.1574 52.5375 48.0171 8.1035 24.6435 6.2838
# 2 52.5375 121.6354 51.5627 3.8608 11.3835 10.7360
# 3 48.0171 51.5627 133.9338 11.7644 12.9674 10.1019
# 4 8.1035 3.8608 11.7644 40.0973 3.2239 -0.0262
# 5 24.6435 11.3835 12.9674 3.2239 35.4269 -1.1430
# 6 6.2838 10.7360 10.1019 -0.0262 -1.1430 39.8734
#
#
#
# Elastic Compliance Matrix: (Units=1/GPa)
#
#
# Indices 1 2 3 4 5 6 
#
# 1 0.017922 -0.005356 -0.003264 -0.001389 -0.009451 -0.000827
# 2 -0.005356 0.011679 -0.002589 0.000651 0.000809 -0.001621
# 3 -0.003264 -0.002589 0.009946 -0.001978 -0.000401 -0.001321
# 4 -0.001389 0.000651 -0.001978 0.025806 -0.000850 0.000537
# 5 -0.009451 0.000809 -0.000401 -0.000850 0.034842 0.002371
# 6 -0.000827 -0.001621 -0.001321 0.000537 0.002371 0.026049
#
#
# Mechanical properties :
#
#
# Convention : Reuss Voigt Hill
#
# Bulk Modulus (GPa) = 58.38284 72.66234 65.52259
# Shear Modulus (GPa) = 32.38950 36.25349 34.32150
#
# Velocity S-wave (km/s) = 3.97703 4.20757 4.09393
# Velocity P-wave (km/s) = 7.04267 7.68688 7.37181
#
# Compressibility (1/GPa) = 0.01712832
#
# Stress axis : x y z
#
# Youngs Moduli (GPa) = 55.79830 85.62448 100.54762
#
# Poissons Ratio (x) = 0.45857 0.32817
# Poissons Ratio (y) = 0.29884 0.26036
# Poissons Ratio (z) = 0.18212 0.22172
#
# Static dielectric constant tensor:
#      x y z
#    x 0.900530 -1.610980 -5.638300 
#    y -1.610980 2.884460 -3.360370 
#    z -5.638300 -3.360370 -7.990730 
# 
# 
# High freq. dielectric constant tensor:
#      x y z
#    x 1.786340 0.013390 0.019020 
#    y 0.013390 1.811160 -0.013050 
#    z 0.019020 -0.013050 1.808580 
# 
# From -- ./inp_files/262127.got.cif
#   From: 2010.06.25/outbox.cif.g09.slc.cpg/sg2_132_cif.got.tgz:262127.got - 2010.06.27 13:26:56.
