data_PCOD8017487
_publ_section_title
;
Structure prediction by ZEFSAII (Michael W. Deem and Ramdas Pophale) SiO2 
 PCOD8017487
Probable space group: P -1
;
_chemical_formula_sum "Si O2"
_cell_formula_units_Z 12
_cell_length_a 10.935311
_cell_length_b 11.113838
_cell_length_c 6.833092
_cell_angle_alpha 102.036640
_cell_angle_beta 111.068642
_cell_angle_gamma 50.404860
_cell_volume 596.893265
_symmetry_space_group_name_H-M "P -1"
_symmetry_group_IT_number 2
_symmetry_cell_setting 'triclinic'
loop_
_space_group_symop_operation_xyz
x,y,z
-x,-y,-z
loop_
_atom_site_type_symbol
_atom_site_label
_atom_site_fract_x
_atom_site_fract_y
_atom_site_fract_z
Si Si1 0.062227 0.905605 0.204303
Si Si2 0.859888 0.410724 0.931321
Si Si3 0.577192 0.741897 0.945304
Si Si4 0.760279 0.042400 0.367130
Si Si5 0.629600 0.868700 0.378658
Si Si6 0.173058 0.347414 0.248654
O O1 0.194592 0.918326 0.389058
O O2 0.158505 0.722280 0.163820
O O3 0.905498 0.972710 0.272484
O O4 0.000000 0.000000 0.000000
O O5 0.019604 0.342378 0.136837
O O6 0.689626 0.555276 0.988599
O O7 0.884542 0.477605 0.767597
O O8 0.405201 0.800340 0.765479
O O9 0.679992 0.771024 0.863610
O O10 0.537886 0.838380 0.154040
O O11 0.732953 0.914610 0.346159
O O12 0.758888 0.705629 0.511183
O O13 0.500000 0.000000 0.500000
#
# Coordination Sequence:
#
# PCOD8017487 Si02
#       6
#     2   2   2   2   2   2
#     4  11  25  45  65  87 127 172 212 253 308 371
#     4   9  20  43  62  90 130 160 204 265 303 374
#     4  10  22  39  60  96 126 156 210 255 311 364
#     4  11  25  40  64  96 124 167 212 252 307 380
#     4  12  22  36  68  98 125 161 202 263 317 367
#     4   9  20  38  62  96 126 161 194 264 321 355
#
# _framework density 20.104098
#
# number of rings (size 3 to 8) (size 9 to 14) (size 15 to 20)
#    1.000    0.667    1.667    2.500    4.667    1.333 
#    6.000    0.833    0.000    0.000    0.000    0.000 
#    0.000    0.000    0.000    0.000    0.000    0.000 
#
# Total GULP energy -148756.018106 kJ/mol
# GULP energy per Si atom -12396.334842 kJ/mol
# Density = 2.005834 g / cm^3
# Si number density = 20.104098 Si / 1000 Ang^3
#
#
#
# Elastic Constant Matrix: (Units=GPa)
#
#
# Indices 1 2 3 4 5 6 
#
# 1 53.3378 31.5440 41.6000 -0.6206 8.8127 -4.9696
# 2 31.5440 103.7149 62.5049 5.9189 12.6132 0.9618
# 3 41.6000 62.5049 156.4451 -8.8291 16.5816 -1.6904
# 4 -0.6206 5.9189 -8.8291 34.5645 -2.4550 2.7582
# 5 8.8127 12.6132 16.5816 -2.4550 30.6455 -5.4516
# 6 -4.9696 0.9618 -1.6904 2.7582 -5.4516 35.0647
#
#
#
# Elastic Compliance Matrix: (Units=1/GPa)
#
#
# Indices 1 2 3 4 5 6 
#
# 1 0.025944 -0.004759 -0.004728 -0.000355 -0.002396 0.003235
# 2 -0.004759 0.014283 -0.004382 -0.003729 -0.002687 -0.001402
# 3 -0.004728 -0.004382 0.009778 0.003072 -0.001993 -0.000630
# 4 -0.000355 -0.003729 0.003072 0.030648 0.002095 -0.001885
# 5 -0.002396 -0.002687 -0.001993 0.002095 0.036591 0.005162
# 6 0.003235 -0.001402 -0.000630 -0.001885 0.005162 0.029936
#
#
# Mechanical properties :
#
#
# Convention : Reuss Voigt Hill
#
# Bulk Modulus (GPa) = 44.91186 64.97730 54.94458
# Shear Modulus (GPa) = 27.42133 31.91153 29.66643
#
# Velocity S-wave (km/s) = 3.69720 3.98843 3.84557
# Velocity P-wave (km/s) = 6.37290 7.32125 6.86348
#
# Compressibility (1/GPa) = 0.02226584
#
# Stress axis : x y z
#
# Youngs Moduli (GPa) = 38.54439 70.01523 102.27314
#
# Poissons Ratio (x) = 0.33323 0.48358
# Poissons Ratio (y) = 0.18345 0.44812
# Poissons Ratio (z) = 0.18225 0.30678
#
# Static dielectric constant tensor:
#      x y z
#    x 3.653380 0.209250 0.132760 
#    y 0.209250 3.929140 -0.087770 
#    z 0.132760 -0.087770 3.730820 
# 
# 
# High freq. dielectric constant tensor:
#      x y z
#    x 1.767590 -0.008690 0.004270 
#    y -0.008690 1.783820 -0.016500 
#    z 0.004270 -0.016500 1.786820 
# 
# From -- ./inp_files/65114.got.cif
#   From: 2010.06.25/outbox.cif.g09.slc.cpg/sg2_33_cif.got.tgz:65114.got - 2010.06.27 13:26:56.
