data_PCOD8017013
_publ_section_title
;
Structure prediction by ZEFSAII (Michael W. Deem and Ramdas Pophale) SiO2 
 PCOD8017013
Probable space group: P -1
;
_chemical_formula_sum "Si O2"
_cell_formula_units_Z 16
_cell_length_a 5.255281
_cell_length_b 7.693402
_cell_length_c 26.305258
_cell_angle_alpha 127.475475
_cell_angle_beta 79.480163
_cell_angle_gamma 70.511036
_cell_volume 681.884831
_symmetry_space_group_name_H-M "P -1"
_symmetry_group_IT_number 2
_symmetry_cell_setting 'triclinic'
loop_
_space_group_symop_operation_xyz
x,y,z
-x,-y,-z
loop_
_atom_site_type_symbol
_atom_site_label
_atom_site_fract_x
_atom_site_fract_y
_atom_site_fract_z
Si Si1 0.655972 0.102274 0.549041
Si Si2 0.888456 0.646290 0.954631
Si Si3 0.731717 0.550808 0.756253
Si Si4 0.145138 0.741725 0.054154
Si Si5 0.767219 0.780915 0.584941
Si Si6 0.902742 0.048397 0.324522
Si Si7 0.763224 0.363474 0.293359
Si Si8 0.734975 0.869839 0.897893
O O1 0.448599 0.420975 0.616379
O O2 0.500000 0.000000 0.500000
O O3 0.664126 0.013364 0.590204
O O4 0.000000 0.000000 0.500000
O O5 0.025079 0.344045 0.915232
O O6 0.957735 0.641712 0.891012
O O7 0.043756 0.761090 0.002756
O O8 0.514802 0.858298 0.014749
O O9 0.986219 0.578913 0.724064
O O10 0.451604 0.617771 0.741529
O O11 0.586838 0.765640 0.846068
O O12 0.897078 0.261697 0.723758
O O13 0.076121 0.030584 0.123110
O O14 0.500000 0.500000 0.000000
O O15 0.459228 0.804893 0.619992
O O16 0.000000 0.500000 0.500000
O O17 0.948005 0.810793 0.629441
O O18 0.921310 0.084820 0.269130
#
# Coordination Sequence:
#
# PCOD8017013 Si02
#       8
#     2   2   2   2   2   2   2   2
#     4  12  22  39  67 101 129 169 220 276 339 394
#     4   9  19  39  63  93 129 159 222 277 319 388
#     4  12  26  47  66  99 140 186 225 276 338 422
#     4   9  18  36  61  94 128 158 206 281 323 379
#     4  12  23  42  70 102 135 167 228 284 336 402
#     4  12  24  47  68  96 138 180 221 282 335 400
#     4  12  26  47  69  95 142 176 226 281 338 404
#     4  10  22  37  64  91 125 176 215 266 337 382
#
# _framework density 23.464375
#
# number of rings (size 3 to 8) (size 9 to 14) (size 15 to 20)
#    0.000    1.000    2.500    4.500    1.750    1.000 
#    4.500    0.000    0.000    0.000    0.000    0.000 
#    0.000    0.000    0.000    0.000    0.000    0.000 
#
# Total GULP energy -198316.572954 kJ/mol
# GULP energy per Si atom -12394.785810 kJ/mol
# Density = 2.341097 g / cm^3
# Si number density = 23.464375 Si / 1000 Ang^3
#
#
#
# Elastic Constant Matrix: (Units=GPa)
#
#
# Indices 1 2 3 4 5 6 
#
# 1 119.0860 44.2374 17.2180 -3.7072 19.3264 -9.9768
# 2 44.2374 175.9073 32.0700 -16.8636 18.8863 5.1335
# 3 17.2180 32.0700 64.4976 -1.7296 25.7847 5.8229
# 4 -3.7072 -16.8636 -1.7296 20.9637 -0.8797 9.2506
# 5 19.3264 18.8863 25.7847 -0.8797 39.8646 -2.8092
# 6 -9.9768 5.1335 5.8229 9.2506 -2.8092 31.1367
#
#
#
# Elastic Compliance Matrix: (Units=1/GPa)
#
#
# Indices 1 2 3 4 5 6 
#
# 1 0.010185 -0.002431 -0.000714 -0.002182 -0.003078 0.004168
# 2 -0.002431 0.007610 -0.002127 0.007177 -0.001166 -0.003873
# 3 -0.000714 -0.002127 0.022882 0.002135 -0.013825 -0.006039
# 4 -0.002182 0.007177 0.002135 0.062451 -0.003838 -0.021182
# 5 -0.003078 -0.001166 -0.013825 -0.003838 0.036425 0.006218
# 6 0.004168 -0.003873 -0.006039 -0.021182 0.006218 0.042074
#
#
# Mechanical properties :
#
#
# Convention : Reuss Voigt Hill
#
# Bulk Modulus (GPa) = 33.18735 60.72684 46.95709
# Shear Modulus (GPa) = 24.72612 36.12403 30.42508
#
# Velocity S-wave (km/s) = 3.24971 3.92794 3.60481
# Velocity P-wave (km/s) = 5.31556 6.81969 6.11406
#
# Compressibility (1/GPa) = 0.03013196
#
# Stress axis : x y z
#
# Youngs Moduli (GPa) = 98.18760 131.40278 43.70261
#
# Poissons Ratio (x) = 0.31949 0.03121
# Poissons Ratio (y) = 0.23873 0.09295
# Poissons Ratio (z) = 0.07012 0.27947
#
# Static dielectric constant tensor:
#      x y z
#    x 4.341750 0.541650 0.412400 
#    y 0.541650 5.113300 -0.043240 
#    z 0.412400 -0.043240 3.819350 
# 
# 
# High freq. dielectric constant tensor:
#      x y z
#    x 1.942430 0.002950 0.014720 
#    y 0.002950 1.954190 0.001710 
#    z 0.014720 0.001710 1.904470 
# 
# From -- ./inp_files/615263.got.cif
#   From: 2010.06.25/outbox.cif.g09.slc.cpg/sg2_308_cif.got.tgz:615263.got - 2010.06.27 13:26:56.
