data_PCOD8017840
_publ_section_title
;
Structure prediction by ZEFSAII (Michael W. Deem and Ramdas Pophale) SiO2 
 PCOD8017840
Probable space group: P -1
;
_chemical_formula_sum "Si O2"
_cell_formula_units_Z 14
_cell_length_a 9.261646
_cell_length_b 16.991049
_cell_length_c 20.356893
_cell_angle_alpha 19.105866
_cell_angle_beta 138.445514
_cell_angle_gamma 143.277107
_cell_volume 626.298142
_symmetry_space_group_name_H-M "P -1"
_symmetry_group_IT_number 2
_symmetry_cell_setting 'triclinic'
loop_
_space_group_symop_operation_xyz
x,y,z
-x,-y,-z
loop_
_atom_site_type_symbol
_atom_site_label
_atom_site_fract_x
_atom_site_fract_y
_atom_site_fract_z
Si Si1 0.291610 0.224368 0.573529
Si Si2 0.142215 0.177231 0.005094
Si Si3 0.739467 0.423655 0.820558
Si Si4 0.940262 0.731024 0.768787
Si Si5 0.970656 0.921761 0.815989
Si Si6 0.550746 0.742649 0.720857
Si Si7 0.330993 0.972401 0.115510
O O1 0.331628 0.500321 0.334664
O O2 0.172183 0.999384 0.654644
O O3 0.121219 0.170092 0.622767
O O4 0.546483 0.231259 0.676389
O O5 0.299964 0.478764 0.845221
O O6 0.294563 0.062175 0.105003
O O7 0.049831 0.988281 0.187592
O O8 0.922798 0.182403 0.884792
O O9 0.897040 0.686536 0.710876
O O10 0.495765 0.238354 0.921807
O O11 0.897244 0.267976 0.983854
O O12 0.700113 0.734857 0.713887
O O13 0.000000 0.500000 0.000000
O O14 0.703320 0.752726 0.829782
O O15 0.500000 0.000000 0.500000
#
# Coordination Sequence:
#
# PCOD8017840 Si02
#       7
#     2   2   2   2   2   2   2
#     4  10  22  39  66  97 125 168 225 269 317 383
#     4  11  23  45  66  90 142 174 209 271 335 395
#     4  11  21  41  69  95 127 173 223 268 326 381
#     4  11  18  40  68  93 132 168 225 268 317 394
#     4  10  24  41  65  96 130 168 215 276 334 379
#     4  11  23  40  68 102 132 166 217 277 335 381
#     4  10  23  45  67  94 128 182 218 260 327 402
#
# _framework density 22.353570000000001
#
# number of rings (size 3 to 8) (size 9 to 14) (size 15 to 20)
#    0.000    1.429    5.714    0.857    4.000    3.429 
#    2.571    2.857    0.000    0.000    0.000    0.000 
#    0.000    0.000    0.000    0.000    0.000    0.000 
#
# Total GULP energy -173601.822054 kJ/mol
# GULP energy per Si atom -12400.130147 kJ/mol
# Density = 2.230269 g / cm^3
# Si number density = 22.353570 Si / 1000 Ang^3
#
#
#
# Elastic Constant Matrix: (Units=GPa)
#
#
# Indices 1 2 3 4 5 6 
#
# 1 143.7267 41.2675 59.8847 13.4973 -17.4272 -5.3534
# 2 41.2675 78.2724 22.8502 19.1220 -1.5327 8.8485
# 3 59.8847 22.8502 108.9689 25.5392 -15.5543 -0.4533
# 4 13.4973 19.1220 25.5392 22.5086 -7.3041 2.2681
# 5 -17.4272 -1.5327 -15.5543 -7.3041 27.3182 12.7811
# 6 -5.3534 8.8485 -0.4533 2.2681 12.7811 30.8744
#
#
#
# Elastic Compliance Matrix: (Units=1/GPa)
#
#
# Indices 1 2 3 4 5 6 
#
# 1 0.010921 -0.005610 -0.005549 0.005877 0.004546 0.001106
# 2 -0.005610 0.019477 0.002351 -0.016748 -0.003907 -0.003673
# 3 -0.005549 0.002351 0.015682 -0.015797 0.001751 -0.000970
# 4 0.005877 -0.016748 -0.015797 0.080061 0.019048 -0.008180
# 5 0.004546 -0.003907 0.001751 0.019048 0.055966 -0.022634
# 6 0.001106 -0.003673 -0.000970 -0.008180 -0.022634 0.043590
#
#
# Mechanical properties :
#
#
# Convention : Reuss Voigt Hill
#
# Bulk Modulus (GPa) = 35.13193 64.33032 49.73113
# Shear Modulus (GPa) = 19.77837 29.93793 24.85815
#
# Velocity S-wave (km/s) = 2.97778 3.66360 3.33835
# Velocity P-wave (km/s) = 5.25105 6.83645 6.09551
#
# Compressibility (1/GPa) = 0.02846413
#
# Stress axis : x y z
#
# Youngs Moduli (GPa) = 91.56657 51.34133 63.76797
#
# Poissons Ratio (x) = 0.28801 0.35387
# Poissons Ratio (y) = 0.51366 -0.14991
# Poissons Ratio (z) = 0.50813 -0.12070
#
# Static dielectric constant tensor:
#      x y z
#    x 4.185230 0.080500 -0.035950 
#    y 0.080500 4.087050 0.136460 
#    z -0.035950 0.136460 3.864030 
# 
# 
# High freq. dielectric constant tensor:
#      x y z
#    x 1.886310 -0.000880 -0.000480 
#    y -0.000880 1.886260 0.017220 
#    z -0.000480 0.017220 1.865800 
# 
# From -- ./inp_files/467142.got.cif
#   From: 2010.06.25/outbox.cif.g09.slc.cpg/sg2_234_cif.got.tgz:467142.got - 2010.06.27 13:26:56.
