data_PCOD8017463
_publ_section_title
;
Structure prediction by ZEFSAII (Michael W. Deem and Ramdas Pophale) SiO2 
 PCOD8017463
Probable space group: P -1
;
_chemical_formula_sum "Si O2"
_cell_formula_units_Z 12
_cell_length_a 16.050018
_cell_length_b 10.068103
_cell_length_c 17.086318
_cell_angle_alpha 41.661045
_cell_angle_beta 17.413742
_cell_angle_gamma 39.521093
_cell_volume 524.935509
_symmetry_space_group_name_H-M "P -1"
_symmetry_group_IT_number 2
_symmetry_cell_setting 'triclinic'
loop_
_space_group_symop_operation_xyz
x,y,z
-x,-y,-z
loop_
_atom_site_type_symbol
_atom_site_label
_atom_site_fract_x
_atom_site_fract_y
_atom_site_fract_z
Si Si1 0.433116 0.405376 0.838090
Si Si2 0.610568 0.772825 0.750213
Si Si3 0.806513 0.394240 0.363808
Si Si4 0.372336 0.821125 0.521720
Si Si5 0.738255 0.119354 0.236246
Si Si6 0.274479 0.663890 0.235365
O O1 0.618756 0.323898 0.629673
O O2 0.395281 0.648684 0.778794
O O3 0.599408 0.285385 0.817587
O O4 0.127511 0.358663 0.124363
O O5 0.602089 0.582141 0.785758
O O6 0.927204 0.734186 0.521975
O O7 0.524733 0.981364 0.683482
O O8 0.373864 0.797408 0.020300
O O9 0.667282 0.636025 0.357859
O O10 0.819541 0.246820 0.342324
O O11 0.170744 0.873882 0.756934
O O12 0.500000 0.000000 0.500000
O O13 0.000000 0.000000 0.000000
#
# Coordination Sequence:
#
# PCOD8017463 Si02
#       6
#     2   2   2   2   2   2
#     4  11  22  41  60  88 127 159 203 253 299 357
#     4  10  22  39  63  88 120 163 198 250 305 355
#     4  10  24  40  65  89 120 167 200 251 304 352
#     4  10  23  43  63  91 125 157 208 248 301 371
#     4  11  23  36  61  92 117 153 195 253 312 353
#     4  10  22  39  60  89 122 159 203 247 301 360
#
# _framework density 22.859950999999999
#
# number of rings (size 3 to 8) (size 9 to 14) (size 15 to 20)
#    0.000    1.667    0.000    4.000    0.000   16.667 
#    0.000    5.000    0.000    0.000    0.000    0.000 
#    0.000    0.000    0.000    0.000    0.000    0.000 
#
# Total GULP energy -148860.804152 kJ/mol
# GULP energy per Si atom -12405.067013 kJ/mol
# Density = 2.280792 g / cm^3
# Si number density = 22.859951 Si / 1000 Ang^3
#
#
#
# Elastic Constant Matrix: (Units=GPa)
#
#
# Indices 1 2 3 4 5 6 
#
# 1 125.7465 15.4548 31.9859 14.2147 10.8115 16.4183
# 2 15.4548 55.6611 21.8423 -2.8424 24.5899 11.5833
# 3 31.9859 21.8423 120.6831 6.7408 3.9758 15.7471
# 4 14.2147 -2.8424 6.7408 25.5151 -0.7818 15.1338
# 5 10.8115 24.5899 3.9758 -0.7818 42.9192 -1.3872
# 6 16.4183 11.5833 15.7471 15.1338 -1.3872 30.8351
#
#
#
# Elastic Compliance Matrix: (Units=1/GPa)
#
#
# Indices 1 2 3 4 5 6 
#
# 1 0.009352 -0.000852 -0.001795 -0.003693 -0.001834 -0.002013
# 2 -0.000852 0.032142 -0.003477 0.015152 -0.018188 -0.018100
# 3 -0.001795 -0.003477 0.009680 -0.000491 0.001462 -0.002375
# 4 -0.003693 0.015152 -0.000491 0.063618 -0.007679 -0.035044
# 5 -0.001834 -0.018188 0.001462 -0.007679 0.034307 0.012375
# 6 -0.002013 -0.018100 -0.002375 -0.035044 0.012375 0.059270
#
#
# Mechanical properties :
#
#
# Convention : Reuss Voigt Hill
#
# Bulk Modulus (GPa) = 25.68946 48.96186 37.32566
# Shear Modulus (GPa) = 21.40476 35.37439 28.38958
#
# Velocity S-wave (km/s) = 3.06329 3.93802 3.52787
# Velocity P-wave (km/s) = 4.87584 6.49169 5.74090
#
# Compressibility (1/GPa) = 0.03892647
#
# Stress axis : x y z
#
# Youngs Moduli (GPa) = 106.93213 31.11169 103.30150
#
# Poissons Ratio (x) = 0.02650 0.18544
# Poissons Ratio (y) = 0.09109 0.35918
# Poissons Ratio (z) = 0.19196 0.10818
#
# Static dielectric constant tensor:
#      x y z
#    x 4.169110 0.186220 0.231990 
#    y 0.186220 4.124590 0.002200 
#    z 0.231990 0.002200 4.145170 
# 
# 
# High freq. dielectric constant tensor:
#      x y z
#    x 1.911640 0.008340 0.008120 
#    y 0.008340 1.890720 -0.004910 
#    z 0.008120 -0.004910 1.907440 
# 
# From -- ./inp_files/366596.got.cif
#   From: 2010.06.25/outbox.cif.g09.slc.cpg/sg2_184_cif.got.tgz:366596.got - 2010.06.27 13:26:56.
