data_PCOD8017105
_publ_section_title
;
Structure prediction by ZEFSAII (Michael W. Deem and Ramdas Pophale) SiO2 
 PCOD8017105
Probable space group: P -1
;
_chemical_formula_sum "Si O2"
_cell_formula_units_Z 16
_cell_length_a 12.889118
_cell_length_b 5.206559
_cell_length_c 12.043277
_cell_angle_alpha 114.948216
_cell_angle_beta 78.963494
_cell_angle_gamma 96.939449
_cell_volume 718.503902
_symmetry_space_group_name_H-M "P -1"
_symmetry_group_IT_number 2
_symmetry_cell_setting 'triclinic'
loop_
_space_group_symop_operation_xyz
x,y,z
-x,-y,-z
loop_
_atom_site_type_symbol
_atom_site_label
_atom_site_fract_x
_atom_site_fract_y
_atom_site_fract_z
Si Si1 0.128954 0.717459 0.935186
Si Si2 0.556742 0.747396 0.304561
Si Si3 0.965285 0.820801 0.579458
Si Si4 0.367312 0.761869 0.490702
Si Si5 0.636334 0.252377 0.087075
Si Si6 0.719433 0.842913 0.612035
Si Si7 0.957839 0.894560 0.162796
Si Si8 0.437917 0.893955 0.152150
O O1 0.246453 0.858774 0.951014
O O2 0.125095 0.375659 0.858646
O O3 0.080850 0.861040 0.864311
O O4 0.067828 0.786300 0.073374
O O5 0.486781 0.682387 0.416977
O O6 0.643130 0.526090 0.215372
O O7 0.470753 0.710730 0.216576
O O8 0.619360 0.050256 0.365231
O O9 0.840469 0.855999 0.627220
O O10 0.000000 0.500000 0.500000
O O11 0.000000 0.000000 0.500000
O O12 0.026287 0.960523 0.695820
O O13 0.303665 0.475982 0.486143
O O14 0.305998 0.935394 0.439922
O O15 0.547314 0.038415 0.113963
O O16 0.611479 0.306910 0.971417
O O17 0.648463 0.889676 0.745664
#
# Coordination Sequence:
#
# PCOD8017105 Si02
#       8
#     2   2   2   2   2   2   2   2
#     4  10  23  42  72  94 126 171 213 271 324 377
#     4  10  22  38  59  90 132 170 210 258 307 374
#     4  12  26  44  68  97 130 169 218 274 323 382
#     4  10  23  39  66  88 129 172 215 250 312 381
#     4  11  22  39  62  98 124 170 208 264 312 384
#     4  11  23  45  65  94 125 175 208 261 324 380
#     4  10  23  47  65  96 129 166 219 268 328 381
#     4  10  23  40  62  91 135 162 212 255 322 382
#
# _framework density 22.268495999999999
#
# number of rings (size 3 to 8) (size 9 to 14) (size 15 to 20)
#    0.000    1.500    1.250    2.625    3.500    4.500 
#    0.000    3.750    0.000    0.000    0.000    0.000 
#    0.000    0.000    0.000    0.000    0.000    0.000 
#
# Total GULP energy -198330.220494 kJ/mol
# GULP energy per Si atom -12395.638781 kJ/mol
# Density = 2.221781 g / cm^3
# Si number density = 22.268496 Si / 1000 Ang^3
#
#
#
# Elastic Constant Matrix: (Units=GPa)
#
#
# Indices 1 2 3 4 5 6 
#
# 1 103.6528 7.3890 22.2996 -4.1214 -13.3931 14.0463
# 2 7.3890 96.1899 24.1994 5.7249 -6.5233 3.2795
# 3 22.2996 24.1994 122.8498 9.9622 14.0221 3.3600
# 4 -4.1214 5.7249 9.9622 29.0849 0.7481 2.3952
# 5 -13.3931 -6.5233 14.0221 0.7481 24.4439 -1.1609
# 6 14.0463 3.2795 3.3600 2.3952 -1.1609 28.4363
#
#
#
# Elastic Compliance Matrix: (Units=1/GPa)
#
#
# Indices 1 2 3 4 5 6 
#
# 1 0.012325 0.000492 -0.003394 0.003060 0.008469 -0.005656
# 2 0.000492 0.011503 -0.002788 -0.001290 0.004934 -0.000930
# 3 -0.003394 -0.002788 0.010532 -0.003378 -0.008509 0.000691
# 4 0.003060 -0.001290 -0.003378 0.036502 0.001965 -0.003958
# 5 0.008469 0.004934 -0.008509 0.001965 0.051603 -0.001806
# 6 -0.005656 -0.000930 0.000691 -0.003958 -0.001806 0.038245
#
#
# Mechanical properties :
#
#
# Convention : Reuss Voigt Hill
#
# Bulk Modulus (GPa) = 43.51866 47.82985 45.67425
# Shear Modulus (GPa) = 27.81632 34.31330 31.06481
#
# Velocity S-wave (km/s) = 3.53814 3.92968 3.73904
# Velocity P-wave (km/s) = 6.02299 6.48962 6.26065
#
# Compressibility (1/GPa) = 0.02297865
#
# Stress axis : x y z
#
# Youngs Moduli (GPa) = 81.13443 86.93459 94.95158
#
# Poissons Ratio (x) = -0.04279 0.32230
# Poissons Ratio (y) = -0.03994 0.26476
# Poissons Ratio (z) = 0.27540 0.24241
#
# Static dielectric constant tensor:
#      x y z
#    x 4.130730 0.027170 0.011840 
#    y 0.027170 3.844920 0.118680 
#    z 0.011840 0.118680 4.444050 
# 
# 
# High freq. dielectric constant tensor:
#      x y z
#    x 1.877590 -0.001230 -0.001150 
#    y -0.001230 1.865020 0.003830 
#    z -0.001150 0.003830 1.891560 
# 
# From -- ./inp_files/109889.got.cif
#   From: 2010.06.25/outbox.cif.g09.slc.cpg/sg2_55_cif.got.tgz:109889.got - 2010.06.27 13:26:56.
