data_PCOD8017385
_publ_section_title
;
Structure prediction by ZEFSAII (Michael W. Deem and Ramdas Pophale) SiO2 
 PCOD8017385
Probable space group: P -1
;
_chemical_formula_sum "Si O2"
_cell_formula_units_Z 16
_cell_length_a 12.059374
_cell_length_b 13.653593
_cell_length_c 14.066652
_cell_angle_alpha 32.240483
_cell_angle_beta 136.950165
_cell_angle_gamma 115.156829
_cell_volume 715.275888
_symmetry_space_group_name_H-M "P -1"
_symmetry_group_IT_number 2
_symmetry_cell_setting 'triclinic'
loop_
_space_group_symop_operation_xyz
x,y,z
-x,-y,-z
loop_
_atom_site_type_symbol
_atom_site_label
_atom_site_fract_x
_atom_site_fract_y
_atom_site_fract_z
Si Si1 0.181367 0.334167 0.186853
Si Si2 0.250738 0.916196 0.643972
Si Si3 0.755491 0.437570 0.532236
Si Si4 0.056417 0.476611 0.782459
Si Si5 0.118989 0.071973 0.636368
Si Si6 0.555939 0.275653 0.764535
Si Si7 0.424395 0.850324 0.319936
Si Si8 0.320569 0.325768 0.899528
O O1 0.374381 0.309279 0.370298
O O2 0.202221 0.103339 0.385126
O O3 0.160341 0.403677 0.008123
O O4 0.000000 0.500000 0.000000
O O5 0.466064 0.716278 0.928307
O O6 0.101796 0.843036 0.594348
O O7 0.233228 0.016988 0.654556
O O8 0.589085 0.664299 0.288416
O O9 0.710104 0.246020 0.661698
O O10 0.951190 0.351938 0.785292
O O11 0.789489 0.504888 0.394158
O O12 0.887228 0.729547 0.477419
O O13 0.213307 0.446361 0.829283
O O14 0.228015 0.861536 0.945583
O O15 0.500000 0.500000 0.500000
O O16 0.536645 0.145278 0.772282
O O17 0.325177 0.099997 0.083856
#
# Coordination Sequence:
#
# PCOD8017385 Si02
#       8
#     2   2   2   2   2   2   2   2
#     4  11  23  42  68  98 139 175 228 288 341 401
#     4  10  24  41  70  98 140 181 222 292 343 402
#     4  11  24  43  70  99 137 185 225 291 345 404
#     4  12  27  42  71 102 136 184 233 278 345 418
#     4  11  23  42  69 107 131 176 239 279 342 416
#     4  10  22  38  71 103 131 170 231 282 341 405
#     4  10  25  42  68 101 137 182 230 283 345 410
#     4  11  25  48  65 101 145 184 229 284 347 410
#
# _framework density 22.368991000000001
#
# number of rings (size 3 to 8) (size 9 to 14) (size 15 to 20)
#    0.000    1.250    2.500    1.875   10.500    4.000 
#    2.250    0.000    0.000    0.000    0.000    0.000 
#    0.000    0.000    0.000    0.000    0.000    0.000 
#
# Total GULP energy -198331.937847 kJ/mol
# GULP energy per Si atom -12395.746115 kJ/mol
# Density = 2.231808 g / cm^3
# Si number density = 22.368991 Si / 1000 Ang^3
#
#
#
# Elastic Constant Matrix: (Units=GPa)
#
#
# Indices 1 2 3 4 5 6 
#
# 1 120.9516 32.2943 23.2470 13.4693 -12.9818 -20.2810
# 2 32.2943 65.0549 24.4829 17.9172 -11.2824 3.8063
# 3 23.2470 24.4829 81.3646 12.2541 -17.9347 -7.8962
# 4 13.4693 17.9172 12.2541 33.8212 6.8420 -1.5698
# 5 -12.9818 -11.2824 -17.9347 6.8420 29.7857 6.1601
# 6 -20.2810 3.8063 -7.8962 -1.5698 6.1601 41.9727
#
#
#
# Elastic Compliance Matrix: (Units=1/GPa)
#
#
# Indices 1 2 3 4 5 6 
#
# 1 0.010913 -0.004677 -0.000469 -0.001870 0.002048 0.005239
# 2 -0.004677 0.024149 -0.002584 -0.012292 0.009789 -0.006833
# 3 -0.000469 -0.002584 0.016480 -0.006353 0.009906 0.001416
# 4 -0.001870 -0.012292 -0.006353 0.043335 -0.019989 0.003570
# 5 0.002048 0.009789 0.009906 -0.019989 0.049996 -0.006120
# 6 0.005239 -0.006833 0.001416 0.003570 -0.006120 0.028274
#
#
# Mechanical properties :
#
#
# Convention : Reuss Voigt Hill
#
# Bulk Modulus (GPa) = 27.71574 47.49104 37.60339
# Shear Modulus (GPa) = 24.92085 33.60569 29.26327
#
# Velocity S-wave (km/s) = 3.34141 3.88020 3.62084
# Velocity P-wave (km/s) = 5.22530 6.43051 5.85898
#
# Compressibility (1/GPa) = 0.03608058
#
# Stress axis : x y z
#
# Youngs Moduli (GPa) = 91.63193 41.40970 60.68010
#
# Poissons Ratio (x) = 0.19369 0.02847
# Poissons Ratio (y) = 0.42859 0.15681
# Poissons Ratio (z) = 0.04299 0.10701
#
# Static dielectric constant tensor:
#      x y z
#    x 2.602340 2.362300 0.791370 
#    y 2.362300 -0.363750 -1.206010 
#    z 0.791370 -1.206010 3.621690 
# 
# 
# High freq. dielectric constant tensor:
#      x y z
#    x 1.878270 -0.001170 -0.005470 
#    y -0.001170 1.876310 0.010670 
#    z -0.005470 0.010670 1.885810 
# 
# From -- ./inp_files/522215.got.cif
#   From: 2010.06.25/outbox.cif.g09.slc.cpg/sg2_262_cif.got.tgz:522215.got - 2010.06.27 13:26:56.
