data_PCOD8017697
_publ_section_title
;
Structure prediction by ZEFSAII (Michael W. Deem and Ramdas Pophale) SiO2 
 PCOD8017697
Probable space group: P -1
;
_chemical_formula_sum "Si O2"
_cell_formula_units_Z 12
_cell_length_a 8.689071
_cell_length_b 17.358218
_cell_length_c 13.323058
_cell_angle_alpha 22.567945
_cell_angle_beta 42.747133
_cell_angle_gamma 49.052145
_cell_volume 521.458056
_symmetry_space_group_name_H-M "P -1"
_symmetry_group_IT_number 2
_symmetry_cell_setting 'triclinic'
loop_
_space_group_symop_operation_xyz
x,y,z
-x,-y,-z
loop_
_atom_site_type_symbol
_atom_site_label
_atom_site_fract_x
_atom_site_fract_y
_atom_site_fract_z
Si Si1 0.367810 0.559902 0.362023
Si Si2 0.495102 0.424020 0.940782
Si Si3 0.938159 0.883753 0.463627
Si Si4 0.374142 0.795436 0.263500
Si Si5 0.929015 0.338791 0.933778
Si Si6 0.115277 0.675847 0.801443
O O1 0.377225 0.630381 0.157886
O O2 0.429549 0.756896 0.165921
O O3 0.550836 0.396317 0.481503
O O4 0.119596 0.462329 0.628732
O O5 0.383559 0.638943 0.728656
O O6 0.301445 0.246685 0.271011
O O7 0.688541 0.436707 0.918736
O O8 0.103428 0.799802 0.401623
O O9 0.064038 0.875953 0.522955
O O10 0.897868 0.110983 0.182674
O O11 0.500000 0.000000 0.000000
O O12 0.000139 0.332710 0.023704
O O13 0.000000 0.500000 0.000000
#
# Coordination Sequence:
#
# PCOD8017697 Si02
#       6
#     2   2   2   2   2   2
#     4  11  24  41  70  96 132 174 222 265 331 391
#     4  11  24  43  64  96 135 172 215 270 333 391
#     4  11  23  42  66  97 129 169 225 268 320 392
#     4  11  23  42  69  99 129 173 222 277 317 386
#     4  12  24  42  66  97 134 173 213 275 333 386
#     4  10  22  39  64  92 124 170 223 262 318 388
#
# _framework density 23.012398999999998
#
# number of rings (size 3 to 8) (size 9 to 14) (size 15 to 20)
#    0.000    1.000    3.333    4.000    7.000    1.333 
#    0.000    0.833    0.000    0.000    0.000    0.000 
#    0.000    0.000    0.000    0.000    0.000    0.000 
#
# Total GULP energy -148768.424855 kJ/mol
# GULP energy per Si atom -12397.368738 kJ/mol
# Density = 2.296002 g / cm^3
# Si number density = 23.012399 Si / 1000 Ang^3
#
#
#
# Elastic Constant Matrix: (Units=GPa)
#
#
# Indices 1 2 3 4 5 6 
#
# 1 74.7770 5.7720 9.9972 0.8207 -5.6588 -16.3831
# 2 5.7720 71.9326 33.6511 11.6871 -13.6507 -3.9566
# 3 9.9972 33.6511 85.9815 7.4836 -20.2070 1.3104
# 4 0.8207 11.6871 7.4836 38.0913 0.2771 0.5890
# 5 -5.6588 -13.6507 -20.2070 0.2771 26.6754 5.7603
# 6 -16.3831 -3.9566 1.3104 0.5890 5.7603 47.3478
#
#
#
# Elastic Compliance Matrix: (Units=1/GPa)
#
#
# Indices 1 2 3 4 5 6 
#
# 1 0.014756 0.000013 -0.001592 -0.000093 0.000842 0.005050
# 2 0.000013 0.018261 -0.005621 -0.004552 0.004889 0.001148
# 3 -0.001592 -0.005621 0.016511 -0.001516 0.009883 -0.002661
# 4 -0.000093 -0.004552 -0.001516 0.027980 -0.003731 -0.000265
# 5 0.000842 0.004889 0.009883 -0.003731 0.048876 -0.005473
# 6 0.005050 0.001148 -0.002661 -0.000265 -0.005473 0.023706
#
#
# Mechanical properties :
#
#
# Convention : Reuss Voigt Hill
#
# Bulk Modulus (GPa) = 28.46663 36.83684 32.65173
# Shear Modulus (GPa) = 28.37720 34.64095 31.50907
#
# Velocity S-wave (km/s) = 3.51540 3.88405 3.70431
# Velocity P-wave (km/s) = 5.37349 6.01304 5.70223
#
# Compressibility (1/GPa) = 0.03512885
#
# Stress axis : x y z
#
# Youngs Moduli (GPa) = 67.76912 54.76211 60.56750
#
# Poissons Ratio (x) = -0.00073 0.09642
# Poissons Ratio (y) = -0.00091 0.34043
# Poissons Ratio (z) = 0.10788 0.30780
#
# Static dielectric constant tensor:
#      x y z
#    x 4.389360 -0.222050 0.291150 
#    y -0.222050 4.462920 0.043180 
#    z 0.291150 0.043180 4.088050 
# 
# 
# High freq. dielectric constant tensor:
#      x y z
#    x 1.898860 -0.006450 -0.001890 
#    y -0.006450 1.925710 0.013820 
#    z -0.001890 0.013820 1.893760 
# 
# From -- ./inp_files/243759.got.cif
#   From: 2010.06.25/outbox.cif.g09.slc.cpg/sg2_122_cif.got.tgz:243759.got - 2010.06.27 13:26:56.
