data_PCOD8017854
_publ_section_title
;
Structure prediction by ZEFSAII (Michael W. Deem and Ramdas Pophale) SiO2 
 PCOD8017854
Probable space group: P -1
;
_chemical_formula_sum "Si O2"
_cell_formula_units_Z 14
_cell_length_a 8.083156
_cell_length_b 12.071065
_cell_length_c 11.342754
_cell_angle_alpha 49.389057
_cell_angle_beta 49.799450
_cell_angle_gamma 48.646539
_cell_volume 583.885997
_symmetry_space_group_name_H-M "P -1"
_symmetry_group_IT_number 2
_symmetry_cell_setting 'triclinic'
loop_
_space_group_symop_operation_xyz
x,y,z
-x,-y,-z
loop_
_atom_site_type_symbol
_atom_site_label
_atom_site_fract_x
_atom_site_fract_y
_atom_site_fract_z
Si Si1 0.456843 0.143546 0.679822
Si Si2 0.369892 0.422686 0.377408
Si Si3 0.274867 0.727361 0.356609
Si Si4 0.159732 0.194621 0.324588
Si Si5 0.902733 0.294716 0.134296
Si Si6 0.260545 0.007034 0.044441
Si Si7 0.268034 0.469913 0.144010
O O1 0.320724 0.272970 0.552086
O O2 0.530788 0.246349 0.669692
O O3 0.692807 0.995307 0.627405
O O4 0.273016 0.071673 0.862589
O O5 0.359256 0.545179 0.401146
O O6 0.631807 0.342202 0.257677
O O7 0.186977 0.506124 0.295009
O O8 0.033675 0.781032 0.503379
O O9 0.251392 0.833641 0.175095
O O10 0.326252 0.282936 0.225689
O O11 0.045271 0.287844 0.192263
O O12 0.021468 0.119754 0.143347
O O13 0.927977 0.416701 0.938668
O O14 0.500000 0.000000 0.000000
O O15 0.500000 0.500000 0.000000
#
# Coordination Sequence:
#
# PCOD8017854 Si02
#       7
#     2   2   2   2   2   2   2
#     4  11  23  41  70 106 138 173 231 292 339 401
#     4  11  25  45  69  98 151 179 224 283 343 419
#     4  11  23  41  69 107 133 179 230 284 342 403
#     4  12  23  42  76  97 136 183 235 284 341 403
#     4  11  22  44  72 100 135 178 235 281 341 397
#     4  10  22  39  67 105 139 166 227 287 342 393
#     4  10  27  44  67 101 143 185 228 276 353 407
#
# _framework density 23.977281999999999
#
# number of rings (size 3 to 8) (size 9 to 14) (size 15 to 20)
#    0.000    1.143    4.286    2.143    6.000    2.286 
#    0.000    0.714    0.000    0.000    0.000    0.000 
#    0.000    0.000    0.000    0.000    0.000    0.000 
#
# Total GULP energy -173460.862592 kJ/mol
# GULP energy per Si atom -12390.061614 kJ/mol
# Density = 2.392271 g / cm^3
# Si number density = 23.977282 Si / 1000 Ang^3
#
#
#
# Elastic Constant Matrix: (Units=GPa)
#
#
# Indices 1 2 3 4 5 6 
#
# 1 49.8244 24.8075 48.4026 -10.6166 13.0632 10.6728
# 2 24.8075 119.2161 59.7075 -4.4824 10.3074 -9.3127
# 3 48.4026 59.7075 180.4069 -16.8236 31.0897 -1.3982
# 4 -10.6166 -4.4824 -16.8236 47.9991 -5.8471 -6.1318
# 5 13.0632 10.3074 31.0897 -5.8471 30.5130 2.7566
# 6 10.6728 -9.3127 -1.3982 -6.1318 2.7566 19.6278
#
#
#
# Elastic Compliance Matrix: (Units=1/GPa)
#
#
# Indices 1 2 3 4 5 6 
#
# 1 0.035456 -0.005028 -0.007176 0.001682 -0.003941 -0.021098
# 2 -0.005028 0.011203 -0.002285 0.000147 0.000008 0.007932
# 3 -0.007176 -0.002285 0.009408 0.001384 -0.005906 0.004750
# 4 0.001682 0.000147 0.001384 0.022682 0.001614 0.006113
# 5 -0.003941 0.000008 -0.005906 0.001614 0.041104 -0.003543
# 6 -0.021098 0.007932 0.004750 0.006113 -0.003543 0.068929
#
#
# Mechanical properties :
#
#
# Convention : Reuss Voigt Hill
#
# Bulk Modulus (GPa) = 36.91477 68.36473 52.63975
# Shear Modulus (GPa) = 22.04662 34.06329 28.05496
#
# Velocity S-wave (km/s) = 3.03558 3.77324 3.42433
# Velocity P-wave (km/s) = 5.26455 6.89618 6.13485
#
# Compressibility (1/GPa) = 0.02708943
#
# Stress axis : x y z
#
# Youngs Moduli (GPa) = 28.20361 89.25978 106.28918
#
# Poissons Ratio (x) = 0.44880 0.76276
# Poissons Ratio (y) = 0.14181 0.24287
# Poissons Ratio (z) = 0.20240 0.20396
#
# Static dielectric constant tensor:
#      x y z
#    x 4.553710 -0.229040 0.533470 
#    y -0.229040 4.400940 -0.148820 
#    z 0.533470 -0.148820 5.630580 
# 
# 
# High freq. dielectric constant tensor:
#      x y z
#    x 1.916140 -0.001480 0.016500 
#    y -0.001480 1.947560 -0.008450 
#    z 0.016500 -0.008450 1.981410 
# 
# From -- ./inp_files/355056.got.cif
#   From: 2010.06.25/outbox.cif.g09.slc.cpg/sg2_178_cif.got.tgz:355056.got - 2010.06.27 13:26:56.
