data_PCOD8017837
_publ_section_title
;
Structure prediction by ZEFSAII (Michael W. Deem and Ramdas Pophale) SiO2 
 PCOD8017837
Probable space group: P -1
;
_chemical_formula_sum "Si O2"
_cell_formula_units_Z 16
_cell_length_a 9.398585
_cell_length_b 8.819381
_cell_length_c 11.666230
_cell_angle_alpha 98.952952
_cell_angle_beta 96.907556
_cell_angle_gamma 47.313713
_cell_volume 702.021517
_symmetry_space_group_name_H-M "P -1"
_symmetry_group_IT_number 2
_symmetry_cell_setting 'triclinic'
loop_
_space_group_symop_operation_xyz
x,y,z
-x,-y,-z
loop_
_atom_site_type_symbol
_atom_site_label
_atom_site_fract_x
_atom_site_fract_y
_atom_site_fract_z
Si Si1 0.908438 0.793926 0.075707
Si Si2 0.729352 0.232808 0.712740
Si Si3 0.714009 0.684875 0.908893
Si Si4 0.938868 0.798433 0.329107
Si Si5 0.550857 0.386346 0.110723
Si Si6 0.986336 0.136033 0.130828
Si Si7 0.684946 0.972443 0.536484
Si Si8 0.097407 0.352555 0.288861
O O1 0.845011 0.899541 0.206955
O O2 0.112044 0.561153 0.086090
O O3 0.738933 0.806121 0.014322
O O4 0.949812 0.903631 0.002865
O O5 0.556211 0.456103 0.774812
O O6 0.862887 0.244800 0.645613
O O7 0.631686 0.165175 0.623550
O O8 0.857779 0.075314 0.810506
O O9 0.511551 0.747286 0.920664
O O10 0.717139 0.741121 0.784196
O O11 0.783390 0.960519 0.427712
O O12 0.971348 0.593869 0.327972
O O13 0.775855 0.217919 0.138423
O O14 0.500000 0.500000 0.000000
O O15 0.972949 0.319999 0.199061
O O16 0.839483 0.762012 0.597708
O O17 0.500000 0.000000 0.500000
#
# Coordination Sequence:
#
# PCOD8017837 Si02
#       8
#     2   2   2   2   2   2   2   2
#     4   9  17  35  63  91 126 171 201 251 317 383
#     4  11  25  45  62  97 133 166 210 267 320 378
#     4   9  17  34  60  94 126 158 210 253 312 385
#     4  11  21  41  67  87 128 172 212 254 321 378
#     4  12  22  36  65  99 130 166 211 257 314 380
#     4  10  22  39  66  96 134 167 206 260 322 377
#     4  11  26  43  64  92 126 162 221 275 311 368
#     4   9  20  42  66  88 120 172 212 253 325 383
#
# _framework density 22.791322000000001
#
# number of rings (size 3 to 8) (size 9 to 14) (size 15 to 20)
#    0.000    1.750    3.750    1.500    1.750    3.000 
#    0.000    0.625    0.000    5.250    0.000    0.000 
#    0.000    0.000    0.000    0.000    0.000    0.000 
#
# Total GULP energy -198439.620587 kJ/mol
# GULP energy per Si atom -12402.476287 kJ/mol
# Density = 2.273945 g / cm^3
# Si number density = 22.791322 Si / 1000 Ang^3
#
#
#
# Elastic Constant Matrix: (Units=GPa)
#
#
# Indices 1 2 3 4 5 6 
#
# 1 184.6368 30.6272 66.3825 10.3104 1.6895 -2.5637
# 2 30.6272 61.4444 29.3395 8.9170 2.3311 9.3586
# 3 66.3825 29.3395 141.9477 7.4949 -8.4489 -7.5269
# 4 10.3104 8.9170 7.4949 26.5289 4.9964 -2.6114
# 5 1.6895 2.3311 -8.4489 4.9964 36.1751 -3.2695
# 6 -2.5637 9.3586 -7.5269 -2.6114 -3.2695 31.4948
#
#
#
# Elastic Compliance Matrix: (Units=1/GPa)
#
#
# Indices 1 2 3 4 5 6 
#
# 1 0.006794 -0.001949 -0.002741 -0.001056 -0.000657 0.000321
# 2 -0.001949 0.021143 -0.003706 -0.005700 -0.002074 -0.008015
# 3 -0.002741 -0.003706 0.009481 -0.000592 0.002971 0.003403
# 4 -0.001056 -0.005700 -0.000592 0.041575 -0.005067 0.004388
# 5 -0.000657 -0.002074 0.002971 -0.005067 0.029556 0.003921
# 6 0.000321 -0.008015 0.003403 0.004388 0.003921 0.035743
#
#
# Mechanical properties :
#
#
# Convention : Reuss Voigt Hill
#
# Bulk Modulus (GPa) = 48.48113 71.19194 59.83653
# Shear Modulus (GPa) = 29.76929 36.28507 33.02718
#
# Velocity S-wave (km/s) = 3.61801 3.99439 3.81085
# Velocity P-wave (km/s) = 6.22666 7.25105 6.75829
#
# Compressibility (1/GPa) = 0.02062658
#
# Stress axis : x y z
#
# Youngs Moduli (GPa) = 147.18606 47.29806 105.47168
#
# Poissons Ratio (x) = 0.09216 0.28908
# Poissons Ratio (y) = 0.28680 0.39090
# Poissons Ratio (z) = 0.40342 0.17530
#
# Static dielectric constant tensor:
#      x y z
#    x 4.432140 0.403090 0.038800 
#    y 0.403090 3.860660 0.053580 
#    z 0.038800 0.053580 4.297560 
# 
# 
# High freq. dielectric constant tensor:
#      x y z
#    x 1.914900 0.028270 0.002010 
#    y 0.028270 1.886400 0.007910 
#    z 0.002010 0.007910 1.901110 
# 
# From -- ./inp_files/382675.got.cif
#   From: 2010.06.25/outbox.cif.g09.slc.cpg/sg2_192_cif.got.tgz:382675.got - 2010.06.27 13:26:56.
