data_PCOD8017758
_publ_section_title
;
Structure prediction by ZEFSAII (Michael W. Deem and Ramdas Pophale) SiO2 
 PCOD8017758
Probable space group: P -1
;
_chemical_formula_sum "Si O2"
_cell_formula_units_Z 14
_cell_length_a 14.321395
_cell_length_b 8.935916
_cell_length_c 7.949258
_cell_angle_alpha 95.794535
_cell_angle_beta 43.114516
_cell_angle_gamma 112.658250
_cell_volume 614.860801
_symmetry_space_group_name_H-M "P -1"
_symmetry_group_IT_number 2
_symmetry_cell_setting 'triclinic'
loop_
_space_group_symop_operation_xyz
x,y,z
-x,-y,-z
loop_
_atom_site_type_symbol
_atom_site_label
_atom_site_fract_x
_atom_site_fract_y
_atom_site_fract_z
Si Si1 0.683273 0.144420 0.499148
Si Si2 0.531176 0.719890 0.138007
Si Si3 0.696822 0.671635 0.611231
Si Si4 0.766144 0.372782 0.114078
Si Si5 0.578049 0.783086 0.467500
Si Si6 0.975449 0.660676 0.384143
Si Si7 0.969543 0.324086 0.328995
O O1 0.544338 0.153251 0.785699
O O2 0.743094 0.316685 0.330673
O O3 0.830220 0.158771 0.412325
O O4 0.619533 0.979385 0.449403
O O5 0.406427 0.526912 0.263589
O O6 0.604619 0.749031 0.234112
O O7 0.656321 0.762786 0.830251
O O8 0.680300 0.738886 0.457202
O O9 0.875757 0.716339 0.400339
O O10 0.599454 0.328163 0.251331
O O11 0.878966 0.576176 0.977542
O O12 0.849147 0.270845 0.904921
O O13 0.979769 0.734733 0.573798
O O14 0.899368 0.455131 0.478489
#
# Coordination Sequence:
#
# PCOD8017758 Si02
#       7
#     2   2   2   2   2   2   2
#     4  11  21  42  63  97 125 166 213 262 311 382
#     4  10  22  39  65  92 129 166 218 255 310 378
#     4  11  23  40  64  96 131 166 207 267 316 374
#     4   9  19  37  66  89 119 166 214 261 297 370
#     4  11  25  41  65  98 132 162 210 264 325 366
#     4   9  20  38  62  93 123 155 223 257 309 364
#     4   9  19  36  65  91 118 164 217 253 304 373
#
# _framework density 22.769383999999999
#
# number of rings (size 3 to 8) (size 9 to 14) (size 15 to 20)
#    0.857    1.143    1.429    2.571    6.000    0.571 
#    5.143    1.429    0.000    0.000    0.000    0.000 
#    0.000    0.000    0.000    0.000    0.000    0.000 
#
# Total GULP energy -173450.117580 kJ/mol
# GULP energy per Si atom -12389.294113 kJ/mol
# Density = 2.271756 g / cm^3
# Si number density = 22.769384 Si / 1000 Ang^3
#
#
#
# Elastic Constant Matrix: (Units=GPa)
#
#
# Indices 1 2 3 4 5 6 
#
# 1 158.8488 16.2684 29.3739 2.1368 -9.6934 3.0495
# 2 16.2684 40.6044 13.0224 11.2865 -1.3054 15.0578
# 3 29.3739 13.0224 63.0110 9.8648 -1.3552 9.0654
# 4 2.1368 11.2865 9.8648 17.1010 3.4634 3.3167
# 5 -9.6934 -1.3054 -1.3552 3.4634 23.2939 5.6762
# 6 3.0495 15.0578 9.0654 3.3167 5.6762 24.2947
#
#
#
# Elastic Compliance Matrix: (Units=1/GPa)
#
#
# Indices 1 2 3 4 5 6 
#
# 1 0.007268 -0.002917 -0.003288 0.002245 0.002008 0.001346
# 2 -0.002917 0.042364 0.000410 -0.025188 0.011068 -0.025191
# 3 -0.003288 0.000410 0.020006 -0.010741 0.003010 -0.006543
# 4 0.002245 -0.025188 -0.010741 0.081982 -0.016198 0.011929
# 5 0.002008 0.011068 0.003010 -0.016198 0.051361 -0.018024
# 6 0.001346 -0.025191 -0.006543 0.011929 -0.018024 0.061630
#
#
# Mechanical properties :
#
#
# Convention : Reuss Voigt Hill
#
# Bulk Modulus (GPa) = 17.22669 42.19926 29.71298
# Shear Modulus (GPa) = 16.91767 26.52456 21.72112
#
# Velocity S-wave (km/s) = 2.72876 3.41680 3.09198
# Velocity P-wave (km/s) = 4.18454 5.84291 5.08183
#
# Compressibility (1/GPa) = 0.05804946
#
# Stress axis : x y z
#
# Youngs Moduli (GPa) = 137.58154 23.60500 49.98553
#
# Poissons Ratio (x) = 0.06885 0.16433
# Poissons Ratio (y) = 0.40128 -0.02049
# Poissons Ratio (z) = 0.45231 -0.00968
#
# Static dielectric constant tensor:
#      x y z
#    x 4.105670 0.124920 -0.123200 
#    y 0.124920 3.663840 0.167120 
#    z -0.123200 0.167120 4.124590 
# 
# 
# High freq. dielectric constant tensor:
#      x y z
#    x 1.904900 0.010950 -0.000840 
#    y 0.010950 1.857560 0.010790 
#    z -0.000840 0.010790 1.884520 
# 
# From -- ./inp_files/298655.got.cif
#   From: 2010.06.25/outbox.cif.g09.slc.cpg/sg2_150_cif.got.tgz:298655.got - 2010.06.27 13:26:56.
