data_PCOD8017959
_publ_section_title
;
Structure prediction by ZEFSAII (Michael W. Deem and Ramdas Pophale) SiO2 
 PCOD8017959
Probable space group: P -1
;
_chemical_formula_sum "Si O2"
_cell_formula_units_Z 16
_cell_length_a 8.726025
_cell_length_b 23.247592
_cell_length_c 8.446007
_cell_angle_alpha 122.993623
_cell_angle_beta 67.871914
_cell_angle_gamma 148.255312
_cell_volume 741.442062
_symmetry_space_group_name_H-M "P -1"
_symmetry_group_IT_number 2
_symmetry_cell_setting 'triclinic'
loop_
_space_group_symop_operation_xyz
x,y,z
-x,-y,-z
loop_
_atom_site_type_symbol
_atom_site_label
_atom_site_fract_x
_atom_site_fract_y
_atom_site_fract_z
Si Si1 0.266169 0.625350 0.356613
Si Si2 0.276057 0.266117 0.890479
Si Si3 0.271688 0.362480 0.327015
Si Si4 0.684473 0.829825 0.007276
Si Si5 0.398918 0.824200 0.636491
Si Si6 0.337223 0.608666 0.654010
Si Si7 0.306853 0.033595 0.943189
Si Si8 0.633045 0.026576 0.658010
O O1 0.424878 0.630052 0.176278
O O2 0.424216 0.753128 0.474568
O O3 0.270856 0.586290 0.462103
O O4 0.908973 0.510600 0.310203
O O5 0.278662 0.194387 0.875253
O O6 0.984985 0.163603 0.737041
O O7 0.286837 0.338853 0.103261
O O8 0.500000 0.500000 0.500000
O O9 0.354428 0.326107 0.347732
O O10 0.941437 0.272397 0.354986
O O11 0.650249 0.900984 0.128709
O O12 0.387671 0.702413 0.841640
O O13 0.958791 0.901668 0.897744
O O14 0.554550 0.921799 0.582523
O O15 0.577005 0.891910 0.830486
O O16 0.472485 0.019141 0.837762
O O17 0.500000 0.000000 0.500000
#
# Coordination Sequence:
#
# PCOD8017959 Si02
#       8
#     2   2   2   2   2   2   2   2
#     4  11  25  42  68  97 136 173 229 282 327 399
#     4  11  25  43  66 102 135 174 224 288 329 395
#     4  11  23  44  71  96 131 180 227 270 337 409
#     4  10  22  39  70  94 128 173 229 271 332 403
#     4  12  23  45  68  96 134 185 222 268 343 407
#     4  10  22  44  66  95 129 180 222 273 336 403
#     4  11  22  43  66  99 128 183 221 277 333 408
#     4  12  27  41  65  99 143 174 221 282 340 396
#
# _framework density 21.579567999999998
#
# number of rings (size 3 to 8) (size 9 to 14) (size 15 to 20)
#    0.000    1.000    5.000    1.875    5.250    2.500 
#    0.000    0.625    0.000    0.000    0.000    0.000 
#    0.000    0.000    0.000    0.000    0.000    0.000 
#
# Total GULP energy -198247.979933 kJ/mol
# GULP energy per Si atom -12390.498746 kJ/mol
# Density = 2.153045 g / cm^3
# Si number density = 21.579568 Si / 1000 Ang^3
#
#
#
# Elastic Constant Matrix: (Units=GPa)
#
#
# Indices 1 2 3 4 5 6 
#
# 1 65.5826 26.9784 22.2978 -2.5110 12.3195 -4.5581
# 2 26.9784 89.3788 47.8381 4.0506 2.3809 -13.0288
# 3 22.2978 47.8381 92.4225 5.6413 6.6326 -0.0039
# 4 -2.5110 4.0506 5.6413 34.7668 2.2062 -2.0823
# 5 12.3195 2.3809 6.6326 2.2062 34.2994 -0.1606
# 6 -4.5581 -13.0288 -0.0039 -2.0823 -0.1606 27.6114
#
#
#
# Elastic Compliance Matrix: (Units=1/GPa)
#
#
# Indices 1 2 3 4 5 6 
#
# 1 0.019156 -0.004482 -0.002011 0.002708 -0.006349 0.001214
# 2 -0.004482 0.018162 -0.008422 -0.000738 0.002062 0.007785
# 3 -0.002011 -0.008422 0.015900 -0.001905 -0.001666 -0.004457
# 4 0.002708 -0.000738 -0.001905 0.029648 -0.002449 0.002320
# 5 -0.006349 0.002062 -0.001666 -0.002449 0.031772 -0.000075
# 6 0.001214 0.007785 -0.004457 0.002320 -0.000075 0.040265
#
#
# Mechanical properties :
#
#
# Convention : Reuss Voigt Hill
#
# Bulk Modulus (GPa) = 42.75783 49.06808 45.91295
# Shear Modulus (GPa) = 25.96992 29.35349 27.66171
#
# Velocity S-wave (km/s) = 3.47284 3.69215 3.58417
# Velocity P-wave (km/s) = 5.99482 6.40028 6.20086
#
# Compressibility (1/GPa) = 0.02338753
#
# Stress axis : x y z
#
# Youngs Moduli (GPa) = 52.20215 55.05863 62.89287
#
# Poissons Ratio (x) = 0.24679 0.12649
# Poissons Ratio (y) = 0.23399 0.52969
# Poissons Ratio (z) = 0.10499 0.46371
#
# Static dielectric constant tensor:
#      x y z
#    x 4.048720 0.050000 -0.054410 
#    y 0.050000 4.087600 0.317770 
#    z -0.054410 0.317770 3.889140 
# 
# 
# High freq. dielectric constant tensor:
#      x y z
#    x 1.857620 0.008100 0.003250 
#    y 0.008100 1.847770 0.018490 
#    z 0.003250 0.018490 1.836140 
# 
# From -- ./inp_files/186521.got.cif
#   From: 2010.06.25/outbox.cif.g09.slc.cpg/sg2_94_cif.got.tgz:186521.got - 2010.06.27 13:26:56.
