data_PCOD8017972
_publ_section_title
;
Structure prediction by ZEFSAII (Michael W. Deem and Ramdas Pophale) SiO2 
 PCOD8017972
Probable space group: P -1
;
_chemical_formula_sum "Si O2"
_cell_formula_units_Z 16
_cell_length_a 10.990096
_cell_length_b 9.301450
_cell_length_c 9.744118
_cell_angle_alpha 61.917727
_cell_angle_beta 99.629844
_cell_angle_gamma 124.992273
_cell_volume 712.650512
_symmetry_space_group_name_H-M "P -1"
_symmetry_group_IT_number 2
_symmetry_cell_setting 'triclinic'
loop_
_space_group_symop_operation_xyz
x,y,z
-x,-y,-z
loop_
_atom_site_type_symbol
_atom_site_label
_atom_site_fract_x
_atom_site_fract_y
_atom_site_fract_z
Si Si1 0.058273 0.430304 0.328082
Si Si2 0.708172 0.540264 0.847728
Si Si3 0.603143 0.148605 0.566201
Si Si4 0.051305 0.072634 0.132060
Si Si5 0.437077 0.337739 0.445839
Si Si6 0.912103 0.253420 0.643827
Si Si7 0.572932 0.111509 0.100194
Si Si8 0.186370 0.940099 0.720730
O O1 0.206513 0.481634 0.254477
O O2 0.058251 0.628826 0.257761
O O3 0.054897 0.368618 0.514962
O O4 0.915728 0.253149 0.303332
O O5 0.820260 0.696610 0.915199
O O6 0.600643 0.596220 0.733250
O O7 0.610254 0.332243 0.002513
O O8 0.578009 0.322337 0.467036
O O9 0.776780 0.237213 0.541358
O O10 0.500000 0.000000 0.500000
O O11 0.551811 0.023291 0.751810
O O12 0.905785 0.008403 0.222134
O O13 0.126738 0.962050 0.243169
O O14 0.000000 0.000000 0.000000
O O15 0.500000 0.500000 0.500000
O O16 0.288306 0.128224 0.557772
O O17 0.721792 0.116649 0.144665
O O18 0.500000 0.000000 0.000000
#
# Coordination Sequence:
#
# PCOD8017972 Si02
#       8
#     2   2   2   2   2   2   2   2
#     4  10  22  39  71  92 127 170 215 274 321 394
#     4  11  23  43  68  98 131 170 222 271 331 385
#     4  11  24  44  68  93 134 176 217 265 322 396
#     4  11  26  40  63  94 136 170 212 278 325 381
#     4  11  22  43  69  97 124 172 219 267 322 397
#     4  11  22  41  65 101 128 168 218 268 328 389
#     4  11  24  42  70  95 130 178 220 269 322 401
#     4  10  23  43  65  92 128 174 220 260 330 394
#
# _framework density 22.451397
#
# number of rings (size 3 to 8) (size 9 to 14) (size 15 to 20)
#    0.000    1.250    0.000    6.750    5.250    4.000 
#    2.250    1.250    0.000    0.000    0.000    0.000 
#    0.000    0.000    0.000    0.000    0.000    0.000 
#
# Total GULP energy -198277.623832 kJ/mol
# GULP energy per Si atom -12392.351490 kJ/mol
# Density = 2.240030 g / cm^3
# Si number density = 22.451397 Si / 1000 Ang^3
#
#
#
# Elastic Constant Matrix: (Units=GPa)
#
#
# Indices 1 2 3 4 5 6 
#
# 1 69.7414 6.8994 23.2204 -3.8894 18.5692 -15.6293
# 2 6.8994 126.7888 24.1457 8.1828 12.7604 -12.8652
# 3 23.2204 24.1457 85.6280 2.7354 24.4660 -10.9130
# 4 -3.8894 8.1828 2.7354 46.7077 -10.5232 2.8816
# 5 18.5692 12.7604 24.4660 -10.5232 33.7134 3.1711
# 6 -15.6293 -12.8652 -10.9130 2.8816 3.1711 37.3948
#
#
#
# Elastic Compliance Matrix: (Units=1/GPa)
#
#
# Indices 1 2 3 4 5 6 
#
# 1 0.019861 0.001451 -0.000990 -0.001907 -0.012278 0.009699
# 2 0.001451 0.009061 -0.000991 -0.002726 -0.004741 0.004046
# 3 -0.000990 -0.000991 0.016823 -0.004196 -0.013123 0.005591
# 4 -0.001907 -0.002726 -0.004196 0.025421 0.013633 -0.006074
# 5 -0.012278 -0.004741 -0.013123 0.013633 0.053520 -0.016181
# 6 0.009699 0.004046 0.005591 -0.006074 -0.016181 0.035660
#
#
# Mechanical properties :
#
#
# Convention : Reuss Voigt Hill
#
# Bulk Modulus (GPa) = 22.37944 43.40991 32.89467
# Shear Modulus (GPa) = 28.36091 38.75604 33.55848
#
# Velocity S-wave (km/s) = 3.55803 4.15929 3.87035
# Velocity P-wave (km/s) = 5.18353 6.51485 5.88695
#
# Compressibility (1/GPa) = 0.04468387
#
# Stress axis : x y z
#
# Youngs Moduli (GPa) = 50.34974 110.36824 59.44414
#
# Poissons Ratio (x) = -0.16011 0.05884
# Poissons Ratio (y) = -0.07304 0.05891
# Poissons Ratio (z) = 0.04984 0.10937
#
# Static dielectric constant tensor:
#      x y z
#    x 4.097410 -0.278330 0.169760 
#    y -0.278330 4.462990 -0.101840 
#    z 0.169760 -0.101840 3.915520 
# 
# 
# High freq. dielectric constant tensor:
#      x y z
#    x 1.884670 -0.004800 0.004480 
#    y -0.004800 1.915230 0.002570 
#    z 0.004480 0.002570 1.872230 
# 
# From -- ./inp_files/242585.got.cif
#   From: 2010.06.25/outbox.cif.g09.slc.cpg/sg2_122_cif.got.tgz:242585.got - 2010.06.27 13:26:56.
