data_PCOD8017493
_publ_section_title
;
Structure prediction by ZEFSAII (Michael W. Deem and Ramdas Pophale) SiO2 
 PCOD8017493
Probable space group: P -1
;
_chemical_formula_sum "Si O2"
_cell_formula_units_Z 16
_cell_length_a 11.467844
_cell_length_b 13.622083
_cell_length_c 8.924832
_cell_angle_alpha 109.344666
_cell_angle_beta 68.517385
_cell_angle_gamma 52.092830
_cell_volume 668.093767
_symmetry_space_group_name_H-M "P -1"
_symmetry_group_IT_number 2
_symmetry_cell_setting 'triclinic'
loop_
_space_group_symop_operation_xyz
x,y,z
-x,-y,-z
loop_
_atom_site_type_symbol
_atom_site_label
_atom_site_fract_x
_atom_site_fract_y
_atom_site_fract_z
Si Si1 0.841685 0.215135 0.518492
Si Si2 0.705337 0.110751 0.690720
Si Si3 0.188804 0.189281 0.599250
Si Si4 0.012747 0.689261 0.927812
Si Si5 0.187023 0.781872 0.805198
Si Si6 0.595435 0.646240 0.610619
Si Si7 0.566553 0.013218 0.129451
Si Si8 0.759356 0.493735 0.766801
O O1 0.714194 0.198743 0.614310
O O2 0.790490 0.278137 0.403152
O O3 0.741371 0.381259 0.747378
O O4 0.113794 0.006670 0.316541
O O5 0.757539 0.970231 0.505663
O O6 0.449469 0.291750 0.966037
O O7 0.418094 0.085968 0.382435
O O8 0.994908 0.366093 0.666611
O O9 0.103992 0.274882 0.849275
O O10 0.103105 0.745858 0.933397
O O11 0.238547 0.462992 0.668665
O O12 0.830307 0.806148 0.937650
O O13 0.427253 0.663134 0.687908
O O14 0.000000 0.000000 0.000000
O O15 0.451847 0.850131 0.809879
O O16 0.773922 0.504469 0.589529
O O17 0.500000 0.000000 0.000000
#
# Coordination Sequence:
#
# PCOD8017493 Si02
#       8
#     2   2   2   2   2   2   2   2
#     4  10  22  39  61 105 142 186 234 282 354 432
#     4  10  22  40  67 100 146 189 230 289 357 414
#     4  11  27  46  71 106 142 188 245 293 350 421
#     4  12  27  48  73 108 147 184 239 300 360 431
#     4  12  23  43  73 104 150 184 230 293 364 429
#     4  12  27  45  75 109 143 193 234 292 366 422
#     4  12  28  51  77 101 141 191 249 299 349 424
#     4  11  23  41  69 102 145 183 237 286 354 427
#
# _framework density 23.948736
#
# number of rings (size 3 to 8) (size 9 to 14) (size 15 to 20)
#    0.000    0.750    2.500    4.125    3.500    5.500 
#    0.000    0.000    0.000    0.000    0.000    0.000 
#    0.000    0.000    0.000    0.000    0.000    0.000 
#
# Total GULP energy -198382.582677 kJ/mol
# GULP energy per Si atom -12398.911417 kJ/mol
# Density = 2.389423 g / cm^3
# Si number density = 23.948736 Si / 1000 Ang^3
#
#
#
# Elastic Constant Matrix: (Units=GPa)
#
#
# Indices 1 2 3 4 5 6 
#
# 1 76.1872 9.9959 16.1893 -4.1688 -9.1692 -14.5624
# 2 9.9959 74.0881 17.3712 -2.5794 -3.0510 -12.9081
# 3 16.1893 17.3712 121.5373 4.8914 -5.9772 -12.1768
# 4 -4.1688 -2.5794 4.8914 39.8739 4.2170 -6.9424
# 5 -9.1692 -3.0510 -5.9772 4.2170 35.8983 0.3298
# 6 -14.5624 -12.9081 -12.1768 -6.9424 0.3298 28.6676
#
#
#
# Elastic Compliance Matrix: (Units=1/GPa)
#
#
# Indices 1 2 3 4 5 6 
#
# 1 0.015467 -0.000199 -0.001188 0.002772 0.003338 0.007895
# 2 -0.000199 0.015137 -0.001534 0.002225 0.000658 0.006595
# 3 -0.001188 -0.001534 0.008928 -0.001053 0.001156 0.002230
# 4 0.002772 0.002225 -0.001053 0.027417 -0.002578 0.008632
# 5 0.003338 0.000658 0.001156 -0.002578 0.029246 0.001522
# 6 0.007895 0.006595 0.002230 0.008632 0.001522 0.044883
#
#
# Mechanical properties :
#
#
# Convention : Reuss Voigt Hill
#
# Bulk Modulus (GPa) = 29.68129 39.88058 34.78094
# Shear Modulus (GPa) = 31.61560 36.10503 33.86032
#
# Velocity S-wave (km/s) = 3.63731 3.88699 3.76422
# Velocity P-wave (km/s) = 5.48276 6.06907 5.78335
#
# Compressibility (1/GPa) = 0.03369125
#
# Stress axis : x y z
#
# Youngs Moduli (GPa) = 64.65565 66.06151 112.00696
#
# Poissons Ratio (x) = 0.01312 0.13309
# Poissons Ratio (y) = 0.01284 0.17177
# Poissons Ratio (z) = 0.07682 0.10131
#
# Static dielectric constant tensor:
#      x y z
#    x 4.307660 -0.068100 0.080020 
#    y -0.068100 4.352380 0.000070 
#    z 0.080020 0.000070 4.600090 
# 
# 
# High freq. dielectric constant tensor:
#      x y z
#    x 1.940880 0.000930 0.000230 
#    y 0.000930 1.952550 0.014940 
#    z 0.000230 0.014940 1.957450 
# 
# From -- ./inp_files/273645.got.cif
#   From: 2010.06.25/outbox.cif.g09.slc.cpg/sg2_137_cif.got.tgz:273645.got - 2010.06.27 13:26:56.
