data_PCOD8017842
_publ_section_title
;
Structure prediction by ZEFSAII (Michael W. Deem and Ramdas Pophale) SiO2 
 PCOD8017842
Probable space group: P -1
;
_chemical_formula_sum "Si O2"
_cell_formula_units_Z 14
_cell_length_a 13.151322
_cell_length_b 24.874024
_cell_length_c 25.251871
_cell_angle_alpha 168.510579
_cell_angle_beta 158.323516
_cell_angle_gamma 21.329581
_cell_volume 582.858789
_symmetry_space_group_name_H-M "P -1"
_symmetry_group_IT_number 2
_symmetry_cell_setting 'triclinic'
loop_
_space_group_symop_operation_xyz
x,y,z
-x,-y,-z
loop_
_atom_site_type_symbol
_atom_site_label
_atom_site_fract_x
_atom_site_fract_y
_atom_site_fract_z
Si Si1 0.295345 0.346128 0.796139
Si Si2 0.371387 0.849388 0.839210
Si Si3 0.566763 0.734839 0.643570
Si Si4 0.995359 0.916233 0.476872
Si Si5 0.855112 0.082260 0.749547
Si Si6 0.945341 0.300745 0.236822
Si Si7 0.647360 0.495668 0.910180
O O1 0.524782 0.240119 0.757671
O O2 0.124607 0.107773 0.477979
O O3 0.043019 0.641509 0.949200
O O4 0.453965 0.393980 0.972777
O O5 0.470338 0.513556 0.574678
O O6 0.034514 0.910940 0.719708
O O7 0.500000 0.000000 0.000000
O O8 0.427601 0.991770 0.057214
O O9 0.311003 0.830367 0.570569
O O10 0.862417 0.660061 0.681917
O O11 0.000000 0.000000 0.500000
O O12 0.774118 0.159501 0.639208
O O13 0.901391 0.632974 0.154731
O O14 0.616204 0.392939 0.148892
O O15 0.000000 0.500000 0.500000
O O16 0.000000 0.000000 0.000000
#
# Coordination Sequence:
#
# PCOD8017842 Si02
#       7
#     2   2   2   2   2   2   2
#     4  10  22  39  66  97 129 179 223 293 340 409
#     4  12  27  44  71 101 147 197 243 285 351 438
#     4  12  27  48  73 106 149 192 240 301 367 428
#     4  12  27  47  71 105 144 186 235 299 367 432
#     4  10  22  41  64  95 139 172 233 282 344 397
#     4  12  26  48  77 108 142 186 241 306 373 436
#     4  12  25  43  74 102 139 180 243 286 358 430
#
# _framework density 24.019541
#
# number of rings (size 3 to 8) (size 9 to 14) (size 15 to 20)
#    0.000    0.571    0.000    7.714    6.000    3.429 
#    0.000    0.000    0.000    0.000    0.000    0.000 
#    0.000    0.000    0.000    0.000    0.000    0.000 
#
# Total GULP energy -173433.564728 kJ/mol
# GULP energy per Si atom -12388.111766 kJ/mol
# Density = 2.396487 g / cm^3
# Si number density = 24.019541 Si / 1000 Ang^3
#
#
#
# Elastic Constant Matrix: (Units=GPa)
#
#
# Indices 1 2 3 4 5 6 
#
# 1 83.3463 -0.6910 23.0951 3.7775 -4.4317 13.8460
# 2 -0.6910 136.8001 46.3794 -6.3728 -13.8728 27.0090
# 3 23.0951 46.3794 155.4915 3.5502 -22.7359 13.5455
# 4 3.7775 -6.3728 3.5502 45.9682 12.0162 -1.0216
# 5 -4.4317 -13.8728 -22.7359 12.0162 43.6605 -4.4585
# 6 13.8460 27.0090 13.5455 -1.0216 -4.4585 36.4075
#
#
#
# Elastic Compliance Matrix: (Units=1/GPa)
#
#
# Indices 1 2 3 4 5 6 
#
# 1 0.013601 0.001898 -0.001964 -0.001000 0.000644 -0.005799
# 2 0.001898 0.009639 -0.002434 0.000947 0.001031 -0.006814
# 3 -0.001964 -0.002434 0.008032 -0.001762 0.003691 -0.000033
# 4 -0.001000 0.000947 -0.001762 0.024019 -0.007317 0.000111
# 5 0.000644 0.001031 0.003691 -0.007317 0.027310 0.000756
# 6 -0.005799 -0.006814 -0.000033 0.000111 0.000756 0.034835
#
#
# Mechanical properties :
#
#
# Convention : Reuss Voigt Hill
#
# Bulk Modulus (GPa) = 38.06402 57.02279 47.54340
# Shear Modulus (GPa) = 38.11157 45.66420 41.88788
#
# Velocity S-wave (km/s) = 3.98765 4.36492 4.18054
# Velocity P-wave (km/s) = 6.08961 7.01392 6.56804
#
# Compressibility (1/GPa) = 0.02627153
#
# Stress axis : x y z
#
# Youngs Moduli (GPa) = 73.52335 103.74709 124.50400
#
# Poissons Ratio (x) = -0.19694 0.24455
# Poissons Ratio (y) = -0.13957 0.30307
# Poissons Ratio (z) = 0.14442 0.25255
#
# Static dielectric constant tensor:
#      x y z
#    x 4.067440 0.074740 0.010930 
#    y 0.074740 4.462200 -0.022460 
#    z 0.010930 -0.022460 5.138700 
# 
# 
# High freq. dielectric constant tensor:
#      x y z
#    x 1.947720 0.011980 -0.006150 
#    y 0.011980 1.961400 0.000860 
#    z -0.006150 0.000860 1.985970 
# 
# From -- ./inp_files/544577.got.cif
#   From: 2010.06.25/outbox.cif.g09.slc.cpg/sg2_273_cif.got.tgz:544577.got - 2010.06.27 13:26:56.
