data_PCOD8017827
_publ_section_title
;
Structure prediction by ZEFSAII (Michael W. Deem and Ramdas Pophale) SiO2 
 PCOD8017827
Probable space group: P -1
;
_chemical_formula_sum "Si O2"
_cell_formula_units_Z 14
_cell_length_a 11.902749
_cell_length_b 9.053036
_cell_length_c 18.121067
_cell_angle_alpha 79.364638
_cell_angle_beta 160.016655
_cell_angle_gamma 102.258263
_cell_volume 651.443030
_symmetry_space_group_name_H-M "P -1"
_symmetry_group_IT_number 2
_symmetry_cell_setting 'triclinic'
loop_
_space_group_symop_operation_xyz
x,y,z
-x,-y,-z
loop_
_atom_site_type_symbol
_atom_site_label
_atom_site_fract_x
_atom_site_fract_y
_atom_site_fract_z
Si Si1 0.652912 0.077897 0.975411
Si Si2 0.234613 0.807716 0.804969
Si Si3 0.213384 0.575256 0.275457
Si Si4 0.480061 0.613676 0.157856
Si Si5 0.818893 0.117062 0.689219
Si Si6 0.310303 0.425428 0.553643
Si Si7 0.852009 0.668941 0.234572
O O1 0.808313 0.158013 0.138586
O O2 0.587376 0.219220 0.870514
O O3 0.904384 0.980632 0.098584
O O4 0.327048 0.965364 0.804540
O O5 0.889232 0.740069 0.562929
O O6 0.508411 0.685040 0.976222
O O7 0.500000 0.500000 0.500000
O O8 0.207321 0.745127 0.284359
O O9 0.330667 0.573651 0.262752
O O10 0.849471 0.483855 0.068002
O O11 0.624956 0.530580 0.324745
O O12 0.766891 0.644569 0.270268
O O13 0.919528 0.175463 0.662319
O O14 0.500000 0.000000 0.500000
O O15 0.073565 0.538513 0.357900
#
# Coordination Sequence:
#
# PCOD8017827 Si02
#       7
#     2   2   2   2   2   2   2
#     4   9  20  38  61  89 124 162 206 261 300 366
#     4   9  19  37  65  90 121 162 217 254 302 357
#     4  12  24  41  66  93 123 169 211 258 307 368
#     4  11  25  41  62  96 133 162 205 256 322 377
#     4  11  22  39  68  94 119 158 221 261 304 361
#     4  12  23  39  64  96 131 165 204 260 316 376
#     4  10  22  39  66  94 123 164 210 265 300 368
#
# _framework density 21.490750999999999
#
# number of rings (size 3 to 8) (size 9 to 14) (size 15 to 20)
#    0.000    1.429    1.429    5.571    4.000    0.571 
#    0.000    0.714    0.000    0.000    0.000    0.000 
#    0.000    0.000    0.000    0.000    0.000    0.000 
#
# Total GULP energy -173459.056454 kJ/mol
# GULP energy per Si atom -12389.932604 kJ/mol
# Density = 2.144184 g / cm^3
# Si number density = 21.490751 Si / 1000 Ang^3
#
#
#
# Elastic Constant Matrix: (Units=GPa)
#
#
# Indices 1 2 3 4 5 6 
#
# 1 95.5472 25.0437 27.5472 5.8412 27.1834 7.1813
# 2 25.0437 110.2085 38.2358 0.4155 18.8991 -5.3399
# 3 27.5472 38.2358 67.3682 9.1642 7.5593 3.5588
# 4 5.8412 0.4155 9.1642 33.1061 -2.8759 16.0295
# 5 27.1834 18.8991 7.5593 -2.8759 30.9880 -3.7833
# 6 7.1813 -5.3399 3.5588 16.0295 -3.7833 36.8405
#
#
#
# Elastic Compliance Matrix: (Units=1/GPa)
#
#
# Indices 1 2 3 4 5 6 
#
# 1 0.015961 0.000176 -0.004801 -0.000912 -0.013463 -0.003608
# 2 0.000176 0.012406 -0.006585 0.000324 -0.005882 0.001655
# 3 -0.004801 -0.006585 0.020869 -0.004764 0.002734 0.000319
# 4 -0.000912 0.000324 -0.004764 0.039881 0.003475 -0.016311
# 5 -0.013463 -0.005882 0.002734 0.003475 0.047924 0.004917
# 6 -0.003608 0.001655 0.000319 -0.016311 0.004917 0.035658
#
#
# Mechanical properties :
#
#
# Convention : Reuss Voigt Hill
#
# Bulk Modulus (GPa) = 37.29076 50.53081 43.91078
# Shear Modulus (GPa) = 24.50296 32.34005 28.42150
#
# Velocity S-wave (km/s) = 3.38029 3.88343 3.64056
# Velocity P-wave (km/s) = 5.71182 6.60847 6.17644
#
# Compressibility (1/GPa) = 0.02681630
#
# Stress axis : x y z
#
# Youngs Moduli (GPa) = 62.65158 80.60720 47.91874
#
# Poissons Ratio (x) = -0.01419 0.23007
# Poissons Ratio (y) = -0.01103 0.31552
# Poissons Ratio (z) = 0.30081 0.53076
#
# Static dielectric constant tensor:
#      x y z
#    x 3.983270 0.110960 0.440770 
#    y 0.110960 4.151780 -0.172760 
#    z 0.440770 -0.172760 3.705080 
# 
# 
# High freq. dielectric constant tensor:
#      x y z
#    x 1.831850 0.007760 0.032450 
#    y 0.007760 1.858720 -0.003560 
#    z 0.032450 -0.003560 1.819490 
# 
# From -- ./inp_files/153866.got.cif
#   From: 2010.06.25/outbox.cif.g09.slc.cpg/sg2_77_cif.got.tgz:153866.got - 2010.06.27 13:26:56.
