data_PCOD8017033
_publ_section_title
;
Structure prediction by ZEFSAII (Michael W. Deem and Ramdas Pophale) SiO2 
 PCOD8017033
Probable space group: P -1
;
_chemical_formula_sum "Si O2"
_cell_formula_units_Z 16
_cell_length_a 11.717925
_cell_length_b 8.642944
_cell_length_c 11.743065
_cell_angle_alpha 127.321349
_cell_angle_beta 72.117086
_cell_angle_gamma 130.760268
_cell_volume 708.567662
_symmetry_space_group_name_H-M "P -1"
_symmetry_group_IT_number 2
_symmetry_cell_setting 'triclinic'
loop_
_space_group_symop_operation_xyz
x,y,z
-x,-y,-z
loop_
_atom_site_type_symbol
_atom_site_label
_atom_site_fract_x
_atom_site_fract_y
_atom_site_fract_z
Si Si1 0.730131 0.069412 0.152449
Si Si2 0.095010 0.784137 0.060509
Si Si3 0.146014 0.138536 0.843046
Si Si4 0.745674 0.839223 0.414123
Si Si5 0.297685 0.977674 0.285897
Si Si6 0.610913 0.359154 0.895136
Si Si7 0.643733 0.399808 0.406761
Si Si8 0.551089 0.276311 0.620999
O O1 0.714638 0.261610 0.300877
O O2 0.856045 0.069723 0.183522
O O3 0.564637 0.802141 0.084798
O O4 0.786844 0.158721 0.047408
O O5 0.193071 0.967962 0.216943
O O6 0.991188 0.856544 0.077822
O O7 0.000000 0.500000 0.000000
O O8 0.131281 0.086784 0.687938
O O9 0.304117 0.395368 0.947653
O O10 0.736833 0.650067 0.419314
O O11 0.595095 0.730740 0.339036
O O12 0.781731 0.062416 0.583674
O O13 0.311723 0.767689 0.154803
O O14 0.465445 0.241839 0.357107
O O15 0.633189 0.403049 0.771554
O O16 0.660782 0.446651 0.558669
O O17 0.500000 0.000000 0.500000
#
# Coordination Sequence:
#
# PCOD8017033 Si02
#       8
#     2   2   2   2   2   2   2   2
#     4  11  24  42  65  96 131 168 219 270 323 378
#     4  12  26  45  64  91 137 178 214 264 321 391
#     4  12  25  42  66  98 131 174 216 266 323 391
#     4  11  22  39  66 100 131 164 219 264 330 384
#     4  10  22  40  66  94 130 171 210 267 322 380
#     4  11  22  39  70 101 126 168 216 272 328 380
#     4  10  22  37  66 103 128 167 213 273 325 382
#     4  11  17  36  61  97 132 159 201 273 327 372
#
# _framework density 22.580763999999999
#
# number of rings (size 3 to 8) (size 9 to 14) (size 15 to 20)
#    0.000    1.000    6.250    3.000    1.750    2.500 
#    0.000    0.000    0.000    2.250    0.000    0.000 
#    0.000    0.000    0.000    0.000    0.000    0.000 
#
# Total GULP energy -198355.921194 kJ/mol
# GULP energy per Si atom -12397.245075 kJ/mol
# Density = 2.252937 g / cm^3
# Si number density = 22.580764 Si / 1000 Ang^3
#
#
#
# Elastic Constant Matrix: (Units=GPa)
#
#
# Indices 1 2 3 4 5 6 
#
# 1 109.9555 17.7674 21.6480 -0.4757 1.2050 -4.3150
# 2 17.7674 58.5155 29.3564 -20.8785 11.3957 -5.2842
# 3 21.6480 29.3564 111.6898 -28.1492 7.5690 15.4964
# 4 -0.4757 -20.8785 -28.1492 31.1332 -9.5467 -6.0246
# 5 1.2050 11.3957 7.5690 -9.5467 30.2429 -9.7200
# 6 -4.3150 -5.2842 15.4964 -6.0246 -9.7200 20.4578
#
#
#
# Elastic Compliance Matrix: (Units=1/GPa)
#
#
# Indices 1 2 3 4 5 6 
#
# 1 0.010142 -0.002916 -0.002472 -0.003059 0.001304 0.002977
# 2 -0.002916 0.027876 -0.004535 0.018201 0.001695 0.016185
# 3 -0.002472 -0.004535 0.014152 0.006163 -0.003771 -0.012390
# 4 -0.003059 0.018201 0.006163 0.060995 0.019534 0.026631
# 5 0.001304 0.001695 -0.003771 0.019534 0.050138 0.033144
# 6 0.002977 0.016185 -0.012390 0.026631 0.033144 0.086665
#
#
# Mechanical properties :
#
#
# Convention : Reuss Voigt Hill
#
# Bulk Modulus (GPa) = 30.93680 46.41160 38.67420
# Shear Modulus (GPa) = 17.81978 30.45939 24.13958
#
# Velocity S-wave (km/s) = 2.81224 3.67673 3.27315
# Velocity P-wave (km/s) = 4.92699 6.21472 5.60794
#
# Compressibility (1/GPa) = 0.03232397
#
# Stress axis : x y z
#
# Youngs Moduli (GPa) = 98.60252 35.87347 70.66044
#
# Poissons Ratio (x) = 0.10461 0.17465
# Poissons Ratio (y) = 0.28755 0.32044
# Poissons Ratio (z) = 0.24372 0.16268
#
# Static dielectric constant tensor:
#      x y z
#    x 4.165700 -0.254820 -0.081790 
#    y -0.254820 3.807130 -0.184390 
#    z -0.081790 -0.184390 4.215680 
# 
# 
# High freq. dielectric constant tensor:
#      x y z
#    x 1.900050 -0.026840 -0.014430 
#    y -0.026840 1.853610 -0.015660 
#    z -0.014430 -0.015660 1.904770 
# 
# From -- ./inp_files/244385.got.cif
#   From: 2010.06.25/outbox.cif.g09.slc.cpg/sg2_123_cif.got.tgz:244385.got - 2010.06.27 13:26:56.
