data_PCOD8017707
_publ_section_title
;
Structure prediction by ZEFSAII (Michael W. Deem and Ramdas Pophale) SiO2 
 PCOD8017707
Probable space group: P -1
;
_chemical_formula_sum "Si O2"
_cell_formula_units_Z 16
_cell_length_a 12.004386
_cell_length_b 17.801507
_cell_length_c 16.761345
_cell_angle_alpha 22.161967
_cell_angle_beta 144.162200
_cell_angle_gamma 144.095986
_cell_volume 762.132764
_symmetry_space_group_name_H-M "P -1"
_symmetry_group_IT_number 2
_symmetry_cell_setting 'triclinic'
loop_
_space_group_symop_operation_xyz
x,y,z
-x,-y,-z
loop_
_atom_site_type_symbol
_atom_site_label
_atom_site_fract_x
_atom_site_fract_y
_atom_site_fract_z
Si Si1 0.881259 0.142337 0.082379
Si Si2 0.691052 0.575433 0.930651
Si Si3 0.538163 0.504916 0.276271
Si Si4 0.829947 0.361047 0.686381
Si Si5 0.548463 0.806874 0.757786
Si Si6 0.622014 0.343639 0.818103
Si Si7 0.132877 0.196567 0.928968
Si Si8 0.795099 0.688454 0.462328
O O1 0.788022 0.176701 0.908391
O O2 0.728650 0.160011 0.046939
O O3 0.077552 0.327034 0.026712
O O4 0.929970 0.920356 0.330657
O O5 0.611169 0.618670 0.755142
O O6 0.574373 0.670879 0.832384
O O7 0.632245 0.328007 0.159456
O O8 0.626294 0.344557 0.536127
O O9 0.411978 0.620835 0.143816
O O10 0.721903 0.672376 0.180710
O O11 0.888378 0.582947 0.548343
O O12 0.003548 0.341636 0.747064
O O13 0.500000 0.000000 0.500000
O O14 0.747609 0.875541 0.858980
O O15 0.769727 0.550216 0.662865
O O16 0.416534 0.282391 0.712778
O O17 0.000000 0.000000 0.000000
#
# Coordination Sequence:
#
# PCOD8017707 Si02
#       8
#     2   2   2   2   2   2   2   2
#     4  11  21  39  68  92 122 167 219 257 295 383
#     4  10  23  42  59  93 126 167 211 245 316 376
#     4  10  23  42  59  89 139 163 194 267 317 361
#     4  10  22  39  64  93 126 160 208 263 305 373
#     4  10  23  43  63  87 130 168 204 256 313 377
#     4   9  20  38  61  93 123 164 208 263 311 364
#     4  11  24  40  65 100 120 163 213 254 320 374
#     4   9  20  39  63  93 124 164 209 261 319 353
#
# _framework density 20.993718000000001
#
# number of rings (size 3 to 8) (size 9 to 14) (size 15 to 20)
#    0.000    2.000    1.250    1.500    5.250    3.500 
#    0.000    0.625    0.000    0.000    0.000    0.000 
#    0.000    0.000    0.000    0.000    0.000    0.000 
#
# Total GULP energy -198353.511900 kJ/mol
# GULP energy per Si atom -12397.094494 kJ/mol
# Density = 2.094594 g / cm^3
# Si number density = 20.993718 Si / 1000 Ang^3
#
#
#
# Elastic Constant Matrix: (Units=GPa)
#
#
# Indices 1 2 3 4 5 6 
#
# 1 144.3110 39.2372 41.3712 -4.9722 20.2126 -16.1354
# 2 39.2372 80.3889 42.2661 -3.3802 -0.4704 -15.6176
# 3 41.3712 42.2661 106.3182 -5.7297 11.8286 -5.1695
# 4 -4.9722 -3.3802 -5.7297 29.2262 -6.7510 -6.3105
# 5 20.2126 -0.4704 11.8286 -6.7510 31.8153 2.5959
# 6 -16.1354 -15.6176 -5.1695 -6.3105 2.5959 28.7218
#
#
#
# Elastic Compliance Matrix: (Units=1/GPa)
#
#
# Indices 1 2 3 4 5 6 
#
# 1 0.009476 -0.002991 -0.001644 0.000502 -0.005675 0.004024
# 2 -0.002991 0.018874 -0.006300 0.003162 0.004562 0.007731
# 3 -0.001644 -0.006300 0.012894 0.000327 -0.003640 -0.001628
# 4 0.000502 0.003162 0.000327 0.038474 0.006964 0.009884
# 5 -0.005675 0.004562 -0.003640 0.006964 0.038203 -0.003286
# 6 0.004024 0.007731 -0.001628 0.009884 -0.003286 0.043457
#
#
# Mechanical properties :
#
#
# Convention : Reuss Voigt Hill
#
# Bulk Modulus (GPa) = 51.62078 64.08525 57.85302
# Shear Modulus (GPa) = 26.35657 31.82890 29.09273
#
# Velocity S-wave (km/s) = 3.54708 3.89796 3.72665
# Velocity P-wave (km/s) = 6.43566 7.13098 6.79223
#
# Compressibility (1/GPa) = 0.01937204
#
# Stress axis : x y z
#
# Youngs Moduli (GPa) = 105.52704 52.98431 77.55736
#
# Poissons Ratio (x) = 0.15848 0.12752
# Poissons Ratio (y) = 0.31563 0.48864
# Poissons Ratio (z) = 0.17351 0.33382
#
# Static dielectric constant tensor:
#      x y z
#    x 4.002370 -0.015330 -0.086760 
#    y -0.015330 3.834920 -0.115520 
#    z -0.086760 -0.115520 3.965230 
# 
# 
# High freq. dielectric constant tensor:
#      x y z
#    x 1.831000 -0.003560 0.006400 
#    y -0.003560 1.804200 0.002150 
#    z 0.006400 0.002150 1.812950 
# 
# From -- ./inp_files/570300.got.cif
#   From: 2010.06.25/outbox.cif.g09.slc.cpg/sg2_286_cif.got.tgz:570300.got - 2010.06.27 13:26:56.
