data_PCOD8017914
_publ_section_title
;
Structure prediction by ZEFSAII (Michael W. Deem and Ramdas Pophale) SiO2 
 PCOD8017914
Probable space group: P -1
;
_chemical_formula_sum "Si O2"
_cell_formula_units_Z 10
_cell_length_a 8.286608
_cell_length_b 9.487961
_cell_length_c 9.483160
_cell_angle_alpha 61.614734
_cell_angle_beta 117.959274
_cell_angle_gamma 77.202646
_cell_volume 475.299903
_symmetry_space_group_name_H-M "P -1"
_symmetry_group_IT_number 2
_symmetry_cell_setting 'triclinic'
loop_
_space_group_symop_operation_xyz
x,y,z
-x,-y,-z
loop_
_atom_site_type_symbol
_atom_site_label
_atom_site_fract_x
_atom_site_fract_y
_atom_site_fract_z
Si Si1 0.759880 0.339040 0.704885
Si Si2 0.428934 0.083872 0.087923
Si Si3 0.129192 0.095825 0.472977
Si Si4 0.958685 0.507154 0.316121
Si Si5 0.884728 0.961397 0.820969
O O1 0.500000 0.500000 0.500000
O O2 0.862780 0.463379 0.692487
O O3 0.846425 0.174218 0.695343
O O4 0.855704 0.206655 0.951026
O O5 0.281609 0.021101 0.133701
O O6 0.638761 0.019881 0.298118
O O7 0.290005 0.316769 0.908933
O O8 0.500000 0.000000 0.000000
O O9 0.982959 0.317790 0.357624
O O10 0.172418 0.089235 0.327071
O O11 0.000000 0.000000 0.500000
O O12 0.000000 0.500000 0.500000
#
# Coordination Sequence:
#
# PCOD8017914 Si02
#       5
#     2   2   2   2   2
#     4  10  22  39  68  95 128 172 214 264 332 387
#     4  11  24  43  70  92 133 179 213 267 328 387
#     4  12  26  42  67  98 136 167 221 279 322 378
#     4  11  23  41  66  95 129 174 219 260 330 394
#     4  10  24  42  64 100 133 166 221 271 322 389
#
# _framework density 21.039348
#
# number of rings (size 3 to 8) (size 9 to 14) (size 15 to 20)
#    0.000    1.200    2.000    3.000    5.600    5.600 
#    0.000    0.000    0.000    0.000    0.000    0.000 
#    0.000    0.000    0.000    0.000    0.000    0.000 
#
# Total GULP energy -123934.649156 kJ/mol
# GULP energy per Si atom -12393.464916 kJ/mol
# Density = 2.099146 g / cm^3
# Si number density = 21.039348 Si / 1000 Ang^3
#
#
#
# Elastic Constant Matrix: (Units=GPa)
#
#
# Indices 1 2 3 4 5 6 
#
# 1 87.6380 53.3419 49.8377 -5.5836 4.0990 1.5678
# 2 53.3419 180.2597 86.4812 -2.8153 -3.0068 7.6031
# 3 49.8377 86.4812 194.6138 -4.1437 33.8525 -11.0636
# 4 -5.5836 -2.8153 -4.1437 55.0027 -5.7000 -9.3542
# 5 4.0990 -3.0068 33.8525 -5.7000 40.8339 1.4311
# 6 1.5678 7.6031 -11.0636 -9.3542 1.4311 35.6558
#
#
#
# Elastic Compliance Matrix: (Units=1/GPa)
#
#
# Indices 1 2 3 4 5 6 
#
# 1 0.014790 -0.003137 -0.002487 0.001126 0.000520 -0.000479
# 2 -0.003137 0.008561 -0.003929 -0.000269 0.004276 -0.003149
# 3 -0.002487 -0.003929 0.009099 0.000133 -0.007709 0.004115
# 4 0.001126 -0.000269 0.000133 0.019386 0.002286 0.005043
# 5 0.000520 0.004276 -0.007709 0.002286 0.031602 -0.003995
# 6 -0.000479 -0.003149 0.004115 0.005043 -0.003995 0.031499
#
#
# Mechanical properties :
#
#
# Convention : Reuss Voigt Hill
#
# Bulk Modulus (GPa) = 74.94552 93.53702 84.24127
# Shear Modulus (GPa) = 36.10306 44.48853 40.29579
#
# Velocity S-wave (km/s) = 4.14693 4.60340 4.38111
# Velocity P-wave (km/s) = 7.65691 8.53286 8.10673
#
# Compressibility (1/GPa) = 0.01334303
#
# Stress axis : x y z
#
# Youngs Moduli (GPa) = 67.61154 116.80973 109.90011
#
# Poissons Ratio (x) = 0.36642 0.27336
# Poissons Ratio (y) = 0.21209 0.43184
# Poissons Ratio (z) = 0.16818 0.45899
#
# Static dielectric constant tensor:
#      x y z
#    x 3.841330 0.203270 0.077290 
#    y 0.203270 4.113100 -0.037590 
#    z 0.077290 -0.037590 4.227480 
# 
# 
# High freq. dielectric constant tensor:
#      x y z
#    x 1.814600 0.012520 0.003750 
#    y 0.012520 1.828910 -0.005820 
#    z 0.003750 -0.005820 1.849210 
# 
# From -- ./inp_files/17324.got.cif
#   From: 2010.06.25/outbox.cif.g09.slc.cpg/sg2_9_cif.got.tgz:17324.got - 2010.06.27 13:26:56.
