data_PCOD8017286
_publ_section_title
;
Structure prediction by ZEFSAII (Michael W. Deem and Ramdas Pophale) SiO2 
 PCOD8017286
Probable space group: P -1
;
_chemical_formula_sum "Si O2"
_cell_formula_units_Z 16
_cell_length_a 14.358103
_cell_length_b 9.660930
_cell_length_c 9.807294
_cell_angle_alpha 41.028124
_cell_angle_beta 113.280576
_cell_angle_gamma 89.881224
_cell_volume 711.382899
_symmetry_space_group_name_H-M "P -1"
_symmetry_group_IT_number 2
_symmetry_cell_setting 'triclinic'
loop_
_space_group_symop_operation_xyz
x,y,z
-x,-y,-z
loop_
_atom_site_type_symbol
_atom_site_label
_atom_site_fract_x
_atom_site_fract_y
_atom_site_fract_z
Si Si1 0.169637 0.067809 0.391622
Si Si2 0.261073 0.383248 0.735540
Si Si3 0.960234 0.108375 0.745766
Si Si4 0.847979 0.041556 0.249873
Si Si5 0.373152 0.536585 0.904144
Si Si6 0.385134 0.369440 0.559168
Si Si7 0.349084 0.876547 0.108538
Si Si8 0.731894 0.581476 0.824314
O O1 0.199283 0.274276 0.213389
O O2 0.092945 0.041882 0.247578
O O3 0.105605 0.120427 0.464472
O O4 0.288853 0.819612 0.667497
O O5 0.129642 0.602603 0.514042
O O6 0.350675 0.443296 0.818628
O O7 0.299563 0.334214 0.636465
O O8 0.279667 0.117743 0.986323
O O9 0.066009 0.087695 0.731511
O O10 0.000000 0.000000 0.000000
O O11 0.720708 0.083403 0.103325
O O12 0.835701 0.304301 0.073544
O O13 0.500000 0.500000 0.000000
O O14 0.352844 0.386066 0.122829
O O15 0.357891 0.645286 0.363745
O O16 0.520418 0.177995 0.809804
O O17 0.352910 0.320987 0.426808
#
# Coordination Sequence:
#
# PCOD8017286 Si02
#       8
#     2   2   2   2   2   2   2   2
#     4  10  23  43  67  91 126 176 218 262 325 389
#     4  11  24  41  64  93 130 173 212 262 332 384
#     4  11  24  44  65  97 132 170 222 283 324 374
#     4  10  22  42  66  93 130 168 224 270 315 384
#     4  10  25  39  60  96 138 165 207 265 326 394
#     4  10  22  39  66  96 130 166 218 262 312 394
#     4  10  22  38  65  96 126 170 215 262 317 387
#     4  10  22  42  64  96 128 172 217 259 326 391
#
# _framework density 22.491403999999999
#
# number of rings (size 3 to 8) (size 9 to 14) (size 15 to 20)
#    0.000    1.750    0.000    3.000    8.750    4.500 
#    0.000    3.750    0.000    0.000    0.000    0.000 
#    0.000    0.000    0.000    0.000    0.000    0.000 
#
# Total GULP energy -198391.217337 kJ/mol
# GULP energy per Si atom -12399.451084 kJ/mol
# Density = 2.244021 g / cm^3
# Si number density = 22.491404 Si / 1000 Ang^3
#
#
#
# Elastic Constant Matrix: (Units=GPa)
#
#
# Indices 1 2 3 4 5 6 
#
# 1 107.0635 42.8105 52.1892 7.8735 -2.1034 -9.5282
# 2 42.8105 101.9251 60.4855 -2.1157 -2.5299 0.0734
# 3 52.1892 60.4855 95.2384 6.0466 7.6825 0.5074
# 4 7.8735 -2.1157 6.0466 45.3839 1.7238 -8.4502
# 5 -2.1034 -2.5299 7.6825 1.7238 32.3191 2.3150
# 6 -9.5282 0.0734 0.5074 -8.4502 2.3150 38.9137
#
#
#
# Elastic Compliance Matrix: (Units=1/GPa)
#
#
# Indices 1 2 3 4 5 6 
#
# 1 0.013594 -0.001918 -0.006345 -0.001114 0.002084 0.003049
# 2 -0.001918 0.016651 -0.009945 0.002289 0.003426 -0.000078
# 3 -0.006345 -0.009945 0.020925 -0.002290 -0.005903 -0.001954
# 4 -0.001114 0.002289 -0.002290 0.023594 -0.000961 0.004934
# 5 0.002084 0.003426 -0.005903 -0.000961 0.032913 -0.001586
# 6 0.003049 -0.000078 -0.001954 0.004934 -0.001586 0.027636
#
#
# Mechanical properties :
#
#
# Convention : Reuss Voigt Hill
#
# Bulk Modulus (GPa) = 67.77850 68.35527 68.06689
# Shear Modulus (GPa) = 28.30469 33.23947 30.77208
#
# Velocity S-wave (km/s) = 3.55134 3.84848 3.70289
# Velocity P-wave (km/s) = 6.85687 7.08558 6.97217
#
# Compressibility (1/GPa) = 0.01475394
#
# Stress axis : x y z
#
# Youngs Moduli (GPa) = 73.55986 60.05529 47.78952
#
# Poissons Ratio (x) = 0.11520 0.30322
# Poissons Ratio (y) = 0.14111 0.47528
# Poissons Ratio (z) = 0.46673 0.59727
#
# Static dielectric constant tensor:
#      x y z
#    x 3.905400 -0.007140 -0.039640 
#    y -0.007140 4.235000 -0.024160 
#    z -0.039640 -0.024160 4.098880 
# 
# 
# High freq. dielectric constant tensor:
#      x y z
#    x 1.880960 0.008140 0.000880 
#    y 0.008140 1.895290 0.000250 
#    z 0.000880 0.000250 1.885560 
# 
# From -- ./inp_files/297520.got.cif
#   From: 2010.06.25/outbox.cif.g09.slc.cpg/sg2_149_cif.got.tgz:297520.got - 2010.06.27 13:26:56.
