data_PCOD8017245
_publ_section_title
;
Structure prediction by ZEFSAII (Michael W. Deem and Ramdas Pophale) SiO2 
 PCOD8017245
Probable space group: P -1
;
_chemical_formula_sum "Si O2"
_cell_formula_units_Z 14
_cell_length_a 13.948964
_cell_length_b 11.629557
_cell_length_c 16.856004
_cell_angle_alpha 40.028284
_cell_angle_beta 21.169744
_cell_angle_gamma 40.235234
_cell_volume 620.610300
_symmetry_space_group_name_H-M "P -1"
_symmetry_group_IT_number 2
_symmetry_cell_setting 'triclinic'
loop_
_space_group_symop_operation_xyz
x,y,z
-x,-y,-z
loop_
_atom_site_type_symbol
_atom_site_label
_atom_site_fract_x
_atom_site_fract_y
_atom_site_fract_z
Si Si1 0.111490 0.214887 0.346577
Si Si2 0.529543 0.689925 0.415628
Si Si3 0.197659 0.093301 0.625056
Si Si4 0.050385 0.112978 0.279610
Si Si5 0.073041 0.380211 0.709649
Si Si6 0.740957 0.143411 0.157081
Si Si7 0.312472 0.029591 0.968658
O O1 0.066736 0.249483 0.267974
O O2 0.015260 0.409863 0.359763
O O3 0.923147 0.085765 0.595366
O O4 0.421700 0.122646 0.173693
O O5 0.500000 0.500000 0.500000
O O6 0.229796 0.816766 0.589650
O O7 0.666572 0.657929 0.412981
O O8 0.708880 0.798052 0.164921
O O9 0.136481 0.264209 0.642203
O O10 0.447748 0.119951 0.359774
O O11 0.286638 0.899460 0.705805
O O12 0.930845 0.080342 0.789547
O O13 0.298440 0.104722 0.030505
O O14 0.806468 0.338899 0.983397
O O15 0.000000 0.000000 0.000000
#
# Coordination Sequence:
#
# PCOD8017245 Si02
#       7
#     2   2   2   2   2   2   2
#     4  10  23  44  61  90 129 176 210 263 318 373
#     4  11  23  41  65 100 128 163 215 269 320 369
#     4  10  22  38  63  97 126 168 209 257 325 379
#     4  10  23  42  65  87 129 172 218 259 316 381
#     4  11  22  40  65  94 134 164 208 267 318 378
#     4   9  20  37  60  90 128 161 204 255 314 371
#     4  11  24  41  67  94 127 172 215 258 320 386
#
# _framework density 22.558440999999998
#
# number of rings (size 3 to 8) (size 9 to 14) (size 15 to 20)
#    0.000    1.714    2.857    0.429    6.000    3.429 
#    2.571    1.429    0.000    0.000    0.000    0.000 
#    0.000    0.000    0.000    0.000    0.000    0.000 
#
# Total GULP energy -173518.183390 kJ/mol
# GULP energy per Si atom -12394.155956 kJ/mol
# Density = 2.250710 g / cm^3
# Si number density = 22.558441 Si / 1000 Ang^3
#
#
#
# Elastic Constant Matrix: (Units=GPa)
#
#
# Indices 1 2 3 4 5 6 
#
# 1 54.9691 17.2537 17.8504 2.7120 -3.8057 3.8270
# 2 17.2537 106.8584 33.0247 -6.1504 4.9339 1.1109
# 3 17.8504 33.0247 104.5489 3.9389 -12.8774 3.0007
# 4 2.7120 -6.1504 3.9389 23.0994 5.8759 -2.7073
# 5 -3.8057 4.9339 -12.8774 5.8759 35.9130 2.3417
# 6 3.8270 1.1109 3.0007 -2.7073 2.3417 27.9985
#
#
#
# Elastic Compliance Matrix: (Units=1/GPa)
#
#
# Indices 1 2 3 4 5 6 
#
# 1 0.020363 -0.002999 -0.001962 -0.003901 0.002704 -0.003058
# 2 -0.002999 0.011534 -0.003890 0.005312 -0.004247 0.001238
# 3 -0.001962 -0.003890 0.012022 -0.004455 0.005481 -0.001755
# 4 -0.003901 0.005312 -0.004455 0.049557 -0.011275 0.006535
# 5 0.002704 -0.004247 0.005481 -0.011275 0.032827 -0.004624
# 6 -0.003058 0.001238 -0.001755 0.006535 -0.004624 0.037292
#
#
# Mechanical properties :
#
#
# Convention : Reuss Voigt Hill
#
# Bulk Modulus (GPa) = 38.14310 44.73709 41.44010
# Shear Modulus (GPa) = 26.31105 30.61868 28.46486
#
# Velocity S-wave (km/s) = 3.41889 3.68816 3.55607
# Velocity P-wave (km/s) = 5.70354 6.16534 5.93893
#
# Compressibility (1/GPa) = 0.02621706
#
# Stress axis : x y z
#
# Youngs Moduli (GPa) = 49.10875 86.70341 83.18221
#
# Poissons Ratio (x) = 0.26005 0.16316
# Poissons Ratio (y) = 0.14729 0.32357
# Poissons Ratio (z) = 0.09633 0.33727
#
# Static dielectric constant tensor:
#      x y z
#    x 3.985740 -0.004660 -0.036950 
#    y -0.004660 3.918740 -0.190530 
#    z -0.036950 -0.190530 4.582530 
# 
# 
# High freq. dielectric constant tensor:
#      x y z
#    x 1.880430 0.003670 -0.006370 
#    y 0.003670 1.872490 0.003220 
#    z -0.006370 0.003220 1.898730 
# 
# From -- ./inp_files/68659.got.cif
#   From: 2010.06.25/outbox.cif.g09.slc.cpg/sg2_35_cif.got.tgz:68659.got - 2010.06.27 13:26:56.
