data_PCOD8017505
_publ_section_title
;
Structure prediction by ZEFSAII (Michael W. Deem and Ramdas Pophale) SiO2 
 PCOD8017505
Probable space group: P -1
;
_chemical_formula_sum "Si O2"
_cell_formula_units_Z 16
_cell_length_a 17.651728
_cell_length_b 24.893397
_cell_length_c 24.573333
_cell_angle_alpha 168.526998
_cell_angle_beta 20.931562
_cell_angle_gamma 159.215808
_cell_volume 737.590691
_symmetry_space_group_name_H-M "P -1"
_symmetry_group_IT_number 2
_symmetry_cell_setting 'triclinic'
loop_
_space_group_symop_operation_xyz
x,y,z
-x,-y,-z
loop_
_atom_site_type_symbol
_atom_site_label
_atom_site_fract_x
_atom_site_fract_y
_atom_site_fract_z
Si Si1 0.673500 0.629571 0.155884
Si Si2 0.161651 0.219415 0.572489
Si Si3 0.926148 0.227415 0.626859
Si Si4 0.796246 0.035822 0.065291
Si Si5 0.796952 0.674468 0.558303
Si Si6 0.034114 0.256414 0.024399
Si Si7 0.214819 0.487577 0.375450
Si Si8 0.569990 0.197820 0.011075
O O1 0.731662 0.606427 0.028288
O O2 0.410568 0.551474 0.262860
O O3 0.793841 0.924064 0.393910
O O4 0.752042 0.406474 0.917676
O O5 0.230342 0.523707 0.858899
O O6 0.016101 0.232465 0.631285
O O7 0.000000 0.000000 0.500000
O O8 0.362791 0.076639 0.285439
O O9 0.144575 0.380556 0.597332
O O10 0.727805 0.284167 0.388434
O O11 0.022751 0.161816 0.002048
O O12 0.835358 0.819613 0.869017
O O13 0.594880 0.882187 0.008520
O O14 0.543907 0.672372 0.734111
O O15 0.939101 0.986860 0.784656
O O16 0.872025 0.457823 0.332151
O O17 0.000000 0.500000 0.500000
#
# Coordination Sequence:
#
# PCOD8017505 Si02
#       8
#     2   2   2   2   2   2   2   2
#     4  10  22  41  66  87 127 167 205 249 318 373
#     4  12  26  37  53  88 133 160 217 254 288 360
#     4  10  22  39  61  88 121 169 203 256 307 355
#     4  11  23  42  69  90 125 167 206 252 316 373
#     4   9  18  36  61  86 116 154 219 255 298 355
#     4   9  18  38  62  94 117 159 212 253 295 379
#     4  12  26  43  66 100 126 156 205 259 309 384
#     4  11  23  40  60  87 118 168 206 259 303 352
#
# _framework density 21.692246999999998
#
# number of rings (size 3 to 8) (size 9 to 14) (size 15 to 20)
#    0.000    1.500    0.000    6.000    5.250    1.000 
#    0.000    1.250    0.000    0.000    0.000    0.000 
#    0.000    0.000    0.000    0.000    0.000    0.000 
#
# Total GULP energy -198234.318398 kJ/mol
# GULP energy per Si atom -12389.644900 kJ/mol
# Density = 2.164287 g / cm^3
# Si number density = 21.692247 Si / 1000 Ang^3
#
#
#
# Elastic Constant Matrix: (Units=GPa)
#
#
# Indices 1 2 3 4 5 6 
#
# 1 58.9281 50.2694 12.6623 -5.4728 -8.0141 -15.8080
# 2 50.2694 103.4058 24.4889 -17.3584 -7.3309 -16.0570
# 3 12.6623 24.4889 115.7450 7.5254 -7.8490 3.3088
# 4 -5.4728 -17.3584 7.5254 35.8550 -5.4084 -0.6850
# 5 -8.0141 -7.3309 -7.8490 -5.4084 32.5464 0.5830
# 6 -15.8080 -16.0570 3.3088 -0.6850 0.5830 35.9374
#
#
#
# Elastic Compliance Matrix: (Units=1/GPa)
#
#
# Indices 1 2 3 4 5 6 
#
# 1 0.031387 -0.013886 -0.000357 -0.001079 0.004201 0.007546
# 2 -0.013886 0.019005 -0.003005 0.007979 0.001413 0.002790
# 3 -0.000357 -0.003005 0.009679 -0.003430 0.001044 -0.002473
# 4 -0.001079 0.007979 -0.003430 0.033314 0.006170 0.003941
# 5 0.004201 0.001413 0.001044 0.006170 0.033320 0.001960
# 6 0.007546 0.002790 -0.002473 0.003941 0.001960 0.032663
#
#
# Mechanical properties :
#
#
# Convention : Reuss Voigt Hill
#
# Bulk Modulus (GPa) = 39.09656 50.32445 44.71051
# Shear Modulus (GPa) = 24.70509 33.57830 29.14169
#
# Velocity S-wave (km/s) = 3.37841 3.93866 3.66924
# Velocity P-wave (km/s) = 5.76893 6.62825 6.21346
#
# Compressibility (1/GPa) = 0.02557770
#
# Stress axis : x y z
#
# Youngs Moduli (GPa) = 31.86015 52.61734 103.31743
#
# Poissons Ratio (x) = 0.73062 0.03684
# Poissons Ratio (y) = 0.44239 0.31043
# Poissons Ratio (z) = 0.01136 0.15810
#
# Static dielectric constant tensor:
#      x y z
#    x 3.623210 -0.463060 0.195260 
#    y -0.463060 4.175400 -0.126160 
#    z 0.195260 -0.126160 4.100810 
# 
# 
# High freq. dielectric constant tensor:
#      x y z
#    x 1.823550 -0.033410 0.001050 
#    y -0.033410 1.852550 0.005310 
#    z 0.001050 0.005310 1.881020 
# 
# From -- ./inp_files/534433.got.cif
#   From: 2010.06.25/outbox.cif.g09.slc.cpg/sg2_268_cif.got.tgz:534433.got - 2010.06.27 13:26:56.
