data_PCOD8017446
_publ_section_title
;
Structure prediction by ZEFSAII (Michael W. Deem and Ramdas Pophale) SiO2 
 PCOD8017446
Probable space group: P -1
;
_chemical_formula_sum "Si O2"
_cell_formula_units_Z 16
_cell_length_a 9.154387
_cell_length_b 6.582294
_cell_length_c 25.175351
_cell_angle_alpha 137.019301
_cell_angle_beta 133.882183
_cell_angle_gamma 58.116561
_cell_volume 744.737731
_symmetry_space_group_name_H-M "P -1"
_symmetry_group_IT_number 2
_symmetry_cell_setting 'triclinic'
loop_
_space_group_symop_operation_xyz
x,y,z
-x,-y,-z
loop_
_atom_site_type_symbol
_atom_site_label
_atom_site_fract_x
_atom_site_fract_y
_atom_site_fract_z
Si Si1 0.536713 0.670428 0.883775
Si Si2 0.354349 0.311502 0.963137
Si Si3 0.949780 0.322334 0.401303
Si Si4 0.615522 0.949116 0.292761
Si Si5 0.680995 0.565169 0.726535
Si Si6 0.724948 0.087210 0.569487
Si Si7 0.067365 0.334203 0.089348
Si Si8 0.685401 0.825473 0.401200
O O1 0.393679 0.404328 0.782528
O O2 0.746393 0.623610 0.895426
O O3 0.401987 0.968641 0.891766
O O4 0.586546 0.654520 0.954818
O O5 0.118775 0.423043 0.919484
O O6 0.500000 0.500000 0.000000
O O7 0.854623 0.557622 0.379897
O O8 0.000000 0.500000 0.500000
O O9 0.798217 0.060729 0.325704
O O10 0.155977 0.141584 0.403144
O O11 0.647452 0.024818 0.377656
O O12 0.410625 0.110684 0.250139
O O13 0.765171 0.418514 0.664429
O O14 0.860133 0.616622 0.822794
O O15 0.517572 0.338894 0.664415
O O16 0.500000 0.000000 0.500000
O O17 0.777462 0.039903 0.511044
O O18 0.000000 0.000000 0.000000
#
# Coordination Sequence:
#
# PCOD8017446 Si02
#       8
#     2   2   2   2   2   2   2   2
#     4  11  25  45  67 101 135 175 230 274 329 407
#     4  11  25  45  70  99 134 179 222 278 339 398
#     4   9  20  38  61  88 121 166 212 263 328 389
#     4  11  22  39  65  91 127 168 216 269 322 400
#     4  10  22  39  59  93 125 164 213 263 328 388
#     4   9  19  38  60  87 124 162 208 267 315 391
#     4  12  23  44  72  95 136 185 214 276 344 394
#     4   9  19  39  63  85 122 166 211 259 329 376
#
# _framework density 21.484072999999999
#
# number of rings (size 3 to 8) (size 9 to 14) (size 15 to 20)
#    0.000    1.750    2.500    1.875    0.000    4.500 
#    2.250    2.500    0.000    0.000    0.000    0.000 
#    0.000    0.000    0.000    0.000    0.000    0.000 
#
# Total GULP energy -198236.882146 kJ/mol
# GULP energy per Si atom -12389.805134 kJ/mol
# Density = 2.143517 g / cm^3
# Si number density = 21.484073 Si / 1000 Ang^3
#
#
#
# Elastic Constant Matrix: (Units=GPa)
#
#
# Indices 1 2 3 4 5 6 
#
# 1 78.8814 55.3432 28.5301 -0.0333 -0.9690 -18.8700
# 2 55.3432 138.7414 52.8586 -8.2084 -2.7112 -23.3899
# 3 28.5301 52.8586 127.7967 4.6504 -10.6184 -9.9744
# 4 -0.0333 -8.2084 4.6504 40.3456 1.1744 -0.1486
# 5 -0.9690 -2.7112 -10.6184 1.1744 28.8541 -4.9575
# 6 -18.8700 -23.3899 -9.9744 -0.1486 -4.9575 41.0839
#
#
#
# Elastic Compliance Matrix: (Units=1/GPa)
#
#
# Indices 1 2 3 4 5 6 
#
# 1 0.018615 -0.006253 -0.001115 -0.001125 0.000494 0.004775
# 2 -0.006253 0.011610 -0.003269 0.002742 0.000076 0.002964
# 3 -0.001115 -0.003269 0.009811 -0.001895 0.003414 0.000414
# 4 -0.001125 0.002742 -0.001895 0.025605 -0.001433 0.000504
# 5 0.000494 0.000076 0.003414 -0.001433 0.036949 0.005552
# 6 0.004775 0.002964 0.000414 0.000504 0.005552 0.028993
#
#
# Mechanical properties :
#
#
# Convention : Reuss Voigt Hill
#
# Bulk Modulus (GPa) = 53.29335 68.76482 61.02909
# Shear Modulus (GPa) = 31.42459 35.96921 33.69690
#
# Velocity S-wave (km/s) = 3.82867 4.09617 3.96467
# Velocity P-wave (km/s) = 6.66369 7.37891 7.03040
#
# Compressibility (1/GPa) = 0.01876407
#
# Stress axis : x y z
#
# Youngs Moduli (GPa) = 53.71929 86.12921 101.92965
#
# Poissons Ratio (x) = 0.53854 0.11365
# Poissons Ratio (y) = 0.33589 0.33316
# Poissons Ratio (z) = 0.05990 0.28152
#
# Static dielectric constant tensor:
#      x y z
#    x 4.033630 -0.307320 -0.409050 
#    y -0.307320 4.109280 0.222350 
#    z -0.409050 0.222350 4.022170 
# 
# 
# High freq. dielectric constant tensor:
#      x y z
#    x 1.825550 -0.017090 -0.001430 
#    y -0.017090 1.854580 -0.004470 
#    z -0.001430 -0.004470 1.851410 
# 
# From -- ./inp_files/323706.got.cif
#   From: 2010.06.25/outbox.cif.g09.slc.cpg/sg2_162_cif.got.tgz:323706.got - 2010.06.27 13:26:56.
