data_PCOD8017395
_publ_section_title
;
Structure prediction by ZEFSAII (Michael W. Deem and Ramdas Pophale) SiO2 
 PCOD8017395
Probable space group: P -1
;
_chemical_formula_sum "Si O2"
_cell_formula_units_Z 14
_cell_length_a 5.216333
_cell_length_b 19.037850
_cell_length_c 16.106079
_cell_angle_alpha 29.508251
_cell_angle_beta 113.256037
_cell_angle_gamma 114.948206
_cell_volume 712.919605
_symmetry_space_group_name_H-M "P -1"
_symmetry_group_IT_number 2
_symmetry_cell_setting 'triclinic'
loop_
_space_group_symop_operation_xyz
x,y,z
-x,-y,-z
loop_
_atom_site_type_symbol
_atom_site_label
_atom_site_fract_x
_atom_site_fract_y
_atom_site_fract_z
Si Si1 0.294925 0.445262 0.104473
Si Si2 0.061274 0.849039 0.632259
Si Si3 0.384557 0.856361 0.823454
Si Si4 0.221961 0.306511 0.525701
Si Si5 0.549194 0.449477 0.806654
Si Si6 0.837411 0.419281 0.485672
Si Si7 0.047268 0.955877 0.347878
O O1 0.462522 0.502297 0.149537
O O2 0.224611 0.270436 0.276696
O O3 0.500000 0.500000 0.000000
O O4 0.000000 0.500000 0.000000
O O5 0.299979 0.806707 0.768416
O O6 0.162391 0.868463 0.529214
O O7 0.000000 0.000000 0.500000
O O8 0.156784 0.938973 0.751903
O O9 0.394789 0.713802 0.025779
O O10 0.690668 0.955545 0.759339
O O11 0.202272 0.439823 0.322493
O O12 0.033190 0.319674 0.568604
O O13 0.123050 0.154405 0.625245
O O14 0.550029 0.315136 0.587134
O O15 0.248490 0.462116 0.711964
O O16 0.000000 0.500000 0.500000
#
# Coordination Sequence:
#
# PCOD8017395 Si02
#       7
#     2   2   2   2   2   2   2
#     4  12  26  38  59  88 128 163 207 256 298 353
#     4  10  22  39  55  83 121 168 212 246 293 351
#     4  11  24  36  59  85 126 162 208 251 304 351
#     4  10  22  40  67  90 121 155 209 250 313 367
#     4  10  25  39  65  91 124 164 206 257 312 360
#     4  10  22  40  70  98 118 151 207 263 312 369
#     4  11  23  40  58  87 122 169 204 250 299 365
#
# _framework density 19.637557999999999
#
# number of rings (size 3 to 8) (size 9 to 14) (size 15 to 20)
#    0.857    0.571    2.857    1.714    8.000    2.286 
#    0.000    0.000    0.000    5.143    0.000    0.000 
#    0.000    0.000    0.000    0.000    0.000    0.000 
#
# Total GULP energy -173542.861076 kJ/mol
# GULP energy per Si atom -12395.918648 kJ/mol
# Density = 1.959286 g / cm^3
# Si number density = 19.637558 Si / 1000 Ang^3
#
#
#
# Elastic Constant Matrix: (Units=GPa)
#
#
# Indices 1 2 3 4 5 6 
#
# 1 104.4291 22.9783 20.2783 4.1313 6.2887 3.7097
# 2 22.9783 132.1385 34.9112 12.7827 13.1548 8.7934
# 3 20.2783 34.9112 72.4834 -11.3245 -2.8322 8.5712
# 4 4.1313 12.7827 -11.3245 30.0521 8.4117 -1.9665
# 5 6.2887 13.1548 -2.8322 8.4117 20.1430 -3.7792
# 6 3.7097 8.7934 8.5712 -1.9665 -3.7792 31.7967
#
#
#
# Elastic Compliance Matrix: (Units=1/GPa)
#
#
# Indices 1 2 3 4 5 6 
#
# 1 0.010529 -0.000576 -0.002940 -0.001573 -0.002800 -0.000707
# 2 -0.000576 0.010332 -0.005542 -0.004956 -0.005705 -0.002280
# 3 -0.002940 -0.005542 0.019083 0.008947 0.003043 -0.002353
# 4 -0.001573 -0.004956 0.008947 0.042553 -0.012735 0.000260
# 5 -0.002800 -0.005705 0.003043 -0.012735 0.061416 0.007596
# 6 -0.000707 -0.002280 -0.002353 0.000260 0.007596 0.033716
#
#
# Mechanical properties :
#
#
# Convention : Reuss Voigt Hill
#
# Bulk Modulus (GPa) = 45.81465 51.70963 48.76214
# Shear Modulus (GPa) = 24.62783 31.79058 28.20921
#
# Velocity S-wave (km/s) = 3.54520 4.02788 3.79422
# Velocity P-wave (km/s) = 6.33551 6.92971 6.63926
#
# Compressibility (1/GPa) = 0.02182708
#
# Stress axis : x y z
#
# Youngs Moduli (GPa) = 94.97135 96.79134 52.40212
#
# Poissons Ratio (x) = 0.05580 0.15405
# Poissons Ratio (y) = 0.05475 0.29043
# Poissons Ratio (z) = 0.27918 0.53646
#
# Static dielectric constant tensor:
#      x y z
#    x 3.522440 0.060170 -0.055310 
#    y 0.060170 3.671330 -0.043510 
#    z -0.055310 -0.043510 3.638110 
# 
# 
# High freq. dielectric constant tensor:
#      x y z
#    x 1.761940 0.004160 -0.002120 
#    y 0.004160 1.766560 -0.015410 
#    z -0.002120 -0.015410 1.748240 
# 
# From -- ./inp_files/55625.got.cif
#   From: 2010.06.25/outbox.cif.g09.slc.cpg/sg2_28_cif.got.tgz:55625.got - 2010.06.27 13:26:56.
