data_PCOD8017886
_publ_section_title
;
Structure prediction by ZEFSAII (Michael W. Deem and Ramdas Pophale) SiO2 
 PCOD8017886
Probable space group: P -1
;
_chemical_formula_sum "Si O2"
_cell_formula_units_Z 12
_cell_length_a 8.984952
_cell_length_b 13.001869
_cell_length_c 9.362109
_cell_angle_alpha 110.543496
_cell_angle_beta 30.641406
_cell_angle_gamma 96.850307
_cell_volume 482.230370
_symmetry_space_group_name_H-M "P -1"
_symmetry_group_IT_number 2
_symmetry_cell_setting 'triclinic'
loop_
_space_group_symop_operation_xyz
x,y,z
-x,-y,-z
loop_
_atom_site_type_symbol
_atom_site_label
_atom_site_fract_x
_atom_site_fract_y
_atom_site_fract_z
Si Si1 0.903962 0.353669 0.508416
Si Si2 0.693239 0.790816 0.360189
Si Si3 0.382120 0.640036 0.683803
Si Si4 0.776058 0.119988 0.454706
Si Si5 0.521040 0.603152 0.864336
Si Si6 0.516528 0.002363 0.159103
O O1 0.831465 0.241653 0.468896
O O2 0.731566 0.462840 0.595549
O O3 0.274705 0.331347 0.192300
O O4 0.776979 0.390207 0.791748
O O5 0.615579 0.679602 0.418642
O O6 0.444897 0.878461 0.496013
O O7 0.703487 0.871066 0.527734
O O8 0.027007 0.725009 0.971818
O O9 0.500000 0.500000 0.500000
O O10 0.396013 0.669659 0.853154
O O11 0.606578 0.096742 0.725638
O O12 0.125087 0.018189 0.101325
O O13 0.500000 0.000000 0.000000
#
# Coordination Sequence:
#
# PCOD8017886 Si02
#       6
#     2   2   2   2   2   2
#     4  10  22  39  67  97 136 186 224 288 348 415
#     4  12  27  47  74 104 147 190 234 295 359 420
#     4  12  26  44  73 103 146 186 240 285 357 426
#     4  12  25  47  74 102 146 185 243 287 366 421
#     4  10  22  40  63 101 140 177 236 281 344 412
#     4  12  28  47  74 108 141 185 246 300 356 420
#
# _framework density 24.884371999999999
#
# number of rings (size 3 to 8) (size 9 to 14) (size 15 to 20)
#    0.000    0.667    0.000    7.000    7.000    4.000 
#    0.000    0.000    0.000    0.000    0.000    0.000 
#    0.000    0.000    0.000    0.000    0.000    0.000 
#
# Total GULP energy -148810.323056 kJ/mol
# GULP energy per Si atom -12400.860255 kJ/mol
# Density = 2.482773 g / cm^3
# Si number density = 24.884372 Si / 1000 Ang^3
#
#
#
# Elastic Constant Matrix: (Units=GPa)
#
#
# Indices 1 2 3 4 5 6 
#
# 1 79.1550 35.7555 18.0039 7.3603 -2.7431 -7.3561
# 2 35.7555 120.9190 27.0188 -11.5746 6.1634 15.0807
# 3 18.0039 27.0188 95.3814 6.9817 -9.1247 2.4206
# 4 7.3603 -11.5746 6.9817 51.5929 -1.7098 5.6119
# 5 -2.7431 6.1634 -9.1247 -1.7098 36.3314 1.8870
# 6 -7.3561 15.0807 2.4206 5.6119 1.8870 38.5763
#
#
#
# Elastic Compliance Matrix: (Units=1/GPa)
#
#
# Indices 1 2 3 4 5 6 
#
# 1 0.016538 -0.005848 -0.001179 -0.004121 0.001437 0.006043
# 2 -0.005848 0.011925 -0.002695 0.004454 -0.002613 -0.006128
# 3 -0.001179 -0.002695 0.011920 -0.001964 0.003259 0.000207
# 4 -0.004121 0.004454 -0.001964 0.021833 -0.000243 -0.005568
# 5 0.001437 -0.002613 0.003259 -0.000243 0.028898 -0.000287
# 6 0.006043 -0.006128 0.000207 -0.005568 -0.000287 0.030282
#
#
# Mechanical properties :
#
#
# Convention : Reuss Voigt Hill
#
# Bulk Modulus (GPa) = 47.75706 50.77909 49.26808
# Shear Modulus (GPa) = 33.82466 39.61192 36.71829
#
# Velocity S-wave (km/s) = 3.69083 3.99411 3.84546
# Velocity P-wave (km/s) = 6.11525 6.45917 6.28956
#
# Compressibility (1/GPa) = 0.02093931
#
# Stress axis : x y z
#
# Youngs Moduli (GPa) = 60.46679 83.85529 83.88961
#
# Poissons Ratio (x) = 0.49040 0.09893
# Poissons Ratio (y) = 0.35362 0.22606
# Poissons Ratio (z) = 0.07131 0.22597
#
# Static dielectric constant tensor:
#      x y z
#    x 4.308400 -0.182930 -0.178110 
#    y -0.182930 4.480840 -0.168600 
#    z -0.178110 -0.168600 4.592540 
# 
# 
# High freq. dielectric constant tensor:
#      x y z
#    x 1.978230 -0.005580 -0.004830 
#    y -0.005580 2.005640 -0.009160 
#    z -0.004830 -0.009160 2.000930 
# 
# From -- ./inp_files/38260.got.cif
#   From: 2010.06.25/outbox.cif.g09.slc.cpg/sg2_20_cif.got.tgz:38260.got - 2010.06.27 13:26:56.
