data_PCOD8017329
_publ_section_title
;
Structure prediction by ZEFSAII (Michael W. Deem and Ramdas Pophale) SiO2 
 PCOD8017329
Probable space group: P -1
;
_chemical_formula_sum "Si O2"
_cell_formula_units_Z 14
_cell_length_a 11.656450
_cell_length_b 14.503086
_cell_length_c 5.143946
_cell_angle_alpha 84.614471
_cell_angle_beta 63.649731
_cell_angle_gamma 123.961823
_cell_volume 573.912684
_symmetry_space_group_name_H-M "P -1"
_symmetry_group_IT_number 2
_symmetry_cell_setting 'triclinic'
loop_
_space_group_symop_operation_xyz
x,y,z
-x,-y,-z
loop_
_atom_site_type_symbol
_atom_site_label
_atom_site_fract_x
_atom_site_fract_y
_atom_site_fract_z
Si Si1 0.973059 0.904656 0.754190
Si Si2 0.862003 0.351467 0.713662
Si Si3 0.254818 0.054694 0.832369
Si Si4 0.019395 0.795851 0.335226
Si Si5 0.677099 0.662019 0.504150
Si Si6 0.648341 0.278916 0.462130
Si Si7 0.482187 0.602913 0.199720
O O1 0.925009 0.781967 0.702057
O O2 0.804341 0.865558 0.088919
O O3 0.000000 0.000000 0.500000
O O4 0.160345 0.982045 0.680141
O O5 0.954837 0.300052 0.699400
O O6 0.750597 0.273132 0.586818
O O7 0.000000 0.500000 0.500000
O O8 0.749969 0.329160 0.077327
O O9 0.460850 0.147165 0.611843
O O10 0.192699 0.943114 0.120935
O O11 0.888338 0.771689 0.247769
O O12 0.613735 0.638120 0.282968
O O13 0.644548 0.544253 0.693267
O O14 0.582630 0.683134 0.808978
O O15 0.637560 0.373881 0.579349
#
# Coordination Sequence:
#
# PCOD8017329 Si02
#       7
#     2   2   2   2   2   2   2
#     4   9  21  41  69 108 145 180 227 282 363 432
#     4  12  30  51  73  99 137 198 247 292 343 410
#     4  10  24  42  71 110 140 185 227 293 367 424
#     4  11  25  42  71  98 145 185 235 290 350 423
#     4  10  22  38  67 100 133 176 224 293 357 414
#     4  12  27  47  73  99 144 185 239 294 344 423
#     4  10  22  41  65 101 134 173 231 289 356 408
#
# _framework density 24.393954000000001
#
# number of rings (size 3 to 8) (size 9 to 14) (size 15 to 20)
#    0.000    1.429    0.000    3.000   14.000    3.429 
#    0.000    0.000    0.000    0.000    0.000    0.000 
#    0.000    0.000    0.000    0.000    0.000    0.000 
#
# Total GULP energy -173450.060740 kJ/mol
# GULP energy per Si atom -12389.290053 kJ/mol
# Density = 2.433843 g / cm^3
# Si number density = 24.393954 Si / 1000 Ang^3
#
#
#
# Elastic Constant Matrix: (Units=GPa)
#
#
# Indices 1 2 3 4 5 6 
#
# 1 96.7825 29.3674 31.9996 -2.8598 -13.0628 12.8210
# 2 29.3674 113.3775 47.9261 6.2560 -18.3546 -8.4049
# 3 31.9996 47.9261 142.9625 8.8243 -7.9084 13.0526
# 4 -2.8598 6.2560 8.8243 32.7962 4.5874 0.0621
# 5 -13.0628 -18.3546 -7.9084 4.5874 32.1413 8.8086
# 6 12.8210 -8.4049 13.0526 0.0621 8.8086 54.2751
#
#
#
# Elastic Compliance Matrix: (Units=1/GPa)
#
#
# Indices 1 2 3 4 5 6 
#
# 1 0.012642 -0.002260 -0.001588 0.001372 0.004261 -0.003647
# 2 -0.002260 0.011860 -0.003291 -0.002237 0.004706 0.002401
# 3 -0.001588 -0.003291 0.008820 -0.001959 0.000568 -0.002345
# 4 0.001372 -0.002237 -0.001959 0.032407 -0.006031 0.000742
# 5 0.004261 0.004706 0.000568 -0.006031 0.038349 -0.006631
# 6 -0.003647 0.002401 -0.002345 0.000742 -0.006631 0.021297
#
#
# Mechanical properties :
#
#
# Convention : Reuss Voigt Hill
#
# Bulk Modulus (GPa) = 52.50849 63.52320 58.01584
# Shear Modulus (GPa) = 34.24651 40.09781 37.17216
#
# Velocity S-wave (km/s) = 3.75092 4.05873 3.90786
# Velocity P-wave (km/s) = 6.35068 6.93264 6.64803
#
# Compressibility (1/GPa) = 0.01904454
#
# Stress axis : x y z
#
# Youngs Moduli (GPa) = 79.10182 84.31965 113.37885
#
# Poissons Ratio (x) = 0.19052 0.18006
# Poissons Ratio (y) = 0.17873 0.37311
# Poissons Ratio (z) = 0.12563 0.27748
#
# Static dielectric constant tensor:
#      x y z
#    x 4.430650 0.071490 0.188550 
#    y 0.071490 4.721360 -0.097610 
#    z 0.188550 -0.097610 5.204230 
# 
# 
# High freq. dielectric constant tensor:
#      x y z
#    x 1.968510 0.011790 0.016160 
#    y 0.011790 1.982330 -0.003730 
#    z 0.016160 -0.003730 1.978640 
# 
# From -- ./inp_files/77746.got.cif
#   From: 2010.06.25/outbox.cif.g09.slc.cpg/sg2_39_cif.got.tgz:77746.got - 2010.06.27 13:26:56.
