data_PCOD8017036
_publ_section_title
;
Structure prediction by ZEFSAII (Michael W. Deem and Ramdas Pophale) SiO2 
 PCOD8017036
Probable space group: P -1
;
_chemical_formula_sum "Si O2"
_cell_formula_units_Z 16
_cell_length_a 12.172907
_cell_length_b 12.257552
_cell_length_c 5.251852
_cell_angle_alpha 72.868744
_cell_angle_beta 101.892334
_cell_angle_gamma 113.947459
_cell_volume 681.032071
_symmetry_space_group_name_H-M "P -1"
_symmetry_group_IT_number 2
_symmetry_cell_setting 'triclinic'
loop_
_space_group_symop_operation_xyz
x,y,z
-x,-y,-z
loop_
_atom_site_type_symbol
_atom_site_label
_atom_site_fract_x
_atom_site_fract_y
_atom_site_fract_z
Si Si1 0.927852 0.924997 0.278138
Si Si2 0.696758 0.333979 0.040696
Si Si3 0.535765 0.883645 0.049809
Si Si4 0.924678 0.679887 0.354881
Si Si5 0.180869 0.708528 0.378311
Si Si6 0.765721 0.604490 0.830455
Si Si7 0.304125 0.185773 0.497149
Si Si8 0.217865 0.985689 0.204976
O O1 0.990835 0.829185 0.294174
O O2 0.790633 0.824084 0.315860
O O3 0.907496 0.015873 0.989601
O O4 0.000000 0.000000 0.500000
O O5 0.569012 0.221409 0.075994
O O6 0.778671 0.312363 0.870380
O O7 0.677759 0.461540 0.892484
O O8 0.758299 0.344420 0.337699
O O9 0.565644 0.819708 0.362578
O O10 0.660040 0.926659 0.930670
O O11 0.500000 0.000000 0.000000
O O12 0.857440 0.623400 0.624687
O O13 0.037484 0.637268 0.390462
O O14 0.838176 0.637627 0.102680
O O15 0.224625 0.854320 0.338274
O O16 0.681173 0.686956 0.725060
O O17 0.222807 0.055184 0.421909
#
# Coordination Sequence:
#
# PCOD8017036 Si02
#       8
#     2   2   2   2   2   2   2   2
#     4  10  22  37  66 105 140 178 221 280 350 415
#     4  12  28  47  68 101 135 188 240 281 336 404
#     4  11  24  45  70 100 138 179 224 296 349 398
#     4  11  24  44  71 102 143 183 221 286 347 402
#     4  12  27  42  71 105 136 180 236 279 347 414
#     4  11  25  48  70  98 143 183 232 281 335 414
#     4  10  23  41  67 101 135 181 227 278 350 408
#     4  11  23  41  70 102 139 175 228 285 351 416
#
# _framework density 23.493755
#
# number of rings (size 3 to 8) (size 9 to 14) (size 15 to 20)
#    0.000    1.000    2.500    3.000    8.750    5.500 
#    0.000    0.625    0.000    0.000    0.000    0.000 
#    0.000    0.000    0.000    0.000    0.000    0.000 
#
# Total GULP energy -198273.014815 kJ/mol
# GULP energy per Si atom -12392.063426 kJ/mol
# Density = 2.344028 g / cm^3
# Si number density = 23.493755 Si / 1000 Ang^3
#
#
#
# Elastic Constant Matrix: (Units=GPa)
#
#
# Indices 1 2 3 4 5 6 
#
# 1 66.2862 19.3435 14.0207 3.0076 21.4478 -1.1587
# 2 19.3435 97.9621 30.7158 -33.2172 16.2902 1.3471
# 3 14.0207 30.7158 101.4368 2.2105 16.2717 0.3035
# 4 3.0076 -33.2172 2.2105 41.9009 -6.1871 2.5298
# 5 21.4478 16.2902 16.2717 -6.1871 43.9663 -1.9675
# 6 -1.1587 1.3471 0.3035 2.5298 -1.9675 20.2885
#
#
#
# Elastic Compliance Matrix: (Units=1/GPa)
#
#
# Indices 1 2 3 4 5 6 
#
# 1 0.019562 -0.004731 0.000271 -0.006545 -0.008748 0.001395
# 2 -0.004731 0.017898 -0.004997 0.014914 -0.000523 -0.003294
# 3 0.000271 -0.004997 0.011994 -0.005148 -0.003422 0.000478
# 4 -0.006545 0.014914 -0.005148 0.037441 0.004595 -0.005510
# 5 -0.008748 -0.000523 -0.003422 0.004595 0.029202 0.001845
# 6 0.001395 -0.003294 0.000478 -0.005510 0.001845 0.050446
#
#
# Mechanical properties :
#
#
# Convention : Reuss Voigt Hill
#
# Bulk Modulus (GPa) = 32.74557 43.76058 38.25308
# Shear Modulus (GPa) = 25.55738 34.67146 30.11442
#
# Velocity S-wave (km/s) = 3.30182 3.84575 3.58411
# Velocity P-wave (km/s) = 5.33894 6.19569 5.78320
#
# Compressibility (1/GPa) = 0.03053848
#
# Stress axis : x y z
#
# Youngs Moduli (GPa) = 51.12077 55.87102 83.37608
#
# Poissons Ratio (x) = 0.26434 -0.02256
# Poissons Ratio (y) = 0.24186 0.41664
# Poissons Ratio (z) = -0.01383 0.27919
#
# Static dielectric constant tensor:
#      x y z
#    x 4.714660 -0.458380 -0.113200 
#    y -0.458380 4.725590 -0.129840 
#    z -0.113200 -0.129840 4.532750 
# 
# 
# High freq. dielectric constant tensor:
#      x y z
#    x 1.939410 -0.005910 -0.000760 
#    y -0.005910 1.936210 -0.011840 
#    z -0.000760 -0.011840 1.937680 
# 
# From -- ./inp_files/69378.got.cif
#   From: 2010.06.25/outbox.cif.g09.slc.cpg/sg2_35_cif.got.tgz:69378.got - 2010.06.27 13:26:56.
