data_PCOD8017548
_publ_section_title
;
Structure prediction by ZEFSAII (Michael W. Deem and Ramdas Pophale) SiO2 
 PCOD8017548
Probable space group: P -1
;
_chemical_formula_sum "Si O2"
_cell_formula_units_Z 14
_cell_length_a 5.043173
_cell_length_b 11.425100
_cell_length_c 18.172014
_cell_angle_alpha 33.537640
_cell_angle_beta 88.504581
_cell_angle_gamma 79.966520
_cell_volume 555.808388
_symmetry_space_group_name_H-M "P -1"
_symmetry_group_IT_number 2
_symmetry_cell_setting 'triclinic'
loop_
_space_group_symop_operation_xyz
x,y,z
-x,-y,-z
loop_
_atom_site_type_symbol
_atom_site_label
_atom_site_fract_x
_atom_site_fract_y
_atom_site_fract_z
Si Si1 0.311196 0.808179 0.880301
Si Si2 0.676760 0.235319 0.784717
Si Si3 0.916920 0.077867 0.541358
Si Si4 0.477817 0.834955 0.709934
Si Si5 0.835277 0.743772 0.005840
Si Si6 0.639654 0.468444 0.253955
Si Si7 0.857834 0.694782 0.343468
O O1 0.447040 0.711761 0.851327
O O2 0.545540 0.747468 0.970768
O O3 0.078502 0.692672 0.970127
O O4 0.176846 0.072012 0.737022
O O5 0.585131 0.317520 0.825113
O O6 0.437757 0.309637 0.685077
O O7 0.927700 0.333072 0.710532
O O8 0.802784 0.972920 0.927443
O O9 0.753796 0.333891 0.399035
O O10 0.737875 0.934809 0.657374
O O11 0.000000 0.000000 0.500000
O O12 0.201701 0.041535 0.601767
O O13 0.499248 0.672837 0.725415
O O14 0.881423 0.544379 0.169444
O O15 0.000000 0.500000 0.500000
#
# Coordination Sequence:
#
# PCOD8017548 Si02
#       7
#     2   2   2   2   2   2   2
#     4  10  23  41  63  88 128 163 206 260 297 358
#     4  10  23  39  61  94 120 159 206 253 303 363
#     4  10  23  40  60  91 125 158 204 252 309 361
#     4  11  24  42  64  93 126 160 208 260 304 366
#     4  10  23  43  61  92 125 164 210 251 301 368
#     4  11  24  40  67  90 128 166 202 253 314 367
#     4  10  22  39  62  88 123 161 205 249 307 362
#
# _framework density 25.188535000000002
#
# number of rings (size 3 to 8) (size 9 to 14) (size 15 to 20)
#    0.000    1.714    0.000    3.429    4.000    8.000 
#    0.000    4.286    0.000    0.000    0.000    0.000 
#    0.000    0.000    0.000    0.000    0.000    0.000 
#
# Total GULP energy -173562.546514 kJ/mol
# GULP energy per Si atom -12397.324751 kJ/mol
# Density = 2.513120 g / cm^3
# Si number density = 25.188535 Si / 1000 Ang^3
#
#
#
# Elastic Constant Matrix: (Units=GPa)
#
#
# Indices 1 2 3 4 5 6 
#
# 1 96.0672 -2.5881 11.8757 0.5058 -18.5156 -19.3455
# 2 -2.5881 78.9612 3.7783 9.9290 -2.9867 -15.2307
# 3 11.8757 3.7783 91.4102 13.1778 -26.8238 -5.1932
# 4 0.5058 9.9290 13.1778 28.3857 -6.1133 -9.2259
# 5 -18.5156 -2.9867 -26.8238 -6.1133 24.2851 10.6733
# 6 -19.3455 -15.2307 -5.1932 -9.2259 10.6733 22.8773
#
#
#
# Elastic Compliance Matrix: (Units=1/GPa)
#
#
# Indices 1 2 3 4 5 6 
#
# 1 0.014258 0.002542 0.000216 0.004254 0.007138 0.012183
# 2 0.002542 0.015391 -0.001032 -0.001402 -0.003470 0.013216
# 3 0.000216 -0.001032 0.017864 -0.006167 0.022327 -0.009353
# 4 0.004254 -0.001402 -0.006167 0.044699 -0.001217 0.019857
# 5 0.007138 -0.003470 0.022327 -0.001217 0.084154 -0.030958
# 6 0.012183 0.013216 -0.009353 0.019857 -0.030958 0.083141
#
#
# Mechanical properties :
#
#
# Convention : Reuss Voigt Hill
#
# Bulk Modulus (GPa) = 19.62068 32.50784 26.06426
# Shear Modulus (GPa) = 18.31219 32.00111 25.15665
#
# Velocity S-wave (km/s) = 2.69923 3.56822 3.16370
# Velocity P-wave (km/s) = 4.18580 5.46901 4.86986
#
# Compressibility (1/GPa) = 0.05096663
#
# Stress axis : x y z
#
# Youngs Moduli (GPa) = 70.13613 64.97149 55.97907
#
# Poissons Ratio (x) = -0.16517 -0.01210
# Poissons Ratio (y) = -0.17830 0.05775
# Poissons Ratio (z) = -0.01517 0.06703
#
# Static dielectric constant tensor:
#      x y z
#    x 4.812990 -0.241980 0.522280 
#    y -0.241980 4.394280 -0.156340 
#    z 0.522280 -0.156340 5.692280 
# 
# 
# High freq. dielectric constant tensor:
#      x y z
#    x 2.006150 -0.015070 -0.000620 
#    y -0.015070 1.996030 -0.000020 
#    z -0.000620 -0.000020 2.011950 
# 
# From -- ./inp_files/67392.got.cif
#   From: 2010.06.25/outbox.cif.g09.slc.cpg/sg2_34_cif.got.tgz:67392.got - 2010.06.27 13:26:56.
