data_PCOD8017452
_publ_section_title
;
Structure prediction by ZEFSAII (Michael W. Deem and Ramdas Pophale) SiO2 
 PCOD8017452
Probable space group: P -1
;
_chemical_formula_sum "Si O2"
_cell_formula_units_Z 12
_cell_length_a 9.475293
_cell_length_b 8.920347
_cell_length_c 10.262551
_cell_angle_alpha 127.652513
_cell_angle_beta 56.310971
_cell_angle_gamma 108.167263
_cell_volume 570.946354
_symmetry_space_group_name_H-M "P -1"
_symmetry_group_IT_number 2
_symmetry_cell_setting 'triclinic'
loop_
_space_group_symop_operation_xyz
x,y,z
-x,-y,-z
loop_
_atom_site_type_symbol
_atom_site_label
_atom_site_fract_x
_atom_site_fract_y
_atom_site_fract_z
Si Si1 0.841328 0.133166 0.114094
Si Si2 0.840604 0.135115 0.627233
Si Si3 0.519244 0.663427 0.311303
Si Si4 0.486586 0.017179 0.708587
Si Si5 0.843965 0.364719 0.491817
Si Si6 0.163889 0.614579 0.994086
O O1 0.669591 0.016039 0.132995
O O2 0.840912 0.298285 0.309049
O O3 0.854619 0.211859 0.003817
O O4 0.000000 0.000000 0.000000
O O5 0.858824 0.193378 0.497429
O O6 0.832989 0.315845 0.821873
O O7 0.671488 0.019795 0.681714
O O8 0.000000 0.000000 0.500000
O O9 0.492377 0.839561 0.515285
O O10 0.346131 0.543054 0.334316
O O11 0.552110 0.770743 0.216008
O O12 0.671614 0.518535 0.194192
O O13 0.000000 0.500000 0.500000
O O14 0.000000 0.500000 0.000000
#
# Coordination Sequence:
#
# PCOD8017452 Si02
#       6
#     2   2   2   2   2   2
#     4  11  23  39  60  85 116 154 192 237 288 339
#     4  11  23  39  60  85 116 154 192 237 288 339
#     4   9  20  39  60  85 116 154 192 233 290 342
#     4   9  20  39  60  82 118 156 188 234 290 344
#     4  10  22  39  60  84 115 152 188 236 288 341
#     4  12  24  37  60  89 117 150 194 242 284 342
#
# _framework density 21.017738000000001
#
# number of rings (size 3 to 8) (size 9 to 14) (size 15 to 20)
#    0.000    1.667    0.000    5.000    0.000    8.667 
#    0.000    0.000    0.000    0.000    0.000    0.000 
#    0.000    0.000    0.000    0.000    0.000    0.000 
#
# Total GULP energy -148708.772842 kJ/mol
# GULP energy per Si atom -12392.397737 kJ/mol
# Density = 2.096990 g / cm^3
# Si number density = 21.017738 Si / 1000 Ang^3
#
#
#
# Elastic Constant Matrix: (Units=GPa)
#
#
# Indices 1 2 3 4 5 6 
#
# 1 146.6549 48.5187 30.5190 -9.4356 -43.5337 19.3036
# 2 48.5187 82.0827 30.6087 -10.6171 -29.8030 7.7305
# 3 30.5190 30.6087 54.9465 -11.0337 -20.1307 0.7487
# 4 -9.4356 -10.6171 -11.0337 28.6548 -1.0678 -12.8538
# 5 -43.5337 -29.8030 -20.1307 -1.0678 56.7448 -2.9108
# 6 19.3036 7.7305 0.7487 -12.8538 -2.9108 57.1543
#
#
#
# Elastic Compliance Matrix: (Units=1/GPa)
#
#
# Indices 1 2 3 4 5 6 
#
# 1 0.010207 -0.003055 -0.001819 0.000563 0.005458 -0.002606
# 2 -0.003055 0.018689 -0.005995 0.003669 0.005397 -0.000317
# 3 -0.001819 -0.005995 0.026160 0.008946 0.005076 0.003353
# 4 0.000563 0.003669 0.008946 0.044421 0.006857 0.009536
# 5 0.005458 0.005397 0.005076 0.006857 0.026588 0.000256
# 6 -0.002606 -0.000317 0.003353 0.009536 0.000256 0.020533
#
#
# Mechanical properties :
#
#
# Convention : Reuss Voigt Hill
#
# Bulk Modulus (GPa) = 30.01518 55.88633 42.95075
# Shear Modulus (GPa) = 27.86392 40.11328 33.98860
#
# Velocity S-wave (km/s) = 3.64501 4.37343 4.02573
# Velocity P-wave (km/s) = 5.65921 7.22152 6.48757
#
# Compressibility (1/GPa) = 0.03331648
#
# Stress axis : x y z
#
# Youngs Moduli (GPa) = 97.96721 53.50871 38.22566
#
# Poissons Ratio (x) = 0.16348 0.06955
# Poissons Ratio (y) = 0.29931 0.22917
# Poissons Ratio (z) = 0.17825 0.32080
#
# Static dielectric constant tensor:
#      x y z
#    x 4.892640 -0.481200 -0.366480 
#    y -0.481200 4.268770 -0.092770 
#    z -0.366480 -0.092770 4.020210 
# 
# 
# High freq. dielectric constant tensor:
#      x y z
#    x 1.844330 0.008310 -0.016930 
#    y 0.008310 1.811490 -0.011440 
#    z -0.016930 -0.011440 1.819830 
# 
# From -- ./inp_files/145473.got.cif
#   From: 2010.06.25/outbox.cif.g09.slc.cpg/sg2_73_cif.got.tgz:145473.got - 2010.06.27 13:26:56.
