data_PCOD8017640
_publ_section_title
;
Structure prediction by ZEFSAII (Michael W. Deem and Ramdas Pophale) SiO2 
 PCOD8017640
Probable space group: P -1
;
_chemical_formula_sum "Si O2"
_cell_formula_units_Z 16
_cell_length_a 14.775172
_cell_length_b 7.737830
_cell_length_c 9.549821
_cell_angle_alpha 91.174935
_cell_angle_beta 83.850767
_cell_angle_gamma 138.921323
_cell_volume 710.255699
_symmetry_space_group_name_H-M "P -1"
_symmetry_group_IT_number 2
_symmetry_cell_setting 'triclinic'
loop_
_space_group_symop_operation_xyz
x,y,z
-x,-y,-z
loop_
_atom_site_type_symbol
_atom_site_label
_atom_site_fract_x
_atom_site_fract_y
_atom_site_fract_z
Si Si1 0.937397 0.608361 0.850479
Si Si2 0.411357 0.959084 0.713188
Si Si3 0.684290 0.167707 0.572681
Si Si4 0.174571 0.027692 0.028626
Si Si5 0.692230 0.420017 0.039117
Si Si6 0.958357 0.756743 0.557961
Si Si7 0.130818 0.820423 0.304236
Si Si8 0.556411 0.763535 0.046481
O O1 0.002295 0.811348 0.714264
O O2 0.942758 0.418820 0.794626
O O3 0.779142 0.440382 0.907766
O O4 0.030529 0.773747 0.974265
O O5 0.328975 0.903024 0.589022
O O6 0.307783 0.693191 0.821435
O O7 0.538855 0.020981 0.653412
O O8 0.461116 0.206978 0.787080
O O9 0.794416 0.481942 0.572979
O O10 0.729497 0.064185 0.652929
O O11 0.157051 0.025074 0.201660
O O12 0.236203 0.288659 0.951701
O O13 0.277512 0.008269 0.000306
O O14 0.529107 0.210424 0.020683
O O15 0.034235 0.722624 0.450164
O O16 0.000000 0.000000 0.500000
O O17 0.500000 0.500000 0.000000
#
# Coordination Sequence:
#
# PCOD8017640 Si02
#       8
#     2   2   2   2   2   2   2   2
#     4  11  23  40  65 100 128 175 224 276 328 398
#     4  11  23  41  70  94 134 176 227 276 323 414
#     4  10  24  43  65  98 131 180 225 265 338 402
#     4  11  24  38  67 100 131 167 226 280 330 394
#     4  11  23  41  66  94 135 169 221 275 341 389
#     4  11  25  42  67  94 141 174 217 272 341 400
#     4  11  23  42  65  94 135 173 218 269 338 396
#     4  10  22  39  63  93 131 172 217 275 335 387
#
# _framework density 22.527099
#
# number of rings (size 3 to 8) (size 9 to 14) (size 15 to 20)
#    0.000    1.250    0.000    6.375    7.000    1.000 
#    0.000    0.000    0.000    7.500    0.000    0.000 
#    0.000    0.000    0.000    0.000    0.000    0.000 
#
# Total GULP energy -198262.141948 kJ/mol
# GULP energy per Si atom -12391.383872 kJ/mol
# Density = 2.247583 g / cm^3
# Si number density = 22.527099 Si / 1000 Ang^3
#
#
#
# Elastic Constant Matrix: (Units=GPa)
#
#
# Indices 1 2 3 4 5 6 
#
# 1 90.6084 40.4440 51.6420 2.6160 0.2999 -0.6018
# 2 40.4440 67.6654 38.6768 6.3546 12.6879 -6.0776
# 3 51.6420 38.6768 164.8214 2.2348 15.1564 -2.5820
# 4 2.6160 6.3546 2.2348 35.7217 8.8293 0.4977
# 5 0.2999 12.6879 15.1564 8.8293 39.3220 -0.3200
# 6 -0.6018 -6.0776 -2.5820 0.4977 -0.3200 37.9991
#
#
#
# Elastic Compliance Matrix: (Units=1/GPa)
#
#
# Indices 1 2 3 4 5 6 
#
# 1 0.017150 -0.009043 -0.003661 -0.000459 0.004290 -0.001381
# 2 -0.009043 0.022894 -0.001896 -0.001818 -0.006152 0.003362
# 3 -0.003661 -0.001896 0.007887 0.000744 -0.002566 0.000143
# 4 -0.000459 -0.001818 0.000744 0.029900 -0.006416 -0.000693
# 5 0.004290 -0.006152 -0.002566 -0.006416 0.029807 -0.000755
# 6 -0.001381 0.003362 0.000143 -0.000693 -0.000755 0.026845
#
#
# Mechanical properties :
#
#
# Convention : Reuss Voigt Hill
#
# Bulk Modulus (GPa) = 53.38956 64.95788 59.17372
# Shear Modulus (GPa) = 29.42459 35.43071 32.42765
#
# Velocity S-wave (km/s) = 3.61804 3.97016 3.79818
# Velocity P-wave (km/s) = 6.41913 7.06500 6.74980
#
# Compressibility (1/GPa) = 0.01873025
#
# Stress axis : x y z
#
# Youngs Moduli (GPa) = 58.31053 43.68051 126.78577
#
# Poissons Ratio (x) = 0.39501 0.46419
# Poissons Ratio (y) = 0.52731 0.24036
# Poissons Ratio (z) = 0.21349 0.08281
#
# Static dielectric constant tensor:
#      x y z
#    x 4.373700 0.155850 -0.084620 
#    y 0.155850 3.868020 -0.019640 
#    z -0.084620 -0.019640 4.489740 
# 
# 
# High freq. dielectric constant tensor:
#      x y z
#    x 1.896760 0.005370 -0.004050 
#    y 0.005370 1.873330 -0.001430 
#    z -0.004050 -0.001430 1.902210 
# 
# From -- ./inp_files/298535.got.cif
#   From: 2010.06.25/outbox.cif.g09.slc.cpg/sg2_150_cif.got.tgz:298535.got - 2010.06.27 13:26:56.
