data_PCOD8017283
_publ_section_title
;
Structure prediction by ZEFSAII (Michael W. Deem and Ramdas Pophale) SiO2 
 PCOD8017283
Probable space group: P -1
;
_chemical_formula_sum "Si O2"
_cell_formula_units_Z 14
_cell_length_a 20.718562
_cell_length_b 13.946513
_cell_length_c 11.756509
_cell_angle_alpha 147.935721
_cell_angle_beta 158.388414
_cell_angle_gamma 32.320648
_cell_volume 635.166881
_symmetry_space_group_name_H-M "P -1"
_symmetry_group_IT_number 2
_symmetry_cell_setting 'triclinic'
loop_
_space_group_symop_operation_xyz
x,y,z
-x,-y,-z
loop_
_atom_site_type_symbol
_atom_site_label
_atom_site_fract_x
_atom_site_fract_y
_atom_site_fract_z
Si Si1 0.171259 0.938460 0.591091
Si Si2 0.788074 0.577644 0.211505
Si Si3 0.526774 0.804468 0.191821
Si Si4 0.070045 0.280785 0.926485
Si Si5 0.249229 0.780710 0.141795
Si Si6 0.513451 0.790638 0.401571
Si Si7 0.839181 0.906674 0.513399
O O1 0.052229 0.788585 0.249088
O O2 0.064834 0.145630 0.674516
O O3 0.219070 0.974865 0.577043
O O4 0.357344 0.848064 0.872511
O O5 0.701672 0.667769 0.280005
O O6 0.752986 0.729290 0.202727
O O7 0.000000 0.500000 0.500000
O O8 0.724846 0.391200 0.897378
O O9 0.474578 0.719692 0.140520
O O10 0.582826 0.986615 0.510908
O O11 0.271003 0.251988 0.273365
O O12 0.000000 0.500000 0.000000
O O13 0.417221 0.696758 0.245068
O O14 0.259076 0.962019 0.410582
O O15 0.058408 0.833680 0.812707
#
# Coordination Sequence:
#
# PCOD8017283 Si02
#       7
#     2   2   2   2   2   2   2
#     4  10  24  42  65  92 127 173 203 261 325 368
#     4  10  22  40  61  95 125 163 213 255 311 377
#     4  10  22  41  66  94 129 162 217 259 313 377
#     4  10  24  42  62  95 132 162 211 260 322 378
#     4  10  22  38  65  95 120 169 211 257 320 367
#     4  10  22  40  69  93 126 167 209 266 314 375
#     4  10  22  41  63  88 133 163 211 260 309 386
#
# _framework density 22.041450000000001
#
# number of rings (size 3 to 8) (size 9 to 14) (size 15 to 20)
#    0.000    2.000    1.429    0.000   10.000    4.571 
#    0.000    0.714    0.000    0.000    0.000    0.000 
#    0.000    0.000    0.000    0.000    0.000    0.000 
#
# Total GULP energy -173474.325404 kJ/mol
# GULP energy per Si atom -12391.023243 kJ/mol
# Density = 2.199128 g / cm^3
# Si number density = 22.041450 Si / 1000 Ang^3
#
#
#
# Elastic Constant Matrix: (Units=GPa)
#
#
# Indices 1 2 3 4 5 6 
#
# 1 157.3214 50.6445 55.1159 -12.5215 16.3230 17.5517
# 2 50.6445 114.6303 42.4969 4.6472 13.1770 7.0822
# 3 55.1159 42.4969 79.4622 -6.0066 9.8850 14.0244
# 4 -12.5215 4.6472 -6.0066 24.5922 6.4274 12.7598
# 5 16.3230 13.1770 9.8850 6.4274 31.8471 1.9519
# 6 17.5517 7.0822 14.0244 12.7598 1.9519 43.4859
#
#
#
# Elastic Compliance Matrix: (Units=1/GPa)
#
#
# Indices 1 2 3 4 5 6 
#
# 1 0.010129 -0.002699 -0.003558 0.008420 -0.004377 -0.004775
# 2 -0.002699 0.012118 -0.005451 -0.006187 -0.000857 0.002728
# 3 -0.003558 -0.005451 0.020188 0.008437 -0.003491 -0.006506
# 4 0.008420 -0.006187 0.008437 0.064441 -0.015952 -0.023304
# 5 -0.004377 -0.000857 -0.003491 -0.015952 0.037933 0.006010
# 6 -0.004775 0.002728 -0.006506 -0.023304 0.006010 0.033145
#
#
# Mechanical properties :
#
#
# Convention : Reuss Voigt Hill
#
# Bulk Modulus (GPa) = 52.58153 71.99206 62.28680
# Shear Modulus (GPa) = 24.07194 33.52880 28.80037
#
# Velocity S-wave (km/s) = 3.30831 3.90445 3.61868
# Velocity P-wave (km/s) = 6.20490 7.28418 6.76610
#
# Compressibility (1/GPa) = 0.01901808
#
# Stress axis : x y z
#
# Youngs Moduli (GPa) = 98.72689 82.52288 49.53371
#
# Poissons Ratio (x) = 0.22273 0.17626
# Poissons Ratio (y) = 0.26647 0.27001
# Poissons Ratio (z) = 0.35131 0.44984
#
# Static dielectric constant tensor:
#      x y z
#    x 4.246370 0.156810 0.331160 
#    y 0.156810 4.324170 0.327700 
#    z 0.331160 0.327700 3.828430 
# 
# 
# High freq. dielectric constant tensor:
#      x y z
#    x 1.872240 0.000370 0.025620 
#    y 0.000370 1.873210 0.008110 
#    z 0.025620 0.008110 1.843250 
# 
# From -- ./inp_files/472038.got.cif
#   From: 2010.06.25/outbox.cif.g09.slc.cpg/sg2_237_cif.got.tgz:472038.got - 2010.06.27 13:26:56.
