data_PCOD8017845
_publ_section_title
;
Structure prediction by ZEFSAII (Michael W. Deem and Ramdas Pophale) SiO2 
 PCOD8017845
Probable space group: P -1
;
_chemical_formula_sum "Si O2"
_cell_formula_units_Z 16
_cell_length_a 7.003730
_cell_length_b 10.692089
_cell_length_c 12.049056
_cell_angle_alpha 93.067690
_cell_angle_beta 63.090298
_cell_angle_gamma 111.582994
_cell_volume 741.199782
_symmetry_space_group_name_H-M "P -1"
_symmetry_group_IT_number 2
_symmetry_cell_setting 'triclinic'
loop_
_space_group_symop_operation_xyz
x,y,z
-x,-y,-z
loop_
_atom_site_type_symbol
_atom_site_label
_atom_site_fract_x
_atom_site_fract_y
_atom_site_fract_z
Si Si1 0.701860 0.726442 0.305441
Si Si2 0.867309 0.840745 0.048609
Si Si3 0.979516 0.554481 0.216243
Si Si4 0.699120 0.150389 0.359881
Si Si5 0.809159 0.300385 0.106546
Si Si6 0.458362 0.639999 0.016546
Si Si7 0.814409 0.955872 0.449520
Si Si8 0.213346 0.590938 0.520766
O O1 0.711845 0.821588 0.201049
O O2 0.875840 0.661608 0.210724
O O3 0.801585 0.814133 0.394483
O O4 0.448370 0.611703 0.393152
O O5 0.692315 0.766817 0.991504
O O6 0.051101 0.768091 0.006504
O O7 0.000000 0.000000 0.000000
O O8 0.964397 0.450797 0.115743
O O9 0.817983 0.489620 0.360647
O O10 0.258562 0.626075 0.161388
O O11 0.722502 0.207372 0.233283
O O12 0.428229 0.057611 0.434120
O O13 0.781897 0.262433 0.441586
O O14 0.857572 0.063954 0.341661
O O15 0.608226 0.317813 0.084771
O O16 0.500000 0.500000 0.000000
O O17 0.000000 0.000000 0.500000
O O18 0.000000 0.500000 0.500000
#
# Coordination Sequence:
#
# PCOD8017845 Si02
#       8
#     2   2   2   2   2   2   2   2
#     4  11  23  43  66 100 140 176 225 290 343 410
#     4  12  26  44  68 101 144 182 231 287 347 418
#     4  11  22  43  68 100 136 175 231 292 342 412
#     4   9  22  42  63  94 132 173 222 284 331 413
#     4  11  23  44  66  99 140 176 231 286 346 409
#     4  12  24  44  74  99 136 192 234 284 356 414
#     4  10  22  43  68  92 130 179 226 275 348 407
#     4  10  22  39  66  98 131 174 224 283 344 405
#
# _framework density 21.586621999999998
#
# number of rings (size 3 to 8) (size 9 to 14) (size 15 to 20)
#    0.000    1.250    2.500    3.000    1.750    2.500 
#    4.500    0.000    0.000    0.000    0.000    0.000 
#    0.000    0.000    0.000    0.000    0.000    0.000 
#
# Total GULP energy -198233.862165 kJ/mol
# GULP energy per Si atom -12389.616385 kJ/mol
# Density = 2.153749 g / cm^3
# Si number density = 21.586622 Si / 1000 Ang^3
#
#
#
# Elastic Constant Matrix: (Units=GPa)
#
#
# Indices 1 2 3 4 5 6 
#
# 1 142.9810 76.0670 56.5389 -8.4382 11.7967 6.5198
# 2 76.0670 123.7760 40.3290 -2.3995 -0.1659 12.2637
# 3 56.5389 40.3290 128.0779 -14.5336 2.2350 -2.6479
# 4 -8.4382 -2.3995 -14.5336 27.4135 0.6765 0.9634
# 5 11.7967 -0.1659 2.2350 0.6765 40.2543 3.6504
# 6 6.5198 12.2637 -2.6479 0.9634 3.6504 40.9185
#
#
#
# Elastic Compliance Matrix: (Units=1/GPa)
#
#
# Indices 1 2 3 4 5 6 
#
# 1 0.011927 -0.006321 -0.003034 0.001591 -0.003385 0.000062
# 2 -0.006321 0.012729 -0.001500 -0.001575 0.002293 -0.003073
# 3 -0.003034 -0.001500 0.010130 0.004251 0.000115 0.001478
# 4 0.001591 -0.001575 0.004251 0.039128 -0.001338 -0.000308
# 5 -0.003385 0.002293 0.000115 -0.001338 0.026081 -0.002436
# 6 0.000062 -0.003073 0.001478 -0.000308 -0.002436 0.025670
#
#
# Mechanical properties :
#
#
# Convention : Reuss Voigt Hill
#
# Bulk Modulus (GPa) = 76.47254 82.30052 79.38653
# Shear Modulus (GPa) = 32.95254 36.51059 34.73156
#
# Velocity S-wave (km/s) = 3.91132 4.11707 4.01551
# Velocity P-wave (km/s) = 7.47667 7.79800 7.63903
#
# Compressibility (1/GPa) = 0.01307659
#
# Stress axis : x y z
#
# Youngs Moduli (GPa) = 83.84525 78.55775 98.71441
#
# Poissons Ratio (x) = 0.49657 0.29947
# Poissons Ratio (y) = 0.52999 0.14809
# Poissons Ratio (z) = 0.25436 0.11785
#
# Static dielectric constant tensor:
#      x y z
#    x 3.714070 -0.072290 -0.099640 
#    y -0.072290 4.028390 -0.109270 
#    z -0.099640 -0.109270 3.678890 
# 
# 
# High freq. dielectric constant tensor:
#      x y z
#    x 1.835750 -0.005440 0.004350 
#    y -0.005440 1.854090 -0.008960 
#    z 0.004350 -0.008960 1.863550 
# 
# From -- ./inp_files/364466.got.cif
#   From: 2010.06.25/outbox.cif.g09.slc.cpg/sg2_183_cif.got.tgz:364466.got - 2010.06.27 13:26:56.
