data_PCOD8017857
_publ_section_title
;
Structure prediction by ZEFSAII (Michael W. Deem and Ramdas Pophale) SiO2 
 PCOD8017857
Probable space group: P -1
;
_chemical_formula_sum "Si O2"
_cell_formula_units_Z 16
_cell_length_a 12.458861
_cell_length_b 12.149946
_cell_length_c 7.870328
_cell_angle_alpha 127.377275
_cell_angle_beta 74.650575
_cell_angle_gamma 123.260591
_cell_volume 787.452879
_symmetry_space_group_name_H-M "P -1"
_symmetry_group_IT_number 2
_symmetry_cell_setting 'triclinic'
loop_
_space_group_symop_operation_xyz
x,y,z
-x,-y,-z
loop_
_atom_site_type_symbol
_atom_site_label
_atom_site_fract_x
_atom_site_fract_y
_atom_site_fract_z
Si Si1 0.494117 0.730710 0.879229
Si Si2 0.223758 0.973574 0.542173
Si Si3 0.751856 0.582095 0.399356
Si Si4 0.180926 0.251430 0.802868
Si Si5 0.467901 0.227683 0.470404
Si Si6 0.579794 0.032957 0.327084
Si Si7 0.004022 0.342819 0.796342
Si Si8 0.359862 0.420730 0.193088
O O1 0.345504 0.597339 0.791842
O O2 0.566690 0.755776 0.692606
O O3 0.569601 0.682563 0.937069
O O4 0.500383 0.889016 0.094125
O O5 0.145436 0.069075 0.694480
O O6 0.343114 0.086290 0.478310
O O7 0.279157 0.943194 0.666662
O O8 0.136056 0.800075 0.332580
O O9 0.744524 0.699764 0.367244
O O10 0.720131 0.613242 0.630009
O O11 0.896228 0.607835 0.358092
O O12 0.055148 0.272094 0.859738
O O13 0.266653 0.373762 0.028323
O O14 0.584888 0.187075 0.381982
O O15 0.526127 0.395600 0.702222
O O16 0.500000 0.000000 0.500000
O O17 0.000000 0.500000 0.000000
#
# Coordination Sequence:
#
# PCOD8017857 Si02
#       8
#     2   2   2   2   2   2   2   2
#     4  11  20  40  61  92 127 156 200 249 316 361
#     4  11  21  41  60  91 121 161 211 246 303 366
#     4   9  23  38  65  89 128 156 205 254 292 370
#     4  10  22  39  67  87 123 163 202 254 302 359
#     4  10  23  35  63  92 129 157 194 258 309 361
#     4  10  23  34  58  91 125 157 200 253 300 372
#     4  10  25  42  64  83 121 171 205 254 305 356
#     4  11  21  40  65  99 120 157 206 248 314 364
#
# _framework density 20.318674999999999
#
# number of rings (size 3 to 8) (size 9 to 14) (size 15 to 20)
#    0.750    1.000    1.250    3.750    8.750    1.000 
#    0.000    2.500    0.000    0.000    0.000    0.000 
#    0.000    0.000    0.000    0.000    0.000    0.000 
#
# Total GULP energy -198273.099326 kJ/mol
# GULP energy per Si atom -12392.068708 kJ/mol
# Density = 2.027243 g / cm^3
# Si number density = 20.318675 Si / 1000 Ang^3
#
#
#
# Elastic Constant Matrix: (Units=GPa)
#
#
# Indices 1 2 3 4 5 6 
#
# 1 92.6048 27.7834 21.7385 14.9135 3.7304 -13.2633
# 2 27.7834 58.1765 19.2949 7.1610 8.4634 4.9674
# 3 21.7385 19.2949 99.0894 17.2333 12.9287 1.9379
# 4 14.9135 7.1610 17.2333 32.4471 -4.2581 -6.0102
# 5 3.7304 8.4634 12.9287 -4.2581 34.9524 5.0158
# 6 -13.2633 4.9674 1.9379 -6.0102 5.0158 33.7861
#
#
#
# Elastic Compliance Matrix: (Units=1/GPa)
#
#
# Indices 1 2 3 4 5 6 
#
# 1 0.014549 -0.006490 -0.001337 -0.003495 -0.000808 0.006240
# 2 -0.006490 0.022203 -0.001923 -0.002389 -0.003458 -0.005613
# 3 -0.001337 -0.001923 0.012515 -0.006477 -0.004605 -0.001428
# 4 -0.003495 -0.002389 -0.006477 0.038290 0.007283 0.005081
# 5 -0.000808 -0.003458 -0.004605 0.007283 0.032567 -0.003084
# 6 0.006240 -0.005613 -0.001428 0.005081 -0.003084 0.034317
#
#
# Mechanical properties :
#
#
# Convention : Reuss Voigt Hill
#
# Bulk Modulus (GPa) = 33.59459 43.05604 38.32531
# Shear Modulus (GPa) = 27.19441 32.30737 29.75089
#
# Velocity S-wave (km/s) = 3.66238 3.99185 3.83066
# Velocity P-wave (km/s) = 5.86973 6.51789 6.20228
#
# Compressibility (1/GPa) = 0.02976670
#
# Stress axis : x y z
#
# Youngs Moduli (GPa) = 68.73515 45.03968 79.90496
#
# Poissons Ratio (x) = 0.29230 0.10682
# Poissons Ratio (y) = 0.44607 0.15367
# Poissons Ratio (z) = 0.09189 0.08662
#
# Static dielectric constant tensor:
#      x y z
#    x 3.980350 -0.379510 0.007710 
#    y -0.379510 3.590860 0.029610 
#    z 0.007710 0.029610 3.484110 
# 
# 
# High freq. dielectric constant tensor:
#      x y z
#    x 1.795170 -0.022580 -0.000760 
#    y -0.022580 1.776390 0.010470 
#    z -0.000760 0.010470 1.793600 
# 
# From -- ./inp_files/260620.got.cif
#   From: 2010.06.25/outbox.cif.g09.slc.cpg/sg2_131_cif.got.tgz:260620.got - 2010.06.27 13:26:56.
