data_PCOD8017997
_publ_section_title
;
Structure prediction by ZEFSAII (Michael W. Deem and Ramdas Pophale) SiO2 
 PCOD8017997
Probable space group: P -1
;
_chemical_formula_sum "Si O2"
_cell_formula_units_Z 16
_cell_length_a 12.384376
_cell_length_b 17.815506
_cell_length_c 6.909925
_cell_angle_alpha 117.176863
_cell_angle_beta 129.339051
_cell_angle_gamma 43.980424
_cell_volume 818.788576
_symmetry_space_group_name_H-M "P -1"
_symmetry_group_IT_number 2
_symmetry_cell_setting 'triclinic'
loop_
_space_group_symop_operation_xyz
x,y,z
-x,-y,-z
loop_
_atom_site_type_symbol
_atom_site_label
_atom_site_fract_x
_atom_site_fract_y
_atom_site_fract_z
Si Si1 0.254478 0.203534 0.241974
Si Si2 0.866042 0.612245 0.377112
Si Si3 0.664854 0.374026 0.523200
Si Si4 0.040319 0.290445 0.703966
Si Si5 0.484929 0.698344 0.015360
Si Si6 0.116348 0.128632 0.285443
Si Si7 0.364156 0.882062 0.356243
Si Si8 0.727309 0.257637 0.836962
O O1 0.182346 0.301584 0.416890
O O2 0.216138 0.127727 0.208188
O O3 0.467273 0.133913 0.374996
O O4 0.155246 0.250308 0.981511
O O5 0.000000 0.500000 0.500000
O O6 0.949561 0.624000 0.295245
O O7 0.696313 0.620857 0.129065
O O8 0.500000 0.500000 0.500000
O O9 0.830808 0.353724 0.578573
O O10 0.606232 0.307899 0.283011
O O11 0.730807 0.325041 0.753559
O O12 0.131689 0.183926 0.552422
O O13 0.413104 0.820501 0.129271
O O14 0.433135 0.658893 0.095696
O O15 0.203190 0.007102 0.294451
O O16 0.910186 0.192373 0.084801
O O17 0.302028 0.829094 0.367018
#
# Coordination Sequence:
#
# PCOD8017997 Si02
#       8
#     2   2   2   2   2   2   2   2
#     4  10  22  40  58  92 128 157 207 251 298 374
#     4  10  24  40  65  87 122 167 206 254 306 351
#     4  12  26  40  63  91 123 165 199 253 309 360
#     4  11  24  40  61  93 127 157 207 255 294 375
#     4   9  23  43  59  90 122 154 208 252 295 367
#     4  11  20  42  63  89 124 164 203 250 313 353
#     4   9  21  41  65  85 124 165 200 255 305 359
#     4  10  22  41  61  88 125 151 212 251 295 368
#
# _framework density 19.541063999999999
#
# number of rings (size 3 to 8) (size 9 to 14) (size 15 to 20)
#    0.750    1.000    2.500    0.750    5.250    1.500 
#    2.250    1.250    0.000    0.000    0.000    0.000 
#    0.000    0.000    0.000    0.000    0.000    0.000 
#
# Total GULP energy -198317.623360 kJ/mol
# GULP energy per Si atom -12394.851460 kJ/mol
# Density = 1.949659 g / cm^3
# Si number density = 19.541064 Si / 1000 Ang^3
#
#
#
# Elastic Constant Matrix: (Units=GPa)
#
#
# Indices 1 2 3 4 5 6 
#
# 1 126.3977 26.0528 49.0024 -13.6672 8.6305 7.6368
# 2 26.0528 83.6926 28.2516 -17.9887 -3.8407 3.1205
# 3 49.0024 28.2516 104.1879 -11.1470 8.7359 -4.4724
# 4 -13.6672 -17.9887 -11.1470 24.9783 2.5868 -2.0693
# 5 8.6305 -3.8407 8.7359 2.5868 36.6603 -4.7168
# 6 7.6368 3.1205 -4.4724 -2.0693 -4.7168 22.1625
#
#
#
# Elastic Compliance Matrix: (Units=1/GPa)
#
#
# Indices 1 2 3 4 5 6 
#
# 1 0.010590 -0.001140 -0.004361 0.002891 -0.002369 -0.004603
# 2 -0.001140 0.015293 -0.002864 0.008833 0.001784 -0.001134
# 3 -0.004361 -0.002864 0.012976 0.001899 -0.001948 0.004287
# 4 0.002891 0.008833 0.001899 0.049348 -0.003430 0.002021
# 5 -0.002369 0.001784 -0.001948 -0.003430 0.029518 0.006134
# 6 -0.004603 -0.001134 0.004287 0.002021 0.006134 0.049226
#
#
# Mechanical properties :
#
#
# Convention : Reuss Voigt Hill
#
# Bulk Modulus (GPa) = 45.18982 57.87685 51.53334
# Shear Modulus (GPa) = 26.17019 30.82498 28.49758
#
# Velocity S-wave (km/s) = 3.66353 3.97602 3.82297
# Velocity P-wave (km/s) = 6.40867 7.12465 6.77612
#
# Compressibility (1/GPa) = 0.02212888
#
# Stress axis : x y z
#
# Youngs Moduli (GPa) = 94.43082 65.39040 77.06363
#
# Poissons Ratio (x) = 0.07455 0.33608
# Poissons Ratio (y) = 0.10766 0.22069
# Poissons Ratio (z) = 0.41182 0.18727
#
# Static dielectric constant tensor:
#      x y z
#    x 3.965500 0.139590 0.121300 
#    y 0.139590 3.477390 0.014930 
#    z 0.121300 0.014930 3.503180 
# 
# 
# High freq. dielectric constant tensor:
#      x y z
#    x 1.776050 0.001030 0.016230 
#    y 0.001030 1.744660 -0.000670 
#    z 0.016230 -0.000670 1.759730 
# 
# From -- ./inp_files/80750.got.cif
#   From: 2010.06.25/outbox.cif.g09.slc.cpg/sg2_41_cif.got.tgz:80750.got - 2010.06.27 13:26:56.
