data_PCOD8017937
_publ_section_title
;
Structure prediction by ZEFSAII (Michael W. Deem and Ramdas Pophale) SiO2 
 PCOD8017937
Probable space group: P -1
;
_chemical_formula_sum "Si O2"
_cell_formula_units_Z 14
_cell_length_a 9.129982
_cell_length_b 9.348137
_cell_length_c 12.736397
_cell_angle_alpha 129.028312
_cell_angle_beta 75.833953
_cell_angle_gamma 130.101186
_cell_volume 621.794960
_symmetry_space_group_name_H-M "P -1"
_symmetry_group_IT_number 2
_symmetry_cell_setting 'triclinic'
loop_
_space_group_symop_operation_xyz
x,y,z
-x,-y,-z
loop_
_atom_site_type_symbol
_atom_site_label
_atom_site_fract_x
_atom_site_fract_y
_atom_site_fract_z
Si Si1 0.292768 0.378888 0.208690
Si Si2 0.490682 0.941245 0.224518
Si Si3 0.317839 0.242952 0.811731
Si Si4 0.799051 0.453488 0.499716
Si Si5 0.244606 0.981919 0.160284
Si Si6 0.854185 0.582336 0.942702
Si Si7 0.937581 0.908004 0.587746
O O1 0.507865 0.601281 0.230551
O O2 0.241056 0.472621 0.353529
O O3 0.124177 0.280413 0.103987
O O4 0.292363 0.169690 0.150849
O O5 0.628123 0.867718 0.159520
O O6 0.438859 0.005481 0.153799
O O7 0.267249 0.702713 0.193293
O O8 0.605779 0.173610 0.386812
O O9 0.284017 0.409729 0.950366
O O10 0.126899 0.022349 0.680915
O O11 0.817751 0.618856 0.478110
O O12 0.000000 0.500000 0.500000
O O13 0.189329 0.029027 0.305556
O O14 0.066366 0.714366 0.020801
O O15 0.000000 0.000000 0.500000
#
# Coordination Sequence:
#
# PCOD8017937 Si02
#       7
#     2   2   2   2   2   2   2
#     4  10  22  39  69  90 124 169 207 256 313 372
#     4  11  22  39  66  89 130 157 209 261 307 365
#     4  10  22  42  66  92 126 169 209 251 314 376
#     4  11  24  42  62  96 128 162 213 257 313 368
#     4  10  23  40  64  95 124 160 214 259 308 372
#     4  10  22  45  65  91 128 168 208 252 315 375
#     4  10  23  40  64  88 131 166 203 259 316 370
#
# _framework density 22.515461999999999
#
# number of rings (size 3 to 8) (size 9 to 14) (size 15 to 20)
#    0.000    1.714    1.429    2.571    4.000    5.714 
#    2.571    2.857    0.000    0.000    0.000    0.000 
#    0.000    0.000    0.000    0.000    0.000    0.000 
#
# Total GULP energy -173466.639559 kJ/mol
# GULP energy per Si atom -12390.474254 kJ/mol
# Density = 2.246422 g / cm^3
# Si number density = 22.515462 Si / 1000 Ang^3
#
#
#
# Elastic Constant Matrix: (Units=GPa)
#
#
# Indices 1 2 3 4 5 6 
#
# 1 120.4709 33.1871 36.0686 11.8716 23.1553 -11.9510
# 2 33.1871 106.5705 53.8561 7.8235 -2.7025 -13.0408
# 3 36.0686 53.8561 65.6895 14.4623 15.9588 -4.5533
# 4 11.8716 7.8235 14.4623 42.4077 3.8542 3.4796
# 5 23.1553 -2.7025 15.9588 3.8542 25.5220 -4.8837
# 6 -11.9510 -13.0408 -4.5533 3.4796 -4.8837 29.7586
#
#
#
# Elastic Compliance Matrix: (Units=1/GPa)
#
#
# Indices 1 2 3 4 5 6 
#
# 1 0.011633 -0.002908 -0.001214 -0.001592 -0.009511 0.001837
# 2 -0.002908 0.022583 -0.021476 0.001466 0.019870 0.008532
# 3 -0.001214 -0.021476 0.041070 -0.006627 -0.027252 -0.007312
# 4 -0.001592 0.001466 -0.006627 0.026243 0.001032 -0.003910
# 5 -0.009511 0.019870 -0.027252 0.001032 0.069083 0.011935
# 6 0.001837 0.008532 -0.007312 -0.003910 0.011935 0.039377
#
#
# Mechanical properties :
#
#
# Convention : Reuss Voigt Hill
#
# Bulk Modulus (GPa) = 41.51558 59.88386 50.69972
# Shear Modulus (GPa) = 18.57246 30.84559 24.70903
#
# Velocity S-wave (km/s) = 2.87518 3.70533 3.31633
# Velocity P-wave (km/s) = 5.43148 6.70526 6.10170
#
# Compressibility (1/GPa) = 0.02408734
#
# Stress axis : x y z
#
# Youngs Moduli (GPa) = 85.96505 44.28186 24.34846
#
# Poissons Ratio (x) = 0.12879 0.02957
# Poissons Ratio (y) = 0.25002 0.52292
# Poissons Ratio (z) = 0.10440 0.95101
#
# Static dielectric constant tensor:
#      x y z
#    x 4.252350 -0.194120 0.158330 
#    y -0.194120 4.330870 0.304130 
#    z 0.158330 0.304130 4.078750 
# 
# 
# High freq. dielectric constant tensor:
#      x y z
#    x 1.895340 -0.013130 0.016300 
#    y -0.013130 1.888280 0.022960 
#    z 0.016300 0.022960 1.878540 
# 
# From -- ./inp_files/240921.got.cif
#   From: 2010.06.25/outbox.cif.g09.slc.cpg/sg2_121_cif.got.tgz:240921.got - 2010.06.27 13:26:56.
