data_PCOD8017164
_publ_section_title
;
Structure prediction by ZEFSAII (Michael W. Deem and Ramdas Pophale) SiO2 
 PCOD8017164
Probable space group: P -1
;
_chemical_formula_sum "Si O2"
_cell_formula_units_Z 16
_cell_length_a 8.091491
_cell_length_b 17.533051
_cell_length_c 9.843705
_cell_angle_alpha 123.099672
_cell_angle_beta 46.703898
_cell_angle_gamma 135.601365
_cell_volume 706.794198
_symmetry_space_group_name_H-M "P -1"
_symmetry_group_IT_number 2
_symmetry_cell_setting 'triclinic'
loop_
_space_group_symop_operation_xyz
x,y,z
-x,-y,-z
loop_
_atom_site_type_symbol
_atom_site_label
_atom_site_fract_x
_atom_site_fract_y
_atom_site_fract_z
Si Si1 0.863036 0.967175 0.234935
Si Si2 0.109031 0.376068 0.688628
Si Si3 0.180237 0.191779 0.392281
Si Si4 0.292341 0.496735 0.434553
Si Si5 0.721724 0.279133 0.046078
Si Si6 0.575596 0.877234 0.580534
Si Si7 0.419388 0.044462 0.880789
Si Si8 0.102162 0.653531 0.700339
O O1 0.950716 0.092419 0.332405
O O2 0.719667 0.889023 0.368145
O O3 0.642341 0.919501 0.192221
O O4 0.130911 0.967473 0.047149
O O5 0.062191 0.257603 0.584159
O O6 0.090225 0.422653 0.600429
O O7 0.399495 0.466007 0.679166
O O8 0.870752 0.356060 0.905788
O O9 0.450660 0.277463 0.234064
O O10 0.253307 0.134770 0.411175
O O11 0.284191 0.603377 0.528931
O O12 0.189558 0.424807 0.284362
O O13 0.931807 0.329995 0.104942
O O14 0.625110 0.153588 0.956951
O O15 0.266618 0.770728 0.646334
O O16 0.573236 0.983927 0.716253
#
# Coordination Sequence:
#
# PCOD8017164 Si02
#       8
#     2   2   2   2   2   2   2   2
#     4  10  22  38  61  90 129 160 205 243 298 371
#     4  11  22  41  70  87 120 166 206 252 313 359
#     4  10  22  40  59  94 128 157 205 252 298 371
#     4  10  23  44  64  90 122 160 211 259 303 363
#     4  10  22  40  65  91 126 158 201 253 308 360
#     4  11  21  37  64  88 125 170 192 246 315 357
#     4  10  23  39  59  96 126 157 205 249 293 376
#     4  10  23  43  62  93 127 155 208 260 302 362
#
# _framework density 22.637426000000001
#
# number of rings (size 3 to 8) (size 9 to 14) (size 15 to 20)
#    0.000    1.750    2.500    1.500    3.500    7.500 
#    0.000    0.000    0.000    0.000    0.000    0.000 
#    0.000    0.000    0.000    0.000    0.000    0.000 
#
# Total GULP energy -198428.566841 kJ/mol
# GULP energy per Si atom -12401.785428 kJ/mol
# Density = 2.258590 g / cm^3
# Si number density = 22.637426 Si / 1000 Ang^3
#
#
#
# Elastic Constant Matrix: (Units=GPa)
#
#
# Indices 1 2 3 4 5 6 
#
# 1 53.5563 12.6644 19.9966 14.5124 18.3136 9.4149
# 2 12.6644 49.9924 23.7308 2.0907 16.4825 2.3827
# 3 19.9966 23.7308 109.7230 -16.9806 20.2125 4.5573
# 4 14.5124 2.0907 -16.9806 41.9344 5.7975 10.3079
# 5 18.3136 16.4825 20.2125 5.7975 28.5662 9.1380
# 6 9.4149 2.3827 4.5573 10.3079 9.1380 26.5450
#
#
#
# Elastic Compliance Matrix: (Units=1/GPa)
#
#
# Indices 1 2 3 4 5 6 
#
# 1 0.027019 -0.000599 -0.003918 -0.008941 -0.011987 -0.001258
# 2 -0.000599 0.025989 -0.003526 -0.001603 -0.012930 0.003558
# 3 -0.003918 -0.003526 0.012942 0.007965 -0.005701 -0.001646
# 4 -0.008941 -0.001603 0.007965 0.033055 -0.002477 -0.010036
# 5 -0.011987 -0.012930 -0.005701 -0.002477 0.058812 -0.012893
# 6 -0.001258 0.003558 -0.001646 -0.010036 -0.012893 0.046417
#
#
# Mechanical properties :
#
#
# Convention : Reuss Voigt Hill
#
# Bulk Modulus (GPa) = 20.05430 36.22838 28.14134
# Shear Modulus (GPa) = 21.10229 29.86779 25.48504
#
# Velocity S-wave (km/s) = 3.05648 3.63629 3.35892
# Velocity P-wave (km/s) = 4.61890 5.80247 5.24418
#
# Compressibility (1/GPa) = 0.04986462
#
# Stress axis : x y z
#
# Youngs Moduli (GPa) = 37.01056 38.47825 77.26993
#
# Poissons Ratio (x) = 0.02304 0.30273
# Poissons Ratio (y) = 0.02217 0.27244
# Poissons Ratio (z) = 0.14500 0.13567
#
# Static dielectric constant tensor:
#      x y z
#    x 3.845810 0.197890 0.263580 
#    y 0.197890 4.097820 -0.008840 
#    z 0.263580 -0.008840 4.178890 
# 
# 
# High freq. dielectric constant tensor:
#      x y z
#    x 1.874120 0.013590 0.019120 
#    y 0.013590 1.893980 0.001190 
#    z 0.019120 0.001190 1.893010 
# 
# From -- ./inp_files/215456.got.cif
#   From: 2010.06.25/outbox.cif.g09.slc.cpg/sg2_108_cif.got.tgz:215456.got - 2010.06.27 13:26:56.
