data_PCOD8017362
_publ_section_title
;
Structure prediction by ZEFSAII (Michael W. Deem and Ramdas Pophale) SiO2 
 PCOD8017362
Probable space group: P -1
;
_chemical_formula_sum "Si O2"
_cell_formula_units_Z 16
_cell_length_a 15.071963
_cell_length_b 11.263788
_cell_length_c 8.399746
_cell_angle_alpha 118.097618
_cell_angle_beta 111.978106
_cell_angle_gamma 119.168126
_cell_volume 682.058419
_symmetry_space_group_name_H-M "P -1"
_symmetry_group_IT_number 2
_symmetry_cell_setting 'triclinic'
loop_
_space_group_symop_operation_xyz
x,y,z
-x,-y,-z
loop_
_atom_site_type_symbol
_atom_site_label
_atom_site_fract_x
_atom_site_fract_y
_atom_site_fract_z
Si Si1 0.749012 0.207008 0.765805
Si Si2 0.578978 0.276444 0.641764
Si Si3 0.900200 0.372322 0.631687
Si Si4 0.728957 0.649123 0.574430
Si Si5 0.565017 0.555979 0.901219
Si Si6 0.096997 0.923303 0.553248
Si Si7 0.362766 0.739030 0.690496
Si Si8 0.983609 0.937355 0.192326
O O1 0.691260 0.294505 0.819292
O O2 0.783776 0.226900 0.615940
O O3 0.609904 0.947919 0.570414
O O4 0.918338 0.361978 0.061685
O O5 0.637498 0.490534 0.871468
O O6 0.592424 0.263877 0.455978
O O7 0.919113 0.244797 0.494001
O O8 0.806658 0.374286 0.463976
O O9 0.571387 0.566298 0.402436
O O10 0.665455 0.429558 0.331546
O O11 0.806325 0.719989 0.849415
O O12 0.868366 0.882577 0.716367
O O13 0.500000 0.500000 0.000000
O O14 0.712224 0.827180 0.158496
O O15 0.015866 0.845318 0.271907
O O16 0.000759 0.910004 0.598683
O O17 0.500000 0.000000 0.000000
#
# Coordination Sequence:
#
# PCOD8017362 Si02
#       8
#     2   2   2   2   2   2   2   2
#     4   9  21  39  63  95 124 165 220 269 319 378
#     4  10  23  41  64  94 132 170 219 276 326 383
#     4  10  22  38  68  93 125 172 217 270 316 397
#     4  11  25  45  65  95 138 174 217 272 346 392
#     4  12  24  41  69  98 127 177 224 273 329 401
#     4  11  23  41  68 100 130 169 234 270 323 393
#     4  11  25  44  64  93 136 178 214 268 338 398
#     4  10  25  42  66  97 133 176 212 288 329 388
#
# _framework density 23.458399
#
# number of rings (size 3 to 8) (size 9 to 14) (size 15 to 20)
#    0.000    1.500    1.250    2.250    8.750    7.000 
#    0.000    1.250    0.000    0.000    0.000    0.000 
#    0.000    0.000    0.000    0.000    0.000    0.000 
#
# Total GULP energy -198317.078230 kJ/mol
# GULP energy per Si atom -12394.817389 kJ/mol
# Density = 2.340501 g / cm^3
# Si number density = 23.458399 Si / 1000 Ang^3
#
#
#
# Elastic Constant Matrix: (Units=GPa)
#
#
# Indices 1 2 3 4 5 6 
#
# 1 85.8445 4.0811 15.8603 -11.1181 0.6672 -14.7198
# 2 4.0811 31.8105 4.1954 -2.4461 1.3289 -5.2648
# 3 15.8603 4.1954 98.4092 -17.6304 11.8898 -5.1502
# 4 -11.1181 -2.4461 -17.6304 27.1250 -6.9914 0.7835
# 5 0.6672 1.3289 11.8898 -6.9914 45.1433 2.9463
# 6 -14.7198 -5.2648 -5.1502 0.7835 2.9463 36.9051
#
#
#
# Elastic Compliance Matrix: (Units=1/GPa)
#
#
# Indices 1 2 3 4 5 6 
#
# 1 0.013326 -0.000404 -0.001089 0.004705 0.000506 0.004965
# 2 -0.000404 0.032488 -0.000635 0.002030 -0.000756 0.004402
# 3 -0.001089 -0.000635 0.011871 0.006627 -0.002141 0.001162
# 4 0.004705 0.002030 0.006627 0.044498 0.004902 0.001755
# 5 0.000506 -0.000756 -0.002141 0.004902 0.023633 -0.002196
# 6 0.004965 0.004402 0.001162 0.001755 -0.002196 0.030005
#
#
# Mechanical properties :
#
#
# Convention : Reuss Voigt Hill
#
# Bulk Modulus (GPa) = 18.71580 29.37088 24.04334
# Shear Modulus (GPa) = 28.10795 34.62984 31.36889
#
# Velocity S-wave (km/s) = 3.46526 3.84633 3.66076
# Velocity P-wave (km/s) = 4.89963 5.68096 5.30470
#
# Compressibility (1/GPa) = 0.05343080
#
# Stress axis : x y z
#
# Youngs Moduli (GPa) = 75.04011 30.78067 84.23948
#
# Poissons Ratio (x) = 0.01242 0.09173
# Poissons Ratio (y) = 0.03029 0.05346
# Poissons Ratio (z) = 0.08171 0.01953
#
# Static dielectric constant tensor:
#      x y z
#    x 4.457080 -0.139600 0.214470 
#    y -0.139600 4.103000 -0.040080 
#    z 0.214470 -0.040080 4.304020 
# 
# 
# High freq. dielectric constant tensor:
#      x y z
#    x 1.937490 -0.005830 0.014940 
#    y -0.005830 1.915330 0.018530 
#    z 0.014940 0.018530 1.930130 
# 
# From -- ./inp_files/308342.got.cif
#   From: 2010.06.25/outbox.cif.g09.slc.cpg/sg2_155_cif.got.tgz:308342.got - 2010.06.27 13:26:56.
