data_PCOD8017010
_publ_section_title
;
Structure prediction by ZEFSAII (Michael W. Deem and Ramdas Pophale) SiO2 
 PCOD8017010
Probable space group: P -1
;
_chemical_formula_sum "Si O2"
_cell_formula_units_Z 16
_cell_length_a 14.170889
_cell_length_b 5.102302
_cell_length_c 17.441495
_cell_angle_alpha 107.139508
_cell_angle_beta 42.895149
_cell_angle_gamma 112.672276
_cell_volume 791.890539
_symmetry_space_group_name_H-M "P -1"
_symmetry_group_IT_number 2
_symmetry_cell_setting 'triclinic'
loop_
_space_group_symop_operation_xyz
x,y,z
-x,-y,-z
loop_
_atom_site_type_symbol
_atom_site_label
_atom_site_fract_x
_atom_site_fract_y
_atom_site_fract_z
Si Si1 0.777726 0.183223 0.890053
Si Si2 0.335454 0.575476 0.462559
Si Si3 0.394969 0.600102 0.682494
Si Si4 0.413556 0.612452 0.248284
Si Si5 0.050456 0.538663 0.695333
Si Si6 0.227783 0.424834 0.200499
Si Si7 0.397694 0.785564 0.858850
Si Si8 0.305756 0.960230 0.639921
O O1 0.701965 0.346776 0.887620
O O2 0.951871 0.299720 0.789210
O O3 0.723763 0.855279 0.872452
O O4 0.733266 0.237159 0.007067
O O5 0.433581 0.364339 0.407553
O O6 0.351197 0.667202 0.372673
O O7 0.169212 0.417460 0.568120
O O8 0.387632 0.861516 0.509485
O O9 0.331884 0.612764 0.806504
O O10 0.364484 0.855647 0.674106
O O11 0.323257 0.296725 0.659595
O O12 0.281359 0.542065 0.262054
O O13 0.482509 0.346867 0.186123
O O14 0.533188 0.888570 0.175148
O O15 0.135197 0.807844 0.719373
O O16 0.946079 0.634479 0.703943
#
# Coordination Sequence:
#
# PCOD8017010 Si02
#       8
#     2   2   2   2   2   2   2   2
#     4  10  22  43  59  87 121 163 196 245 294 345
#     4   9  21  40  62  90 126 150 195 252 292 360
#     4  11  21  39  60  95 112 159 195 248 303 344
#     4  11  23  40  61  97 114 160 192 253 302 340
#     4   8  23  39  61  88 120 163 194 243 285 365
#     4  10  22  40  63  87 122 156 208 228 302 360
#     4  11  24  40  63  87 129 143 206 256 291 347
#     4  10  22  37  64  86 123 154 199 238 302 354
#
# _framework density 20.204810999999999
#
# number of rings (size 3 to 8) (size 9 to 14) (size 15 to 20)
#    1.500    0.500    0.000    3.750    1.750    5.500 
#    6.750    1.875    0.000    0.000    0.000    0.000 
#    0.000    0.000    0.000    0.000    0.000    0.000 
#
# Total GULP energy -198294.305206 kJ/mol
# GULP energy per Si atom -12393.394075 kJ/mol
# Density = 2.015882 g / cm^3
# Si number density = 20.204811 Si / 1000 Ang^3
#
#
#
# Elastic Constant Matrix: (Units=GPa)
#
#
# Indices 1 2 3 4 5 6 
#
# 1 80.2504 27.9992 41.1119 -10.0912 16.2285 11.1951
# 2 27.9992 65.4339 34.5224 4.5143 0.7518 -9.4277
# 3 41.1119 34.5224 141.5420 -10.5637 17.8481 9.9908
# 4 -10.0912 4.5143 -10.5637 25.5342 3.4509 4.1556
# 5 16.2285 0.7518 17.8481 3.4509 20.2670 2.7578
# 6 11.1951 -9.4277 9.9908 4.1556 2.7578 27.2935
#
#
#
# Elastic Compliance Matrix: (Units=1/GPa)
#
#
# Indices 1 2 3 4 5 6 
#
# 1 0.027182 -0.016456 0.001968 0.020675 -0.023921 -0.018285
# 2 -0.016456 0.031319 -0.008614 -0.021935 0.020342 0.022006
# 3 0.001968 -0.008614 0.011423 0.009982 -0.011889 -0.008283
# 4 0.020675 -0.021935 0.009982 0.063913 -0.031846 -0.026224
# 5 -0.023921 0.020342 -0.011889 -0.031846 0.081206 0.017833
# 6 -0.018285 0.022006 -0.008283 -0.026224 0.017833 0.056963
#
#
# Mechanical properties :
#
#
# Convention : Reuss Voigt Hill
#
# Bulk Modulus (GPa) = 42.15746 54.94369 48.55058
# Shear Modulus (GPa) = 15.33195 26.85846 21.09520
#
# Velocity S-wave (km/s) = 2.75767 3.64993 3.23471
# Velocity P-wave (km/s) = 5.57225 6.70932 6.16705
#
# Compressibility (1/GPa) = 0.02372059
#
# Stress axis : x y z
#
# Youngs Moduli (GPa) = 36.78934 31.92950 87.54151
#
# Poissons Ratio (x) = 0.52542 -0.17232
# Poissons Ratio (y) = 0.60539 0.75412
# Poissons Ratio (z) = -0.07242 0.27506
#
# Static dielectric constant tensor:
#      x y z
#    x 3.585330 -0.010630 0.118780 
#    y -0.010630 3.485150 0.067710 
#    z 0.118780 0.067710 3.572560 
# 
# 
# High freq. dielectric constant tensor:
#      x y z
#    x 1.788140 -0.006040 0.010570 
#    y -0.006040 1.784880 0.002480 
#    z 0.010570 0.002480 1.775470 
# 
# From -- ./inp_files/571572.got.cif
#   From: 2010.06.25/outbox.cif.g09.slc.cpg/sg2_286_cif.got.tgz:571572.got - 2010.06.27 13:26:56.
