data_PCOD8017139
_publ_section_title
;
Structure prediction by ZEFSAII (Michael W. Deem and Ramdas Pophale) SiO2 
 PCOD8017139
Probable space group: P -1
;
_chemical_formula_sum "Si O2"
_cell_formula_units_Z 16
_cell_length_a 9.060460
_cell_length_b 15.055346
_cell_length_c 9.998152
_cell_angle_alpha 57.492529
_cell_angle_beta 68.410937
_cell_angle_gamma 42.677971
_cell_volume 778.779801
_symmetry_space_group_name_H-M "P -1"
_symmetry_group_IT_number 2
_symmetry_cell_setting 'triclinic'
loop_
_space_group_symop_operation_xyz
x,y,z
-x,-y,-z
loop_
_atom_site_type_symbol
_atom_site_label
_atom_site_fract_x
_atom_site_fract_y
_atom_site_fract_z
Si Si1 0.536093 0.651751 0.959893
Si Si2 0.552018 0.616067 0.683737
Si Si3 0.852350 0.671623 0.906152
Si Si4 0.224983 0.614830 0.709479
Si Si5 0.079625 0.848930 0.066221
Si Si6 0.831857 0.352984 0.597846
Si Si7 0.191991 0.327611 0.562111
Si Si8 0.267034 0.157979 0.923406
O O1 0.632724 0.537443 0.139061
O O2 0.276823 0.768351 0.960906
O O3 0.607022 0.572513 0.856647
O O4 0.620433 0.735172 0.876616
O O5 0.301217 0.695358 0.673275
O O6 0.707410 0.472694 0.658643
O O7 0.601138 0.715569 0.549530
O O8 0.969331 0.706134 0.744675
O O9 0.826093 0.739507 0.000963
O O10 0.000000 0.500000 0.000000
O O11 0.285441 0.585211 0.556012
O O12 0.154858 0.771331 0.249489
O O13 0.896718 0.859037 0.052737
O O14 0.000000 0.000000 0.000000
O O15 0.080016 0.283338 0.553703
O O16 0.285410 0.241775 0.739759
O O17 0.000000 0.500000 0.500000
O O18 0.500000 0.000000 0.000000
#
# Coordination Sequence:
#
# PCOD8017139 Si02
#       8
#     2   2   2   2   2   2   2   2
#     4  11  23  37  62  93 130 167 213 265 330 380
#     4  11  21  35  61  94 130 163 210 271 330 376
#     4  10  24  36  64  96 133 169 224 269 326 384
#     4  11  22  35  60  96 131 162 213 273 323 381
#     4  11  24  42  65  89 129 177 220 262 324 404
#     4  10  22  38  60  93 128 168 209 266 328 383
#     4   9  22  36  65  92 131 166 221 262 332 380
#     4  11  24  45  67  97 136 179 220 270 334 402
#
# _framework density 20.54496
#
# number of rings (size 3 to 8) (size 9 to 14) (size 15 to 20)
#    0.000    1.500    1.250    3.000   17.500    1.000 
#    0.000    1.250    0.000    7.500    0.000    0.000 
#    0.000    0.000    0.000    0.000    0.000    0.000 
#
# Total GULP energy -198253.905045 kJ/mol
# GULP energy per Si atom -12390.869065 kJ/mol
# Density = 2.049820 g / cm^3
# Si number density = 20.544960 Si / 1000 Ang^3
#
#
#
# Elastic Constant Matrix: (Units=GPa)
#
#
# Indices 1 2 3 4 5 6 
#
# 1 157.4133 33.9528 68.8994 14.7791 -18.8188 -5.6672
# 2 33.9528 83.7818 66.1328 3.8185 3.5604 5.6481
# 3 68.8994 66.1328 161.2886 11.6251 7.1847 6.1995
# 4 14.7791 3.8185 11.6251 25.2213 4.3259 3.5108
# 5 -18.8188 3.5604 7.1847 4.3259 41.2000 7.6202
# 6 -5.6672 5.6481 6.1995 3.5108 7.6202 32.8784
#
#
#
# Elastic Compliance Matrix: (Units=1/GPa)
#
#
# Indices 1 2 3 4 5 6 
#
# 1 0.009214 -0.001159 -0.003411 -0.004768 0.005078 0.001763
# 2 -0.001159 0.017906 -0.006850 0.001518 -0.000673 -0.001990
# 3 -0.003411 -0.006850 0.010705 -0.001363 -0.002562 -0.000690
# 4 -0.004768 0.001518 -0.001363 0.044447 -0.005963 -0.004190
# 5 0.005078 -0.000673 -0.002562 -0.005963 0.028556 -0.004508
# 6 0.001763 -0.001990 -0.000690 -0.004190 -0.004508 0.032683
#
#
# Mechanical properties :
#
#
# Convention : Reuss Voigt Hill
#
# Bulk Modulus (GPa) = 66.73315 82.27263 74.50289
# Shear Modulus (GPa) = 29.18083 35.42651 32.30367
#
# Velocity S-wave (km/s) = 3.77283 4.15702 3.96958
# Velocity P-wave (km/s) = 7.17851 7.94816 7.57312
#
# Compressibility (1/GPa) = 0.01498506
#
# Stress axis : x y z
#
# Youngs Moduli (GPa) = 108.53173 55.84778 93.41609
#
# Poissons Ratio (x) = 0.06471 0.31867
# Poissons Ratio (y) = 0.12575 0.63989
# Poissons Ratio (z) = 0.37023 0.38255
#
# Static dielectric constant tensor:
#      x y z
#    x 5.132310 -0.024150 -0.955260 
#    y -0.024150 3.352350 0.021270 
#    z -0.955260 0.021270 4.532070 
# 
# 
# High freq. dielectric constant tensor:
#      x y z
#    x 1.839350 -0.002180 -0.014310 
#    y -0.002180 1.750770 0.018950 
#    z -0.014310 0.018950 1.805840 
# 
# From -- ./inp_files/206350.got.cif
#   From: 2010.06.25/outbox.cif.g09.slc.cpg/sg2_104_cif.got.tgz:206350.got - 2010.06.27 13:26:56.
