data_PCOD8017892
_publ_section_title
;
Structure prediction by ZEFSAII (Michael W. Deem and Ramdas Pophale) SiO2 
 PCOD8017892
Probable space group: P -1
;
_chemical_formula_sum "Si O2"
_cell_formula_units_Z 16
_cell_length_a 11.125650
_cell_length_b 13.617540
_cell_length_c 9.001851
_cell_angle_alpha 136.387028
_cell_angle_beta 58.116820
_cell_angle_gamma 96.777991
_cell_volume 712.789312
_symmetry_space_group_name_H-M "P -1"
_symmetry_group_IT_number 2
_symmetry_cell_setting 'triclinic'
loop_
_space_group_symop_operation_xyz
x,y,z
-x,-y,-z
loop_
_atom_site_type_symbol
_atom_site_label
_atom_site_fract_x
_atom_site_fract_y
_atom_site_fract_z
Si Si1 0.658495 0.174409 0.304815
Si Si2 0.138722 0.070572 0.618313
Si Si3 0.156010 0.106520 0.310657
Si Si4 0.396195 0.164388 0.659697
Si Si5 0.833343 0.340207 0.255670
Si Si6 0.191011 0.504095 0.251880
Si Si7 0.828861 0.190512 0.490647
Si Si8 0.084680 0.445227 0.729596
O O1 0.490707 0.213837 0.529869
O O2 0.674179 0.318222 0.363469
O O3 0.791884 0.120066 0.287560
O O4 0.689124 0.036816 0.014461
O O5 0.105166 0.067810 0.462224
O O6 0.256646 0.149143 0.647060
O O7 0.221197 0.887714 0.424231
O O8 0.978005 0.169724 0.926785
O O9 0.194488 0.256475 0.456075
O O10 0.014504 0.142282 0.326902
O O11 0.500000 0.000000 0.500000
O O12 0.324296 0.319925 0.984796
O O13 0.874032 0.411442 0.455275
O O14 0.805986 0.466259 0.278576
O O15 0.259458 0.614267 0.239959
O O16 0.047664 0.499437 0.250631
O O17 0.000000 0.500000 0.000000
#
# Coordination Sequence:
#
# PCOD8017892 Si02
#       8
#     2   2   2   2   2   2   2   2
#     4  11  25  41  63  97 132 169 214 259 317 389
#     4  12  23  42  66 100 129 169 215 262 323 380
#     4  11  23  38  69  97 132 162 213 270 326 369
#     4  12  26  44  64  90 134 176 214 261 315 390
#     4  11  23  39  67  97 127 159 220 269 312 376
#     4  10  24  39  65  94 129 165 216 262 326 367
#     4  10  22  39  67  99 125 163 213 271 315 377
#     4  11  21  38  63 101 129 160 207 276 322 372
#
# _framework density 22.447025
#
# number of rings (size 3 to 8) (size 9 to 14) (size 15 to 20)
#    0.000    1.000    5.000    1.125    5.250    2.500 
#    0.000    0.000    0.000    3.750    0.000    0.000 
#    0.000    0.000    0.000    0.000    0.000    0.000 
#
# Total GULP energy -198271.176453 kJ/mol
# GULP energy per Si atom -12391.948528 kJ/mol
# Density = 2.239593 g / cm^3
# Si number density = 22.447025 Si / 1000 Ang^3
#
#
#
# Elastic Constant Matrix: (Units=GPa)
#
#
# Indices 1 2 3 4 5 6 
#
# 1 21.9027 7.0577 9.6730 -3.1756 0.8213 13.0229
# 2 7.0577 179.1566 35.1525 11.3149 -3.5246 18.9619
# 3 9.6730 35.1525 110.3646 7.7647 7.4423 -7.6875
# 4 -3.1756 11.3149 7.7647 39.3348 5.1667 -5.6930
# 5 0.8213 -3.5246 7.4423 5.1667 18.8264 -5.1512
# 6 13.0229 18.9619 -7.6875 -5.6930 -5.1512 35.5626
#
#
#
# Elastic Compliance Matrix: (Units=1/GPa)
#
#
# Indices 1 2 3 4 5 6 
#
# 1 0.065506 0.001429 -0.007796 0.003541 -0.007870 -0.027009
# 2 0.001429 0.006697 -0.002537 -0.002198 0.001490 -0.004779
# 3 -0.007796 -0.002537 0.011219 -0.000881 -0.002657 0.006107
# 4 0.003541 -0.002198 -0.000881 0.027890 -0.007014 0.003133
# 5 -0.007870 0.001490 -0.002657 -0.007014 0.059166 0.008960
# 6 -0.027009 -0.004779 0.006107 0.003133 0.008960 0.043677
#
#
# Mechanical properties :
#
#
# Convention : Reuss Voigt Hill
#
# Bulk Modulus (GPa) = 15.24070 46.13228 30.68649
# Shear Modulus (GPa) = 19.69785 36.04746 27.87266
#
# Velocity S-wave (km/s) = 2.96552 4.01170 3.52761
# Velocity P-wave (km/s) = 4.30466 6.48495 5.50385
#
# Compressibility (1/GPa) = 0.06561377
#
# Stress axis : x y z
#
# Youngs Moduli (GPa) = 15.26575 149.31862 89.13570
#
# Poissons Ratio (x) = -0.21342 0.69493
# Poissons Ratio (y) = -0.02182 0.22615
# Poissons Ratio (z) = 0.11902 0.37884
#
# Static dielectric constant tensor:
#      x y z
#    x 3.728890 0.186660 0.310040 
#    y 0.186660 4.698830 0.212850 
#    z 0.310040 0.212850 4.017200 
# 
# 
# High freq. dielectric constant tensor:
#      x y z
#    x 1.846710 0.015530 0.031780 
#    y 0.015530 1.912360 0.009580 
#    z 0.031780 0.009580 1.872270 
# 
# From -- ./inp_files/261474.got.cif
#   From: 2010.06.25/outbox.cif.g09.slc.cpg/sg2_131_cif.got.tgz:261474.got - 2010.06.27 13:26:56.
