data_PCOD8017145
_publ_section_title
;
Structure prediction by ZEFSAII (Michael W. Deem and Ramdas Pophale) SiO2 
 PCOD8017145
Probable space group: P -1
;
_chemical_formula_sum "Si O2"
_cell_formula_units_Z 16
_cell_length_a 5.136664
_cell_length_b 11.652893
_cell_length_c 14.960459
_cell_angle_alpha 101.663870
_cell_angle_beta 117.807922
_cell_angle_gamma 75.478479
_cell_volume 762.965189
_symmetry_space_group_name_H-M "P -1"
_symmetry_group_IT_number 2
_symmetry_cell_setting 'triclinic'
loop_
_space_group_symop_operation_xyz
x,y,z
-x,-y,-z
loop_
_atom_site_type_symbol
_atom_site_label
_atom_site_fract_x
_atom_site_fract_y
_atom_site_fract_z
Si Si1 0.006763 0.702332 0.752181
Si Si2 0.901376 0.901386 0.225656
Si Si3 0.968317 0.753046 0.375768
Si Si4 0.501021 0.849107 0.802353
Si Si5 0.557006 0.114221 0.578539
Si Si6 0.843481 0.502539 0.570067
Si Si7 0.807577 0.773238 0.017401
Si Si8 0.317252 0.628264 0.968893
O O1 0.262535 0.761589 0.756816
O O2 0.137698 0.624444 0.846908
O O3 0.730732 0.804709 0.752443
O O4 0.888108 0.619007 0.648467
O O5 0.829104 0.795503 0.262638
O O6 0.228179 0.928586 0.308826
O O7 0.653312 0.017162 0.222210
O O8 0.916114 0.862623 0.119010
O O9 0.756023 0.809240 0.430353
O O10 0.281355 0.801309 0.446323
O O11 0.012054 0.611196 0.365475
O O12 0.686236 0.850268 0.923806
O O13 0.500000 0.000000 0.500000
O O14 0.500000 0.500000 0.500000
O O15 0.000000 0.500000 0.500000
O O16 0.543756 0.719647 0.012510
O O17 0.083944 0.669706 0.018164
O O18 0.500000 0.500000 0.000000
#
# Coordination Sequence:
#
# PCOD8017145 Si02
#       8
#     2   2   2   2   2   2   2   2
#     4  10  24  42  64  92 127 167 214 256 315 379
#     4  10  25  38  69  91 132 164 209 261 315 369
#     4  10  25  43  63  96 123 164 215 258 321 369
#     4  10  22  42  63  94 129 167 209 253 316 379
#     4  10  23  41  61  94 127 160 213 257 318 370
#     4  12  26  46  67  93 127 169 213 268 318 374
#     4  10  22  38  60  97 125 165 209 252 313 375
#     4  10  22  39  63  92 127 166 208 257 311 371
#
# _framework density 20.970813
#
# number of rings (size 3 to 8) (size 9 to 14) (size 15 to 20)
#    0.750    1.000    0.000    2.625    5.250    3.000 
#    0.000    3.750    0.000    0.000    0.000    0.000 
#    0.000    0.000    0.000    0.000    0.000    0.000 
#
# Total GULP energy -198410.660705 kJ/mol
# GULP energy per Si atom -12400.666294 kJ/mol
# Density = 2.092308 g / cm^3
# Si number density = 20.970813 Si / 1000 Ang^3
#
#
#
# Elastic Constant Matrix: (Units=GPa)
#
#
# Indices 1 2 3 4 5 6 
#
# 1 122.5534 12.2138 36.3100 3.6244 -1.1444 -13.5052
# 2 12.2138 106.2628 46.8471 -12.0013 -5.4511 -12.4733
# 3 36.3100 46.8471 130.0775 22.6908 7.1982 -5.3839
# 4 3.6244 -12.0013 22.6908 30.7742 2.6276 -1.8675
# 5 -1.1444 -5.4511 7.1982 2.6276 19.3075 4.3935
# 6 -13.5052 -12.4733 -5.3839 -1.8675 4.3935 29.4968
#
#
#
# Elastic Compliance Matrix: (Units=1/GPa)
#
#
# Indices 1 2 3 4 5 6 
#
# 1 0.009418 0.001081 -0.003219 0.001865 0.000860 0.004172
# 2 0.001081 0.014742 -0.007573 0.011167 0.004298 0.005413
# 3 -0.003219 -0.007573 0.013665 -0.012334 -0.005249 -0.002181
# 4 0.001865 0.011167 -0.012334 0.046087 0.000175 0.006217
# 5 0.000860 0.004298 -0.005249 0.000175 0.056622 -0.007169
# 6 0.004172 0.005413 -0.002181 0.006217 -0.007169 0.039165
#
#
# Mechanical properties :
#
#
# Convention : Reuss Voigt Hill
#
# Bulk Modulus (GPa) = 54.33447 61.07060 57.70253
# Shear Modulus (GPa) = 24.35996 33.48386 28.92191
#
# Velocity S-wave (km/s) = 3.41194 4.00019 3.71772
# Velocity P-wave (km/s) = 6.44109 7.10777 6.78262
#
# Compressibility (1/GPa) = 0.01840452
#
# Stress axis : x y z
#
# Youngs Moduli (GPa) = 106.17773 67.83316 73.17828
#
# Poissons Ratio (x) = -0.07332 0.23553
# Poissons Ratio (y) = -0.11477 0.55416
# Poissons Ratio (z) = 0.34174 0.51369
#
# Static dielectric constant tensor:
#      x y z
#    x 3.925980 -0.017390 0.036290 
#    y -0.017390 3.574760 -0.157360 
#    z 0.036290 -0.157360 3.719450 
# 
# 
# High freq. dielectric constant tensor:
#      x y z
#    x 1.835510 -0.009280 0.001320 
#    y -0.009280 1.820330 -0.002900 
#    z 0.001320 -0.002900 1.817120 
# 
# From -- ./inp_files/482899.got.cif
#   From: 2010.06.25/outbox.cif.g09.slc.cpg/sg2_242_cif.got.tgz:482899.got - 2010.06.27 13:26:56.
