data_PCOD8017814
_publ_section_title
;
Structure prediction by ZEFSAII (Michael W. Deem and Ramdas Pophale) SiO2 
 PCOD8017814
Probable space group: P -1
;
_chemical_formula_sum "Si O2"
_cell_formula_units_Z 16
_cell_length_a 9.968878
_cell_length_b 9.269003
_cell_length_c 10.862641
_cell_angle_alpha 65.295095
_cell_angle_beta 60.704206
_cell_angle_gamma 84.069591
_cell_volume 788.722334
_symmetry_space_group_name_H-M "P -1"
_symmetry_group_IT_number 2
_symmetry_cell_setting 'triclinic'
loop_
_space_group_symop_operation_xyz
x,y,z
-x,-y,-z
loop_
_atom_site_type_symbol
_atom_site_label
_atom_site_fract_x
_atom_site_fract_y
_atom_site_fract_z
Si Si1 0.852451 0.788695 0.375559
Si Si2 0.962464 0.131551 0.120980
Si Si3 0.712729 0.894526 0.904312
Si Si4 0.892174 0.834783 0.611622
Si Si5 0.111927 0.696288 0.137635
Si Si6 0.072219 0.617717 0.744753
Si Si7 0.623828 0.245125 0.824403
Si Si8 0.661289 0.480937 0.489722
O O1 0.810842 0.788174 0.537314
O O2 0.719039 0.666822 0.420409
O O3 0.013431 0.718745 0.297646
O O4 0.854317 0.970602 0.265417
O O5 0.922839 0.280876 0.168212
O O6 0.145261 0.112073 0.060924
O O7 0.912427 0.155091 0.993952
O O8 0.759911 0.826270 0.777095
O O9 0.681613 0.075496 0.829139
O O10 0.561078 0.781877 0.060227
O O11 0.010376 0.709142 0.625966
O O12 0.000000 0.000000 0.500000
O O13 0.286638 0.689455 0.112589
O O14 0.047933 0.545030 0.135428
O O15 0.243054 0.585603 0.640830
O O16 0.658897 0.369741 0.652111
O O17 0.500000 0.500000 0.500000
#
# Coordination Sequence:
#
# PCOD8017814 Si02
#       8
#     2   2   2   2   2   2   2   2
#     4  11  22  38  68  92 122 169 218 257 310 383
#     4  11  22  41  66  97 125 167 214 265 316 374
#     4  10  23  38  68  95 130 168 206 267 320 377
#     4  11  18  39  66  96 124 158 215 266 308 371
#     4  11  22  39  64  97 128 168 214 264 308 389
#     4  10  22  39  66  91 124 170 216 261 314 377
#     4  11  23  41  63  96 130 169 210 260 328 379
#     4  11  26  44  63  92 132 172 208 268 323 379
#
# _framework density 20.285972000000001
#
# number of rings (size 3 to 8) (size 9 to 14) (size 15 to 20)
#    0.000    1.250    3.750    3.000    3.500    3.000 
#    2.250    3.750    0.000    0.000    0.000    0.000 
#    0.000    0.000    0.000    0.000    0.000    0.000 
#
# Total GULP energy -198298.777361 kJ/mol
# GULP energy per Si atom -12393.673585 kJ/mol
# Density = 2.023980 g / cm^3
# Si number density = 20.285972 Si / 1000 Ang^3
#
#
#
# Elastic Constant Matrix: (Units=GPa)
#
#
# Indices 1 2 3 4 5 6 
#
# 1 139.9793 40.0475 66.0614 3.3339 -2.6563 -7.7630
# 2 40.0475 98.2505 29.0991 2.1054 -10.6691 5.9700
# 3 66.0614 29.0991 80.5675 -4.3459 -1.5380 5.6837
# 4 3.3339 2.1054 -4.3459 32.9955 0.5926 3.2901
# 5 -2.6563 -10.6691 -1.5380 0.5926 35.4260 -4.3202
# 6 -7.7630 5.9700 5.6837 3.2901 -4.3202 26.5420
#
#
#
# Elastic Compliance Matrix: (Units=1/GPa)
#
#
# Indices 1 2 3 4 5 6 
#
# 1 0.013494 -0.002595 -0.010816 -0.003371 0.000717 0.007381
# 2 -0.002595 0.012376 -0.002139 -0.000617 0.003146 -0.002496
# 3 -0.010816 -0.002139 0.022897 0.005119 -0.001581 -0.008477
# 4 -0.003371 -0.000617 0.005119 0.032002 -0.001502 -0.006155
# 5 0.000717 0.003146 -0.001581 -0.001502 0.029780 0.004874
# 6 0.007381 -0.002496 -0.008477 -0.006155 0.004874 0.043768
#
#
# Mechanical properties :
#
#
# Convention : Reuss Voigt Hill
#
# Bulk Modulus (GPa) = 56.60436 65.46815 61.03626
# Shear Modulus (GPa) = 26.13599 31.23198 28.68398
#
# Velocity S-wave (km/s) = 3.59329 3.92801 3.76437
# Velocity P-wave (km/s) = 6.72157 7.27427 7.00337
#
# Compressibility (1/GPa) = 0.01766648
#
# Stress axis : x y z
#
# Youngs Moduli (GPa) = 74.10594 80.80206 43.67352
#
# Poissons Ratio (x) = 0.20970 0.47238
# Poissons Ratio (y) = 0.19232 0.09342
# Poissons Ratio (z) = 0.80154 0.17284
#
# Static dielectric constant tensor:
#      x y z
#    x 3.621990 -0.003640 -0.101020 
#    y -0.003640 9.129080 0.983900 
#    z -0.101020 0.983900 4.078370 
# 
# 
# High freq. dielectric constant tensor:
#      x y z
#    x 1.780720 0.005990 0.008350 
#    y 0.005990 1.806010 -0.010510 
#    z 0.008350 -0.010510 1.795820 
# 
# From -- ./inp_files/184929.got.cif
#   From: 2010.06.25/outbox.cif.g09.slc.cpg/sg2_93_cif.got.tgz:184929.got - 2010.06.27 13:26:56.
