data_PCOD8017775
_publ_section_title
;
Structure prediction by ZEFSAII (Michael W. Deem and Ramdas Pophale) SiO2 
 PCOD8017775
Probable space group: P -1
;
_chemical_formula_sum "Si O2"
_cell_formula_units_Z 16
_cell_length_a 5.258896
_cell_length_b 8.448774
_cell_length_c 21.507197
_cell_angle_alpha 130.129333
_cell_angle_beta 120.984100
_cell_angle_gamma 56.123960
_cell_volume 588.114809
_symmetry_space_group_name_H-M "P -1"
_symmetry_group_IT_number 2
_symmetry_cell_setting 'triclinic'
loop_
_space_group_symop_operation_xyz
x,y,z
-x,-y,-z
loop_
_atom_site_type_symbol
_atom_site_label
_atom_site_fract_x
_atom_site_fract_y
_atom_site_fract_z
Si Si1 0.829435 0.579269 0.063030
Si Si2 0.920917 0.048146 0.805098
Si Si3 0.105226 0.698707 0.503975
Si Si4 0.029567 0.256808 0.371314
Si Si5 0.308177 0.350098 0.744732
Si Si6 0.243835 0.387386 0.171433
Si Si7 0.384868 0.033412 0.569921
Si Si8 0.783250 0.050419 0.925741
O O1 0.442389 0.686462 0.036221
O O2 0.907342 0.786346 0.153300
O O3 0.992944 0.388876 0.084888
O O4 0.000000 0.500000 0.000000
O O5 0.542649 0.164652 0.773552
O O6 0.982126 0.001784 0.874596
O O7 0.073314 0.820521 0.726351
O O8 0.173483 0.449948 0.424812
O O9 0.219994 0.668192 0.583474
O O10 0.723975 0.850600 0.483445
O O11 0.279533 0.820861 0.513536
O O12 0.258633 0.036310 0.378878
O O13 0.481344 0.520482 0.788624
O O14 0.203279 0.236811 0.644348
O O15 0.971338 0.480125 0.765888
O O16 0.406597 0.124826 0.141157
O O17 0.000000 0.000000 0.000000
#
# Coordination Sequence:
#
# PCOD8017775 Si02
#       8
#     2   2   2   2   2   2   2   2
#     4  11  26  47  71 101 143 190 238 301 367 435
#     4  10  24  44  71  98 139 187 243 288 363 429
#     4  10  22  39  65  97 135 182 225 293 354 418
#     4  10  22  41  63  97 135 178 230 293 348 425
#     4  10  24  46  72 104 141 191 236 300 350 434
#     4  11  26  46  73 104 144 185 245 293 366 421
#     4  10  22  39  65  94 137 175 237 280 357 411
#     4  12  28  44  73 105 141 186 242 302 367 438
#
# _framework density 27.205573000000001
#
# number of rings (size 3 to 8) (size 9 to 14) (size 15 to 20)
#    0.000    1.500    1.250    1.500   12.250    2.000 
#    0.000    2.500    0.000    0.000    0.000    0.000 
#    0.000    0.000    0.000    0.000    0.000    0.000 
#
# Total GULP energy -198216.774800 kJ/mol
# GULP energy per Si atom -12388.548425 kJ/mol
# Density = 2.714365 g / cm^3
# Si number density = 27.205573 Si / 1000 Ang^3
#
#
#
# Elastic Constant Matrix: (Units=GPa)
#
#
# Indices 1 2 3 4 5 6 
#
# 1 50.5586 1.8091 -1.7904 -1.8617 -9.5231 13.7999
# 2 1.8091 124.1640 39.3275 8.8825 -14.1842 9.3579
# 3 -1.7904 39.3275 117.6853 -0.2622 -11.5334 16.6544
# 4 -1.8617 8.8825 -0.2622 47.5393 2.2964 -1.0547
# 5 -9.5231 -14.1842 -11.5334 2.2964 22.8443 -3.6916
# 6 13.7999 9.3579 16.6544 -1.0547 -3.6916 44.4587
#
#
#
# Elastic Compliance Matrix: (Units=1/GPa)
#
#
# Indices 1 2 3 4 5 6 
#
# 1 0.023814 0.000679 0.002201 0.000157 0.010232 -0.007506
# 2 0.000679 0.009657 -0.002601 -0.002055 0.005027 -0.000900
# 3 0.002201 -0.002601 0.010299 0.000361 0.003874 -0.003663
# 4 0.000157 -0.002055 0.000361 0.021589 -0.003117 0.000502
# 5 0.010232 0.005027 0.003874 -0.003117 0.053214 -0.001340
# 6 -0.007506 -0.000900 -0.003663 0.000502 -0.001340 0.026285
#
#
# Mechanical properties :
#
#
# Convention : Reuss Voigt Hill
#
# Bulk Modulus (GPa) = 22.55941 41.23336 31.89639
# Shear Modulus (GPa) = 31.43142 39.83925 35.63533
#
# Velocity S-wave (km/s) = 3.40270 3.83087 3.62312
# Velocity P-wave (km/s) = 4.87320 5.89547 5.40854
#
# Compressibility (1/GPa) = 0.04432739
#
# Stress axis : x y z
#
# Youngs Moduli (GPa) = 41.99150 103.55130 97.09830
#
# Poissons Ratio (x) = -0.07034 -0.21367
# Poissons Ratio (y) = -0.02853 0.25258
# Poissons Ratio (z) = -0.09241 0.26937
#
# Static dielectric constant tensor:
#      x y z
#    x 4.539040 -0.072410 -0.112530 
#    y -0.072410 5.841550 -0.030220 
#    z -0.112530 -0.030220 5.383310 
# 
# 
# High freq. dielectric constant tensor:
#      x y z
#    x 2.071820 0.001490 -0.005600 
#    y 0.001490 2.124140 0.009900 
#    z -0.005600 0.009900 2.114990 
# 
# From -- ./inp_files/582621.got.cif
#   From: 2010.06.25/outbox.cif.g09.slc.cpg/sg2_292_cif.got.tgz:582621.got - 2010.06.27 13:26:56.
