data_PCOD8017776
_publ_section_title
;
Structure prediction by ZEFSAII (Michael W. Deem and Ramdas Pophale) SiO2 
 PCOD8017776
Probable space group: P -1
;
_chemical_formula_sum "Si O2"
_cell_formula_units_Z 14
_cell_length_a 15.872756
_cell_length_b 8.560929
_cell_length_c 14.633574
_cell_angle_alpha 124.038603
_cell_angle_beta 151.438621
_cell_angle_gamma 76.319888
_cell_volume 602.707783
_symmetry_space_group_name_H-M "P -1"
_symmetry_group_IT_number 2
_symmetry_cell_setting 'triclinic'
loop_
_space_group_symop_operation_xyz
x,y,z
-x,-y,-z
loop_
_atom_site_type_symbol
_atom_site_label
_atom_site_fract_x
_atom_site_fract_y
_atom_site_fract_z
Si Si1 0.480178 0.291467 0.597271
Si Si2 0.357009 0.944871 0.206126
Si Si3 0.182381 0.390892 0.415799
Si Si4 0.094491 0.205577 0.789036
Si Si5 0.321416 0.843549 0.592111
Si Si6 0.335724 0.684353 0.826517
Si Si7 0.944476 0.707642 0.427663
O O1 0.586237 0.209488 0.739030
O O2 0.241567 0.219403 0.382575
O O3 0.435103 0.174557 0.416850
O O4 0.664922 0.589136 0.863412
O O5 0.495407 0.044630 0.277011
O O6 0.086790 0.776102 0.869763
O O7 0.241797 0.579677 0.454733
O O8 0.354024 0.547218 0.716542
O O9 0.116729 0.282055 0.729902
O O10 0.903805 0.191263 0.659523
O O11 0.035801 0.944935 0.652871
O O12 0.433265 0.034098 0.847434
O O13 0.283278 0.535061 0.821237
O O14 0.133397 0.677999 0.597533
#
# Coordination Sequence:
#
# PCOD8017776 Si02
#       7
#     2   2   2   2   2   2   2
#     4  11  25  47  73  94 135 181 225 281 333 388
#     4  11  26  50  67  99 135 176 231 279 329 398
#     4  12  25  46  70 102 135 175 226 280 330 402
#     4  11  23  41  64 105 134 175 225 271 331 406
#     4  12  25  42  70  99 143 174 218 281 333 399
#     4  11  22  40  64 100 133 178 215 273 337 399
#     4  10  22  39  65  94 144 171 220 271 332 400
#
# _framework density 23.228504000000001
#
# number of rings (size 3 to 8) (size 9 to 14) (size 15 to 20)
#    0.000    0.857    2.857    4.286    6.000    1.714 
#    0.000    0.000    0.000    0.000    0.000    0.000 
#    0.000    0.000    0.000    0.000    0.000    0.000 
#
# Total GULP energy -173640.500113 kJ/mol
# GULP energy per Si atom -12402.892865 kJ/mol
# Density = 2.317564 g / cm^3
# Si number density = 23.228504 Si / 1000 Ang^3
#
#
#
# Elastic Constant Matrix: (Units=GPa)
#
#
# Indices 1 2 3 4 5 6 
#
# 1 107.3806 23.3130 40.4749 -0.3555 5.6276 -23.3328
# 2 23.3130 58.1413 20.7494 12.1410 -3.3652 -24.7664
# 3 40.4749 20.7494 93.4987 2.2285 7.2951 -10.5091
# 4 -0.3555 12.1410 2.2285 24.3672 -0.6640 -0.1423
# 5 5.6276 -3.3652 7.2951 -0.6640 30.2072 2.0080
# 6 -23.3328 -24.7664 -10.5091 -0.1423 2.0080 32.6437
#
#
#
# Elastic Compliance Matrix: (Units=1/GPa)
#
#
# Indices 1 2 3 4 5 6 
#
# 1 0.012839 -0.000771 -0.004446 0.000970 -0.001867 0.007280
# 2 -0.000771 0.031628 -0.004087 -0.015190 0.002865 0.021887
# 3 -0.004446 -0.004087 0.013530 0.000648 -0.002764 -0.001750
# 4 0.000970 -0.015190 0.000648 0.048494 -0.000273 -0.010395
# 5 -0.001867 0.002865 -0.002764 -0.000273 0.034578 -0.002178
# 6 0.007280 0.021887 -0.001750 -0.010395 -0.002178 0.051968
#
#
# Mechanical properties :
#
#
# Convention : Reuss Voigt Hill
#
# Bulk Modulus (GPa) = 25.38718 47.56614 36.47666
# Shear Modulus (GPa) = 22.24458 29.07584 25.66021
#
# Velocity S-wave (km/s) = 3.09794 3.54182 3.32729
# Velocity P-wave (km/s) = 4.87333 6.10311 5.52256
#
# Compressibility (1/GPa) = 0.03938996
#
# Stress axis : x y z
#
# Youngs Moduli (GPa) = 77.88969 31.61758 73.90748
#
# Poissons Ratio (x) = 0.02437 0.32859
# Poissons Ratio (y) = 0.06005 0.30204
# Poissons Ratio (z) = 0.34629 0.12921
#
# Static dielectric constant tensor:
#      x y z
#    x 4.137440 -0.208890 0.044070 
#    y -0.208890 4.305300 0.208540 
#    z 0.044070 0.208540 4.235280 
# 
# 
# High freq. dielectric constant tensor:
#      x y z
#    x 1.914920 -0.016240 0.006940 
#    y -0.016240 1.923620 0.008310 
#    z 0.006940 0.008310 1.919330 
# 
# From -- ./inp_files/236536.got.cif
#   From: 2010.06.25/outbox.cif.g09.slc.cpg/sg2_119_cif.got.tgz:236536.got - 2010.06.27 13:26:56.
