data_PCOD8017510
_publ_section_title
;
Structure prediction by ZEFSAII (Michael W. Deem and Ramdas Pophale) SiO2 
 PCOD8017510
Probable space group: P -1
;
_chemical_formula_sum "Si O2"
_cell_formula_units_Z 16
_cell_length_a 6.815803
_cell_length_b 23.539609
_cell_length_c 5.069692
_cell_angle_alpha 92.376027
_cell_angle_beta 116.289966
_cell_angle_gamma 76.035590
_cell_volume 705.698333
_symmetry_space_group_name_H-M "P -1"
_symmetry_group_IT_number 2
_symmetry_cell_setting 'triclinic'
loop_
_space_group_symop_operation_xyz
x,y,z
-x,-y,-z
loop_
_atom_site_type_symbol
_atom_site_label
_atom_site_fract_x
_atom_site_fract_y
_atom_site_fract_z
Si Si1 0.207570 0.536420 0.390863
Si Si2 0.641207 0.729918 0.761688
Si Si3 0.708418 0.540079 0.091491
Si Si4 0.099919 0.903080 0.075019
Si Si5 0.626472 0.361394 0.337384
Si Si6 0.802060 0.173698 0.384112
Si Si7 0.930807 0.732369 0.432364
Si Si8 0.346346 0.003769 0.159724
O O1 0.343948 0.503551 0.723608
O O2 0.260971 0.490742 0.179632
O O3 0.301539 0.593786 0.403938
O O4 0.942794 0.556613 0.307491
O O5 0.531378 0.675373 0.623889
O O6 0.451475 0.786279 0.752657
O O7 0.749376 0.745167 0.559834
O O8 0.825629 0.713054 0.099978
O O9 0.514164 0.600759 0.978478
O O10 0.176852 0.878893 0.406330
O O11 0.232954 0.949832 0.072794
O O12 0.149262 0.850166 0.886926
O O13 0.834982 0.933880 0.932653
O O14 0.854225 0.318324 0.350994
O O15 0.987053 0.209361 0.573318
O O16 0.500000 0.000000 0.500000
O O17 0.500000 0.000000 0.000000
#
# Coordination Sequence:
#
# PCOD8017510 Si02
#       8
#     2   2   2   2   2   2   2   2
#     4  10  22  39  61  90 121 157 202 249 306 376
#     4  11  26  44  64  93 125 162 211 261 317 374
#     4  10  22  39  61  90 121 157 202 249 306 376
#     4  11  24  42  66  99 130 168 222 257 302 379
#     4  11  24  42  66  90 124 164 202 256 316 374
#     4  11  24  43  68  93 126 169 214 267 310 361
#     4  11  26  44  64  93 125 162 211 261 317 374
#     4  11  24  41  64  98 138 175 208 257 316 364
#
# _framework density 22.672577
#
# number of rings (size 3 to 8) (size 9 to 14) (size 15 to 20)
#    0.000    1.250    0.000    4.500    0.000   18.000 
#    0.000    0.000    0.000    0.000    0.000    0.000 
#    0.000    0.000    0.000    0.000    0.000    0.000 
#
# Total GULP energy -198476.839146 kJ/mol
# GULP energy per Si atom -12404.802447 kJ/mol
# Density = 2.262097 g / cm^3
# Si number density = 22.672577 Si / 1000 Ang^3
#
#
#
# Elastic Constant Matrix: (Units=GPa)
#
#
# Indices 1 2 3 4 5 6 
#
# 1 120.3056 32.5597 28.7371 -9.3135 2.1902 4.7259
# 2 32.5597 96.5025 24.8385 -13.5233 12.7434 0.2334
# 3 28.7371 24.8385 104.6841 -11.3489 -8.6382 -4.8434
# 4 -9.3135 -13.5233 -11.3489 37.9532 -3.9054 3.5096
# 5 2.1902 12.7434 -8.6382 -3.9054 39.5779 -2.7779
# 6 4.7259 0.2334 -4.8434 3.5096 -2.7779 21.9854
#
#
#
# Elastic Compliance Matrix: (Units=1/GPa)
#
#
# Indices 1 2 3 4 5 6 
#
# 1 0.009694 -0.002542 -0.002089 0.001073 -0.000259 -0.002721
# 2 -0.002542 0.012824 -0.002442 0.002876 -0.004317 -0.001132
# 3 -0.002089 -0.002442 0.011396 0.002129 0.003819 0.003128
# 4 0.001073 0.002876 0.002129 0.028866 0.002037 -0.004143
# 5 -0.000259 -0.004317 0.003819 0.002037 0.027997 0.004155
# 6 -0.002721 -0.001132 0.003128 -0.004143 0.004155 0.047957
#
#
# Mechanical properties :
#
#
# Convention : Reuss Voigt Hill
#
# Bulk Modulus (GPa) = 50.58430 54.86252 52.72341
# Shear Modulus (GPa) = 31.35409 35.59377 33.47393
#
# Velocity S-wave (km/s) = 3.72278 3.96650 3.84657
# Velocity P-wave (km/s) = 6.39046 6.72516 6.55995
#
# Compressibility (1/GPa) = 0.01976898
#
# Stress axis : x y z
#
# Youngs Moduli (GPa) = 103.15932 77.97617 87.75026
#
# Poissons Ratio (x) = 0.19820 0.18330
# Poissons Ratio (y) = 0.26221 0.21428
# Poissons Ratio (z) = 0.21548 0.19041
#
# Static dielectric constant tensor:
#      x y z
#    x 4.279750 0.007550 0.395530 
#    y 0.007550 4.055800 -0.105740 
#    z 0.395530 -0.105740 4.148110 
# 
# 
# High freq. dielectric constant tensor:
#      x y z
#    x 1.911200 0.003100 0.018520 
#    y 0.003100 1.897740 -0.002900 
#    z 0.018520 -0.002900 1.901910 
# 
# From -- ./inp_files/13367.got.cif
#   From: 2010.06.25/outbox.cif.g09.slc.cpg/sg2_7_cif.got.tgz:13367.got - 2010.06.27 13:26:56.
