data_PCOD8017571
_publ_section_title
;
Structure prediction by ZEFSAII (Michael W. Deem and Ramdas Pophale) SiO2 
 PCOD8017571
Probable space group: P -1
;
_chemical_formula_sum "Si O2"
_cell_formula_units_Z 16
_cell_length_a 12.891512
_cell_length_b 9.243565
_cell_length_c 18.457409
_cell_angle_alpha 135.730444
_cell_angle_beta 132.740429
_cell_angle_gamma 83.711720
_cell_volume 765.430080
_symmetry_space_group_name_H-M "P -1"
_symmetry_group_IT_number 2
_symmetry_cell_setting 'triclinic'
loop_
_space_group_symop_operation_xyz
x,y,z
-x,-y,-z
loop_
_atom_site_type_symbol
_atom_site_label
_atom_site_fract_x
_atom_site_fract_y
_atom_site_fract_z
Si Si1 0.049376 0.702446 0.314557
Si Si2 0.090631 0.897405 0.795700
Si Si3 0.768466 0.793042 0.525903
Si Si4 0.761171 0.250211 0.440611
Si Si5 0.603855 0.395338 0.030830
Si Si6 0.545211 0.287456 0.123026
Si Si7 0.468892 0.585862 0.590147
Si Si8 0.086411 0.896618 0.962039
O O1 0.171098 0.845801 0.501077
O O2 0.823718 0.574639 0.161128
O O3 0.036888 0.445388 0.198852
O O4 0.200125 0.966457 0.420487
O O5 0.083859 0.948068 0.895068
O O6 0.990603 0.968227 0.725253
O O7 0.970677 0.544909 0.601255
O O8 0.323370 0.158076 0.971627
O O9 0.683264 0.512838 0.336044
O O10 0.617132 0.662157 0.476561
O O11 0.687166 0.391242 0.490314
O O12 0.576561 0.967618 0.201255
O O13 0.662913 0.464582 0.167994
O O14 0.500000 0.500000 0.000000
O O15 0.500000 0.000000 0.000000
O O16 0.500000 0.500000 0.500000
O O17 0.682802 0.910192 0.835023
O O18 0.000000 0.000000 0.000000
#
# Coordination Sequence:
#
# PCOD8017571 Si02
#       8
#     2   2   2   2   2   2   2   2
#     4  11  24  43  65  97 138 170 221 275 322 390
#     4  10  22  39  62  92 129 166 220 272 317 386
#     4  11  24  41  63  96 135 165 217 280 318 382
#     4  10  22  41  64  93 130 175 224 267 319 395
#     4  12  25  40  63  93 136 183 213 264 336 383
#     4  12  23  38  63  93 130 177 222 269 318 380
#     4  11  21  43  70  95 126 172 220 269 329 395
#     4  11  21  43  70  94 125 173 218 269 331 397
#
# _framework density 20.903282999999998
#
# number of rings (size 3 to 8) (size 9 to 14) (size 15 to 20)
#    0.000    1.000    2.500    6.750    0.000    6.000 
#    0.000    5.000    0.000    0.000    0.000    0.000 
#    0.000    0.000    0.000    0.000    0.000    0.000 
#
# Total GULP energy -198304.897803 kJ/mol
# GULP energy per Si atom -12394.056113 kJ/mol
# Density = 2.085571 g / cm^3
# Si number density = 20.903283 Si / 1000 Ang^3
#
#
#
# Elastic Constant Matrix: (Units=GPa)
#
#
# Indices 1 2 3 4 5 6 
#
# 1 92.0694 30.2982 27.5106 10.1169 -11.7808 6.6684
# 2 30.2982 116.5869 14.3517 2.7421 -5.2621 10.3599
# 3 27.5106 14.3517 91.6555 -10.7985 -4.7435 5.6189
# 4 10.1169 2.7421 -10.7985 35.9880 0.3468 2.2663
# 5 -11.7808 -5.2621 -4.7435 0.3468 25.3516 -1.0629
# 6 6.6684 10.3599 5.6189 2.2663 -1.0629 37.7860
#
#
#
# Elastic Compliance Matrix: (Units=1/GPa)
#
#
# Indices 1 2 3 4 5 6 
#
# 1 0.014302 -0.002787 -0.004134 -0.005056 0.005334 -0.000692
# 2 -0.002787 0.009568 -0.000507 0.000026 0.000510 -0.002043
# 3 -0.004134 -0.000507 0.012936 0.005165 0.000267 -0.001357
# 4 -0.005056 0.000026 0.005165 0.030887 -0.001875 -0.001788
# 5 0.005334 0.000510 0.000267 -0.001875 0.042113 0.000176
# 6 -0.000692 -0.002043 -0.001357 -0.001788 0.000176 0.027461
#
#
# Mechanical properties :
#
#
# Convention : Reuss Voigt Hill
#
# Bulk Modulus (GPa) = 45.55566 49.40362 47.47964
# Shear Modulus (GPa) = 31.36001 35.03520 33.19760
#
# Velocity S-wave (km/s) = 3.87750 4.09842 3.98949
# Velocity P-wave (km/s) = 6.47206 6.78835 6.63209
#
# Compressibility (1/GPa) = 0.02195117
#
# Stress axis : x y z
#
# Youngs Moduli (GPa) = 69.92099 104.51635 77.30306
#
# Poissons Ratio (x) = 0.29126 0.31954
# Poissons Ratio (y) = 0.19485 0.03919
# Poissons Ratio (z) = 0.28903 0.05299
#
# Static dielectric constant tensor:
#      x y z
#    x 4.472380 -0.252870 0.317390 
#    y -0.252870 3.753360 -0.249830 
#    z 0.317390 -0.249830 4.048850 
# 
# 
# High freq. dielectric constant tensor:
#      x y z
#    x 1.802980 0.003600 0.010590 
#    y 0.003600 1.819470 -0.017060 
#    z 0.010590 -0.017060 1.837780 
# 
# From -- ./inp_files/186454.got.cif
#   From: 2010.06.25/outbox.cif.g09.slc.cpg/sg2_94_cif.got.tgz:186454.got - 2010.06.27 13:26:56.
