data_PCOD8017356
_publ_section_title
;
Structure prediction by ZEFSAII (Michael W. Deem and Ramdas Pophale) SiO2 
 PCOD8017356
Probable space group: P -1
;
_chemical_formula_sum "Si O2"
_cell_formula_units_Z 14
_cell_length_a 5.275217
_cell_length_b 13.920706
_cell_length_c 8.889582
_cell_angle_alpha 90.000094
_cell_angle_beta 87.487033
_cell_angle_gamma 90.000000
_cell_volume 652.176401
_symmetry_space_group_name_H-M "P -1"
_symmetry_group_IT_number 2
_symmetry_cell_setting 'triclinic'
loop_
_space_group_symop_operation_xyz
x,y,z
-x,-y,-z
loop_
_atom_site_type_symbol
_atom_site_label
_atom_site_fract_x
_atom_site_fract_y
_atom_site_fract_z
Si Si1 0.684674 0.913950 0.516335
Si Si2 0.012288 0.396901 0.572946
Si Si3 0.315326 0.913950 0.983666
Si Si4 0.000001 0.995852 0.250000
Si Si5 0.987713 0.396901 0.927055
Si Si6 0.509934 0.716006 0.072193
Si Si7 0.490064 0.716006 0.427806
O O1 0.524990 0.816124 0.513800
O O2 0.807472 0.929338 0.676888
O O3 0.500000 0.000000 0.500000
O O4 0.888313 0.921416 0.375625
O O5 0.779430 0.330917 0.519932
O O6 0.000000 0.500000 0.500000
O O7 0.999998 0.410954 0.750000
O O8 0.280878 0.350985 0.521241
O O9 0.475009 0.816124 0.986199
O O10 0.192524 0.929340 0.823115
O O11 0.111692 0.921415 0.124377
O O12 0.500000 0.000000 0.000000
O O13 0.220571 0.330918 0.980066
O O14 0.719125 0.350984 0.978760
O O15 0.000000 0.500000 0.000000
O O16 0.500001 0.734710 0.249999
#
# Coordination Sequence:
#
# PCOD8017356 Si02
#       7
#     2   2   2   2   2   2   2
#     4  11  23  41  62  94 132 171 218 263 320 383
#     4  10  22  42  64  92 121 161 209 264 321 382
#     4  11  23  41  62  94 132 171 218 263 320 383
#     4  10  24  38  64  88 138 172 216 268 318 376
#     4  10  22  42  64  92 121 161 209 264 321 382
#     4  10  22  38  68  90 124 169 210 254 322 386
#     4  10  22  38  68  90 124 169 210 254 322 386
#
# _framework density 21.466584000000001
#
# number of rings (size 3 to 8) (size 9 to 14) (size 15 to 20)
#    0.000    1.714    0.000    3.429   14.000    0.000 
#    2.571    0.000    0.000    0.000    0.000    0.000 
#    0.000    0.000    0.000    0.000    0.000    0.000 
#
# Total GULP energy -173603.173258 kJ/mol
# GULP energy per Si atom -12400.226661 kJ/mol
# Density = 2.141772 g / cm^3
# Si number density = 21.466584 Si / 1000 Ang^3
#
#
#
# Elastic Constant Matrix: (Units=GPa)
#
#
# Indices 1 2 3 4 5 6 
#
# 1 143.6753 63.9621 30.5547 3.2082 39.6451 -3.7630
# 2 63.9621 172.2930 39.1368 6.2559 36.3437 -5.2494
# 3 30.5547 39.1368 58.4136 4.6934 30.0997 -1.0560
# 4 3.2082 6.2559 4.6934 34.2326 1.5110 9.2824
# 5 39.6451 36.3437 30.0997 1.5110 33.4224 1.2971
# 6 -3.7630 -5.2494 -1.0560 9.2824 1.2971 47.0800
#
#
#
# Elastic Compliance Matrix: (Units=1/GPa)
#
#
# Indices 1 2 3 4 5 6 
#
# 1 0.010926 -0.001738 0.002325 -0.000782 -0.013176 0.001249
# 2 -0.001738 0.007981 -0.001723 -0.001127 -0.005056 0.001074
# 3 0.002325 -0.001723 0.033240 -0.003733 -0.030741 0.002322
# 4 -0.000782 -0.001127 -0.003733 0.031607 0.004344 -0.006623
# 5 -0.013176 -0.005056 -0.030741 0.004344 0.078742 -0.005332
# 6 0.001249 0.001074 0.002322 -0.006623 -0.005332 0.022965
#
#
# Mechanical properties :
#
#
# Convention : Reuss Voigt Hill
#
# Bulk Modulus (GPa) = 20.05069 71.29879 45.67474
# Shear Modulus (GPa) = 24.46689 38.99555 31.73122
#
# Velocity S-wave (km/s) = 3.37971 4.26675 3.84887
# Velocity P-wave (km/s) = 4.95889 7.58680 6.40898
#
# Compressibility (1/GPa) = 0.04987358
#
# Stress axis : x y z
#
# Youngs Moduli (GPa) = 91.52875 125.30071 30.08442
#
# Poissons Ratio (x) = 0.21780 -0.06994
# Poissons Ratio (y) = 0.15910 0.05183
# Poissons Ratio (z) = -0.21277 0.21586
#
# Static dielectric constant tensor:
#      x y z
#    x 4.308910 -0.016900 0.185450 
#    y -0.016900 3.631260 -0.004180 
#    z 0.185450 -0.004180 3.676740 
# 
# 
# High freq. dielectric constant tensor:
#      x y z
#    x 1.863460 -0.001430 0.015320 
#    y -0.001430 1.841930 0.001270 
#    z 0.015320 0.001270 1.828730 
# 
# From -- ./inp_files/35495.got.cif
#   From: 2010.06.25/outbox.cif.g09.slc.cpg/sg2_18_cif.got.tgz:35495.got - 2010.06.27 13:26:56.
