data_PCOD8017953
_publ_section_title
;
Structure prediction by ZEFSAII (Michael W. Deem and Ramdas Pophale) SiO2 
 PCOD8017953
Probable space group: P -1
;
_chemical_formula_sum "Si O2"
_cell_formula_units_Z 16
_cell_length_a 8.718714
_cell_length_b 12.184133
_cell_length_c 19.098731
_cell_angle_alpha 27.665396
_cell_angle_beta 130.306497
_cell_angle_gamma 117.578372
_cell_volume 682.855292
_symmetry_space_group_name_H-M "P -1"
_symmetry_group_IT_number 2
_symmetry_cell_setting 'triclinic'
loop_
_space_group_symop_operation_xyz
x,y,z
-x,-y,-z
loop_
_atom_site_type_symbol
_atom_site_label
_atom_site_fract_x
_atom_site_fract_y
_atom_site_fract_z
Si Si1 0.183119 0.140644 0.268421
Si Si2 0.893927 0.798928 0.106125
Si Si3 0.274597 0.001775 0.523259
Si Si4 0.147708 0.490730 0.483004
Si Si5 0.391016 0.846012 0.378621
Si Si6 0.531548 0.006040 0.183484
Si Si7 0.154683 0.601794 0.786826
Si Si8 0.714656 0.444313 0.000258
O O1 0.294202 0.970763 0.462489
O O2 0.944215 0.287351 0.129397
O O3 0.181353 0.995393 0.276665
O O4 0.341892 0.309144 0.204713
O O5 0.924115 0.587635 0.175492
O O6 0.996586 0.665681 0.282390
O O7 0.643263 0.952347 0.953538
O O8 0.000000 0.000000 0.000000
O O9 0.416608 0.157717 0.510841
O O10 0.037366 0.167386 0.375460
O O11 0.315111 0.723864 0.724491
O O12 0.354756 0.578154 0.508508
O O13 0.247276 0.205878 0.646993
O O14 0.000000 0.500000 0.500000
O O15 0.423763 0.952613 0.252931
O O16 0.560851 0.276797 0.045583
O O17 0.274536 0.463088 0.969336
#
# Coordination Sequence:
#
# PCOD8017953 Si02
#       8
#     2   2   2   2   2   2   2   2
#     4  10  23  39  65 105 144 176 231 299 362 410
#     4  12  28  46  73 109 145 190 243 295 350 431
#     4  10  22  39  70 104 141 184 235 294 356 421
#     4  12  30  51  73 102 147 193 237 301 358 424
#     4  12  23  42  72 101 137 186 238 292 350 429
#     4  12  26  48  77 104 141 191 248 287 358 435
#     4  10  22  41  69 102 142 186 233 292 355 425
#     4  10  22  43  67 101 140 189 229 295 357 420
#
# _framework density 23.431027
#
# number of rings (size 3 to 8) (size 9 to 14) (size 15 to 20)
#    0.000    1.000    2.500    3.000    8.750    2.500 
#    2.250    0.000    0.000    0.000    0.000    0.000 
#    0.000    0.000    0.000    0.000    0.000    0.000 
#
# Total GULP energy -198309.960168 kJ/mol
# GULP energy per Si atom -12394.372510 kJ/mol
# Density = 2.337770 g / cm^3
# Si number density = 23.431027 Si / 1000 Ang^3
#
#
#
# Elastic Constant Matrix: (Units=GPa)
#
#
# Indices 1 2 3 4 5 6 
#
# 1 107.8435 38.5027 35.1867 3.4273 -25.0001 -8.7384
# 2 38.5027 121.5928 38.3380 -0.5279 -23.1206 5.5135
# 3 35.1867 38.3380 124.4316 9.8378 -29.9854 -13.5000
# 4 3.4273 -0.5279 9.8378 39.7144 2.7856 -3.1197
# 5 -25.0001 -23.1206 -29.9854 2.7856 29.4988 -2.8895
# 6 -8.7384 5.5135 -13.5000 -3.1197 -2.8895 44.8759
#
#
#
# Elastic Compliance Matrix: (Units=1/GPa)
#
#
# Indices 1 2 3 4 5 6 
#
# 1 0.012579 -0.002348 -0.000188 -0.001458 0.009078 0.003165
# 2 -0.002348 0.010408 -0.001793 0.000340 0.004119 -0.001986
# 3 -0.000188 -0.001793 0.012179 -0.003494 0.011571 0.004350
# 4 -0.001458 0.000340 -0.003494 0.026671 -0.007038 0.000024
# 5 0.009078 0.004119 0.011571 -0.007038 0.058031 0.007990
# 6 0.003165 -0.001986 0.004350 0.000024 0.007990 0.024969
#
#
# Mechanical properties :
#
#
# Convention : Reuss Voigt Hill
#
# Bulk Modulus (GPa) = 37.72261 64.21362 50.96812
# Shear Modulus (GPa) = 30.80180 38.94052 34.87116
#
# Velocity S-wave (km/s) = 3.62964 4.08109 3.86197
# Velocity P-wave (km/s) = 5.80518 7.04783 6.45647
#
# Compressibility (1/GPa) = 0.02650930
#
# Stress axis : x y z
#
# Youngs Moduli (GPa) = 79.49576 96.08455 82.11157
#
# Poissons Ratio (x) = 0.22559 0.01540
# Poissons Ratio (y) = 0.18664 0.14719
# Poissons Ratio (z) = 0.01491 0.17224
#
# Static dielectric constant tensor:
#      x y z
#    x 4.679000 0.046460 -0.140380 
#    y 0.046460 4.360250 0.022110 
#    z -0.140380 0.022110 4.601460 
# 
# 
# High freq. dielectric constant tensor:
#      x y z
#    x 1.954570 0.008360 0.002740 
#    y 0.008360 1.921970 -0.005040 
#    z 0.002740 -0.005040 1.938270 
# 
# From -- ./inp_files/559581.got.cif
#   From: 2010.06.25/outbox.cif.g09.slc.cpg/sg2_280_cif.got.tgz:559581.got - 2010.06.27 13:26:56.
