data_PCOD8017256
_publ_section_title
;
Structure prediction by ZEFSAII (Michael W. Deem and Ramdas Pophale) SiO2 
 PCOD8017256
Probable space group: P -1
;
_chemical_formula_sum "Si O2"
_cell_formula_units_Z 14
_cell_length_a 5.307368
_cell_length_b 11.652469
_cell_length_c 10.120826
_cell_angle_alpha 89.047730
_cell_angle_beta 109.290930
_cell_angle_gamma 82.235813
_cell_volume 584.096178
_symmetry_space_group_name_H-M "P -1"
_symmetry_group_IT_number 2
_symmetry_cell_setting 'triclinic'
loop_
_space_group_symop_operation_xyz
x,y,z
-x,-y,-z
loop_
_atom_site_type_symbol
_atom_site_label
_atom_site_fract_x
_atom_site_fract_y
_atom_site_fract_z
Si Si1 0.411630 0.197804 0.750108
Si Si2 0.513619 0.808352 0.935358
Si Si3 0.520193 0.422968 0.656187
Si Si4 0.308526 0.451334 0.074049
Si Si5 0.972520 0.357901 0.540298
Si Si6 0.536495 0.945840 0.695108
Si Si7 0.936551 0.174384 0.329965
O O1 0.594259 0.297209 0.743613
O O2 0.101073 0.252730 0.663351
O O3 0.496657 0.084824 0.676841
O O4 0.453406 0.157283 0.908747
O O5 0.683599 0.684380 0.937988
O O6 0.630995 0.902248 0.860444
O O7 0.199780 0.804699 0.839930
O O8 0.602482 0.521671 0.762913
O O9 0.193897 0.449133 0.571696
O O10 0.682338 0.417021 0.545620
O O11 0.500000 0.500000 0.000000
O O12 0.000000 0.500000 0.000000
O O13 0.942152 0.300620 0.393360
O O14 0.254537 0.898077 0.613880
O O15 0.762429 0.895904 0.628245
#
# Coordination Sequence:
#
# PCOD8017256 Si02
#       7
#     2   2   2   2   2   2   2
#     4  10  22  39  64  92 126 161 207 253 303 365
#     4  10  24  41  64  92 127 158 205 253 315 361
#     4  10  22  38  64  92 121 158 210 255 302 351
#     4  12  23  41  66  94 125 156 207 255 309 364
#     4  10  22  42  63  90 127 162 211 251 300 363
#     4  10  24  39  63  90 128 164 203 249 310 363
#     4  10  24  42  61  90 128 166 205 249 307 366
#
# _framework density 23.968654000000001
#
# number of rings (size 3 to 8) (size 9 to 14) (size 15 to 20)
#    1.714    0.000    1.429    3.000    4.000    2.857 
#    0.000    1.429    0.000    0.000    0.000    0.000 
#    0.000    0.000    0.000    0.000    0.000    0.000 
#
# Total GULP energy -173545.430909 kJ/mol
# GULP energy per Si atom -12396.102208 kJ/mol
# Density = 2.391410 g / cm^3
# Si number density = 23.968654 Si / 1000 Ang^3
#
#
#
# Elastic Constant Matrix: (Units=GPa)
#
#
# Indices 1 2 3 4 5 6 
#
# 1 179.8274 41.7130 40.0548 11.7003 -3.6685 -32.1590
# 2 41.7130 80.7821 -2.9023 9.2667 -0.5656 -10.8229
# 3 40.0548 -2.9023 84.1872 9.2156 5.0248 -4.0265
# 4 11.7003 9.2667 9.2156 34.2170 3.9854 -10.7471
# 5 -3.6685 -0.5656 5.0248 3.9854 37.7079 0.2395
# 6 -32.1590 -10.8229 -4.0265 -10.7471 0.2395 32.6053
#
#
#
# Elastic Compliance Matrix: (Units=1/GPa)
#
#
# Indices 1 2 3 4 5 6 
#
# 1 0.008543 -0.003746 -0.004063 0.001284 0.001136 0.007096
# 2 -0.003746 0.014851 0.002687 -0.003296 -0.000155 0.000482
# 3 -0.004063 0.002687 0.014305 -0.003788 -0.001844 -0.002584
# 4 0.001284 -0.003296 -0.003788 0.034557 -0.003143 0.011118
# 5 0.001136 -0.000155 -0.001844 -0.003143 0.027208 -0.000395
# 6 0.007096 0.000482 -0.002584 0.011118 -0.000395 0.041177
#
#
# Mechanical properties :
#
#
# Convention : Reuss Voigt Hill
#
# Bulk Modulus (GPa) = 36.42106 55.83642 46.12874
# Shear Modulus (GPa) = 31.24257 38.63479 34.93868
#
# Velocity S-wave (km/s) = 3.61429 4.01919 3.82210
# Velocity P-wave (km/s) = 5.71364 6.69960 6.22617
#
# Compressibility (1/GPa) = 0.02745665
#
# Stress axis : x y z
#
# Youngs Moduli (GPa) = 117.04840 67.33374 69.90483
#
# Poissons Ratio (x) = 0.25224 0.28402
# Poissons Ratio (y) = 0.43848 -0.18786
# Poissons Ratio (z) = 0.47556 -0.18095
#
# Static dielectric constant tensor:
#      x y z
#    x 4.127980 -0.026640 0.079660 
#    y -0.026640 4.338000 -0.165390 
#    z 0.079660 -0.165390 4.119450 
# 
# 
# High freq. dielectric constant tensor:
#      x y z
#    x 1.942230 -0.008570 0.005530 
#    y -0.008570 1.967800 -0.008710 
#    z 0.005530 -0.008710 1.947450 
# 
# From -- ./inp_files/67751.got.cif
#   From: 2010.06.25/outbox.cif.g09.slc.cpg/sg2_34_cif.got.tgz:67751.got - 2010.06.27 13:26:56.
