data_PCOD8017026
_publ_section_title
;
Structure prediction by ZEFSAII (Michael W. Deem and Ramdas Pophale) SiO2 
 PCOD8017026
Probable space group: P -1
;
_chemical_formula_sum "Si O2"
_cell_formula_units_Z 14
_cell_length_a 12.494117
_cell_length_b 9.017277
_cell_length_c 18.372742
_cell_angle_alpha 38.496988
_cell_angle_beta 29.890286
_cell_angle_gamma 50.645974
_cell_volume 635.480675
_symmetry_space_group_name_H-M "P -1"
_symmetry_group_IT_number 2
_symmetry_cell_setting 'triclinic'
loop_
_space_group_symop_operation_xyz
x,y,z
-x,-y,-z
loop_
_atom_site_type_symbol
_atom_site_label
_atom_site_fract_x
_atom_site_fract_y
_atom_site_fract_z
Si Si1 0.975756 0.384745 0.329543
Si Si2 0.292367 0.663484 0.280215
Si Si3 0.755518 0.192804 0.908239
Si Si4 0.692832 0.925953 0.706115
Si Si5 0.861751 0.837942 0.486465
Si Si6 0.905076 0.371190 0.215748
Si Si7 0.740970 0.681931 0.080966
O O1 0.054859 0.605000 0.251707
O O2 0.153560 0.203041 0.280859
O O3 0.927283 0.484278 0.240063
O O4 0.761571 0.217269 0.552683
O O5 0.333042 0.729781 0.146358
O O6 0.221980 0.375898 0.438247
O O7 0.505552 0.734049 0.174936
O O8 0.115364 0.815467 0.360625
O O9 0.557458 0.150133 0.098202
O O10 0.860775 0.946373 0.932823
O O11 0.729380 0.810689 0.649885
O O12 0.827692 0.086095 0.373146
O O13 0.728315 0.499449 0.226789
O O14 0.134375 0.427050 0.016786
#
# Coordination Sequence:
#
# PCOD8017026 Si02
#       7
#     2   2   2   2   2   2   2
#     4  10  22  39  66  90 136 165 209 270 324 378
#     4  11  23  39  68 100 126 165 218 276 316 380
#     4  12  23  39  67 103 123 168 221 270 319 386
#     4  10  22  37  65 100 130 163 209 275 331 374
#     4  10  22  41  66  97 129 166 215 270 331 371
#     4  10  23  45  61  92 130 179 207 264 325 390
#     4  11  25  40  65  91 134 171 219 256 323 392
#
# _framework density 22.030566
#
# number of rings (size 3 to 8) (size 9 to 14) (size 15 to 20)
#    0.000    1.429    2.857    1.714    8.000    1.143 
#    0.000    2.857    0.000    0.000    0.000    0.000 
#    0.000    0.000    0.000    0.000    0.000    0.000 
#
# Total GULP energy -173604.720550 kJ/mol
# GULP energy per Si atom -12400.337182 kJ/mol
# Density = 2.198042 g / cm^3
# Si number density = 22.030566 Si / 1000 Ang^3
#
#
#
# Elastic Constant Matrix: (Units=GPa)
#
#
# Indices 1 2 3 4 5 6 
#
# 1 116.7746 50.7503 32.5170 -19.2024 24.5716 -1.1591
# 2 50.7503 100.3562 29.1768 -24.0576 0.3261 1.2276
# 3 32.5170 29.1768 67.2084 -6.5357 6.4204 5.3682
# 4 -19.2024 -24.0576 -6.5357 40.8847 3.6103 10.3335
# 5 24.5716 0.3261 6.4204 3.6103 31.6336 -7.5162
# 6 -1.1591 1.2276 5.3682 10.3335 -7.5162 26.0100
#
#
#
# Elastic Compliance Matrix: (Units=1/GPa)
#
#
# Indices 1 2 3 4 5 6 
#
# 1 0.015413 -0.005440 -0.002908 0.005885 -0.013085 -0.004576
# 2 -0.005440 0.015172 -0.003640 0.005812 0.003808 -0.001416
# 3 -0.002908 -0.003640 0.018626 0.000978 -0.002782 -0.004995
# 4 0.005885 0.005812 0.000978 0.036712 -0.013460 -0.018689
# 5 -0.013085 0.003808 -0.002782 -0.013460 0.048385 0.019141
# 6 -0.004576 -0.001416 -0.004995 -0.018689 0.019141 0.052297
#
#
# Mechanical properties :
#
#
# Convention : Reuss Voigt Hill
#
# Bulk Modulus (GPa) = 39.62642 56.58082 48.10362
# Shear Modulus (GPa) = 22.83192 31.16534 26.99863
#
# Velocity S-wave (km/s) = 3.22277 3.76525 3.50452
# Velocity P-wave (km/s) = 5.64574 6.68143 6.18530
#
# Compressibility (1/GPa) = 0.02523569
#
# Stress axis : x y z
#
# Youngs Moduli (GPa) = 64.88081 65.91105 53.68801
#
# Poissons Ratio (x) = 0.35853 0.15612
# Poissons Ratio (y) = 0.35293 0.19543
# Poissons Ratio (z) = 0.18867 0.23993
#
# Static dielectric constant tensor:
#      x y z
#    x 3.816960 0.108960 0.218730 
#    y 0.108960 3.918240 -0.194390 
#    z 0.218730 -0.194390 4.001820 
# 
# 
# High freq. dielectric constant tensor:
#      x y z
#    x 1.849200 0.022170 0.021690 
#    y 0.022170 1.864840 -0.011010 
#    z 0.021690 -0.011010 1.866240 
# 
# From -- ./inp_files/149550.got.cif
#   From: 2010.06.25/outbox.cif.g09.slc.cpg/sg2_75_cif.got.tgz:149550.got - 2010.06.27 13:26:56.
