data_PCOD8017743
_publ_section_title
;
Structure prediction by ZEFSAII (Michael W. Deem and Ramdas Pophale) SiO2 
 PCOD8017743
Probable space group: P -1
;
_chemical_formula_sum "Si O2"
_cell_formula_units_Z 16
_cell_length_a 15.751687
_cell_length_b 5.178772
_cell_length_c 15.777792
_cell_angle_alpha 54.871900
_cell_angle_beta 33.971701
_cell_angle_gamma 64.148524
_cell_volume 585.812520
_symmetry_space_group_name_H-M "P -1"
_symmetry_group_IT_number 2
_symmetry_cell_setting 'triclinic'
loop_
_space_group_symop_operation_xyz
x,y,z
-x,-y,-z
loop_
_atom_site_type_symbol
_atom_site_label
_atom_site_fract_x
_atom_site_fract_y
_atom_site_fract_z
Si Si1 0.145067 0.248252 0.383792
Si Si2 0.406498 0.697685 0.797578
Si Si3 0.903975 0.370065 0.194622
Si Si4 0.913154 0.109959 0.960580
Si Si5 0.416826 0.655688 0.615975
Si Si6 0.413472 0.298157 0.036159
Si Si7 0.737926 0.852640 0.525471
Si Si8 0.032623 0.556524 0.640395
O O1 0.246648 0.176028 0.231410
O O2 0.259738 0.331701 0.351568
O O3 0.038165 0.516195 0.384698
O O4 0.046357 0.934872 0.558055
O O5 0.417446 0.489141 0.740924
O O6 0.566952 0.922525 0.629312
O O7 0.266975 0.926751 0.858652
O O8 0.391179 0.480379 0.932808
O O9 0.760355 0.338140 0.258896
O O10 0.966709 0.741208 0.091920
O O11 0.849779 0.184242 0.362057
O O12 0.039618 0.208199 0.064274
O O13 0.919088 0.406152 0.834332
O O14 0.500000 0.500000 0.500000
O O15 0.500000 0.000000 0.500000
O O16 0.500000 0.500000 0.000000
O O17 0.500000 0.000000 0.000000
O O18 0.807911 0.604849 0.449818
#
# Coordination Sequence:
#
# PCOD8017743 Si02
#       8
#     2   2   2   2   2   2   2   2
#     4  11  21  40  66  99 141 197 250 289 365 441
#     4  12  27  49  75 114 151 196 254 318 379 440
#     4  11  25  48  74 106 148 193 249 304 372 447
#     4  11  25  47  72 110 148 194 244 308 377 440
#     4  12  28  50  82 115 145 193 257 317 377 450
#     4  12  27  45  68 107 153 194 238 302 373 436
#     4  11  22  42  72 101 142 196 247 304 364 443
#     4  10  22  39  65 101 141 198 243 298 356 452
#
# _framework density 27.312494999999998
#
# number of rings (size 3 to 8) (size 9 to 14) (size 15 to 20)
#    0.000    0.750    5.000    1.875    1.750    5.000 
#    2.250    0.000    0.000    0.000    0.000    0.000 
#    0.000    0.000    0.000    0.000    0.000    0.000 
#
# Total GULP energy -198246.940688 kJ/mol
# GULP energy per Si atom -12390.433793 kJ/mol
# Density = 2.725033 g / cm^3
# Si number density = 27.312495 Si / 1000 Ang^3
#
#
#
# Elastic Constant Matrix: (Units=GPa)
#
#
# Indices 1 2 3 4 5 6 
#
# 1 145.5296 27.6190 58.4845 21.8057 -6.4791 8.2569
# 2 27.6190 140.0308 44.6052 6.3869 -20.9403 11.0266
# 3 58.4845 44.6052 136.2099 18.2643 -7.0236 3.9739
# 4 21.8057 6.3869 18.2643 39.9152 -2.0620 -5.4277
# 5 -6.4791 -20.9403 -7.0236 -2.0620 65.5056 13.9292
# 6 8.2569 11.0266 3.9739 -5.4277 13.9292 32.0843
#
#
#
# Elastic Compliance Matrix: (Units=1/GPa)
#
#
# Indices 1 2 3 4 5 6 
#
# 1 0.008942 -0.000222 -0.003127 -0.003762 0.000976 -0.002898
# 2 -0.000222 0.008831 -0.002416 -0.000589 0.003431 -0.004268
# 3 -0.003127 -0.002416 0.009786 -0.002379 -0.000123 0.000074
# 4 -0.003762 -0.000589 -0.002379 0.029172 -0.001386 0.007002
# 5 0.000976 0.003431 -0.000123 -0.001386 0.018457 -0.009663
# 6 -0.002898 -0.004268 0.000074 0.007002 -0.009663 0.038751
#
#
# Mechanical properties :
#
#
# Convention : Reuss Voigt Hill
#
# Bulk Modulus (GPa) = 62.39047 75.90974 69.15010
# Shear Modulus (GPa) = 38.22288 46.90512 42.56400
#
# Velocity S-wave (km/s) = 3.74500 4.14859 3.95195
# Velocity P-wave (km/s) = 6.44925 7.12749 6.79683
#
# Compressibility (1/GPa) = 0.01602809
#
# Stress axis : x y z
#
# Youngs Moduli (GPa) = 111.83257 113.24187 102.18488
#
# Poissons Ratio (x) = 0.02511 0.31958
# Poissons Ratio (y) = 0.02480 0.24689
# Poissons Ratio (z) = 0.34975 0.27361
#
# Static dielectric constant tensor:
#      x y z
#    x 5.504090 -0.251390 0.240350 
#    y -0.251390 4.661220 -0.003730 
#    z 0.240350 -0.003730 5.469830 
# 
# 
# High freq. dielectric constant tensor:
#      x y z
#    x 2.134060 -0.012190 0.022050 
#    y -0.012190 2.074620 0.002300 
#    z 0.022050 0.002300 2.135290 
# 
# From -- ./inp_files/525543.got.cif
#   From: 2010.06.25/outbox.cif.g09.slc.cpg/sg2_263_cif.got.tgz:525543.got - 2010.06.27 13:26:56.
