data_PCOD8017315
_publ_section_title
;
Structure prediction by ZEFSAII (Michael W. Deem and Ramdas Pophale) SiO2 
 PCOD8017315
Probable space group: P -1
;
_chemical_formula_sum "Si O2"
_cell_formula_units_Z 14
_cell_length_a 6.496036
_cell_length_b 9.393806
_cell_length_c 17.913206
_cell_angle_alpha 76.594386
_cell_angle_beta 62.770751
_cell_angle_gamma 47.394681
_cell_volume 710.320727
_symmetry_space_group_name_H-M "P -1"
_symmetry_group_IT_number 2
_symmetry_cell_setting 'triclinic'
loop_
_space_group_symop_operation_xyz
x,y,z
-x,-y,-z
loop_
_atom_site_type_symbol
_atom_site_label
_atom_site_fract_x
_atom_site_fract_y
_atom_site_fract_z
Si Si1 0.275471 0.238293 0.791044
Si Si2 0.626473 0.532466 0.800243
Si Si3 0.720604 0.809168 0.811771
Si Si4 0.343513 0.909804 0.534073
Si Si5 0.376034 0.749254 0.397393
Si Si6 0.377559 0.634621 0.667187
Si Si7 0.900461 0.455286 0.094462
O O1 0.491966 0.199532 0.693494
O O2 0.246415 0.379009 0.838727
O O3 0.946496 0.328876 0.800142
O O4 0.428837 0.037153 0.830855
O O5 0.613253 0.708204 0.800161
O O6 0.589529 0.530902 0.717765
O O7 0.351354 0.561345 0.884494
O O8 0.019335 0.753329 0.729127
O O9 0.800082 0.745169 0.893360
O O10 0.480106 0.764346 0.458822
O O11 0.412914 0.783409 0.611101
O O12 0.500000 0.000000 0.500000
O O13 0.987559 0.094080 0.564806
O O14 0.504579 0.531770 0.392658
O O15 0.000000 0.500000 0.000000
#
# Coordination Sequence:
#
# PCOD8017315 Si02
#       7
#     2   2   2   2   2   2   2
#     4  11  22  41  66  91 127 161 207 256 308 366
#     4  10  22  38  66  94 116 168 205 250 305 375
#     4  10  22  39  65  93 121 165 203 256 307 364
#     4  11  27  39  61  92 126 165 209 261 307 363
#     4  11  23  42  60  90 125 162 209 262 306 356
#     4  11  22  42  63  87 127 163 211 256 308 363
#     4  10  23  44  64  95 130 158 201 255 308 370
#
# _framework density 19.709408
#
# number of rings (size 3 to 8) (size 9 to 14) (size 15 to 20)
#    0.000    1.429    5.714    0.429    4.000    5.714 
#    0.000    1.429    0.000    0.000    0.000    0.000 
#    0.000    0.000    0.000    0.000    0.000    0.000 
#
# Total GULP energy -173618.575754 kJ/mol
# GULP energy per Si atom -12401.326840 kJ/mol
# Density = 1.966455 g / cm^3
# Si number density = 19.709408 Si / 1000 Ang^3
#
#
#
# Elastic Constant Matrix: (Units=GPa)
#
#
# Indices 1 2 3 4 5 6 
#
# 1 126.7432 49.8502 38.1627 -16.4148 -11.8805 -3.8027
# 2 49.8502 126.3774 18.4274 -27.6694 -6.0171 -9.2063
# 3 38.1627 18.4274 94.1773 -35.3388 -9.4232 -2.1219
# 4 -16.4148 -27.6694 -35.3388 27.5039 3.6398 -5.5742
# 5 -11.8805 -6.0171 -9.4232 3.6398 18.7786 -8.0418
# 6 -3.8027 -9.2063 -2.1219 -5.5742 -8.0418 19.9983
#
#
#
# Elastic Compliance Matrix: (Units=1/GPa)
#
#
# Indices 1 2 3 4 5 6 
#
# 1 0.010876 -0.004605 -0.005211 -0.005448 0.003548 -0.000696
# 2 -0.004605 0.018124 0.013927 0.036584 0.013276 0.024481
# 3 -0.005211 0.013927 0.036175 0.061589 0.022588 0.035509
# 4 -0.005448 0.036584 0.061589 0.160370 0.044464 0.084921
# 5 0.003548 0.013276 0.022588 0.044464 0.086624 0.056410
# 6 -0.000696 0.024481 0.035509 0.084921 0.056410 0.111264
#
#
# Mechanical properties :
#
#
# Convention : Reuss Voigt Hill
#
# Bulk Modulus (GPa) = 13.62440 62.24203 37.93322
# Shear Modulus (GPa) = 11.37197 29.31333 20.34265
#
# Velocity S-wave (km/s) = 2.40465 3.86071 3.21616
# Velocity P-wave (km/s) = 3.82589 7.17787 5.75149
#
# Compressibility (1/GPa) = 0.07339772
#
# Stress axis : x y z
#
# Youngs Moduli (GPa) = 91.94206 55.17646 27.64324
#
# Poissons Ratio (x) = 0.25408 0.14405
# Poissons Ratio (y) = 0.42339 -0.38500
# Poissons Ratio (z) = 0.47912 -0.76846
#
# Static dielectric constant tensor:
#      x y z
#    x 3.822530 -0.053850 -0.020030 
#    y -0.053850 3.697430 -0.152460 
#    z -0.020030 -0.152460 3.716910 
# 
# 
# High freq. dielectric constant tensor:
#      x y z
#    x 1.776400 -0.000490 -0.002340 
#    y -0.000490 1.775230 -0.008440 
#    z -0.002340 -0.008440 1.760580 
# 
# From -- ./inp_files/39115.got.cif
#   From: 2010.06.25/outbox.cif.g09.slc.cpg/sg2_20_cif.got.tgz:39115.got - 2010.06.27 13:26:56.
