data_PCOD8017793
_publ_section_title
;
Structure prediction by ZEFSAII (Michael W. Deem and Ramdas Pophale) SiO2 
 PCOD8017793
Probable space group: P -1
;
_chemical_formula_sum "Si O2"
_cell_formula_units_Z 16
_cell_length_a 11.723359
_cell_length_b 13.799178
_cell_length_c 9.364259
_cell_angle_alpha 64.340907
_cell_angle_beta 64.961773
_cell_angle_gamma 118.819189
_cell_volume 717.498368
_symmetry_space_group_name_H-M "P -1"
_symmetry_group_IT_number 2
_symmetry_cell_setting 'triclinic'
loop_
_space_group_symop_operation_xyz
x,y,z
-x,-y,-z
loop_
_atom_site_type_symbol
_atom_site_label
_atom_site_fract_x
_atom_site_fract_y
_atom_site_fract_z
Si Si1 0.087670 0.940487 0.475895
Si Si2 0.754332 0.328178 0.292443
Si Si3 0.527508 0.999245 0.152129
Si Si4 0.752125 0.674337 0.434255
Si Si5 0.313553 0.456786 0.149235
Si Si6 0.781346 0.973278 0.967166
Si Si7 0.426702 0.590620 0.538349
Si Si8 0.517801 0.190766 0.223275
O O1 0.888573 0.719078 0.730289
O O2 0.216974 0.014635 0.212267
O O3 0.257704 0.028735 0.454409
O O4 0.000000 0.000000 0.500000
O O5 0.696387 0.197334 0.526085
O O6 0.728735 0.427086 0.309904
O O7 0.581214 0.189969 0.345244
O O8 0.000000 0.500000 0.000000
O O9 0.603409 0.162901 0.080905
O O10 0.708982 0.032652 0.048034
O O11 0.500000 0.000000 0.000000
O O12 0.747661 0.587907 0.622568
O O13 0.553218 0.621651 0.584168
O O14 0.727758 0.598469 0.343875
O O15 0.983491 0.895715 0.178645
O O16 0.500000 0.500000 0.000000
O O17 0.365994 0.615003 0.984865
O O18 0.612574 0.761635 0.223567
#
# Coordination Sequence:
#
# PCOD8017793 Si02
#       8
#     2   2   2   2   2   2   2   2
#     4  11  23  41  69 103 139 184 235 291 361 424
#     4  11  28  47  70 105 143 186 244 299 357 420
#     4  11  25  49  74  99 141 190 245 289 352 434
#     4  10  22  39  65  98 133 178 230 286 353 420
#     4  11  23  40  67 105 139 178 235 289 358 429
#     4  10  22  42  66  97 131 180 237 286 349 426
#     4  10  22  43  64  95 136 181 228 290 353 424
#     4  12  25  46  70 100 143 187 233 300 354 418
#
# _framework density 22.299703999999998
#
# number of rings (size 3 to 8) (size 9 to 14) (size 15 to 20)
#    0.000    1.250    2.500    2.250    7.000    0.000 
#    0.000    3.125    0.000    0.000    0.000    0.000 
#    0.000    0.000    0.000    0.000    0.000    0.000 
#
# Total GULP energy -198394.558338 kJ/mol
# GULP energy per Si atom -12399.659896 kJ/mol
# Density = 2.224895 g / cm^3
# Si number density = 22.299704 Si / 1000 Ang^3
#
#
#
# Elastic Constant Matrix: (Units=GPa)
#
#
# Indices 1 2 3 4 5 6 
#
# 1 87.8647 43.9032 38.7206 -8.1021 -0.4081 7.3642
# 2 43.9032 100.2432 42.7715 -11.9664 -2.5061 -3.3903
# 3 38.7206 42.7715 117.3669 -6.3618 -1.3018 7.3251
# 4 -8.1021 -11.9664 -6.3618 33.0298 -0.0951 -3.5247
# 5 -0.4081 -2.5061 -1.3018 -0.0951 35.9689 -4.2246
# 6 7.3642 -3.3903 7.3251 -3.5247 -4.2246 57.1135
#
#
#
# Elastic Compliance Matrix: (Units=1/GPa)
#
#
# Indices 1 2 3 4 5 6 
#
# 1 0.015741 -0.005572 -0.002990 0.001057 -0.000544 -0.001952
# 2 -0.005572 0.014356 -0.003338 0.003439 0.001095 0.002292
# 3 -0.002990 -0.003338 0.010798 0.000009 -0.000016 -0.001198
# 4 0.001057 0.003439 0.000009 0.032007 0.000581 0.002085
# 5 -0.000544 0.001095 -0.000016 0.000581 0.028138 0.002254
# 6 -0.001952 0.002292 -0.001198 0.002085 0.002254 0.018346
#
#
# Mechanical properties :
#
#
# Convention : Reuss Voigt Hill
#
# Bulk Modulus (GPa) = 58.49236 61.80726 60.14981
# Shear Modulus (GPa) = 33.58347 37.22775 35.40561
#
# Velocity S-wave (km/s) = 3.88494 4.09030 3.98894
# Velocity P-wave (km/s) = 6.81254 7.07702 6.94604
#
# Compressibility (1/GPa) = 0.01709625
#
# Stress axis : x y z
#
# Youngs Moduli (GPa) = 63.52717 69.65892 92.60938
#
# Poissons Ratio (x) = 0.38814 0.27686
# Poissons Ratio (y) = 0.35398 0.30911
# Poissons Ratio (z) = 0.18992 0.23251
#
# Static dielectric constant tensor:
#      x y z
#    x 4.235330 -0.048300 -0.005690 
#    y -0.048300 4.107120 0.058710 
#    z -0.005690 0.058710 3.997000 
# 
# 
# High freq. dielectric constant tensor:
#      x y z
#    x 1.884500 -0.004180 0.000390 
#    y -0.004180 1.886780 0.000540 
#    z 0.000390 0.000540 1.870910 
# 
# From -- ./inp_files/272155.got.cif
#   From: 2010.06.25/outbox.cif.g09.slc.cpg/sg2_137_cif.got.tgz:272155.got - 2010.06.27 13:26:56.
