data_PCOD8017254
_publ_section_title
;
Structure prediction by ZEFSAII (Michael W. Deem and Ramdas Pophale) SiO2 
 PCOD8017254
Probable space group: P -1
;
_chemical_formula_sum "Si O2"
_cell_formula_units_Z 16
_cell_length_a 18.652906
_cell_length_b 6.586328
_cell_length_c 25.079633
_cell_angle_alpha 120.705725
_cell_angle_beta 17.010003
_cell_angle_gamma 113.060365
_cell_volume 715.562206
_symmetry_space_group_name_H-M "P -1"
_symmetry_group_IT_number 2
_symmetry_cell_setting 'triclinic'
loop_
_space_group_symop_operation_xyz
x,y,z
-x,-y,-z
loop_
_atom_site_type_symbol
_atom_site_label
_atom_site_fract_x
_atom_site_fract_y
_atom_site_fract_z
Si Si1 0.230870 0.739925 0.911031
Si Si2 0.152007 0.325724 0.267730
Si Si3 0.548709 0.309389 0.556154
Si Si4 0.228823 0.253417 0.971278
Si Si5 0.645091 0.247583 0.962737
Si Si6 0.943991 0.586655 0.775597
Si Si7 0.564309 0.553100 0.749330
Si Si8 0.216380 0.257822 0.696639
O O1 0.299060 0.487759 0.792520
O O2 0.450162 0.694835 0.794745
O O3 0.945075 0.795692 0.146543
O O4 0.222330 0.990171 0.916624
O O5 0.378218 0.420116 0.142367
O O6 0.138357 0.331065 0.214715
O O7 0.878398 0.479769 0.513493
O O8 0.243667 0.031627 0.178982
O O9 0.457879 0.313392 0.559562
O O10 0.753559 0.450092 0.434370
O O11 0.669424 0.014760 0.453061
O O12 0.233923 0.211741 0.026434
O O13 0.964892 0.504636 0.178299
O O14 0.488389 0.301237 0.774087
O O15 0.565820 0.260872 0.083361
O O16 0.890931 0.331938 0.790682
#
# Coordination Sequence:
#
# PCOD8017254 Si02
#       8
#     2   2   2   2   2   2   2   2
#     4  11  21  41  63  94 125 168 210 262 308 377
#     4  11  22  41  64  91 124 167 206 261 310 378
#     4  11  23  41  67  90 127 169 212 256 320 373
#     4  10  23  40  64  93 131 163 213 263 314 365
#     4  10  24  40  62  93 128 159 210 259 317 366
#     4  11  22  40  63  92 123 167 206 259 311 376
#     4  10  22  38  64  91 126 164 208 253 314 376
#     4  10  24  45  59  94 131 166 206 269 312 369
#
# _framework density 22.360039
#
# number of rings (size 3 to 8) (size 9 to 14) (size 15 to 20)
#    0.000    1.500    2.500    1.875    5.250    1.000 
#    2.250    0.000    0.000    8.250    0.000    0.000 
#    0.000    0.000    0.000    0.000    0.000    0.000 
#
# Total GULP energy -198281.701381 kJ/mol
# GULP energy per Si atom -12392.606336 kJ/mol
# Density = 2.230915 g / cm^3
# Si number density = 22.360039 Si / 1000 Ang^3
#
#
#
# Elastic Constant Matrix: (Units=GPa)
#
#
# Indices 1 2 3 4 5 6 
#
# 1 78.6941 27.0998 18.4370 -3.1582 -11.2509 10.0745
# 2 27.0998 80.4494 28.1654 12.2129 10.2400 6.8303
# 3 18.4370 28.1654 61.8952 14.7722 2.5112 2.5568
# 4 -3.1582 12.2129 14.7722 28.9743 10.7722 5.0641
# 5 -11.2509 10.2400 2.5112 10.7722 27.3333 0.5837
# 6 10.0745 6.8303 2.5568 5.0641 0.5837 29.8782
#
#
#
# Elastic Compliance Matrix: (Units=1/GPa)
#
#
# Indices 1 2 3 4 5 6 
#
# 1 0.017597 -0.005884 -0.003663 0.004082 0.008285 -0.005128
# 2 -0.005884 0.017717 -0.005398 -0.002339 -0.007619 -0.001059
# 3 -0.003663 -0.005398 0.022072 -0.010788 0.002688 0.002356
# 4 0.004082 -0.002339 -0.010788 0.048548 -0.015418 -0.007846
# 5 0.008285 -0.007619 0.002688 -0.015418 0.048671 0.000380
# 6 -0.005128 -0.001059 0.002356 -0.007846 0.000380 0.036561
#
#
# Mechanical properties :
#
#
# Convention : Reuss Voigt Hill
#
# Bulk Modulus (GPa) = 36.36856 40.93810 38.65333
# Shear Modulus (GPa) = 21.71830 27.05961 24.38895
#
# Velocity S-wave (km/s) = 3.11995 3.48253 3.30622
# Velocity P-wave (km/s) = 5.41101 5.87529 5.64793
#
# Compressibility (1/GPa) = 0.02749627
#
# Stress axis : x y z
#
# Youngs Moduli (GPa) = 56.82909 56.44315 45.30591
#
# Poissons Ratio (x) = 0.33211 0.16593
# Poissons Ratio (y) = 0.33438 0.24457
# Poissons Ratio (z) = 0.20814 0.30469
#
# Static dielectric constant tensor:
#      x y z
#    x 4.116720 0.195640 -0.067790 
#    y 0.195640 3.958300 -0.096170 
#    z -0.067790 -0.096170 3.978010 
# 
# 
# High freq. dielectric constant tensor:
#      x y z
#    x 1.879600 0.014230 -0.005040 
#    y 0.014230 1.870410 -0.006630 
#    z -0.005040 -0.006630 1.878030 
# 
# From -- ./inp_files/612700.got.cif
#   From: 2010.06.25/outbox.cif.g09.slc.cpg/sg2_307_cif.got.tgz:612700.got - 2010.06.27 13:26:56.
