data_PCOD8017481
_publ_section_title
;
Structure prediction by ZEFSAII (Michael W. Deem and Ramdas Pophale) SiO2 
 PCOD8017481
Probable space group: P -1
;
_chemical_formula_sum "Si O2"
_cell_formula_units_Z 14
_cell_length_a 19.558178
_cell_length_b 13.003849
_cell_length_c 7.544088
_cell_angle_alpha 61.932616
_cell_angle_beta 122.246267
_cell_angle_gamma 156.469713
_cell_volume 646.869863
_symmetry_space_group_name_H-M "P -1"
_symmetry_group_IT_number 2
_symmetry_cell_setting 'triclinic'
loop_
_space_group_symop_operation_xyz
x,y,z
-x,-y,-z
loop_
_atom_site_type_symbol
_atom_site_label
_atom_site_fract_x
_atom_site_fract_y
_atom_site_fract_z
Si Si1 0.092371 0.794772 0.746402
Si Si2 0.419266 0.060458 0.987597
Si Si3 0.883931 0.120076 0.914512
Si Si4 0.493094 0.714390 0.714160
Si Si5 0.510762 0.097165 0.725196
Si Si6 0.841707 0.877575 0.312316
Si Si7 0.898288 0.488487 0.395994
O O1 0.239057 0.890138 0.809822
O O2 0.921977 0.562500 0.571293
O O3 0.173204 0.030393 0.650607
O O4 0.041484 0.707599 0.953978
O O5 0.546239 0.212342 0.865501
O O6 0.370585 0.867865 0.149081
O O7 0.513133 0.258421 0.109524
O O8 0.684907 0.910427 0.762524
O O9 0.880169 0.979044 0.084810
O O10 0.015259 0.303267 0.782513
O O11 0.445321 0.766837 0.491286
O O12 0.346151 0.429008 0.701602
O O13 0.308631 0.790084 0.700289
O O14 0.000000 0.000000 0.500000
O O15 0.000000 0.500000 0.500000
#
# Coordination Sequence:
#
# PCOD8017481 Si02
#       7
#     2   2   2   2   2   2   2
#     4   9  22  42  62  92 123 168 205 258 310 364
#     4  10  22  39  60  94 125 163 205 249 318 366
#     4   9  22  40  63  89 125 166 204 252 306 367
#     4  11  21  43  64  89 125 170 202 255 312 367
#     4  11  24  38  62  99 128 158 206 258 305 380
#     4  10  24  44  64  92 123 162 220 256 304 370
#     4  12  21  40  64  96 130 158 208 253 316 369
#
# _framework density 21.642683999999999
#
# number of rings (size 3 to 8) (size 9 to 14) (size 15 to 20)
#    0.857    0.857    2.857    0.857    2.000    4.000 
#    2.571    2.143    0.000    0.000    0.000    0.000 
#    0.000    0.000    0.000    0.000    0.000    0.000 
#
# Total GULP energy -173509.508223 kJ/mol
# GULP energy per Si atom -12393.536302 kJ/mol
# Density = 2.159342 g / cm^3
# Si number density = 21.642684 Si / 1000 Ang^3
#
#
#
# Elastic Constant Matrix: (Units=GPa)
#
#
# Indices 1 2 3 4 5 6 
#
# 1 68.4543 25.4970 29.2563 9.4133 17.1508 -7.2065
# 2 25.4970 94.2466 36.9879 -5.4983 -5.0728 -10.0615
# 3 29.2563 36.9879 116.2842 -4.9290 13.6996 -4.1007
# 4 9.4133 -5.4983 -4.9290 27.2282 -9.9009 -6.1404
# 5 17.1508 -5.0728 13.6996 -9.9009 43.2088 1.9677
# 6 -7.2065 -10.0615 -4.1007 -6.1404 1.9677 18.1530
#
#
#
# Elastic Compliance Matrix: (Units=1/GPa)
#
#
# Indices 1 2 3 4 5 6 
#
# 1 0.023551 -0.006558 -0.002908 -0.014180 -0.012519 0.001618
# 2 -0.006558 0.015468 -0.003477 0.009087 0.007264 0.007471
# 3 -0.002908 -0.003477 0.010777 0.001420 -0.002350 0.000088
# 4 -0.014180 0.009087 0.001420 0.053819 0.017849 0.015998
# 5 -0.012519 0.007264 -0.002350 0.017849 0.033759 0.000904
# 6 0.001618 0.007471 0.000088 0.015998 0.000904 0.065204
#
#
# Mechanical properties :
#
#
# Convention : Reuss Voigt Hill
#
# Bulk Modulus (GPa) = 41.82577 51.38529 46.60553
# Shear Modulus (GPa) = 21.14746 30.20093 25.67419
#
# Velocity S-wave (km/s) = 3.12928 3.73960 3.44797
# Velocity P-wave (km/s) = 5.69421 6.51462 6.11818
#
# Compressibility (1/GPa) = 0.02390870
#
# Stress axis : x y z
#
# Youngs Moduli (GPa) = 42.46156 64.64944 92.78646
#
# Poissons Ratio (x) = 0.42399 0.26985
# Poissons Ratio (y) = 0.27847 0.32263
# Poissons Ratio (z) = 0.12349 0.22480
#
# Static dielectric constant tensor:
#      x y z
#    x 3.877000 -0.095270 0.106220 
#    y -0.095270 3.672270 0.183330 
#    z 0.106220 0.183330 4.227930 
# 
# 
# High freq. dielectric constant tensor:
#      x y z
#    x 1.837030 -0.008640 0.010080 
#    y -0.008640 1.827780 0.018280 
#    z 0.010080 0.018280 1.869850 
# 
# From -- ./inp_files/354069.got.cif
#   From: 2010.06.25/outbox.cif.g09.slc.cpg/sg2_178_cif.got.tgz:354069.got - 2010.06.27 13:26:56.
