data_PCOD8017455
_publ_section_title
;
Structure prediction by ZEFSAII (Michael W. Deem and Ramdas Pophale) SiO2 
 PCOD8017455
Probable space group: P -1
;
_chemical_formula_sum "Si O2"
_cell_formula_units_Z 16
_cell_length_a 6.992039
_cell_length_b 15.198730
_cell_length_c 15.616948
_cell_angle_alpha 34.368318
_cell_angle_beta 117.260953
_cell_angle_gamma 129.480694
_cell_volume 714.570027
_symmetry_space_group_name_H-M "P -1"
_symmetry_group_IT_number 2
_symmetry_cell_setting 'triclinic'
loop_
_space_group_symop_operation_xyz
x,y,z
-x,-y,-z
loop_
_atom_site_type_symbol
_atom_site_label
_atom_site_fract_x
_atom_site_fract_y
_atom_site_fract_z
Si Si1 0.513037 0.001993 0.601843
Si Si2 0.287431 0.339818 0.796529
Si Si3 0.549393 0.836177 0.158612
Si Si4 0.016923 0.039604 0.716212
Si Si5 0.231131 0.590308 0.911476
Si Si6 0.432870 0.232542 0.518008
Si Si7 0.827457 0.309743 0.661845
Si Si8 0.736144 0.641789 0.024763
O O1 0.319273 0.800228 0.756575
O O2 0.786695 0.076004 0.641266
O O3 0.500000 0.000000 0.500000
O O4 0.417530 0.137831 0.500884
O O5 0.434481 0.244980 0.865005
O O6 0.452471 0.553580 0.639362
O O7 0.216535 0.307607 0.906880
O O8 0.013472 0.236301 0.778467
O O9 0.307934 0.680241 0.286380
O O10 0.801624 0.888466 0.221524
O O11 0.500000 0.000000 0.000000
O O12 0.160644 0.139894 0.578504
O O13 0.898424 0.824108 0.856249
O O14 0.175638 0.496572 0.880212
O O15 0.439913 0.553395 0.022831
O O16 0.000000 0.500000 0.000000
O O17 0.603172 0.183087 0.653338
O O18 0.000000 0.500000 0.500000
#
# Coordination Sequence:
#
# PCOD8017455 Si02
#       8
#     2   2   2   2   2   2   2   2
#     4  11  23  39  63  91 119 157 203 251 305 361
#     4  11  23  39  61  90 126 158 201 255 298 363
#     4  11  24  40  62  92 123 163 206 247 305 365
#     4  10  23  41  61  87 125 157 200 254 298 359
#     4  10  22  40  61  85 119 157 200 250 300 358
#     4  10  22  39  61  88 121 162 200 244 306 359
#     4   9  21  39  61  88 123 161 199 243 302 364
#     4  10  22  39  60  87 118 159 199 245 306 353
#
# _framework density 22.391089000000001
#
# number of rings (size 3 to 8) (size 9 to 14) (size 15 to 20)
#    0.000    1.750    0.000    3.000    0.000   16.000 
#    0.000    0.000    0.000    0.000    0.000    0.000 
#    0.000    0.000    0.000    0.000    0.000    0.000 
#
# Total GULP energy -198277.714773 kJ/mol
# GULP energy per Si atom -12392.357173 kJ/mol
# Density = 2.234013 g / cm^3
# Si number density = 22.391089 Si / 1000 Ang^3
#
#
#
# Elastic Constant Matrix: (Units=GPa)
#
#
# Indices 1 2 3 4 5 6 
#
# 1 132.7887 53.9566 52.3495 -19.5448 -18.2967 -22.2604
# 2 53.9566 68.2283 29.8289 -9.4904 -2.3396 -20.5146
# 3 52.3495 29.8289 80.5101 -3.2417 -10.1954 -1.8583
# 4 -19.5448 -9.4904 -3.2417 34.0367 1.0353 -3.6103
# 5 -18.2967 -2.3396 -10.1954 1.0353 39.9416 -6.4602
# 6 -22.2604 -20.5146 -1.8583 -3.6103 -6.4602 48.3205
#
#
#
# Elastic Compliance Matrix: (Units=1/GPa)
#
#
# Indices 1 2 3 4 5 6 
#
# 1 0.015472 -0.006664 -0.006469 0.006800 0.005731 0.005324
# 2 -0.006664 0.024547 -0.004678 0.003388 -0.001734 0.007193
# 3 -0.006469 -0.004678 0.018205 -0.003780 0.000789 -0.004443
# 4 0.006800 0.003388 -0.003780 0.034570 0.002643 0.007362
# 5 0.005731 -0.001734 0.000789 0.002643 0.028658 0.005963
# 6 0.005324 0.007193 -0.004443 0.007362 0.005963 0.027378
#
#
# Mechanical properties :
#
#
# Convention : Reuss Voigt Hill
#
# Bulk Modulus (GPa) = 44.24521 61.53301 52.88911
# Shear Modulus (GPa) = 26.04360 34.15258 30.09809
#
# Velocity S-wave (km/s) = 3.41416 3.90971 3.67031
# Velocity P-wave (km/s) = 5.94517 6.92256 6.45240
#
# Compressibility (1/GPa) = 0.02260132
#
# Stress axis : x y z
#
# Youngs Moduli (GPa) = 64.63352 40.73862 54.92888
#
# Poissons Ratio (x) = 0.27149 0.35531
# Poissons Ratio (y) = 0.43074 0.25698
# Poissons Ratio (z) = 0.41809 0.19059
#
# Static dielectric constant tensor:
#      x y z
#    x 4.292220 0.163420 0.028380 
#    y 0.163420 4.171710 0.080140 
#    z 0.028380 0.080140 4.165130 
# 
# 
# High freq. dielectric constant tensor:
#      x y z
#    x 1.894060 0.003070 -0.016380 
#    y 0.003070 1.877400 -0.000750 
#    z -0.016380 -0.000750 1.875110 
# 
# From -- ./inp_files/99837.got.cif
#   From: 2010.06.25/outbox.cif.g09.slc.cpg/sg2_50_cif.got.tgz:99837.got - 2010.06.27 13:26:56.
