data_PCOD8017621
_publ_section_title
;
Structure prediction by ZEFSAII (Michael W. Deem and Ramdas Pophale) SiO2 
 PCOD8017621
Probable space group: P -1
;
_chemical_formula_sum "Si O2"
_cell_formula_units_Z 12
_cell_length_a 5.068973
_cell_length_b 13.984505
_cell_length_c 11.467639
_cell_angle_alpha 54.021460
_cell_angle_beta 94.201638
_cell_angle_gamma 62.661986
_cell_volume 513.524777
_symmetry_space_group_name_H-M "P -1"
_symmetry_group_IT_number 2
_symmetry_cell_setting 'triclinic'
loop_
_space_group_symop_operation_xyz
x,y,z
-x,-y,-z
loop_
_atom_site_type_symbol
_atom_site_label
_atom_site_fract_x
_atom_site_fract_y
_atom_site_fract_z
Si Si1 0.849897 0.425360 0.913393
Si Si2 0.750336 0.493541 0.425926
Si Si3 0.997667 0.065049 0.774811
Si Si4 0.825664 0.222011 0.900208
Si Si5 0.705367 0.821050 0.436288
Si Si6 0.069617 0.625555 0.783588
O O1 0.988637 0.291715 0.918447
O O2 0.445105 0.556064 0.803317
O O3 0.014320 0.504744 0.831734
O O4 0.968104 0.345487 0.100414
O O5 0.500000 0.500000 0.500000
O O6 0.563443 0.636603 0.231774
O O7 0.000000 0.500000 0.500000
O O8 0.949228 0.339932 0.472879
O O9 0.994309 0.145338 0.835143
O O10 0.628858 0.150296 0.643303
O O11 0.257399 0.056223 0.700165
O O12 0.153480 0.894597 0.929192
O O13 0.765690 0.792690 0.598417
#
# Coordination Sequence:
#
# PCOD8017621 Si02
#       6
#     2   2   2   2   2   2
#     4  10  22  39  63  92 119 159 202 256 308 347
#     4  12  23  37  61  93 119 158 210 248 300 358
#     4  11  27  39  61  91 132 165 195 244 318 364
#     4  11  24  43  61  92 129 164 200 249 305 376
#     4  12  22  42  60  92 124 160 205 258 295 360
#     4  10  22  39  64  92 119 153 209 261 297 351
#
# _framework density 23.367906999999999
#
# number of rings (size 3 to 8) (size 9 to 14) (size 15 to 20)
#    0.000    1.000    5.000    1.000    2.333    6.667 
#    0.000    1.667    0.000    0.000    0.000    0.000 
#    0.000    0.000    0.000    0.000    0.000    0.000 
#
# Total GULP energy -148724.410517 kJ/mol
# GULP energy per Si atom -12393.700876 kJ/mol
# Density = 2.331472 g / cm^3
# Si number density = 23.367907 Si / 1000 Ang^3
#
#
#
# Elastic Constant Matrix: (Units=GPa)
#
#
# Indices 1 2 3 4 5 6 
#
# 1 113.9756 23.1743 29.0580 14.9253 3.6353 19.3425
# 2 23.1743 51.8605 34.4769 4.9507 13.2541 25.2475
# 3 29.0580 34.4769 159.7775 13.4751 8.8861 17.6505
# 4 14.9253 4.9507 13.4751 34.2666 5.4889 6.6177
# 5 3.6353 13.2541 8.8861 5.4889 29.8495 5.2719
# 6 19.3425 25.2475 17.6505 6.6177 5.2719 30.3589
#
#
#
# Elastic Compliance Matrix: (Units=1/GPa)
#
#
# Indices 1 2 3 4 5 6 
#
# 1 0.010491 -0.002346 -0.000770 -0.003406 0.001285 -0.003766
# 2 -0.002346 0.039461 -0.004770 0.004385 -0.011773 -0.027461
# 3 -0.000770 -0.004770 0.007535 -0.002074 0.000265 0.000483
# 4 -0.003406 0.004385 -0.002074 0.033032 -0.005849 -0.006456
# 5 0.001285 -0.011773 0.000265 -0.005849 0.038982 0.003324
# 6 -0.003766 -0.027461 0.000483 -0.006456 0.003324 0.058725
#
#
# Mechanical properties :
#
#
# Convention : Reuss Voigt Hill
#
# Bulk Modulus (GPa) = 23.97180 55.44800 39.70990
# Shear Modulus (GPa) = 22.94597 34.82197 28.88397
#
# Velocity S-wave (km/s) = 3.13700 3.86445 3.51957
# Velocity P-wave (km/s) = 4.83753 6.60997 5.79195
#
# Compressibility (1/GPa) = 0.04171569
#
# Stress axis : x y z
#
# Youngs Moduli (GPa) = 95.31661 25.34170 132.71686
#
# Poissons Ratio (x) = 0.05945 0.10218
# Poissons Ratio (y) = 0.22360 0.63303
# Poissons Ratio (z) = 0.07339 0.12087
#
# Static dielectric constant tensor:
#      x y z
#    x 4.057760 0.203000 -0.005350 
#    y 0.203000 4.112900 0.292860 
#    z -0.005350 0.292860 5.013420 
# 
# 
# High freq. dielectric constant tensor:
#      x y z
#    x 1.924120 0.017730 0.001790 
#    y 0.017730 1.895800 0.014890 
#    z 0.001790 0.014890 1.952940 
# 
# From -- ./inp_files/26855.got.cif
#   From: 2010.06.25/outbox.cif.g09.slc.cpg/sg2_14_cif.got.tgz:26855.got - 2010.06.27 13:26:56.
