data_PCOD8017979
_publ_section_title
;
Structure prediction by ZEFSAII (Michael W. Deem and Ramdas Pophale) SiO2 
 PCOD8017979
Probable space group: P -1
;
_chemical_formula_sum "Si O2"
_cell_formula_units_Z 12
_cell_length_a 8.300834
_cell_length_b 5.343532
_cell_length_c 12.788747
_cell_angle_alpha 94.896246
_cell_angle_beta 69.737531
_cell_angle_gamma 116.854255
_cell_volume 473.047081
_symmetry_space_group_name_H-M "P -1"
_symmetry_group_IT_number 2
_symmetry_cell_setting 'triclinic'
loop_
_space_group_symop_operation_xyz
x,y,z
-x,-y,-z
loop_
_atom_site_type_symbol
_atom_site_label
_atom_site_fract_x
_atom_site_fract_y
_atom_site_fract_z
Si Si1 0.292127 0.440231 0.302025
Si Si2 0.190096 0.587965 0.528445
Si Si3 0.610581 0.354070 0.108553
Si Si4 0.100340 0.039211 0.654078
Si Si5 0.022682 0.164528 0.893720
Si Si6 0.684193 0.241819 0.877186
O O1 0.348837 0.610247 0.405640
O O2 0.483922 0.472446 0.203565
O O3 0.201935 0.576782 0.242470
O O4 0.120971 0.124765 0.346373
O O5 0.231459 0.886043 0.583076
O O6 0.000000 0.500000 0.500000
O O7 0.182923 0.358366 0.605789
O O8 0.826057 0.505970 0.112666
O O9 0.512143 0.016690 0.130866
O O10 0.627578 0.418374 0.981345
O O11 0.101700 0.036514 0.779489
O O12 0.816591 0.129037 0.902961
O O13 0.000000 0.000000 0.000000
#
# Coordination Sequence:
#
# PCOD8017979 Si02
#       6
#     2   2   2   2   2   2
#     4  11  22  43  72 100 139 183 237 286 350 413
#     4  10  22  39  72 103 136 186 239 282 351 418
#     4  11  26  42  69 106 135 181 239 286 349 420
#     4  11  23  43  68 104 141 183 234 291 346 421
#     4  12  26  45  70 102 142 184 231 285 362 419
#     4  11  25  45  69 101 144 181 231 290 355 414
#
# _framework density 25.367455
#
# number of rings (size 3 to 8) (size 9 to 14) (size 15 to 20)
#    0.000    1.000    1.667    6.000    7.000    1.333 
#    0.000    1.667    0.000    0.000    0.000    0.000 
#    0.000    0.000    0.000    0.000    0.000    0.000 
#
# Total GULP energy -148694.365099 kJ/mol
# GULP energy per Si atom -12391.197092 kJ/mol
# Density = 2.530972 g / cm^3
# Si number density = 25.367455 Si / 1000 Ang^3
#
#
#
# Elastic Constant Matrix: (Units=GPa)
#
#
# Indices 1 2 3 4 5 6 
#
# 1 50.2090 31.5191 36.2105 -3.8495 -6.9757 -11.1864
# 2 31.5191 102.3722 40.9559 19.2565 -10.8085 -9.6227
# 3 36.2105 40.9559 211.8294 25.8557 -9.2228 -34.4076
# 4 -3.8495 19.2565 25.8557 44.0402 -10.4322 1.7577
# 5 -6.9757 -10.8085 -9.2228 -10.4322 29.0613 -4.2514
# 6 -11.1864 -9.6227 -34.4076 1.7577 -4.2514 45.2636
#
#
#
# Elastic Compliance Matrix: (Units=1/GPa)
#
#
# Indices 1 2 3 4 5 6 
#
# 1 0.030807 -0.008817 -0.004064 0.010479 0.007012 0.002902
# 2 -0.008817 0.013982 -0.000195 -0.006622 0.000787 0.000976
# 3 -0.004064 -0.000195 0.006669 -0.004322 0.000132 0.004204
# 4 0.010479 -0.006622 -0.004322 0.031428 0.009608 -0.002421
# 5 0.007012 0.000787 0.000132 0.009608 0.040674 0.005448
# 6 0.002902 0.000976 0.004204 -0.002421 0.005448 0.026819
#
#
# Mechanical properties :
#
#
# Convention : Reuss Voigt Hill
#
# Bulk Modulus (GPa) = 39.51699 64.64241 52.07970
# Shear Modulus (GPa) = 27.03194 40.72135 33.87665
#
# Velocity S-wave (km/s) = 3.26792 4.01092 3.65833
# Velocity P-wave (km/s) = 5.46358 6.85476 6.19832
#
# Compressibility (1/GPa) = 0.02530557
#
# Stress axis : x y z
#
# Youngs Moduli (GPa) = 32.46030 71.52304 149.93991
#
# Poissons Ratio (x) = 0.63064 0.60934
# Poissons Ratio (y) = 0.28621 0.02921
# Poissons Ratio (z) = 0.13192 0.01394
#
# Static dielectric constant tensor:
#      x y z
#    x 4.067260 -0.073430 -0.327080 
#    y -0.073430 4.648200 0.509240 
#    z -0.327080 0.509240 5.696220 
# 
# 
# High freq. dielectric constant tensor:
#      x y z
#    x 1.972040 -0.006390 -0.013740 
#    y -0.006390 2.005550 0.016570 
#    z -0.013740 0.016570 2.044090 
# 
# From -- ./inp_files/373016.got.cif
#   From: 2010.06.25/outbox.cif.g09.slc.cpg/sg2_187_cif.got.tgz:373016.got - 2010.06.27 13:26:56.
