data_PCOD8017620
_publ_section_title
;
Structure prediction by ZEFSAII (Michael W. Deem and Ramdas Pophale) SiO2 
 PCOD8017620
Probable space group: P -1
;
_chemical_formula_sum "Si O2"
_cell_formula_units_Z 14
_cell_length_a 15.501353
_cell_length_b 11.708296
_cell_length_c 20.244196
_cell_angle_alpha 148.384014
_cell_angle_beta 21.159957
_cell_angle_gamma 151.016178
_cell_volume 629.062888
_symmetry_space_group_name_H-M "P -1"
_symmetry_group_IT_number 2
_symmetry_cell_setting 'triclinic'
loop_
_space_group_symop_operation_xyz
x,y,z
-x,-y,-z
loop_
_atom_site_type_symbol
_atom_site_label
_atom_site_fract_x
_atom_site_fract_y
_atom_site_fract_z
Si Si1 0.230281 0.149605 0.049610
Si Si2 0.371795 0.175490 0.696925
Si Si3 0.542748 0.655783 0.745909
Si Si4 0.904305 0.057829 0.440419
Si Si5 0.458368 0.789550 0.729554
Si Si6 0.979560 0.355589 0.876945
Si Si7 0.396243 0.642609 0.238161
O O1 0.234923 0.357168 0.198569
O O2 0.378626 0.254194 0.926650
O O3 0.938457 0.976333 0.150749
O O4 0.367733 0.000614 0.914963
O O5 0.445468 0.369769 0.681548
O O6 0.476589 0.315884 0.760121
O O7 0.500000 0.000000 0.500000
O O8 0.571695 0.723710 0.681954
O O9 0.830787 0.784835 0.633238
O O10 0.319955 0.722412 0.974464
O O11 0.805521 0.231098 0.557204
O O12 0.685332 0.880633 0.558708
O O13 0.968691 0.878308 0.258572
O O14 0.207925 0.549396 0.762330
O O15 0.000000 0.500000 0.000000
#
# Coordination Sequence:
#
# PCOD8017620 Si02
#       7
#     2   2   2   2   2   2   2
#     4  10  22  48  69  96 133 175 228 275 333 394
#     4  12  26  41  67 100 137 176 223 273 335 403
#     4  11  24  41  63 100 128 173 214 273 341 383
#     4  11  23  42  66  98 129 171 223 270 327 396
#     4  10  22  43  69  93 130 172 219 274 328 396
#     4  10  22  39  63  91 130 167 209 270 327 384
#     4  10  25  44  71  96 132 182 222 275 330 399
#
# _framework density 22.255327000000001
#
# number of rings (size 3 to 8) (size 9 to 14) (size 15 to 20)
#    0.000    1.429    1.429    2.571    4.000    5.714 
#    0.000    1.429    0.000    0.000    0.000    0.000 
#    0.000    0.000    0.000    0.000    0.000    0.000 
#
# Total GULP energy -173561.489469 kJ/mol
# GULP energy per Si atom -12397.249248 kJ/mol
# Density = 2.220467 g / cm^3
# Si number density = 22.255327 Si / 1000 Ang^3
#
#
#
# Elastic Constant Matrix: (Units=GPa)
#
#
# Indices 1 2 3 4 5 6 
#
# 1 99.8732 52.6956 30.0281 8.7743 -14.6687 9.1240
# 2 52.6956 240.1831 84.3294 -3.7124 -16.7632 20.8510
# 3 30.0281 84.3294 132.2656 13.6289 -15.4237 8.5527
# 4 8.7743 -3.7124 13.6289 63.6325 5.6191 -15.4591
# 5 -14.6687 -16.7632 -15.4237 5.6191 26.1673 7.6827
# 6 9.1240 20.8510 8.5527 -15.4591 7.6827 30.1160
#
#
#
# Elastic Compliance Matrix: (Units=1/GPa)
#
#
# Indices 1 2 3 4 5 6 
#
# 1 0.013466 -0.001717 0.000207 -0.004812 0.009939 -0.007955
# 2 -0.001717 0.006024 -0.003055 0.000313 0.001944 -0.003118
# 3 0.000207 -0.003055 0.011105 -0.004498 0.007212 -0.005250
# 4 -0.004812 0.000313 -0.004498 0.023199 -0.015528 0.018388
# 5 0.009939 0.001944 0.007212 -0.015528 0.061440 -0.030050
# 6 -0.007955 -0.003118 -0.005250 0.018388 -0.030050 0.056369
#
#
# Mechanical properties :
#
#
# Convention : Reuss Voigt Hill
#
# Bulk Modulus (GPa) = 46.58803 89.60313 68.09558
# Shear Modulus (GPa) = 26.61154 44.33442 35.47298
#
# Velocity S-wave (km/s) = 3.46170 4.46812 3.99671
# Velocity P-wave (km/s) = 6.07920 8.18337 7.20848
#
# Compressibility (1/GPa) = 0.02146474
#
# Stress axis : x y z
#
# Youngs Moduli (GPa) = 74.26265 166.00211 90.04800
#
# Poissons Ratio (x) = 0.28504 -0.01863
# Poissons Ratio (y) = 0.12751 0.27509
# Poissons Ratio (z) = -0.01536 0.50712
#
# Static dielectric constant tensor:
#      x y z
#    x 3.762100 -0.103150 -0.164040 
#    y -0.103150 4.651850 -0.254700 
#    z -0.164040 -0.254700 4.940740 
# 
# 
# High freq. dielectric constant tensor:
#      x y z
#    x 1.854100 -0.010190 -0.010570 
#    y -0.010190 1.902870 -0.005280 
#    z -0.010570 -0.005280 1.894600 
# 
# From -- ./inp_files/260429.got.cif
#   From: 2010.06.25/outbox.cif.g09.slc.cpg/sg2_131_cif.got.tgz:260429.got - 2010.06.27 13:26:56.
