data_PCOD8017720
_publ_section_title
;
Structure prediction by ZEFSAII (Michael W. Deem and Ramdas Pophale) SiO2 
 PCOD8017720
Probable space group: P -1
;
_chemical_formula_sum "Si O2"
_cell_formula_units_Z 16
_cell_length_a 21.531243
_cell_length_b 20.592869
_cell_length_c 10.165226
_cell_angle_alpha 133.702954
_cell_angle_beta 144.484820
_cell_angle_gamma 19.139848
_cell_volume 783.092120
_symmetry_space_group_name_H-M "P -1"
_symmetry_group_IT_number 2
_symmetry_cell_setting 'triclinic'
loop_
_space_group_symop_operation_xyz
x,y,z
-x,-y,-z
loop_
_atom_site_type_symbol
_atom_site_label
_atom_site_fract_x
_atom_site_fract_y
_atom_site_fract_z
Si Si1 0.601261 0.087782 0.594546
Si Si2 0.487327 0.552728 0.410413
Si Si3 0.612586 0.816781 0.910281
Si Si4 0.946495 0.107968 0.441551
Si Si5 0.521117 0.244742 0.224234
Si Si6 0.056130 0.010050 0.980242
Si Si7 0.891246 0.560681 0.609746
Si Si8 0.002975 0.361903 0.276283
O O1 0.839827 0.850279 0.735085
O O2 0.455574 0.151839 0.313264
O O3 0.388591 0.262494 0.586090
O O4 0.704759 0.105365 0.752490
O O5 0.500000 0.500000 0.500000
O O6 0.707563 0.354219 0.411249
O O7 0.493152 0.656537 0.569856
O O8 0.207314 0.732623 0.133446
O O9 0.489798 0.836805 0.823220
O O10 0.920937 0.581151 0.137568
O O11 0.500000 0.000000 0.000000
O O12 0.000000 0.000000 0.500000
O O13 0.203516 0.971139 0.676655
O O14 0.878143 0.107192 0.190052
O O15 0.295235 0.425712 0.979739
O O16 0.000000 0.000000 0.000000
O O17 0.861551 0.682630 0.666589
O O18 0.019912 0.397774 0.495733
#
# Coordination Sequence:
#
# PCOD8017720 Si02
#       8
#     2   2   2   2   2   2   2   2
#     4  12  23  39  70  89 125 172 212 254 329 380
#     4  11  21  42  69  96 133 171 213 269 321 387
#     4  11  23  48  62  89 133 172 208 269 315 383
#     4  11  23  42  69  99 129 171 220 262 326 400
#     4  10  23  41  67  95 132 168 212 262 327 375
#     4  11  26  44  62  98 139 166 217 275 319 383
#     4  10  23  42  62  92 125 163 215 263 313 380
#     4  10  22  39  64  95 128 157 210 274 312 365
#
# _framework density 20.431823000000001
#
# number of rings (size 3 to 8) (size 9 to 14) (size 15 to 20)
#    0.000    1.250    3.750    3.000    1.750    0.500 
#    9.000    0.000    0.000    0.000    0.000    0.000 
#    0.000    0.000    0.000    0.000    0.000    0.000 
#
# Total GULP energy -198396.723542 kJ/mol
# GULP energy per Si atom -12399.795221 kJ/mol
# Density = 2.038532 g / cm^3
# Si number density = 20.431823 Si / 1000 Ang^3
#
#
#
# Elastic Constant Matrix: (Units=GPa)
#
#
# Indices 1 2 3 4 5 6 
#
# 1 118.4608 62.8000 39.7944 -0.6952 9.4095 0.5084
# 2 62.8000 125.8972 40.5156 -7.6959 6.9564 -14.2295
# 3 39.7944 40.5156 98.4235 -5.9305 4.2307 -7.4454
# 4 -0.6952 -7.6959 -5.9305 30.4666 -1.4987 4.6882
# 5 9.4095 6.9564 4.2307 -1.4987 42.9587 -3.9356
# 6 0.5084 -14.2295 -7.4454 4.6882 -3.9356 35.1261
#
#
#
# Elastic Compliance Matrix: (Units=1/GPa)
#
#
# Indices 1 2 3 4 5 6 
#
# 1 0.012603 -0.005652 -0.003006 -0.001334 -0.001884 -0.003142
# 2 -0.005652 0.012082 -0.002255 0.001828 -0.000043 0.004249
# 3 -0.003006 -0.002255 0.012517 0.001556 -0.000011 0.001574
# 4 -0.001334 0.001828 0.001556 0.034113 0.000723 -0.003382
# 5 -0.001884 -0.000043 -0.000011 0.000723 0.023962 0.002596
# 6 -0.003142 0.004249 0.001574 -0.003382 0.002596 0.031312
#
#
# Mechanical properties :
#
#
# Convention : Reuss Voigt Hill
#
# Bulk Modulus (GPa) = 65.03454 69.88903 67.46178
# Shear Modulus (GPa) = 32.56467 35.02172 33.79319
#
# Velocity S-wave (km/s) = 3.99660 4.14463 4.07129
# Velocity P-wave (km/s) = 7.29357 7.56202 7.42901
#
# Compressibility (1/GPa) = 0.01537645
#
# Stress axis : x y z
#
# Youngs Moduli (GPa) = 79.34650 82.76528 79.89012
#
# Poissons Ratio (x) = 0.46777 0.24016
# Poissons Ratio (y) = 0.44845 0.18016
# Poissons Ratio (z) = 0.23853 0.18664
#
# Static dielectric constant tensor:
#      x y z
#    x 3.779430 -0.107460 0.030190 
#    y -0.107460 3.938420 -0.005330 
#    z 0.030190 -0.005330 3.800150 
# 
# 
# High freq. dielectric constant tensor:
#      x y z
#    x 1.806620 0.000950 0.000240 
#    y 0.000950 1.793390 -0.010720 
#    z 0.000240 -0.010720 1.809510 
# 
# From -- ./inp_files/349556.got.cif
#   From: 2010.06.25/outbox.cif.g09.slc.cpg/sg2_175_cif.got.tgz:349556.got - 2010.06.27 13:26:56.
