data_PCOD8017990
_publ_section_title
;
Structure prediction by ZEFSAII (Michael W. Deem and Ramdas Pophale) SiO2 
 PCOD8017990
Probable space group: P -1
;
_chemical_formula_sum "Si O2"
_cell_formula_units_Z 16
_cell_length_a 14.821786
_cell_length_b 13.145181
_cell_length_c 6.325131
_cell_angle_alpha 101.578332
_cell_angle_beta 54.349106
_cell_angle_gamma 69.825737
_cell_volume 799.020124
_symmetry_space_group_name_H-M "P -1"
_symmetry_group_IT_number 2
_symmetry_cell_setting 'triclinic'
loop_
_space_group_symop_operation_xyz
x,y,z
-x,-y,-z
loop_
_atom_site_type_symbol
_atom_site_label
_atom_site_fract_x
_atom_site_fract_y
_atom_site_fract_z
Si Si1 0.227760 0.246255 0.776298
Si Si2 0.851068 0.841340 0.534206
Si Si3 0.514114 0.414903 0.253354
Si Si4 0.667719 0.493635 0.848392
Si Si5 0.449856 0.278888 0.579474
Si Si6 0.070620 0.070368 0.917383
Si Si7 0.680176 0.997893 0.212635
Si Si8 0.023785 0.686643 0.615189
O O1 0.195861 0.231180 0.573130
O O2 0.305450 0.313682 0.704259
O O3 0.324674 0.105146 0.687869
O O4 0.085828 0.332556 0.137190
O O5 0.898356 0.913625 0.359184
O O6 0.978567 0.734785 0.457354
O O7 0.722718 0.947348 0.893894
O O8 0.500000 0.500000 0.500000
O O9 0.377906 0.483783 0.323948
O O10 0.531778 0.291091 0.280796
O O11 0.641169 0.390639 0.933037
O O12 0.824697 0.441917 0.637295
O O13 0.576784 0.627698 0.152794
O O14 0.537009 0.133872 0.478412
O O15 0.208447 0.986487 0.829371
O O16 0.972482 0.209726 0.211791
O O17 0.000000 0.000000 0.000000
#
# Coordination Sequence:
#
# PCOD8017990 Si02
#       8
#     2   2   2   2   2   2   2   2
#     4   9  20  37  56  83 112 141 185 232 275 328
#     4   8  18  36  53  75 109 144 181 228 280 323
#     4   9  22  39  55  80 109 146 187 222 271 325
#     4  10  22  40  56  79 116 146 182 233 272 322
#     4  11  22  35  57  84 111 148 188 223 274 337
#     4   9  19  32  53  83 109 139 185 233 277 329
#     4   9  20  35  53  81 112 143 181 227 282 330
#     4   9  20  37  57  77 108 149 180 225 282 324
#
# _framework density 20.024525000000001
#
# number of rings (size 3 to 8) (size 9 to 14) (size 15 to 20)
#    0.000    3.250    0.000    0.375    0.000   16.000 
#    0.000    1.250    0.000    0.000    0.000    0.000 
#    0.000    0.000    0.000    0.000    0.000    0.000 
#
# Total GULP energy -198296.961569 kJ/mol
# GULP energy per Si atom -12393.560098 kJ/mol
# Density = 1.997895 g / cm^3
# Si number density = 20.024525 Si / 1000 Ang^3
#
#
#
# Elastic Constant Matrix: (Units=GPa)
#
#
# Indices 1 2 3 4 5 6 
#
# 1 104.2952 29.1388 39.4503 -8.0955 4.6104 2.5297
# 2 29.1388 45.0723 29.1860 -5.0488 1.0655 -5.2605
# 3 39.4503 29.1860 80.4708 -1.7509 5.1466 -18.9813
# 4 -8.0955 -5.0488 -1.7509 24.3540 -11.3967 -7.0433
# 5 4.6104 1.0655 5.1466 -11.3967 34.9407 -3.2244
# 6 2.5297 -5.2605 -18.9813 -7.0433 -3.2244 36.5921
#
#
#
# Elastic Compliance Matrix: (Units=1/GPa)
#
#
# Indices 1 2 3 4 5 6 
#
# 1 0.013467 -0.005433 -0.005600 0.001305 -0.000770 -0.004433
# 2 -0.005433 0.032126 -0.008573 0.006361 0.003265 0.002059
# 3 -0.005600 -0.008573 0.020670 0.000181 -0.001079 0.009816
# 4 0.001305 0.006361 0.000181 0.055532 0.018945 0.013277
# 5 -0.000770 0.003265 -0.001079 0.018945 0.035583 0.006745
# 6 -0.004433 0.002059 0.009816 0.013277 0.006745 0.036173
#
#
# Mechanical properties :
#
#
# Convention : Reuss Voigt Hill
#
# Bulk Modulus (GPa) = 36.96683 47.26540 42.11611
# Shear Modulus (GPa) = 20.68001 27.98157 24.33079
#
# Velocity S-wave (km/s) = 3.21710 3.74219 3.48954
# Velocity P-wave (km/s) = 5.68336 6.50592 6.10850
#
# Compressibility (1/GPa) = 0.02705128
#
# Stress axis : x y z
#
# Youngs Moduli (GPa) = 74.25452 31.12732 48.37973
#
# Poissons Ratio (x) = 0.16913 0.27091
# Poissons Ratio (y) = 0.40346 0.41475
# Poissons Ratio (z) = 0.41580 0.26685
#
# Static dielectric constant tensor:
#      x y z
#    x 3.730230 0.020580 0.052830 
#    y 0.020580 3.554060 -0.301590 
#    z 0.052830 -0.301590 3.537570 
# 
# 
# High freq. dielectric constant tensor:
#      x y z
#    x 1.791450 0.002150 0.007900 
#    y 0.002150 1.764810 -0.018930 
#    z 0.007900 -0.018930 1.769990 
# 
# From -- ./inp_files/98383.got.cif
#   From: 2010.06.25/outbox.cif.g09.slc.cpg/sg2_50_cif.got.tgz:98383.got - 2010.06.27 13:26:56.
