data_PCOD8017353
_publ_section_title
;
Structure prediction by ZEFSAII (Michael W. Deem and Ramdas Pophale) SiO2 
 PCOD8017353
Probable space group: P -1
;
_chemical_formula_sum "Si O2"
_cell_formula_units_Z 16
_cell_length_a 10.105144
_cell_length_b 9.244583
_cell_length_c 12.208670
_cell_angle_alpha 127.668498
_cell_angle_beta 57.368589
_cell_angle_gamma 107.625178
_cell_volume 759.670691
_symmetry_space_group_name_H-M "P -1"
_symmetry_group_IT_number 2
_symmetry_cell_setting 'triclinic'
loop_
_space_group_symop_operation_xyz
x,y,z
-x,-y,-z
loop_
_atom_site_type_symbol
_atom_site_label
_atom_site_fract_x
_atom_site_fract_y
_atom_site_fract_z
Si Si1 0.230137 0.086320 0.544148
Si Si2 0.084647 0.001616 0.076960
Si Si3 0.514029 0.339328 0.507679
Si Si4 0.417435 0.127250 0.007584
Si Si5 0.187033 0.799781 0.607771
Si Si6 0.955578 0.309797 0.877377
Si Si7 0.646737 0.472005 0.719096
Si Si8 0.302935 0.767591 0.211532
O O1 0.377894 0.197588 0.490020
O O2 0.085587 0.231159 0.696563
O O3 0.257267 0.972234 0.590826
O O4 0.201477 0.935785 0.391356
O O5 0.069050 0.817237 0.066190
O O6 0.992713 0.165274 0.260107
O O7 0.264726 0.033576 0.986803
O O8 0.000000 0.000000 0.000000
O O9 0.500000 0.500000 0.500000
O O10 0.686781 0.236237 0.365911
O O11 0.506435 0.416205 0.672400
O O12 0.537270 0.154682 0.869535
O O13 0.353141 0.311869 0.179235
O O14 0.500000 0.000000 0.000000
O O15 0.809903 0.382286 0.554617
O O16 0.795393 0.325221 0.884708
O O17 0.000000 0.500000 0.000000
O O18 0.631627 0.390229 0.809147
#
# Coordination Sequence:
#
# PCOD8017353 Si02
#       8
#     2   2   2   2   2   2   2   2
#     4  10  22  42  72  97 131 183 227 281 342 412
#     4  11  26  44  68 100 140 182 226 283 360 403
#     4  10  22  38  68 103 137 169 223 286 345 406
#     4  12  26  43  69 101 143 180 227 292 346 415
#     4   8  21  43  65  94 133 174 229 271 334 415
#     4  11  26  45  69 100 138 180 233 292 337 416
#     4   9  24  43  66  99 132 181 231 277 342 413
#     4  11  24  45  71  97 138 184 239 275 347 420
#
# _framework density 21.061757
#
# number of rings (size 3 to 8) (size 9 to 14) (size 15 to 20)
#    0.750    1.000    1.250    1.125    7.000    2.500 
#    0.000    0.000    0.000    0.000    0.000    0.000 
#    0.000    0.000    0.000    0.000    0.000    0.000 
#
# Total GULP energy -198229.373261 kJ/mol
# GULP energy per Si atom -12389.335829 kJ/mol
# Density = 2.101382 g / cm^3
# Si number density = 21.061757 Si / 1000 Ang^3
#
#
#
# Elastic Constant Matrix: (Units=GPa)
#
#
# Indices 1 2 3 4 5 6 
#
# 1 143.0053 74.6333 44.8445 -12.4761 8.0504 -5.8575
# 2 74.6333 113.6134 58.9439 7.3936 2.0035 -14.3978
# 3 44.8445 58.9439 108.8662 9.3929 -3.0585 1.0812
# 4 -12.4761 7.3936 9.3929 33.9533 0.3773 3.3088
# 5 8.0504 2.0035 -3.0585 0.3773 39.9018 -3.3658
# 6 -5.8575 -14.3978 1.0812 3.3088 -3.3658 40.9066
#
#
#
# Elastic Compliance Matrix: (Units=1/GPa)
#
#
# Indices 1 2 3 4 5 6 
#
# 1 0.012222 -0.007939 -0.001372 0.006797 -0.002385 -0.001754
# 2 -0.007939 0.018367 -0.006213 -0.005794 0.000766 0.006024
# 3 -0.001372 -0.006213 0.013407 -0.002642 0.001438 -0.002405
# 4 0.006797 -0.005794 -0.002642 0.034347 -0.001939 -0.003934
# 5 -0.002385 0.000766 0.001438 -0.001939 0.025816 0.002171
# 6 -0.001754 0.006024 -0.002405 -0.003934 0.002171 0.026875
#
#
# Mechanical properties :
#
#
# Convention : Reuss Voigt Hill
#
# Bulk Modulus (GPa) = 77.23182 80.25872 78.74527
# Shear Modulus (GPa) = 30.04849 35.42322 32.73585
#
# Velocity S-wave (km/s) = 3.78125 4.10551 3.94671
# Velocity P-wave (km/s) = 7.47078 7.78863 7.63136
#
# Compressibility (1/GPa) = 0.01294803
#
# Stress axis : x y z
#
# Youngs Moduli (GPa) = 81.82114 54.44439 74.59002
#
# Poissons Ratio (x) = 0.43226 0.10232
# Poissons Ratio (y) = 0.64961 0.46340
# Poissons Ratio (z) = 0.11224 0.33825
#
# Static dielectric constant tensor:
#      x y z
#    x 3.694090 -0.348140 0.012080 
#    y -0.348140 3.054170 0.605810 
#    z 0.012080 0.605810 3.557690 
# 
# 
# High freq. dielectric constant tensor:
#      x y z
#    x 1.819060 -0.015390 -0.003690 
#    y -0.015390 1.824370 0.003730 
#    z -0.003690 0.003730 1.830350 
# 
# From -- ./inp_files/383136.got.cif
#   From: 2010.06.25/outbox.cif.g09.slc.cpg/sg2_192_cif.got.tgz:383136.got - 2010.06.27 13:26:56.
