data_PCOD8017583
_publ_section_title
;
Structure prediction by ZEFSAII (Michael W. Deem and Ramdas Pophale) SiO2 
 PCOD8017583
Probable space group: P -1
;
_chemical_formula_sum "Si O2"
_cell_formula_units_Z 16
_cell_length_a 6.397826
_cell_length_b 11.171796
_cell_length_c 11.143232
_cell_angle_alpha 117.208745
_cell_angle_beta 79.236081
_cell_angle_gamma 86.189996
_cell_volume 685.280631
_symmetry_space_group_name_H-M "P -1"
_symmetry_group_IT_number 2
_symmetry_cell_setting 'triclinic'
loop_
_space_group_symop_operation_xyz
x,y,z
-x,-y,-z
loop_
_atom_site_type_symbol
_atom_site_label
_atom_site_fract_x
_atom_site_fract_y
_atom_site_fract_z
Si Si1 0.134253 0.380796 0.277703
Si Si2 0.376318 0.111548 0.195279
Si Si3 0.551069 0.833055 0.525195
Si Si4 0.292134 0.453312 0.548262
Si Si5 0.277092 0.474337 0.066491
Si Si6 0.797061 0.105768 0.023127
Si Si7 0.840864 0.970784 0.398459
Si Si8 0.993640 0.727954 0.097343
O O1 0.199999 0.216821 0.185008
O O2 0.178495 0.407592 0.422825
O O3 0.273836 0.455556 0.202967
O O4 0.876919 0.433931 0.308501
O O5 0.339446 0.119367 0.344834
O O6 0.342050 0.961811 0.092092
O O7 0.618693 0.146051 0.165238
O O8 0.617335 0.670682 0.429294
O O9 0.657845 0.890715 0.426797
O O10 0.289745 0.885009 0.573535
O O11 0.500000 0.500000 0.500000
O O12 0.113861 0.612742 0.119410
O O13 0.500000 0.500000 0.000000
O O14 0.213575 0.334567 0.954754
O O15 0.867850 0.241750 0.020922
O O16 0.000000 0.000000 0.000000
O O17 0.951558 0.875193 0.235351
O O18 0.000000 0.000000 0.500000
#
# Coordination Sequence:
#
# PCOD8017583 Si02
#       8
#     2   2   2   2   2   2   2   2
#     4  10  22  41  63  92 126 168 218 265 326 393
#     4  10  22  39  62  94 129 168 216 269 331 392
#     4  10  23  40  60  91 122 160 213 263 324 391
#     4  10  23  40  64  93 126 165 213 273 327 386
#     4  11  25  43  65  91 131 175 217 271 325 390
#     4  11  22  38  63  93 130 171 216 272 327 393
#     4  11  24  42  66  92 127 168 211 271 331 392
#     4  11  25  41  62  95 126 168 223 265 324 395
#
# _framework density 23.348099000000001
#
# number of rings (size 3 to 8) (size 9 to 14) (size 15 to 20)
#    0.000    1.500    0.000    3.750    0.000   17.000 
#    0.000    0.000    0.000    0.000    0.000    0.000 
#    0.000    0.000    0.000    0.000    0.000    0.000 
#
# Total GULP energy -198278.532023 kJ/mol
# GULP energy per Si atom -12392.408251 kJ/mol
# Density = 2.329496 g / cm^3
# Si number density = 23.348099 Si / 1000 Ang^3
#
#
#
# Elastic Constant Matrix: (Units=GPa)
#
#
# Indices 1 2 3 4 5 6 
#
# 1 102.0803 42.7325 19.3415 10.6802 -19.3040 -1.3400
# 2 42.7325 110.1522 16.8835 -4.0964 -11.3229 -13.0614
# 3 19.3415 16.8835 64.8977 -1.3692 -18.7576 -3.4666
# 4 10.6802 -4.0964 -1.3692 39.7625 -0.5775 -7.3115
# 5 -19.3040 -11.3229 -18.7576 -0.5775 36.5296 -3.1178
# 6 -1.3400 -13.0614 -3.4666 -7.3115 -3.1178 51.6057
#
#
#
# Elastic Compliance Matrix: (Units=1/GPa)
#
#
# Indices 1 2 3 4 5 6 
#
# 1 0.013413 -0.004804 -0.001577 -0.004325 0.004610 -0.001308
# 2 -0.004804 0.011700 -0.001134 0.003065 0.000831 0.003245
# 3 -0.001577 -0.001134 0.018783 0.001382 0.008623 0.001651
# 4 -0.004325 0.003065 0.001382 0.027536 0.000208 0.004670
# 5 0.004610 0.000831 0.008623 0.000208 0.034759 0.003039
# 6 -0.001308 0.003245 0.001651 0.004670 0.003039 0.021121
#
#
# Mechanical properties :
#
#
# Convention : Reuss Voigt Hill
#
# Bulk Modulus (GPa) = 34.64073 48.33835 41.48954
# Shear Modulus (GPa) = 32.90246 38.79107 35.84677
#
# Velocity S-wave (km/s) = 3.75802 4.08048 3.92256
# Velocity P-wave (km/s) = 5.80510 6.55352 6.19063
#
# Compressibility (1/GPa) = 0.02886776
#
# Stress axis : x y z
#
# Youngs Moduli (GPa) = 74.55463 85.47036 53.23843
#
# Poissons Ratio (x) = 0.41059 0.08393
# Poissons Ratio (y) = 0.35815 0.06037
# Poissons Ratio (z) = 0.11754 0.09691
#
# Static dielectric constant tensor:
#      x y z
#    x 4.105820 -0.318550 -0.346260 
#    y -0.318550 4.413370 0.064360 
#    z -0.346260 0.064360 4.214060 
# 
# 
# High freq. dielectric constant tensor:
#      x y z
#    x 1.918440 -0.010430 -0.010290 
#    y -0.010430 1.932910 -0.006920 
#    z -0.010290 -0.006920 1.923320 
# 
# From -- ./inp_files/364947.got.cif
#   From: 2010.06.25/outbox.cif.g09.slc.cpg/sg2_183_cif.got.tgz:364947.got - 2010.06.27 13:26:56.
