data_PCOD8017019
_publ_section_title
;
Structure prediction by ZEFSAII (Michael W. Deem and Ramdas Pophale) SiO2 
 PCOD8017019
Probable space group: P -1
;
_chemical_formula_sum "Si O2"
_cell_formula_units_Z 16
_cell_length_a 9.638528
_cell_length_b 11.953487
_cell_length_c 15.320175
_cell_angle_alpha 58.181021
_cell_angle_beta 108.466532
_cell_angle_gamma 57.981303
_cell_volume 713.706366
_symmetry_space_group_name_H-M "P -1"
_symmetry_group_IT_number 2
_symmetry_cell_setting 'triclinic'
loop_
_space_group_symop_operation_xyz
x,y,z
-x,-y,-z
loop_
_atom_site_type_symbol
_atom_site_label
_atom_site_fract_x
_atom_site_fract_y
_atom_site_fract_z
Si Si1 0.247096 0.543075 0.431629
Si Si2 0.090475 0.495499 0.158508
Si Si3 0.718069 0.467221 0.351049
Si Si4 0.052380 0.436684 0.366992
Si Si5 0.229154 0.888549 0.710132
Si Si6 0.895575 0.061259 0.737580
Si Si7 0.333317 0.576701 0.138049
Si Si8 0.572271 0.872418 0.784010
O O1 0.282450 0.510584 0.555574
O O2 0.018305 0.612184 0.323670
O O3 0.565227 0.273310 0.561790
O O4 0.116300 0.786979 0.279826
O O5 0.098720 0.404305 0.285855
O O6 0.260841 0.499966 0.208215
O O7 0.245048 0.286195 0.202899
O O8 0.765240 0.779638 0.940328
O O9 0.415147 0.634584 0.193829
O O10 0.763822 0.573573 0.270354
O O11 0.974651 0.167373 0.495055
O O12 0.314098 0.172626 0.585190
O O13 0.392162 0.660049 0.773665
O O14 0.457954 0.820274 0.817487
O O15 0.090297 0.913015 0.750475
O O16 0.041057 0.841516 0.919514
#
# Coordination Sequence:
#
# PCOD8017019 Si02
#       8
#     2   2   2   2   2   2   2   2
#     4  10  23  43  61  86 126 169 214 250 309 369
#     4  10  22  37  64  95 126 161 207 257 310 382
#     4  10  23  41  63  91 127 163 206 262 309 370
#     4  11  22  41  65  88 121 173 207 253 319 368
#     4   9  20  39  65  90 128 161 199 258 321 373
#     4  10  22  39  64  90 121 169 203 265 305 370
#     4  11  22  39  62  99 123 156 208 263 315 366
#     4   9  20  41  60  93 131 159 203 261 312 371
#
# _framework density 22.418182999999999
#
# number of rings (size 3 to 8) (size 9 to 14) (size 15 to 20)
#    0.000    2.000    0.000    2.250    7.000    0.500 
#    6.750    0.625    0.000    0.000    0.000    0.000 
#    0.000    0.000    0.000    0.000    0.000    0.000 
#
# Total GULP energy -198383.574318 kJ/mol
# GULP energy per Si atom -12398.973395 kJ/mol
# Density = 2.236716 g / cm^3
# Si number density = 22.418183 Si / 1000 Ang^3
#
#
#
# Elastic Constant Matrix: (Units=GPa)
#
#
# Indices 1 2 3 4 5 6 
#
# 1 110.8273 26.5575 17.5188 13.3468 6.3419 -0.2634
# 2 26.5575 55.0434 11.4950 8.3255 2.0316 -4.0862
# 3 17.5188 11.4950 55.1211 9.4118 4.0206 -3.2502
# 4 13.3468 8.3255 9.4118 21.8614 7.4097 6.4137
# 5 6.3419 2.0316 4.0206 7.4097 33.1181 5.3807
# 6 -0.2634 -4.0862 -3.2502 6.4137 5.3807 37.0431
#
#
#
# Elastic Compliance Matrix: (Units=1/GPa)
#
#
# Indices 1 2 3 4 5 6 
#
# 1 0.010847 -0.004192 -0.001808 -0.004078 -0.000732 0.000269
# 2 -0.004192 0.021728 -0.002039 -0.005940 0.000536 0.003139
# 3 -0.001808 -0.002039 0.020682 -0.007631 -0.000823 0.003018
# 4 -0.004078 -0.005940 -0.007631 0.060102 -0.009693 -0.010352
# 5 -0.000732 0.000536 -0.000823 -0.009693 0.033082 -0.003145
# 6 0.000269 0.003139 0.003018 -0.010352 -0.003145 0.029858
#
#
# Mechanical properties :
#
#
# Convention : Reuss Voigt Hill
#
# Bulk Modulus (GPa) = 26.89600 36.90382 31.89991
# Shear Modulus (GPa) = 24.41778 29.43257 26.92517
#
# Velocity S-wave (km/s) = 3.30388 3.62731 3.46936
# Velocity P-wave (km/s) = 5.15534 5.83442 5.50536
#
# Compressibility (1/GPa) = 0.03718026
#
# Stress axis : x y z
#
# Youngs Moduli (GPa) = 92.19124 46.02456 48.35036
#
# Poissons Ratio (x) = 0.19294 0.08740
# Poissons Ratio (y) = 0.38648 0.09856
# Poissons Ratio (z) = 0.16665 0.09382
#
# Static dielectric constant tensor:
#      x y z
#    x 4.246380 0.000430 0.129700 
#    y 0.000430 3.786480 -0.131830 
#    z 0.129700 -0.131830 3.907520 
# 
# 
# High freq. dielectric constant tensor:
#      x y z
#    x 1.897770 -0.000940 0.005770 
#    y -0.000940 1.867430 -0.001330 
#    z 0.005770 -0.001330 1.865940 
# 
# From -- ./inp_files/417252.got.cif
#   From: 2010.06.25/outbox.cif.g09.slc.cpg/sg2_209_cif.got.tgz:417252.got - 2010.06.27 13:26:56.
