data_PCOD8017400
_publ_section_title
;
Structure prediction by ZEFSAII (Michael W. Deem and Ramdas Pophale) SiO2 
 PCOD8017400
Probable space group: P -1
;
_chemical_formula_sum "Si O2"
_cell_formula_units_Z 10
_cell_length_a 5.320734
_cell_length_b 15.154488
_cell_length_c 12.022193
_cell_angle_alpha 28.244336
_cell_angle_beta 107.763106
_cell_angle_gamma 114.934182
_cell_volume 410.991414
_symmetry_space_group_name_H-M "P -1"
_symmetry_group_IT_number 2
_symmetry_cell_setting 'triclinic'
loop_
_space_group_symop_operation_xyz
x,y,z
-x,-y,-z
loop_
_atom_site_type_symbol
_atom_site_label
_atom_site_fract_x
_atom_site_fract_y
_atom_site_fract_z
Si Si1 0.847318 0.435208 0.933934
Si Si2 0.427551 0.592962 0.774604
Si Si3 0.594889 0.736902 0.234134
Si Si4 0.888937 0.078234 0.059042
Si Si5 0.790611 0.016270 0.359832
O O1 0.614367 0.538063 0.764841
O O2 0.097141 0.503072 0.800209
O O3 0.691034 0.201161 0.167744
O O4 0.000000 0.500000 0.000000
O O5 0.507495 0.827839 0.533587
O O6 0.500000 0.500000 0.000000
O O7 0.500000 0.500000 0.500000
O O8 0.319356 0.793660 0.109118
O O9 0.815192 0.799021 0.093146
O O10 0.746767 0.862754 0.222269
O O11 0.948233 0.036464 0.240846
O O12 0.000000 0.000000 0.500000
#
# Coordination Sequence:
#
# PCOD8017400 Si02
#       5
#     2   2   2   2   2
#     4  10  22  39  56  83 124 177 222 247 305 383
#     4  10  22  40  57  83 126 180 220 249 305 385
#     4  10  22  50  73  94 131 167 231 288 332 380
#     4  10  25  42  70 106 125 174 227 271 337 401
#     4  12  24  42  66  99 146 178 210 275 328 404
#
# _framework density 24.331406999999999
#
# number of rings (size 3 to 8) (size 9 to 14) (size 15 to 20)
#    0.000    1.600    4.000    0.600    0.000   11.200 
#    0.000    0.000    0.000    0.000    0.000    0.000 
#    0.000    0.000    0.000    0.000    0.000    0.000 
#
# Total GULP energy -123949.398174 kJ/mol
# GULP energy per Si atom -12394.939817 kJ/mol
# Density = 2.427603 g / cm^3
# Si number density = 24.331407 Si / 1000 Ang^3
#
#
#
# Elastic Constant Matrix: (Units=GPa)
#
#
# Indices 1 2 3 4 5 6 
#
# 1 206.0088 33.5534 62.5710 -20.5920 -4.5707 -7.7415
# 2 33.5534 96.0576 74.2652 0.0988 2.1147 -15.3958
# 3 62.5710 74.2652 163.4308 -52.9935 -14.8522 -8.7074
# 4 -20.5920 0.0988 -52.9935 62.4261 -10.4482 -4.8629
# 5 -4.5707 2.1147 -14.8522 -10.4482 28.4131 -4.6646
# 6 -7.7415 -15.3958 -8.7074 -4.8629 -4.6646 22.2219
#
#
#
# Elastic Compliance Matrix: (Units=1/GPa)
#
#
# Indices 1 2 3 4 5 6 
#
# 1 0.005539 -0.000651 -0.001422 0.000838 0.000710 0.001254
# 2 -0.000651 0.027778 -0.021220 -0.021661 -0.020973 0.001561
# 3 -0.001422 -0.021220 0.029042 0.029738 0.028905 0.008758
# 4 0.000838 -0.021661 0.029738 0.049143 0.037933 0.015654
# 5 0.000710 -0.020973 0.028905 0.037933 0.069190 0.019867
# 6 0.001254 0.001561 0.008758 0.015654 0.019867 0.057546
#
#
# Mechanical properties :
#
#
# Convention : Reuss Voigt Hill
#
# Bulk Modulus (GPa) = 63.39929 89.58626 76.49278
# Shear Modulus (GPa) = 17.23661 42.28606 29.76134
#
# Velocity S-wave (km/s) = 2.66448 4.17336 3.50117
# Velocity P-wave (km/s) = 5.96482 7.75382 6.91740
#
# Compressibility (1/GPa) = 0.01577305
#
# Stress axis : x y z
#
# Youngs Moduli (GPa) = 180.55054 35.99998 34.43282
#
# Poissons Ratio (x) = 0.02344 0.04896
# Poissons Ratio (y) = 0.11754 0.73066
# Poissons Ratio (z) = 0.25671 0.76392
#
# Static dielectric constant tensor:
#      x y z
#    x 11.137700 0.181130 -0.096880 
#    y 0.181130 4.477350 -0.231000 
#    z -0.096880 -0.231000 4.225940 
# 
# 
# High freq. dielectric constant tensor:
#      x y z
#    x 1.980500 -0.012890 -0.006420 
#    y -0.012890 1.958840 -0.027960 
#    z -0.006420 -0.027960 1.962010 
# 
# From -- ./inp_files/72862.got.cif
#   From: 2010.06.25/outbox.cif.g09.slc.cpg/sg2_37_cif.got.tgz:72862.got - 2010.06.27 13:26:56.
