data_PCOD8017739
_publ_section_title
;
Structure prediction by ZEFSAII (Michael W. Deem and Ramdas Pophale) SiO2 
 PCOD8017739
Probable space group: P -1
;
_chemical_formula_sum "Si O2"
_cell_formula_units_Z 12
_cell_length_a 14.730457
_cell_length_b 11.468481
_cell_length_c 8.671583
_cell_angle_alpha 56.246661
_cell_angle_beta 137.634383
_cell_angle_gamma 148.463830
_cell_volume 504.777367
_symmetry_space_group_name_H-M "P -1"
_symmetry_group_IT_number 2
_symmetry_cell_setting 'triclinic'
loop_
_space_group_symop_operation_xyz
x,y,z
-x,-y,-z
loop_
_atom_site_type_symbol
_atom_site_label
_atom_site_fract_x
_atom_site_fract_y
_atom_site_fract_z
Si Si1 0.217984 0.262382 0.426091
Si Si2 0.834943 0.567854 0.278992
Si Si3 0.447751 0.027544 0.198312
Si Si4 0.239238 0.925632 0.327830
Si Si5 0.328875 0.317026 0.191047
Si Si6 0.878840 0.114588 0.320860
O O1 0.238793 0.319542 0.230743
O O2 0.410067 0.485070 0.609219
O O3 0.992284 0.140345 0.293583
O O4 0.231310 0.103857 0.564387
O O5 0.640229 0.299028 0.244310
O O6 0.953368 0.666135 0.520941
O O7 0.730990 0.635397 0.064592
O O8 0.012004 0.672922 0.291820
O O9 0.282188 0.910393 0.219795
O O10 0.560352 0.966790 0.391675
O O11 0.306987 0.929287 0.937824
O O12 0.219707 0.076984 0.202950
#
# Coordination Sequence:
#
# PCOD8017739 Si02
#       6
#     2   2   2   2   2   2
#     4  10  22  39  65 100 130 164 215 273 324 374
#     4  12  24  43  72  97 127 173 220 266 324 383
#     4  11  26  47  64  95 136 173 215 266 323 389
#     4  11  25  44  67  94 134 176 213 265 328 385
#     4  11  22  42  67  99 129 169 218 270 323 382
#     4  11  23  41  66  99 127 168 219 268 320 384
#
# _framework density 23.772857999999999
#
# number of rings (size 3 to 8) (size 9 to 14) (size 15 to 20)
#    0.000    1.000    3.333    3.000    4.667    2.000 
#    0.000    9.167    0.000    0.000    0.000    0.000 
#    0.000    0.000    0.000    0.000    0.000    0.000 
#
# Total GULP energy -148847.263638 kJ/mol
# GULP energy per Si atom -12403.938636 kJ/mol
# Density = 2.371875 g / cm^3
# Si number density = 23.772858 Si / 1000 Ang^3
#
#
#
# Elastic Constant Matrix: (Units=GPa)
#
#
# Indices 1 2 3 4 5 6 
#
# 1 57.0985 19.2783 16.5325 -4.4652 7.5584 10.7718
# 2 19.2783 71.2773 16.8357 4.3850 -7.8010 9.3422
# 3 16.5325 16.8357 151.1839 1.7315 -11.5487 -13.8324
# 4 -4.4652 4.3850 1.7315 30.2152 -9.0093 -2.5560
# 5 7.5584 -7.8010 -11.5487 -9.0093 22.3328 4.2185
# 6 10.7718 9.3422 -13.8324 -2.5560 4.2185 29.1780
#
#
#
# Elastic Compliance Matrix: (Units=1/GPa)
#
#
# Indices 1 2 3 4 5 6 
#
# 1 0.023025 -0.005711 -0.003258 0.000918 -0.009834 -0.006714
# 2 -0.005711 0.017502 -0.001195 -0.001422 0.007860 -0.005323
# 3 -0.003258 -0.001195 0.007852 0.000900 0.004206 0.004778
# 4 0.000918 -0.001422 0.000900 0.037892 0.014614 0.001750
# 5 -0.009834 0.007860 0.004206 0.014614 0.059724 -0.004247
# 6 -0.006714 -0.005323 0.004778 0.001750 -0.004247 0.041488
#
#
# Mechanical properties :
#
#
# Convention : Reuss Voigt Hill
#
# Bulk Modulus (GPa) = 35.64799 42.76142 39.20470
# Shear Modulus (GPa) = 23.02445 31.47275 27.24860
#
# Velocity S-wave (km/s) = 3.11548 3.64248 3.38924
# Velocity P-wave (km/s) = 5.28861 5.97635 5.64297
#
# Compressibility (1/GPa) = 0.02805207
#
# Stress axis : x y z
#
# Youngs Moduli (GPa) = 43.43049 57.13646 127.35647
#
# Poissons Ratio (x) = 0.32630 0.41492
# Poissons Ratio (y) = 0.24802 0.15216
# Poissons Ratio (z) = 0.14149 0.06827
#
# Static dielectric constant tensor:
#      x y z
#    x 4.015860 0.340240 0.072600 
#    y 0.340240 4.176460 -0.072490 
#    z 0.072600 -0.072490 4.530670 
# 
# 
# High freq. dielectric constant tensor:
#      x y z
#    x 1.927050 0.025340 0.001370 
#    y 0.025340 1.935200 0.001000 
#    z 0.001370 0.001000 1.958790 
# 
# From -- ./inp_files/147467.got.cif
#   From: 2010.06.25/outbox.cif.g09.slc.cpg/sg2_74_cif.got.tgz:147467.got - 2010.06.27 13:26:56.
