data_PCOD8017563
_publ_section_title
;
Structure prediction by ZEFSAII (Michael W. Deem and Ramdas Pophale) SiO2 
 PCOD8017563
Probable space group: P -1
;
_chemical_formula_sum "Si O2"
_cell_formula_units_Z 16
_cell_length_a 17.749962
_cell_length_b 10.232959
_cell_length_c 9.876911
_cell_angle_alpha 81.738040
_cell_angle_beta 100.663866
_cell_angle_gamma 153.654459
_cell_volume 781.385633
_symmetry_space_group_name_H-M "P -1"
_symmetry_group_IT_number 2
_symmetry_cell_setting 'triclinic'
loop_
_space_group_symop_operation_xyz
x,y,z
-x,-y,-z
loop_
_atom_site_type_symbol
_atom_site_label
_atom_site_fract_x
_atom_site_fract_y
_atom_site_fract_z
Si Si1 0.415348 0.193369 0.147558
Si Si2 0.733356 0.858956 0.123197
Si Si3 0.597242 0.133687 0.874264
Si Si4 0.883718 0.745711 0.599872
Si Si5 0.494039 0.866215 0.422696
Si Si6 0.940666 0.249646 0.387286
Si Si7 0.041216 0.174714 0.094925
Si Si8 0.776050 0.109268 0.597432
O O1 0.606652 0.544843 0.171046
O O2 0.408614 0.024821 0.159708
O O3 0.311660 0.077812 0.265724
O O4 0.345604 0.147107 0.992519
O O5 0.798643 0.024677 0.257663
O O6 0.885261 0.035519 0.057214
O O7 0.505741 0.086362 0.740414
O O8 0.788286 0.476304 0.919984
O O9 0.500000 0.000000 0.000000
O O10 0.686819 0.483771 0.554037
O O11 0.948270 0.883209 0.749737
O O12 0.913978 0.637895 0.596211
O O13 0.000000 0.000000 0.500000
O O14 0.500000 0.000000 0.500000
O O15 0.648196 0.004622 0.483299
O O16 0.836727 0.084466 0.520625
O O17 0.046728 0.546571 0.357556
O O18 0.000000 0.000000 0.000000
#
# Coordination Sequence:
#
# PCOD8017563 Si02
#       8
#     2   2   2   2   2   2   2   2
#     4  11  23  42  63  91 123 166 207 253 314 365
#     4  10  24  42  62  89 128 162 207 260 304 371
#     4  11  24  40  65  94 122 163 211 251 310 371
#     4  10  22  39  62  91 123 163 202 251 311 368
#     4  11  21  40  63  93 123 159 209 256 303 370
#     4  10  23  42  60  92 127 160 208 257 311 369
#     4  10  22  42  62  91 126 159 205 258 302 370
#     4  11  23  41  65  91 126 162 208 260 308 376
#
# _framework density 20.476444000000001
#
# number of rings (size 3 to 8) (size 9 to 14) (size 15 to 20)
#    0.000    1.500    2.500    2.250    5.250    4.500 
#    4.500    0.000    0.000    0.000    0.000    0.000 
#    0.000    0.000    0.000    0.000    0.000    0.000 
#
# Total GULP energy -198343.124848 kJ/mol
# GULP energy per Si atom -12396.445303 kJ/mol
# Density = 2.042984 g / cm^3
# Si number density = 20.476444 Si / 1000 Ang^3
#
#
#
# Elastic Constant Matrix: (Units=GPa)
#
#
# Indices 1 2 3 4 5 6 
#
# 1 47.2486 36.1926 32.0637 10.2774 -18.1852 -3.1830
# 2 36.1926 137.2455 74.3897 0.0588 -0.1772 1.2284
# 3 32.0637 74.3897 118.5585 -10.7946 -24.3743 -5.2876
# 4 10.2774 0.0588 -10.7946 42.5116 0.5707 -2.2048
# 5 -18.1852 -0.1772 -24.3743 0.5707 37.3990 -3.2911
# 6 -3.1830 1.2284 -5.2876 -2.2048 -3.2911 28.3701
#
#
#
# Elastic Compliance Matrix: (Units=1/GPa)
#
#
# Indices 1 2 3 4 5 6 
#
# 1 0.039235 -0.009682 -0.001272 -0.009736 0.018881 0.006018
# 2 -0.009682 0.014848 -0.009189 -0.000110 -0.011041 -0.004731
# 3 -0.001272 -0.009189 0.017509 0.004886 0.011131 0.005190
# 4 -0.009736 -0.000110 0.004886 0.027232 -0.001814 0.001729
# 5 0.018881 -0.011041 0.011131 -0.001814 0.043997 0.009634
# 6 0.006018 -0.004731 0.005190 0.001729 0.009634 0.038348
#
#
# Mechanical properties :
#
#
# Convention : Reuss Voigt Hill
#
# Bulk Modulus (GPa) = 31.94338 65.37163 48.65750
# Shear Modulus (GPa) = 21.56188 32.34991 26.95589
#
# Velocity S-wave (km/s) = 3.24853 3.97906 3.63221
# Velocity P-wave (km/s) = 5.45019 7.28733 6.43466
#
# Compressibility (1/GPa) = 0.03130539
#
# Stress axis : x y z
#
# Youngs Moduli (GPa) = 25.48758 67.34788 57.11313
#
# Poissons Ratio (x) = 0.65208 0.07265
# Poissons Ratio (y) = 0.24678 0.52481
# Poissons Ratio (z) = 0.03242 0.61886
#
# Static dielectric constant tensor:
#      x y z
#    x 3.604490 0.107680 -0.086320 
#    y 0.107680 3.429300 0.102150 
#    z -0.086320 0.102150 3.838330 
# 
# 
# High freq. dielectric constant tensor:
#      x y z
#    x 1.786840 0.008380 -0.012180 
#    y 0.008380 1.818160 0.004480 
#    z -0.012180 0.004480 1.812570 
# 
# From -- ./inp_files/346137.got.cif
#   From: 2010.06.25/outbox.cif.g09.slc.cpg/sg2_174_cif.got.tgz:346137.got - 2010.06.27 13:26:56.
