data_PCOD8017699
_publ_section_title
;
Structure prediction by ZEFSAII (Michael W. Deem and Ramdas Pophale) SiO2 
 PCOD8017699
Probable space group: P -1
;
_chemical_formula_sum "Si O2"
_cell_formula_units_Z 14
_cell_length_a 20.213075
_cell_length_b 8.790580
_cell_length_c 14.631175
_cell_angle_alpha 28.329366
_cell_angle_beta 148.071334
_cell_angle_gamma 132.104643
_cell_volume 621.333850
_symmetry_space_group_name_H-M "P -1"
_symmetry_group_IT_number 2
_symmetry_cell_setting 'triclinic'
loop_
_space_group_symop_operation_xyz
x,y,z
-x,-y,-z
loop_
_atom_site_type_symbol
_atom_site_label
_atom_site_fract_x
_atom_site_fract_y
_atom_site_fract_z
Si Si1 0.346318 0.712981 0.345734
Si Si2 0.128546 0.179756 0.967028
Si Si3 0.015774 0.944294 0.441037
Si Si4 0.773281 0.897016 0.496193
Si Si5 0.847730 0.136062 0.644913
Si Si6 0.410471 0.774630 0.037447
Si Si7 0.261509 0.082094 0.879540
O O1 0.284859 0.412037 0.414582
O O2 0.492000 0.588628 0.627193
O O3 0.254088 0.984548 0.160183
O O4 0.365725 0.895012 0.177817
O O5 0.108908 0.571848 0.724335
O O6 0.999254 0.099276 0.820934
O O7 0.157503 0.087856 0.155351
O O8 0.871045 0.999703 0.202062
O O9 0.000000 0.000000 0.500000
O O10 0.083619 0.196460 0.337458
O O11 0.783902 0.993070 0.562470
O O12 0.676666 0.221895 0.157000
O O13 0.762595 0.519382 0.362155
O O14 0.500000 0.000000 0.000000
O O15 0.309095 0.937717 0.912763
#
# Coordination Sequence:
#
# PCOD8017699 Si02
#       7
#     2   2   2   2   2   2   2
#     4  11  24  41  65  90 128 169 207 251 308 371
#     4  10  23  41  61  92 129 164 198 256 321 361
#     4  11  23  39  66  93 126 156 205 261 309 368
#     4  11  23  39  64  97 124 163 212 252 307 368
#     4  10  22  39  64  92 126 162 206 257 309 369
#     4  10  22  42  63  88 126 169 207 256 304 363
#     4  11  22  42  65  91 127 165 204 255 317 363
#
# _framework density 22.532171000000002
#
# number of rings (size 3 to 8) (size 9 to 14) (size 15 to 20)
#    0.000    1.429    1.429    3.857    6.000    3.429 
#    0.000    9.286    0.000    0.000    0.000    0.000 
#    0.000    0.000    0.000    0.000    0.000    0.000 
#
# Total GULP energy -173590.757847 kJ/mol
# GULP energy per Si atom -12399.339846 kJ/mol
# Density = 2.248089 g / cm^3
# Si number density = 22.532171 Si / 1000 Ang^3
#
#
#
# Elastic Constant Matrix: (Units=GPa)
#
#
# Indices 1 2 3 4 5 6 
#
# 1 76.2614 24.9311 34.4344 3.3572 -0.7326 -10.9610
# 2 24.9311 58.1158 19.4692 12.3554 12.0727 -17.2881
# 3 34.4344 19.4692 127.8885 5.3483 1.9675 -15.9546
# 4 3.3572 12.3554 5.3483 25.7309 -12.0843 -3.0181
# 5 -0.7326 12.0727 1.9675 -12.0843 34.9716 -1.7919
# 6 -10.9610 -17.2881 -15.9546 -3.0181 -1.7919 39.1746
#
#
#
# Elastic Compliance Matrix: (Units=1/GPa)
#
#
# Indices 1 2 3 4 5 6 
#
# 1 0.017330 -0.008202 -0.003656 0.004874 0.005102 0.000349
# 2 -0.008202 0.031954 -0.000325 -0.021680 -0.018206 0.009171
# 3 -0.003656 -0.000325 0.009230 -0.001392 -0.000839 0.002447
# 4 0.004874 -0.021680 -0.001392 0.062256 0.029042 -0.002646
# 5 0.005102 -0.018206 -0.000839 0.029042 0.044933 -0.002656
# 6 0.000349 0.009171 0.002447 -0.002646 -0.002656 0.030343
#
#
# Mechanical properties :
#
#
# Convention : Reuss Voigt Hill
#
# Bulk Modulus (GPa) = 29.28541 46.65944 37.97242
# Shear Modulus (GPa) = 21.57092 32.20417 26.88755
#
# Velocity S-wave (km/s) = 3.09745 3.78465 3.45816
# Velocity P-wave (km/s) = 5.08110 6.31276 5.73012
#
# Compressibility (1/GPa) = 0.03414670
#
# Stress axis : x y z
#
# Youngs Moduli (GPa) = 57.70487 31.29515 108.34624
#
# Poissons Ratio (x) = 0.25667 0.39614
# Poissons Ratio (y) = 0.47327 0.03525
# Poissons Ratio (z) = 0.21098 0.01018
#
# Static dielectric constant tensor:
#      x y z
#    x 3.894380 0.046410 -0.129830 
#    y 0.046410 4.034350 0.311090 
#    z -0.129830 0.311090 4.738950 
# 
# 
# High freq. dielectric constant tensor:
#      x y z
#    x 1.894170 -0.003900 -0.010960 
#    y -0.003900 1.870560 0.008030 
#    z -0.010960 0.008030 1.903260 
# 
# From -- ./inp_files/188132.got.cif
#   From: 2010.06.25/outbox.cif.g09.slc.cpg/sg2_95_cif.got.tgz:188132.got - 2010.06.27 13:26:56.
