data_PCOD8017614
_publ_section_title
;
Structure prediction by ZEFSAII (Michael W. Deem and Ramdas Pophale) SiO2 
 PCOD8017614
Probable space group: P -1
;
_chemical_formula_sum "Si O2"
_cell_formula_units_Z 14
_cell_length_a 11.345999
_cell_length_b 8.683246
_cell_length_c 16.200811
_cell_angle_alpha 133.625314
_cell_angle_beta 134.462223
_cell_angle_gamma 38.638348
_cell_volume 673.774982
_symmetry_space_group_name_H-M "P -1"
_symmetry_group_IT_number 2
_symmetry_cell_setting 'triclinic'
loop_
_space_group_symop_operation_xyz
x,y,z
-x,-y,-z
loop_
_atom_site_type_symbol
_atom_site_label
_atom_site_fract_x
_atom_site_fract_y
_atom_site_fract_z
Si Si1 0.741218 0.207185 0.769538
Si Si2 0.333907 0.687862 0.693683
Si Si3 0.026766 0.194988 0.534651
Si Si4 0.548604 0.231452 0.391202
Si Si5 0.037807 0.657032 0.965045
Si Si6 0.841513 0.722540 0.729890
Si Si7 0.110356 0.145721 0.867094
O O1 0.513066 0.393509 0.694703
O O2 0.895172 0.179849 0.764254
O O3 0.786380 0.927424 0.706429
O O4 0.775747 0.325102 0.913192
O O5 0.397175 0.792940 0.687881
O O6 0.134795 0.693544 0.578145
O O7 0.290886 0.866570 0.818194
O O8 0.983589 0.433695 0.656682
O O9 0.263163 0.017065 0.558335
O O10 0.000000 0.000000 0.500000
O O11 0.500000 0.500000 0.500000
O O12 0.358114 0.223441 0.306893
O O13 0.107151 0.360690 0.890876
O O14 0.959953 0.764259 0.874829
O O15 0.860466 0.822240 0.009049
#
# Coordination Sequence:
#
# PCOD8017614 Si02
#       7
#     2   2   2   2   2   2   2
#     4  10  24  39  62  95 126 169 193 256 317 356
#     4  11  22  40  66  89 126 157 214 254 300 376
#     4  10  22  39  63  91 115 163 205 258 299 358
#     4  11  23  39  67  91 119 162 211 253 305 364
#     4   9  20  42  65  89 123 164 210 252 296 368
#     4  12  22  42  63  93 130 160 205 255 310 362
#     4   9  21  40  63  91 120 161 210 249 305 353
#
# _framework density 20.778451
#
# number of rings (size 3 to 8) (size 9 to 14) (size 15 to 20)
#    0.857    0.857    2.857    3.000    2.000    2.286 
#    2.571    2.143    0.000    0.000    0.000    0.000 
#    0.000    0.000    0.000    0.000    0.000    0.000 
#
# Total GULP energy -173510.663507 kJ/mol
# GULP energy per Si atom -12393.618822 kJ/mol
# Density = 2.073116 g / cm^3
# Si number density = 20.778451 Si / 1000 Ang^3
#
#
#
# Elastic Constant Matrix: (Units=GPa)
#
#
# Indices 1 2 3 4 5 6 
#
# 1 33.0051 34.3155 20.4939 7.6197 2.9118 -10.1120
# 2 34.3155 142.2851 43.1181 2.7735 2.6691 -11.7147
# 3 20.4939 43.1181 77.6962 4.2435 6.9508 -5.2405
# 4 7.6197 2.7735 4.2435 33.2934 -11.2063 -0.6840
# 5 2.9118 2.6691 6.9508 -11.2063 22.3181 -0.2239
# 6 -10.1120 -11.7147 -5.2405 -0.6840 -0.2239 32.4203
#
#
#
# Elastic Compliance Matrix: (Units=1/GPa)
#
#
# Indices 1 2 3 4 5 6 
#
# 1 0.050899 -0.009083 -0.005974 -0.013363 -0.010291 0.011275
# 2 -0.009083 0.010251 -0.003613 0.002478 0.002332 0.000355
# 3 -0.005974 -0.003613 0.017009 -0.002271 -0.005231 -0.000503
# 4 -0.013363 0.002478 -0.002271 0.040722 0.022576 -0.002625
# 5 -0.010291 0.002332 -0.005231 0.022576 0.058812 -0.002330
# 6 0.011275 0.000355 -0.000503 -0.002625 -0.002330 0.034337
#
#
# Mechanical properties :
#
#
# Convention : Reuss Voigt Hill
#
# Bulk Modulus (GPa) = 24.49825 49.87125 37.18475
# Shear Modulus (GPa) = 19.01306 27.94361 23.47833
#
# Velocity S-wave (km/s) = 3.02824 3.67118 3.36510
# Velocity P-wave (km/s) = 4.90335 6.48256 5.74745
#
# Compressibility (1/GPa) = 0.04081923
#
# Stress axis : x y z
#
# Youngs Moduli (GPa) = 19.64675 97.55263 58.79104
#
# Poissons Ratio (x) = 0.88611 0.35120
# Poissons Ratio (y) = 0.17846 0.21240
# Poissons Ratio (z) = 0.11736 0.35244
#
# Static dielectric constant tensor:
#      x y z
#    x 3.804350 -0.317390 0.189200 
#    y -0.317390 3.929910 -0.176050 
#    z 0.189200 -0.176050 3.812550 
# 
# 
# High freq. dielectric constant tensor:
#      x y z
#    x 1.786080 -0.007140 0.002220 
#    y -0.007140 1.810360 0.006530 
#    z 0.002220 0.006530 1.812560 
# 
# From -- ./inp_files/307752.got.cif
#   From: 2010.06.25/outbox.cif.g09.slc.cpg/sg2_154_cif.got.tgz:307752.got - 2010.06.27 13:26:56.
