data_PCOD8017486
_publ_section_title
;
Structure prediction by ZEFSAII (Michael W. Deem and Ramdas Pophale) SiO2 
 PCOD8017486
Probable space group: P -1
;
_chemical_formula_sum "Si O2"
_cell_formula_units_Z 14
_cell_length_a 11.205302
_cell_length_b 14.347388
_cell_length_c 7.780651
_cell_angle_alpha 100.758845
_cell_angle_beta 114.702447
_cell_angle_gamma 131.368118
_cell_volume 626.196515
_symmetry_space_group_name_H-M "P -1"
_symmetry_group_IT_number 2
_symmetry_cell_setting 'triclinic'
loop_
_space_group_symop_operation_xyz
x,y,z
-x,-y,-z
loop_
_atom_site_type_symbol
_atom_site_label
_atom_site_fract_x
_atom_site_fract_y
_atom_site_fract_z
Si Si1 0.321315 0.500612 0.987324
Si Si2 0.576501 0.650126 0.541272
Si Si3 0.786261 0.764272 0.189987
Si Si4 0.229421 0.649778 0.011376
Si Si5 0.958540 0.046279 0.237179
Si Si6 0.286472 0.649689 0.431052
Si Si7 0.500323 0.888174 0.940980
O O1 0.488649 0.616793 0.287679
O O2 0.501126 0.597576 0.968755
O O3 0.151882 0.308281 0.842951
O O4 0.166682 0.502388 0.877713
O O5 0.500000 0.500000 0.500000
O O6 0.460396 0.665891 0.587525
O O7 0.859672 0.830214 0.768070
O O8 0.915129 0.866870 0.476001
O O9 0.858440 0.878084 0.117689
O O10 0.427139 0.803590 0.053355
O O11 0.979420 0.551561 0.797083
O O12 0.326460 0.719814 0.289046
O O13 0.757153 0.004446 0.085200
O O14 0.323941 0.751193 0.635705
O O15 0.500000 0.000000 0.000000
#
# Coordination Sequence:
#
# PCOD8017486 Si02
#       7
#     2   2   2   2   2   2   2
#     4   9  18  36  64  92 117 170 220 258 329 383
#     4  10  23  40  62  91 133 173 216 272 328 389
#     4   9  18  35  63  92 121 164 213 271 320 385
#     4  10  22  47  69  91 134 174 224 272 317 401
#     4  10  22  39  60  95 135 165 220 271 326 393
#     4  10  25  45  67  96 130 177 224 268 326 391
#     4  12  27  42  67 101 133 177 218 272 335 388
#
# _framework density 22.357198
#
# number of rings (size 3 to 8) (size 9 to 14) (size 15 to 20)
#    0.000    2.000    1.429    0.429    8.000    2.286 
#    0.000    0.000    0.000    0.000    0.000    0.000 
#    0.000    0.000    0.000    0.000    0.000    0.000 
#
# Total GULP energy -173510.840805 kJ/mol
# GULP energy per Si atom -12393.631486 kJ/mol
# Density = 2.230631 g / cm^3
# Si number density = 22.357198 Si / 1000 Ang^3
#
#
#
# Elastic Constant Matrix: (Units=GPa)
#
#
# Indices 1 2 3 4 5 6 
#
# 1 96.3670 52.1174 25.1006 6.0502 5.0950 -17.8960
# 2 52.1174 119.0573 33.7444 16.3741 -0.8485 -14.7608
# 3 25.1006 33.7444 60.1072 -0.3169 7.3739 3.1674
# 4 6.0502 16.3741 -0.3169 30.6721 3.2742 -5.5247
# 5 5.0950 -0.8485 7.3739 3.2742 44.9551 6.5975
# 6 -17.8960 -14.7608 3.1674 -5.5247 6.5975 39.5413
#
#
#
# Elastic Compliance Matrix: (Units=1/GPa)
#
#
# Indices 1 2 3 4 5 6 
#
# 1 0.015155 -0.005072 -0.003515 0.000944 -0.002148 0.005738
# 2 -0.005072 0.013334 -0.005739 -0.006025 0.001916 0.001980
# 3 -0.003515 -0.005739 0.021939 0.003479 -0.002898 -0.004521
# 4 0.000944 -0.006025 0.003479 0.036765 -0.004013 0.003706
# 5 -0.002148 0.001916 -0.002898 -0.004013 0.023964 -0.004584
# 6 0.005738 0.001980 -0.004521 0.003706 -0.004584 0.030271
#
#
# Mechanical properties :
#
#
# Convention : Reuss Voigt Hill
#
# Bulk Modulus (GPa) = 45.92210 55.27292 50.59751
# Shear Modulus (GPa) = 28.19458 34.00498 31.09978
#
# Velocity S-wave (km/s) = 3.55504 3.90421 3.73371
# Velocity P-wave (km/s) = 6.11849 6.71566 6.42402
#
# Compressibility (1/GPa) = 0.02177601
#
# Stress axis : x y z
#
# Youngs Moduli (GPa) = 65.98328 74.99727 45.58093
#
# Poissons Ratio (x) = 0.38036 0.16024
# Poissons Ratio (y) = 0.33465 0.26158
# Poissons Ratio (z) = 0.23196 0.43040
#
# Static dielectric constant tensor:
#      x y z
#    x 4.431230 0.012570 0.166050 
#    y 0.012570 4.095120 0.037740 
#    z 0.166050 0.037740 4.013290 
# 
# 
# High freq. dielectric constant tensor:
#      x y z
#    x 1.884990 0.001590 -0.001660 
#    y 0.001590 1.871060 -0.003100 
#    z -0.001660 -0.003100 1.876250 
# 
# From -- ./inp_files/270505.got.cif
#   From: 2010.06.25/outbox.cif.g09.slc.cpg/sg2_136_cif.got.tgz:270505.got - 2010.06.27 13:26:56.
