data_PCOD8017850
_publ_section_title
;
Structure prediction by ZEFSAII (Michael W. Deem and Ramdas Pophale) SiO2 
 PCOD8017850
Probable space group: P -1
;
_chemical_formula_sum "Si O2"
_cell_formula_units_Z 16
_cell_length_a 14.039062
_cell_length_b 9.262396
_cell_length_c 8.749089
_cell_angle_alpha 79.576776
_cell_angle_beta 70.865808
_cell_angle_gamma 129.032005
_cell_volume 709.162455
_symmetry_space_group_name_H-M "P -1"
_symmetry_group_IT_number 2
_symmetry_cell_setting 'triclinic'
loop_
_space_group_symop_operation_xyz
x,y,z
-x,-y,-z
loop_
_atom_site_type_symbol
_atom_site_label
_atom_site_fract_x
_atom_site_fract_y
_atom_site_fract_z
Si Si1 0.787392 0.310619 0.465843
Si Si2 0.893423 0.092296 0.117366
Si Si3 0.363661 0.466063 0.072316
Si Si4 0.482764 0.061421 0.157108
Si Si5 0.159330 0.365978 0.418345
Si Si6 0.927854 0.525711 0.827575
Si Si7 0.063033 0.015866 0.186825
Si Si8 0.692651 0.120653 0.227020
O O1 0.786678 0.473325 0.503347
O O2 0.721964 0.241698 0.342836
O O3 0.956123 0.432764 0.351208
O O4 0.691588 0.102351 0.672378
O O5 0.724114 0.977687 0.256510
O O6 0.000337 0.336214 0.079329
O O7 0.930460 0.983550 0.208480
O O8 0.923274 0.100101 0.921080
O O9 0.297549 0.406992 0.292036
O O10 0.228062 0.264462 0.071604
O O11 0.500000 0.500000 0.000000
O O12 0.426655 0.688751 0.931415
O O13 0.529993 0.994282 0.277644
O O14 0.500000 0.000000 0.000000
O O15 0.136375 0.414804 0.255133
O O16 0.003537 0.118466 0.594050
O O17 0.796572 0.277834 0.997361
#
# Coordination Sequence:
#
# PCOD8017850 Si02
#       8
#     2   2   2   2   2   2   2   2
#     4  11  24  39  71 103 134 180 233 286 353 401
#     4  10  22  39  67 101 132 181 226 287 344 405
#     4  12  28  44  67  98 141 186 222 286 347 410
#     4  12  25  47  68  96 143 184 235 284 343 413
#     4  12  23  43  68 102 136 180 236 287 338 413
#     4  11  21  40  66 104 132 171 232 300 340 392
#     4  11  24  43  69  98 141 184 230 282 352 415
#     4  11  22  42  70 100 139 177 235 291 343 409
#
# _framework density 22.561826
#
# number of rings (size 3 to 8) (size 9 to 14) (size 15 to 20)
#    0.000    0.750    3.750    4.125    3.500    2.000 
#    0.000    0.000    0.000    7.500    0.000    0.000 
#    0.000    0.000    0.000    0.000    0.000    0.000 
#
# Total GULP energy -198271.407678 kJ/mol
# GULP energy per Si atom -12391.962980 kJ/mol
# Density = 2.251047 g / cm^3
# Si number density = 22.561826 Si / 1000 Ang^3
#
#
#
# Elastic Constant Matrix: (Units=GPa)
#
#
# Indices 1 2 3 4 5 6 
#
# 1 104.2059 36.8829 24.4084 14.2875 -9.8029 -10.7448
# 2 36.8829 104.2982 46.9825 17.8147 -9.2582 -12.4473
# 3 24.4084 46.9825 137.9386 1.9246 -17.8722 -0.0760
# 4 14.2875 17.8147 1.9246 45.4525 -3.4198 -5.1967
# 5 -9.8029 -9.2582 -17.8722 -3.4198 32.9509 7.3537
# 6 -10.7448 -12.4473 -0.0760 -5.1967 7.3537 24.2298
#
#
#
# Elastic Compliance Matrix: (Units=1/GPa)
#
#
# Indices 1 2 3 4 5 6 
#
# 1 0.011508 -0.002890 -0.000851 -0.002031 0.001319 0.002780
# 2 -0.002890 0.013689 -0.004205 -0.003749 -0.000841 0.005189
# 3 -0.000851 -0.004205 0.009409 0.001454 0.004623 -0.003599
# 4 -0.002031 -0.003749 0.001454 0.024371 0.001205 0.002039
# 5 0.001319 -0.000841 0.004623 0.001205 0.035442 -0.010331
# 6 0.002780 0.005189 -0.003599 0.002039 -0.010331 0.048731
#
#
# Mechanical properties :
#
#
# Convention : Reuss Voigt Hill
#
# Bulk Modulus (GPa) = 53.43805 62.55447 57.99626
# Shear Modulus (GPa) = 30.25141 36.40456 33.32798
#
# Velocity S-wave (km/s) = 3.66570 4.02126 3.84759
# Velocity P-wave (km/s) = 6.45392 7.02472 6.74536
#
# Compressibility (1/GPa) = 0.01871326
#
# Stress axis : x y z
#
# Youngs Moduli (GPa) = 86.89621 73.05100 106.27952
#
# Poissons Ratio (x) = 0.21114 0.09046
# Poissons Ratio (y) = 0.25116 0.44690
# Poissons Ratio (z) = 0.07396 0.30718
#
# Static dielectric constant tensor:
#      x y z
#    x 4.373090 -0.088330 -0.323820 
#    y -0.088330 4.013330 0.112370 
#    z -0.323820 0.112370 4.139120 
# 
# 
# High freq. dielectric constant tensor:
#      x y z
#    x 1.888980 -0.003150 -0.016560 
#    y -0.003150 1.886150 0.019500 
#    z -0.016560 0.019500 1.893100 
# 
# From -- ./inp_files/298220.got.cif
#   From: 2010.06.25/outbox.cif.g09.slc.cpg/sg2_150_cif.got.tgz:298220.got - 2010.06.27 13:26:56.
