data_PCOD8017816
_publ_section_title
;
Structure prediction by ZEFSAII (Michael W. Deem and Ramdas Pophale) SiO2 
 PCOD8017816
Probable space group: P -1
;
_chemical_formula_sum "Si O2"
_cell_formula_units_Z 16
_cell_length_a 12.050581
_cell_length_b 8.439877
_cell_length_c 15.609998
_cell_angle_alpha 61.586164
_cell_angle_beta 43.644887
_cell_angle_gamma 41.446754
_cell_volume 717.563329
_symmetry_space_group_name_H-M "P -1"
_symmetry_group_IT_number 2
_symmetry_cell_setting 'triclinic'
loop_
_space_group_symop_operation_xyz
x,y,z
-x,-y,-z
loop_
_atom_site_type_symbol
_atom_site_label
_atom_site_fract_x
_atom_site_fract_y
_atom_site_fract_z
Si Si1 0.730026 0.112418 0.837363
Si Si2 0.564307 0.690203 0.347402
Si Si3 0.714736 0.546799 0.927121
Si Si4 0.511683 0.335044 0.412976
Si Si5 0.036374 0.139048 0.735448
Si Si6 0.101395 0.473041 0.540788
Si Si7 0.036779 0.398693 0.099374
Si Si8 0.293165 0.093484 0.264710
O O1 0.912739 0.131749 0.727753
O O2 0.807465 0.891584 0.912770
O O3 0.686677 0.072910 0.776587
O O4 0.509873 0.362506 0.934003
O O5 0.467286 0.577655 0.393044
O O6 0.502969 0.760230 0.463502
O O7 0.821208 0.503912 0.242843
O O8 0.460538 0.930327 0.289712
O O9 0.860343 0.277565 0.875051
O O10 0.849950 0.524259 0.935291
O O11 0.657670 0.743795 0.839108
O O12 0.337829 0.387634 0.428537
O O13 0.748809 0.133710 0.290303
O O14 0.116871 0.277699 0.634868
O O15 0.000000 0.500000 0.500000
O O16 0.949358 0.729384 0.608619
O O17 0.000000 0.500000 0.000000
#
# Coordination Sequence:
#
# PCOD8017816 Si02
#       8
#     2   2   2   2   2   2   2   2
#     4  11  21  40  64  94 124 168 218 261 314 371
#     4  11  22  39  67  97 125 163 216 265 311 371
#     4  10  22  40  63  92 130 166 210 266 318 377
#     4  11  24  41  63  93 130 167 209 263 318 379
#     4  11  23  41  63  89 130 168 207 265 321 377
#     4  11  25  42  62  93 127 169 207 258 325 381
#     4  11  21  40  67  95 125 166 216 261 318 379
#     4  10  22  39  66  92 123 166 215 259 311 381
#
# _framework density 22.297685000000001
#
# number of rings (size 3 to 8) (size 9 to 14) (size 15 to 20)
#    0.000    1.250    1.250    6.750    3.500    1.500 
#    0.000    0.625    0.000    0.000    0.000    0.000 
#    0.000    0.000    0.000    0.000    0.000    0.000 
#
# Total GULP energy -198423.836489 kJ/mol
# GULP energy per Si atom -12401.489781 kJ/mol
# Density = 2.224693 g / cm^3
# Si number density = 22.297685 Si / 1000 Ang^3
#
#
#
# Elastic Constant Matrix: (Units=GPa)
#
#
# Indices 1 2 3 4 5 6 
#
# 1 112.1649 28.5975 31.5742 11.9169 -16.5956 -15.5246
# 2 28.5975 60.8235 27.5327 17.3142 17.6023 -10.9113
# 3 31.5742 27.5327 90.0652 31.1194 -2.6210 -8.8715
# 4 11.9169 17.3142 31.1194 43.3696 -7.0373 6.9487
# 5 -16.5956 17.6023 -2.6210 -7.0373 37.9107 -1.1318
# 6 -15.5246 -10.9113 -8.8715 6.9487 -1.1318 32.5301
#
#
#
# Elastic Compliance Matrix: (Units=1/GPa)
#
#
# Indices 1 2 3 4 5 6 
#
# 1 0.013325 -0.008349 -0.002485 0.002669 0.010112 0.002663
# 2 -0.008349 0.033282 -0.001969 -0.014538 -0.021674 0.008993
# 3 -0.002485 -0.001969 0.017176 -0.011879 -0.001031 0.005340
# 4 0.002669 -0.014538 -0.011879 0.041410 0.014331 -0.015189
# 5 0.010112 -0.021674 -0.001031 0.014331 0.043329 -0.004279
# 6 0.002663 0.008993 0.005340 -0.015189 -0.004279 0.039580
#
#
# Mechanical properties :
#
#
# Convention : Reuss Voigt Hill
#
# Bulk Modulus (GPa) = 26.19309 48.71804 37.45557
# Shear Modulus (GPa) = 22.08153 34.45203 28.26678
#
# Velocity S-wave (km/s) = 3.15033 3.93503 3.56434
# Velocity P-wave (km/s) = 5.00052 6.52245 5.81152
#
# Compressibility (1/GPa) = 0.03817801
#
# Stress axis : x y z
#
# Youngs Moduli (GPa) = 75.04876 30.04632 58.21975
#
# Poissons Ratio (x) = 0.25085 0.14465
# Poissons Ratio (y) = 0.62656 0.11464
# Poissons Ratio (z) = 0.18646 0.05917
#
# Static dielectric constant tensor:
#      x y z
#    x 3.981430 0.023530 -0.019640 
#    y 0.023530 4.008560 0.308000 
#    z -0.019640 0.308000 4.074160 
# 
# 
# High freq. dielectric constant tensor:
#      x y z
#    x 1.882490 -0.001940 -0.007060 
#    y -0.001940 1.872070 0.022440 
#    z -0.007060 0.022440 1.871130 
# 
# From -- ./inp_files/190080.got.cif
#   From: 2010.06.25/outbox.cif.g09.slc.cpg/sg2_96_cif.got.tgz:190080.got - 2010.06.27 13:26:56.
