data_PCOD8017227
_publ_section_title
;
Structure prediction by ZEFSAII (Michael W. Deem and Ramdas Pophale) SiO2 
 PCOD8017227
Probable space group: P -1
;
_chemical_formula_sum "Si O2"
_cell_formula_units_Z 16
_cell_length_a 19.639254
_cell_length_b 9.048095
_cell_length_c 19.151358
_cell_angle_alpha 43.217587
_cell_angle_beta 158.139088
_cell_angle_gamma 125.523825
_cell_volume 804.823831
_symmetry_space_group_name_H-M "P -1"
_symmetry_group_IT_number 2
_symmetry_cell_setting 'triclinic'
loop_
_space_group_symop_operation_xyz
x,y,z
-x,-y,-z
loop_
_atom_site_type_symbol
_atom_site_label
_atom_site_fract_x
_atom_site_fract_y
_atom_site_fract_z
Si Si1 0.560687 0.556681 0.745369
Si Si2 0.359658 0.280049 0.988105
Si Si3 0.034977 0.735499 0.963157
Si Si4 0.815698 0.094921 0.088793
Si Si5 0.781817 0.279504 0.389374
Si Si6 0.392621 0.696599 0.385601
Si Si7 0.246821 0.217476 0.048211
Si Si8 0.177452 0.758151 0.400111
O O1 0.492722 0.648324 0.572188
O O2 0.369804 0.602189 0.595481
O O3 0.689918 0.282036 0.961435
O O4 0.702392 0.681103 0.866946
O O5 0.229636 0.499037 0.742875
O O6 0.303966 0.345621 0.993415
O O7 0.309057 0.059811 0.995610
O O8 0.590978 0.215318 0.217725
O O9 0.155558 0.775773 0.998026
O O10 0.167862 0.705005 0.169945
O O11 0.839459 0.969996 0.706647
O O12 0.000000 0.500000 0.000000
O O13 0.026787 0.941020 0.376240
O O14 0.806708 0.339908 0.472752
O O15 0.500000 0.500000 0.500000
O O16 0.386647 0.946587 0.268853
O O17 0.016136 0.257561 0.814705
#
# Coordination Sequence:
#
# PCOD8017227 Si02
#       8
#     2   2   2   2   2   2   2   2
#     4  12  25  39  63  91 135 168 207 258 327 371
#     4  11  20  42  75  93 122 166 217 262 319 378
#     4  10  22  38  63  92 126 165 219 260 302 376
#     4  11  23  42  62  98 127 167 211 262 310 384
#     4  10  22  40  74  98 116 166 221 262 313 383
#     4  11  22  40  60  90 122 170 216 252 310 376
#     4  11  23  40  62  93 130 166 209 263 319 373
#     4  10  23  41  61  95 129 165 211 263 316 375
#
# _framework density 19.880127999999999
#
# number of rings (size 3 to 8) (size 9 to 14) (size 15 to 20)
#    0.000    1.250    6.250    0.750    1.750    7.000 
#    0.000    1.250    0.000    0.000    0.000    0.000 
#    0.000    0.000    0.000    0.000    0.000    0.000 
#
# Total GULP energy -198363.891464 kJ/mol
# GULP energy per Si atom -12397.743216 kJ/mol
# Density = 1.983488 g / cm^3
# Si number density = 19.880128 Si / 1000 Ang^3
#
#
#
# Elastic Constant Matrix: (Units=GPa)
#
#
# Indices 1 2 3 4 5 6 
#
# 1 98.0223 61.1575 71.8295 -12.1203 -4.0032 -7.9891
# 2 61.1575 146.0833 66.2427 0.7977 -9.3165 -1.5335
# 3 71.8295 66.2427 144.3952 -7.8467 -0.2541 -13.6353
# 4 -12.1203 0.7977 -7.8467 29.0408 -8.1664 0.9297
# 5 -4.0032 -9.3165 -0.2541 -8.1664 43.9876 -1.2570
# 6 -7.9891 -1.5335 -13.6353 0.9297 -1.2570 28.9446
#
#
#
# Elastic Compliance Matrix: (Units=1/GPa)
#
#
# Indices 1 2 3 4 5 6 
#
# 1 0.019329 -0.004884 -0.006836 0.006864 0.002009 0.001723
# 2 -0.004884 0.010100 -0.002521 -0.002616 0.001141 -0.001867
# 3 -0.006836 -0.002521 0.011812 0.000019 -0.000984 0.003501
# 4 0.006864 -0.002616 0.000019 0.039435 0.007415 0.000820
# 5 0.002009 0.001141 -0.000984 0.007415 0.024557 0.000980
# 6 0.001723 -0.001867 0.003501 0.000820 0.000980 0.036591
#
#
# Mechanical properties :
#
#
# Convention : Reuss Voigt Hill
#
# Bulk Modulus (GPa) = 78.35993 87.44003 82.89998
# Shear Modulus (GPa) = 28.64371 33.01265 30.82818
#
# Velocity S-wave (km/s) = 3.79993 4.07945 3.94217
# Velocity P-wave (km/s) = 7.66514 8.14054 7.90641
#
# Compressibility (1/GPa) = 0.01276162
#
# Stress axis : x y z
#
# Youngs Moduli (GPa) = 51.73589 99.00529 84.65914
#
# Poissons Ratio (x) = 0.48351 0.57869
# Poissons Ratio (y) = 0.25266 0.21340
# Poissons Ratio (z) = 0.35364 0.24956
#
# Static dielectric constant tensor:
#      x y z
#    x 3.613600 -0.072000 -0.096870 
#    y -0.072000 3.674560 0.017230 
#    z -0.096870 0.017230 4.084320 
# 
# 
# High freq. dielectric constant tensor:
#      x y z
#    x 1.756420 -0.000570 -0.006800 
#    y -0.000570 1.772680 0.009520 
#    z -0.006800 0.009520 1.797190 
# 
# From -- ./inp_files/208525.got.cif
#   From: 2010.06.25/outbox.cif.g09.slc.cpg/sg2_105_cif.got.tgz:208525.got - 2010.06.27 13:26:56.
