data_PCOD8017161
_publ_section_title
;
Structure prediction by ZEFSAII (Michael W. Deem and Ramdas Pophale) SiO2 
 PCOD8017161
Probable space group: P -1
;
_chemical_formula_sum "Si O2"
_cell_formula_units_Z 16
_cell_length_a 28.197380
_cell_length_b 16.176178
_cell_length_c 8.916128
_cell_angle_alpha 53.177481
_cell_angle_beta 135.214967
_cell_angle_gamma 163.486697
_cell_volume 744.455015
_symmetry_space_group_name_H-M "P -1"
_symmetry_group_IT_number 2
_symmetry_cell_setting 'triclinic'
loop_
_space_group_symop_operation_xyz
x,y,z
-x,-y,-z
loop_
_atom_site_type_symbol
_atom_site_label
_atom_site_fract_x
_atom_site_fract_y
_atom_site_fract_z
Si Si1 0.306740 0.230560 0.743737
Si Si2 0.442717 0.233942 0.392062
Si Si3 0.871144 0.175419 0.451195
Si Si4 0.002743 0.123844 0.341765
Si Si5 0.622519 0.131848 0.853745
Si Si6 0.692066 0.105972 0.295387
Si Si7 0.902836 0.128020 0.876903
Si Si8 0.473692 0.817403 0.580739
O O1 0.373989 0.415042 0.571469
O O2 0.242474 0.032817 0.726798
O O3 0.101143 0.968472 0.652445
O O4 0.500000 0.500000 0.000000
O O5 0.471991 0.217664 0.317035
O O6 0.459884 0.172028 0.626765
O O7 0.221697 0.970500 0.191869
O O8 0.772375 0.139870 0.317042
O O9 0.825273 0.022319 0.645601
O O10 0.116334 0.555617 0.561628
O O11 0.239998 0.499784 0.455083
O O12 0.887388 0.992456 0.069685
O O13 0.000000 0.000000 0.500000
O O14 0.488775 0.041177 0.618440
O O15 0.611593 0.034856 0.798836
O O16 0.549051 0.977164 0.016597
O O17 0.864137 0.498817 0.014580
#
# Coordination Sequence:
#
# PCOD8017161 Si02
#       8
#     2   2   2   2   2   2   2   2
#     4  12  25  42  64  95 124 164 209 260 310 373
#     4  11  22  39  60  99 120 161 211 253 310 367
#     4   9  21  41  63  94 127 159 206 256 318 364
#     4  11  22  41  60  83 127 166 208 248 306 367
#     4   9  20  39  61  90 122 165 203 254 315 356
#     4   9  20  39  66  92 125 163 203 260 306 367
#     4   9  20  40  63  88 123 157 201 262 302 365
#     4  10  22  38  61  89 126 162 206 255 307 371
#
# _framework density 21.492232000000001
#
# number of rings (size 3 to 8) (size 9 to 14) (size 15 to 20)
#    0.000    2.000    2.500    0.750    1.750    6.000 
#    2.250    3.125    0.000    0.000    0.000    0.000 
#    0.000    0.000    0.000    0.000    0.000    0.000 
#
# Total GULP energy -198215.723200 kJ/mol
# GULP energy per Si atom -12388.482700 kJ/mol
# Density = 2.144331 g / cm^3
# Si number density = 21.492232 Si / 1000 Ang^3
#
#
#
# Elastic Constant Matrix: (Units=GPa)
#
#
# Indices 1 2 3 4 5 6 
#
# 1 95.0641 22.6603 20.0457 11.2254 -2.6034 -13.0792
# 2 22.6603 78.0505 39.9231 -30.7058 -13.6758 -8.3893
# 3 20.0457 39.9231 105.5070 -17.7746 -12.4438 -9.1657
# 4 11.2254 -30.7058 -17.7746 32.7084 -4.7986 -6.3170
# 5 -2.6034 -13.6758 -12.4438 -4.7986 22.4303 5.4902
# 6 -13.0792 -8.3893 -9.1657 -6.3170 5.4902 38.0556
#
#
#
# Elastic Compliance Matrix: (Units=1/GPa)
#
#
# Indices 1 2 3 4 5 6 
#
# 1 0.017411 -0.015635 -0.003273 -0.024611 -0.014534 -0.000239
# 2 -0.015635 0.047165 -0.000208 0.056672 0.036727 0.009082
# 3 -0.003273 -0.000208 0.012971 0.009634 0.008169 0.002374
# 4 -0.024611 0.056672 0.009634 0.108871 0.056343 0.016299
# 5 -0.014534 0.036727 0.008169 0.056343 0.081212 0.002705
# 6 -0.000239 0.009082 0.002374 0.016299 0.002705 0.031084
#
#
# Mechanical properties :
#
#
# Convention : Reuss Voigt Hill
#
# Bulk Modulus (GPa) = 25.43546 49.31998 37.37772
# Shear Modulus (GPa) = 14.28358 31.70504 22.99431
#
# Velocity S-wave (km/s) = 2.58077 3.84498 3.27446
# Velocity P-wave (km/s) = 4.55422 6.53525 5.63251
#
# Compressibility (1/GPa) = 0.03931519
#
# Stress axis : x y z
#
# Youngs Moduli (GPa) = 57.43346 21.20222 77.09284
#
# Poissons Ratio (x) = 0.33150 0.25232
# Poissons Ratio (y) = 0.89799 0.01603
# Poissons Ratio (z) = 0.18797 0.00441
#
# Static dielectric constant tensor:
#      x y z
#    x 3.772080 0.330730 -0.034470 
#    y 0.330730 4.567160 -0.575260 
#    z -0.034470 -0.575260 4.269040 
# 
# 
# High freq. dielectric constant tensor:
#      x y z
#    x 1.829950 0.007300 0.005730 
#    y 0.007300 1.841660 -0.027510 
#    z 0.005730 -0.027510 1.841480 
# 
# From -- ./inp_files/357409.got.cif
#   From: 2010.06.25/outbox.cif.g09.slc.cpg/sg2_179_cif.got.tgz:357409.got - 2010.06.27 13:26:56.
