data_PCOD8017651
_publ_section_title
;
Structure prediction by ZEFSAII (Michael W. Deem and Ramdas Pophale) SiO2 
 PCOD8017651
Probable space group: P -1
;
_chemical_formula_sum "Si O2"
_cell_formula_units_Z 16
_cell_length_a 14.971655
_cell_length_b 8.792050
_cell_length_c 18.108814
_cell_angle_alpha 37.687791
_cell_angle_beta 140.799948
_cell_angle_gamma 147.611074
_cell_volume 738.020552
_symmetry_space_group_name_H-M "P -1"
_symmetry_group_IT_number 2
_symmetry_cell_setting 'triclinic'
loop_
_space_group_symop_operation_xyz
x,y,z
-x,-y,-z
loop_
_atom_site_type_symbol
_atom_site_label
_atom_site_fract_x
_atom_site_fract_y
_atom_site_fract_z
Si Si1 0.114016 0.572687 0.674760
Si Si2 0.178997 0.246448 0.728174
Si Si3 0.960820 0.435830 0.096111
Si Si4 0.421586 0.314563 0.597279
Si Si5 0.492073 0.388243 0.956551
Si Si6 0.136566 0.343014 0.927614
Si Si7 0.705934 0.295268 0.867701
Si Si8 0.152871 0.311215 0.516860
O O1 0.093203 0.404050 0.648459
O O2 0.147144 0.401089 0.824600
O O3 0.921771 0.486956 0.602966
O O4 0.275598 0.943178 0.632803
O O5 0.376020 0.444760 0.809737
O O6 0.187252 0.256652 0.642138
O O7 0.074311 0.888734 0.822154
O O8 0.904573 0.437847 0.142885
O O9 0.173023 0.696970 0.123308
O O10 0.851946 0.509321 0.943345
O O11 0.500000 0.500000 0.500000
O O12 0.587071 0.395809 0.721847
O O13 0.330669 0.452967 0.528500
O O14 0.500000 0.500000 0.000000
O O15 0.676950 0.574091 0.961540
O O16 0.425287 0.036699 0.052118
O O17 0.000000 0.000000 0.000000
O O18 0.000000 0.000000 0.500000
#
# Coordination Sequence:
#
# PCOD8017651 Si02
#       8
#     2   2   2   2   2   2   2   2
#     4  11  24  46  66  97 134 181 228 276 334 398
#     4  11  23  42  74  94 137 181 225 282 338 399
#     4  10  24  38  66  98 132 177 219 277 336 408
#     4  11  24  43  71  94 131 179 224 282 336 398
#     4  11  21  41  66  99 135 171 216 276 344 401
#     4  12  25  41  69  99 138 177 222 277 343 403
#     4  10  22  39  63  94 136 167 226 268 342 397
#     4  10  24  44  67  95 128 178 232 274 330 397
#
# _framework density 21.679613
#
# number of rings (size 3 to 8) (size 9 to 14) (size 15 to 20)
#    0.000    1.250    2.500    2.625   10.500    1.000 
#    0.000    0.625    0.000    0.000    0.000    0.000 
#    0.000    0.000    0.000    0.000    0.000    0.000 
#
# Total GULP energy -198275.866790 kJ/mol
# GULP energy per Si atom -12392.241674 kJ/mol
# Density = 2.163027 g / cm^3
# Si number density = 21.679613 Si / 1000 Ang^3
#
#
#
# Elastic Constant Matrix: (Units=GPa)
#
#
# Indices 1 2 3 4 5 6 
#
# 1 170.4439 53.4021 51.7263 8.2976 9.0400 12.2185
# 2 53.4021 87.8038 38.0622 1.3122 5.8538 15.5670
# 3 51.7263 38.0622 119.6178 15.6352 3.3032 10.2812
# 4 8.2976 1.3122 15.6352 36.9681 4.6095 1.4743
# 5 9.0400 5.8538 3.3032 4.6095 45.6255 5.0754
# 6 12.2185 15.5670 10.2812 1.4743 5.0754 40.4298
#
#
#
# Elastic Compliance Matrix: (Units=1/GPa)
#
#
# Indices 1 2 3 4 5 6 
#
# 1 0.007742 -0.003714 -0.002038 -0.000632 -0.000817 -0.000266
# 2 -0.003714 0.015835 -0.003311 0.001935 -0.000795 -0.004103
# 3 -0.002038 -0.003311 0.010879 -0.004062 0.000540 -0.000795
# 4 -0.000632 0.001935 -0.004062 0.029194 -0.002752 -0.000240
# 5 -0.000817 -0.000795 0.000540 -0.002752 0.022680 -0.002331
# 6 -0.000266 -0.004103 -0.000795 -0.000240 -0.002331 0.026898
#
#
# Mechanical properties :
#
#
# Convention : Reuss Voigt Hill
#
# Bulk Modulus (GPa) = 61.23709 73.80518 67.52113
# Shear Modulus (GPa) = 36.55022 40.24966 38.39994
#
# Velocity S-wave (km/s) = 4.11046 4.31346 4.21318
# Velocity P-wave (km/s) = 7.12990 7.67629 7.40814
#
# Compressibility (1/GPa) = 0.01632997
#
# Stress axis : x y z
#
# Youngs Moduli (GPa) = 129.15779 63.15192 91.91881
#
# Poissons Ratio (x) = 0.23457 0.18735
# Poissons Ratio (y) = 0.47974 0.30431
# Poissons Ratio (z) = 0.26325 0.20907
#
# Static dielectric constant tensor:
#      x y z
#    x 4.516740 0.773790 0.406070 
#    y 0.773790 6.810890 1.058760 
#    z 0.406070 1.058760 4.199390 
# 
# 
# High freq. dielectric constant tensor:
#      x y z
#    x 1.867350 0.008360 0.004940 
#    y 0.008360 1.832990 0.016900 
#    z 0.004940 0.016900 1.851550 
# 
# From -- ./inp_files/515073.got.cif
#   From: 2010.06.25/outbox.cif.g09.slc.cpg/sg2_258_cif.got.tgz:515073.got - 2010.06.27 13:26:56.
