data_PCOD8017375
_publ_section_title
;
Structure prediction by ZEFSAII (Michael W. Deem and Ramdas Pophale) SiO2 
 PCOD8017375
Probable space group: P -1
;
_chemical_formula_sum "Si O2"
_cell_formula_units_Z 16
_cell_length_a 8.993390
_cell_length_b 15.826096
_cell_length_c 5.274385
_cell_angle_alpha 72.788635
_cell_angle_beta 99.989702
_cell_angle_gamma 99.355407
_cell_volume 701.262288
_symmetry_space_group_name_H-M "P -1"
_symmetry_group_IT_number 2
_symmetry_cell_setting 'triclinic'
loop_
_space_group_symop_operation_xyz
x,y,z
-x,-y,-z
loop_
_atom_site_type_symbol
_atom_site_label
_atom_site_fract_x
_atom_site_fract_y
_atom_site_fract_z
Si Si1 0.835363 0.868145 0.623002
Si Si2 0.753670 0.612430 0.472638
Si Si3 0.824866 0.967513 0.023078
Si Si4 0.355504 0.313453 0.146638
Si Si5 0.050052 0.703847 0.359176
Si Si6 0.122557 0.554074 0.169078
Si Si7 0.306216 0.708239 0.816197
Si Si8 0.850759 0.145788 0.080871
O O1 0.786256 0.896804 0.303176
O O2 0.771184 0.767586 0.757541
O O3 0.021564 0.880385 0.659629
O O4 0.764840 0.927369 0.770650
O O5 0.640704 0.619523 0.670927
O O6 0.800601 0.512532 0.564006
O O7 0.903961 0.683506 0.515636
O O8 0.678726 0.634839 0.165321
O O9 0.754684 0.058157 0.006983
O O10 0.000000 0.000000 0.000000
O O11 0.516854 0.276728 0.204143
O O12 0.027862 0.621502 0.230037
O O13 0.213664 0.707171 0.531051
O O14 0.042557 0.799381 0.145815
O O15 0.260696 0.612594 0.016157
O O16 0.000000 0.500000 0.000000
O O17 0.267161 0.791640 0.898455
#
# Coordination Sequence:
#
# PCOD8017375 Si02
#       8
#     2   2   2   2   2   2   2   2
#     4  11  22  42  67 100 136 172 225 278 339 398
#     4  12  25  45  72  95 135 183 229 276 338 402
#     4  10  22  38  69 105 130 167 227 290 325 391
#     4  12  28  45  66 100 143 185 221 273 347 410
#     4  11  23  42  72  98 132 175 231 280 335 402
#     4  11  24  44  71 103 131 172 237 291 331 390
#     4  11  27  43  67  99 140 179 225 280 338 409
#     4  10  22  40  69  99 129 176 227 280 333 394
#
# _framework density 22.815998
#
# number of rings (size 3 to 8) (size 9 to 14) (size 15 to 20)
#    0.000    1.000    2.500    4.125   12.250    1.000 
#    0.000    1.250    0.000    0.000    0.000    0.000 
#    0.000    0.000    0.000    0.000    0.000    0.000 
#
# Total GULP energy -198340.867172 kJ/mol
# GULP energy per Si atom -12396.304198 kJ/mol
# Density = 2.276407 g / cm^3
# Si number density = 22.815998 Si / 1000 Ang^3
#
#
#
# Elastic Constant Matrix: (Units=GPa)
#
#
# Indices 1 2 3 4 5 6 
#
# 1 70.6264 -2.7953 21.4721 2.2514 2.3107 -11.8912
# 2 -2.7953 56.5936 41.1552 -10.8873 -4.4525 -5.2227
# 3 21.4721 41.1552 129.3489 4.8861 -11.8261 -11.9678
# 4 2.2514 -10.8873 4.8861 32.8695 -1.1769 3.3998
# 5 2.3107 -4.4525 -11.8261 -1.1769 26.9670 0.3900
# 6 -11.8912 -5.2227 -11.9678 3.3998 0.3900 16.5149
#
#
#
# Elastic Compliance Matrix: (Units=1/GPa)
#
#
# Indices 1 2 3 4 5 6 
#
# 1 0.017367 0.003991 -0.003281 -0.000666 -0.002465 0.011584
# 2 0.003991 0.026739 -0.009258 0.009704 0.000398 0.002613
# 3 -0.003281 -0.009258 0.012171 -0.004976 0.003808 0.004464
# 4 -0.000666 0.009704 -0.004976 0.035324 0.001139 -0.008316
# 5 -0.002465 0.000398 0.003808 0.001139 0.039080 -0.000046
# 6 0.011584 0.002613 0.004464 -0.008316 -0.000046 0.074667
#
#
# Mechanical properties :
#
#
# Convention : Reuss Voigt Hill
#
# Bulk Modulus (GPa) = 25.52391 41.80366 33.66378
# Shear Modulus (GPa) = 21.23111 28.38607 24.80859
#
# Velocity S-wave (km/s) = 3.05378 3.53105 3.30105
# Velocity P-wave (km/s) = 4.86263 5.91492 5.41440
#
# Compressibility (1/GPa) = 0.03917895
#
# Stress axis : x y z
#
# Youngs Moduli (GPa) = 57.58120 37.39859 82.16519
#
# Poissons Ratio (x) = -0.14925 0.26958
# Poissons Ratio (y) = -0.22979 0.76072
# Poissons Ratio (z) = 0.18892 0.34625
#
# Static dielectric constant tensor:
#      x y z
#    x 3.755290 -0.187400 -0.231470 
#    y -0.187400 4.684000 -0.005360 
#    z -0.231470 -0.005360 4.227410 
# 
# 
# High freq. dielectric constant tensor:
#      x y z
#    x 1.860820 -0.012830 -0.019700 
#    y -0.012830 1.918120 -0.004430 
#    z -0.019700 -0.004430 1.907780 
# 
# From -- ./inp_files/37581.got.cif
#   From: 2010.06.25/outbox.cif.g09.slc.cpg/sg2_19_cif.got.tgz:37581.got - 2010.06.27 13:26:56.
