data_PCOD8017259
_publ_section_title
;
Structure prediction by ZEFSAII (Michael W. Deem and Ramdas Pophale) SiO2 
 PCOD8017259
Probable space group: P -1
;
_chemical_formula_sum "Si O2"
_cell_formula_units_Z 16
_cell_length_a 10.818092
_cell_length_b 15.654321
_cell_length_c 9.271814
_cell_angle_alpha 88.185821
_cell_angle_beta 116.642097
_cell_angle_gamma 139.557981
_cell_volume 769.728810
_symmetry_space_group_name_H-M "P -1"
_symmetry_group_IT_number 2
_symmetry_cell_setting 'triclinic'
loop_
_space_group_symop_operation_xyz
x,y,z
-x,-y,-z
loop_
_atom_site_type_symbol
_atom_site_label
_atom_site_fract_x
_atom_site_fract_y
_atom_site_fract_z
Si Si1 0.031215 0.104097 0.090986
Si Si2 0.664155 0.501185 0.055194
Si Si3 0.863381 0.162300 0.791585
Si Si4 0.379590 0.255059 0.685195
Si Si5 0.310508 0.906108 0.602143
Si Si6 0.156976 0.975033 0.690057
Si Si7 0.060790 0.430594 0.536219
Si Si8 0.457622 0.578167 0.515112
O O1 0.317933 0.274394 0.271740
O O2 0.857455 0.015354 0.147479
O O3 0.931426 0.115207 0.918179
O O4 0.000000 0.000000 0.000000
O O5 0.743834 0.491646 0.239987
O O6 0.912785 0.653154 0.084791
O O7 0.500000 0.500000 0.000000
O O8 0.489669 0.347855 0.884392
O O9 0.829529 0.122321 0.606542
O O10 0.606860 0.066824 0.725714
O O11 0.557421 0.370087 0.637435
O O12 0.112730 0.159960 0.519202
O O13 0.348725 0.138027 0.700485
O O14 0.252867 0.928786 0.715865
O O15 0.207479 0.756147 0.574326
O O16 0.191663 0.460719 0.458668
O O17 0.000000 0.500000 0.500000
O O18 0.500000 0.500000 0.500000
#
# Coordination Sequence:
#
# PCOD8017259 Si02
#       8
#     2   2   2   2   2   2   2   2
#     4  11  25  38  65  99 128 161 228 283 324 386
#     4  11  22  41  68  96 129 176 226 274 325 400
#     4  10  23  40  65  92 126 172 217 261 331 395
#     4  10  22  38  64  93 127 165 227 271 323 389
#     4  10  23  43  64  88 137 177 213 258 343 410
#     4  10  23  40  62  96 127 176 212 275 338 390
#     4  11  25  41  68 101 134 174 221 279 338 399
#     4  11  23  43  66  95 132 178 225 277 341 403
#
# _framework density 20.786541
#
# number of rings (size 3 to 8) (size 9 to 14) (size 15 to 20)
#    0.000    1.500    0.000    5.250   10.500    2.500 
#    0.000    3.750    0.000    0.000    0.000    0.000 
#    0.000    0.000    0.000    0.000    0.000    0.000 
#
# Total GULP energy -198365.595993 kJ/mol
# GULP energy per Si atom -12397.849750 kJ/mol
# Density = 2.073923 g / cm^3
# Si number density = 20.786541 Si / 1000 Ang^3
#
#
#
# Elastic Constant Matrix: (Units=GPa)
#
#
# Indices 1 2 3 4 5 6 
#
# 1 116.5580 43.7310 28.6390 -2.2601 -18.1918 -3.9096
# 2 43.7310 120.8483 24.7698 -8.7756 -8.8139 5.4087
# 3 28.6390 24.7698 57.2620 3.4881 -13.4899 -3.8731
# 4 -2.2601 -8.7756 3.4881 39.2075 -6.5584 0.7791
# 5 -18.1918 -8.8139 -13.4899 -6.5584 28.9110 -1.7990
# 6 -3.9096 5.4087 -3.8731 0.7791 -1.7990 34.1232
#
#
#
# Elastic Compliance Matrix: (Units=1/GPa)
#
#
# Indices 1 2 3 4 5 6 
#
# 1 0.011382 -0.003111 -0.003092 0.001057 0.005116 0.001692
# 2 -0.003111 0.010356 -0.003212 0.002492 0.000116 -0.002413
# 3 -0.003092 -0.003212 0.022448 -0.001726 0.007353 0.003130
# 4 0.001057 0.002492 -0.001726 0.027429 0.006795 -0.000738
# 5 0.005116 0.000116 0.007353 0.006795 0.043035 0.003516
# 6 0.001692 -0.002413 0.003130 -0.000738 0.003516 0.030439
#
#
# Mechanical properties :
#
#
# Convention : Reuss Voigt Hill
#
# Bulk Modulus (GPa) = 39.43479 54.32753 46.88116
# Shear Modulus (GPa) = 29.00732 33.61691 31.31211
#
# Velocity S-wave (km/s) = 3.73967 4.02586 3.88540
# Velocity P-wave (km/s) = 6.13672 6.91395 6.53690
#
# Compressibility (1/GPa) = 0.02535832
#
# Stress axis : x y z
#
# Youngs Moduli (GPa) = 87.85854 96.55984 44.54712
#
# Poissons Ratio (x) = 0.30039 0.13772
# Poissons Ratio (y) = 0.27332 0.14306
# Poissons Ratio (z) = 0.27162 0.31010
#
# Static dielectric constant tensor:
#      x y z
#    x 3.683390 0.286790 0.161060 
#    y 0.286790 4.488960 0.325120 
#    z 0.161060 0.325120 4.259310 
# 
# 
# High freq. dielectric constant tensor:
#      x y z
#    x 1.797080 0.005170 -0.007930 
#    y 0.005170 1.835810 -0.001110 
#    z -0.007930 -0.001110 1.815730 
# 
# From -- ./inp_files/207935.got.cif
#   From: 2010.06.25/outbox.cif.g09.slc.cpg/sg2_104_cif.got.tgz:207935.got - 2010.06.27 13:26:56.
