data_PCOD8017689
_publ_section_title
;
Structure prediction by ZEFSAII (Michael W. Deem and Ramdas Pophale) SiO2 
 PCOD8017689
Probable space group: P -1
;
_chemical_formula_sum "Si O2"
_cell_formula_units_Z 16
_cell_length_a 14.812942
_cell_length_b 14.991470
_cell_length_c 15.958143
_cell_angle_alpha 161.195916
_cell_angle_beta 38.319986
_cell_angle_gamma 139.407041
_cell_volume 705.807618
_symmetry_space_group_name_H-M "P -1"
_symmetry_group_IT_number 2
_symmetry_cell_setting 'triclinic'
loop_
_space_group_symop_operation_xyz
x,y,z
-x,-y,-z
loop_
_atom_site_type_symbol
_atom_site_label
_atom_site_fract_x
_atom_site_fract_y
_atom_site_fract_z
Si Si1 0.900708 0.742143 0.310230
Si Si2 0.532623 0.949245 0.302660
Si Si3 0.985613 0.807955 0.757982
Si Si4 0.767969 0.872610 0.833006
Si Si5 0.270331 0.016584 0.658112
Si Si6 0.500040 0.417247 0.154455
Si Si7 0.863868 0.503380 0.286982
Si Si8 0.808108 0.589037 0.072842
O O1 0.795131 0.633741 0.368674
O O2 0.820337 0.802626 0.334403
O O3 0.000000 0.000000 0.500000
O O4 0.000000 0.500000 0.000000
O O5 0.387899 0.850412 0.374490
O O6 0.673793 0.927569 0.238768
O O7 0.527873 0.255269 0.536726
O O8 0.551324 0.716216 0.014182
O O9 0.834667 0.842227 0.850280
O O10 0.000000 0.500000 0.500000
O O11 0.109875 0.865572 0.648161
O O12 0.000000 0.000000 0.000000
O O13 0.598693 0.747726 0.848932
O O14 0.846731 0.691340 0.547200
O O15 0.787914 0.194935 0.079614
O O16 0.252636 0.290486 0.860882
O O17 0.671740 0.367377 0.002117
O O18 0.038707 0.527615 0.164268
#
# Coordination Sequence:
#
# PCOD8017689 Si02
#       8
#     2   2   2   2   2   2   2   2
#     4  10  22  41  66  98 130 157 210 275 331 364
#     4  10  23  40  61  91 130 170 206 273 307 367
#     4  12  25  38  59  87 129 166 212 256 310 374
#     4  12  24  42  64  93 131 173 209 259 330 377
#     4  10  22  39  64  91 124 165 224 253 315 375
#     4  11  24  42  64  91 135 168 215 253 326 370
#     4  11  23  42  67  94 127 166 213 269 321 381
#     4  10  23  42  69  97 122 169 218 268 311 390
#
# _framework density 22.669066000000001
#
# number of rings (size 3 to 8) (size 9 to 14) (size 15 to 20)
#    0.000    1.250    1.250    4.500    1.750    8.500 
#    0.000    1.250    0.000    0.000    0.000    0.000 
#    0.000    0.000    0.000    0.000    0.000    0.000 
#
# Total GULP energy -198237.713103 kJ/mol
# GULP energy per Si atom -12389.857069 kJ/mol
# Density = 2.261747 g / cm^3
# Si number density = 22.669066 Si / 1000 Ang^3
#
#
#
# Elastic Constant Matrix: (Units=GPa)
#
#
# Indices 1 2 3 4 5 6 
#
# 1 43.9000 30.6911 21.3389 -5.1712 20.5170 -5.1236
# 2 30.6911 144.7250 32.2866 3.7324 9.7067 5.7247
# 3 21.3389 32.2866 102.7075 12.6177 30.7083 -7.7085
# 4 -5.1712 3.7324 12.6177 38.1860 -3.9234 -3.3296
# 5 20.5170 9.7067 30.7083 -3.9234 29.5932 -4.0381
# 6 -5.1236 5.7247 -7.7085 -3.3296 -4.0381 35.2954
#
#
#
# Elastic Compliance Matrix: (Units=1/GPa)
#
#
# Indices 1 2 3 4 5 6 
#
# 1 0.040372 -0.007467 0.001766 0.003329 -0.026282 0.004764
# 2 -0.007467 0.008920 -0.002753 -0.000729 0.004647 -0.002669
# 3 0.001766 -0.002753 0.016643 -0.006727 -0.018263 0.001614
# 4 0.003329 -0.000729 -0.006727 0.030156 0.009325 0.003044
# 5 -0.026282 0.004647 -0.018263 0.009325 0.070733 0.000415
# 6 0.004764 -0.002669 0.001614 0.003044 0.000415 0.030144
#
#
# Mechanical properties :
#
#
# Convention : Reuss Voigt Hill
#
# Bulk Modulus (GPa) = 20.39682 51.10731 35.75206
# Shear Modulus (GPa) = 21.71864 34.41598 28.06731
#
# Velocity S-wave (km/s) = 3.09863 3.90062 3.52253
# Velocity P-wave (km/s) = 4.67111 6.54831 5.68769
#
# Compressibility (1/GPa) = 0.04902725
#
# Stress axis : x y z
#
# Youngs Moduli (GPa) = 24.76954 112.10765 60.08643
#
# Poissons Ratio (x) = 0.83712 -0.10612
# Poissons Ratio (y) = 0.18496 0.16541
# Poissons Ratio (z) = -0.04375 0.30861
#
# Static dielectric constant tensor:
#      x y z
#    x 4.861530 -0.044760 0.156400 
#    y -0.044760 4.471230 -0.068840 
#    z 0.156400 -0.068840 3.863320 
# 
# 
# High freq. dielectric constant tensor:
#      x y z
#    x 1.887000 -0.006080 0.016030 
#    y -0.006080 1.909890 -0.005660 
#    z 0.016030 -0.005660 1.884680 
# 
# From -- ./inp_files/534672.got.cif
#   From: 2010.06.25/outbox.cif.g09.slc.cpg/sg2_268_cif.got.tgz:534672.got - 2010.06.27 13:26:56.
