data_PCOD8017421
_publ_section_title
;
Structure prediction by ZEFSAII (Michael W. Deem and Ramdas Pophale) SiO2 
 PCOD8017421
Probable space group: P -1
;
_chemical_formula_sum "Si O2"
_cell_formula_units_Z 16
_cell_length_a 8.373957
_cell_length_b 7.124929
_cell_length_c 19.254498
_cell_angle_alpha 52.460323
_cell_angle_beta 103.898590
_cell_angle_gamma 122.377152
_cell_volume 762.926414
_symmetry_space_group_name_H-M "P -1"
_symmetry_group_IT_number 2
_symmetry_cell_setting 'triclinic'
loop_
_space_group_symop_operation_xyz
x,y,z
-x,-y,-z
loop_
_atom_site_type_symbol
_atom_site_label
_atom_site_fract_x
_atom_site_fract_y
_atom_site_fract_z
Si Si1 0.784086 0.881067 0.468254
Si Si2 0.486544 0.726109 0.290977
Si Si3 0.627573 0.292513 0.561469
Si Si4 0.388482 0.061224 0.098689
Si Si5 0.247519 0.454379 0.029890
Si Si6 0.774058 0.901535 0.616368
Si Si7 0.949203 0.408969 0.904803
Si Si8 0.102734 0.887802 0.712425
O O1 0.785653 0.615029 0.496318
O O2 0.561147 0.773331 0.486423
O O3 0.883298 0.974692 0.534587
O O4 0.854951 0.120948 0.363757
O O5 0.416349 0.771749 0.347218
O O6 0.400867 0.409756 0.333103
O O7 0.416999 0.862771 0.196812
O O8 0.716540 0.870672 0.282657
O O9 0.704785 0.111189 0.577138
O O10 0.332654 0.253927 0.093248
O O11 0.219631 0.887542 0.066759
O O12 0.579385 0.238217 0.034071
O O13 0.132007 0.438542 0.090295
O O14 0.105341 0.363813 0.970077
O O15 0.923034 0.936529 0.684259
O O16 0.047388 0.596144 0.805236
#
# Coordination Sequence:
#
# PCOD8017421 Si02
#       8
#     2   2   2   2   2   2   2   2
#     4   9  20  39  59  87 121 157 196 249 292 342
#     4  10  22  39  58  88 125 156 196 249 290 345
#     4   9  20  38  62  86 119 158 203 243 289 349
#     4  11  21  41  65  87 118 160 198 236 303 355
#     4  10  24  40  66  89 118 154 198 247 295 355
#     4  11  21  39  64  85 117 165 201 238 296 348
#     4  11  22  42  61  91 123 152 195 247 296 352
#     4  11  22  38  60  88 125 155 194 248 294 345
#
# _framework density 20.971878
#
# number of rings (size 3 to 8) (size 9 to 14) (size 15 to 20)
#    0.000    1.750    2.500    2.250    1.750    0.500 
#    0.000    8.750    0.000    0.000    0.000    0.000 
#    0.000    0.000    0.000    0.000    0.000    0.000 
#
# Total GULP energy -198412.978000 kJ/mol
# GULP energy per Si atom -12400.811125 kJ/mol
# Density = 2.092415 g / cm^3
# Si number density = 20.971878 Si / 1000 Ang^3
#
#
#
# Elastic Constant Matrix: (Units=GPa)
#
#
# Indices 1 2 3 4 5 6 
#
# 1 68.2630 42.9333 19.1180 -6.2001 5.6899 5.9572
# 2 42.9333 95.3858 34.1342 -4.4185 2.1548 7.0747
# 3 19.1180 34.1342 95.4142 -1.9752 -0.5004 1.1146
# 4 -6.2001 -4.4185 -1.9752 16.6474 -0.4110 5.8722
# 5 5.6899 2.1548 -0.5004 -0.4110 22.8462 -5.3692
# 6 5.9572 7.0747 1.1146 5.8722 -5.3692 47.0581
#
#
#
# Elastic Compliance Matrix: (Units=1/GPa)
#
#
# Indices 1 2 3 4 5 6 
#
# 1 0.021731 -0.008771 -0.001076 0.006501 -0.005151 -0.002806
# 2 -0.008771 0.015966 -0.003918 0.000966 0.000309 -0.001283
# 3 -0.001076 -0.003918 0.012093 -0.000185 0.001035 0.000580
# 4 0.006501 0.000966 -0.000185 0.066014 -0.002763 -0.009517
# 5 -0.005151 0.000309 0.001035 -0.002763 0.046461 0.006227
# 6 -0.002806 -0.001283 0.000580 -0.009517 0.006227 0.023683
#
#
# Mechanical properties :
#
#
# Convention : Reuss Voigt Hill
#
# Bulk Modulus (GPa) = 44.92195 50.15933 47.54064
# Shear Modulus (GPa) = 22.63485 28.16885 25.40185
#
# Velocity S-wave (km/s) = 3.28883 3.66891 3.48405
# Velocity P-wave (km/s) = 5.99070 6.47435 6.23721
#
# Compressibility (1/GPa) = 0.02226083
#
# Stress axis : x y z
#
# Youngs Moduli (GPa) = 46.01621 62.63158 82.69413
#
# Poissons Ratio (x) = 0.54932 0.08901
# Poissons Ratio (y) = 0.40359 0.32399
# Poissons Ratio (z) = 0.04953 0.24539
#
# Static dielectric constant tensor:
#      x y z
#    x 3.879010 0.418000 0.028910 
#    y 0.418000 3.719690 0.028510 
#    z 0.028910 0.028510 3.828930 
# 
# 
# High freq. dielectric constant tensor:
#      x y z
#    x 1.828280 0.032250 0.007330 
#    y 0.032250 1.810490 -0.000190 
#    z 0.007330 -0.000190 1.829760 
# 
# From -- ./inp_files/299684.got.cif
#   From: 2010.06.25/outbox.cif.g09.slc.cpg/sg2_150_cif.got.tgz:299684.got - 2010.06.27 13:26:56.
