data_PCOD8017190
_publ_section_title
;
Structure prediction by ZEFSAII (Michael W. Deem and Ramdas Pophale) SiO2 
 PCOD8017190
Probable space group: P -1
;
_chemical_formula_sum "Si O2"
_cell_formula_units_Z 14
_cell_length_a 13.169889
_cell_length_b 6.246943
_cell_length_c 14.706005
_cell_angle_alpha 86.989753
_cell_angle_beta 47.998820
_cell_angle_gamma 57.793687
_cell_volume 665.862105
_symmetry_space_group_name_H-M "P -1"
_symmetry_group_IT_number 2
_symmetry_cell_setting 'triclinic'
loop_
_space_group_symop_operation_xyz
x,y,z
-x,-y,-z
loop_
_atom_site_type_symbol
_atom_site_label
_atom_site_fract_x
_atom_site_fract_y
_atom_site_fract_z
Si Si1 0.727982 0.378904 0.336683
Si Si2 0.243310 0.490084 0.366576
Si Si3 0.098657 0.294465 0.336680
Si Si4 0.703051 0.288441 0.845025
Si Si5 0.523540 0.243076 0.366572
Si Si6 0.996237 0.753770 0.253762
Si Si7 0.106905 0.401593 0.845023
O O1 0.609213 0.391404 0.327243
O O2 0.604422 0.660857 0.469861
O O3 0.884469 0.359854 0.196932
O O4 0.820314 0.097258 0.350752
O O5 0.236301 0.263088 0.327246
O O6 0.278539 0.637725 0.268967
O O7 0.407702 0.342313 0.342296
O O8 0.044140 0.721137 0.530144
O O9 0.978192 0.604245 0.350746
O O10 0.221675 0.034015 0.196925
O O11 0.818077 0.305961 0.847169
O O12 0.500000 0.500000 0.000000
O O13 0.683521 0.900219 0.268962
O O14 0.012400 0.611660 0.152836
O O15 0.000000 0.500000 0.000000
#
# Coordination Sequence:
#
# PCOD8017190 Si02
#       7
#     2   2   2   2   2   2   2
#     4  10  22  41  63  88 119 156 200 246 297 349
#     4  10  22  38  62  91 119 154 199 248 295 346
#     4  10  22  41  63  88 119 156 200 246 297 349
#     4  11  24  39  61  90 122 159 196 240 297 356
#     4  10  22  38  62  91 119 154 199 248 295 346
#     4  10  22  40  64  86 116 160 200 244 296 350
#     4  11  24  39  61  90 122 159 196 240 297 356
#
# _framework density 21.025372000000001
#
# number of rings (size 3 to 8) (size 9 to 14) (size 15 to 20)
#    0.000    1.714    0.000    3.429    0.000   14.857 
#    0.000    0.000    0.000    1.714    0.000    0.000 
#    0.000    0.000    0.000    0.000    0.000    0.000 
#
# Total GULP energy -173574.295277 kJ/mol
# GULP energy per Si atom -12398.163948 kJ/mol
# Density = 2.097752 g / cm^3
# Si number density = 21.025372 Si / 1000 Ang^3
#
#
#
# Elastic Constant Matrix: (Units=GPa)
#
#
# Indices 1 2 3 4 5 6 
#
# 1 184.5788 53.1495 47.7195 0.7008 -2.9542 -15.9565
# 2 53.1495 102.9579 65.9807 -0.1988 0.4450 1.6587
# 3 47.7195 65.9807 144.9823 -0.8312 1.3967 3.9456
# 4 0.7008 -0.1988 -0.8312 22.2981 0.6309 -0.1358
# 5 -2.9542 0.4450 1.3967 0.6309 29.8718 0.6063
# 6 -15.9565 1.6587 3.9456 -0.1358 0.6063 24.5568
#
#
#
# Elastic Compliance Matrix: (Units=1/GPa)
#
#
# Indices 1 2 3 4 5 6 
#
# 1 0.006998 -0.003004 -0.001078 -0.000277 0.000693 0.004904
# 2 -0.003004 0.015002 -0.005781 0.000006 -0.000209 -0.002031
# 3 -0.001078 -0.005781 0.009941 0.000354 -0.000454 -0.001894
# 4 -0.000277 0.000006 0.000354 0.044897 -0.000993 0.000036
# 5 0.000693 -0.000209 -0.000454 -0.000993 0.033596 -0.000297
# 6 0.004904 -0.002031 -0.001894 0.000036 -0.000297 0.044358
#
#
# Mechanical properties :
#
#
# Convention : Reuss Voigt Hill
#
# Bulk Modulus (GPa) = 81.87050 85.13537 83.50293
# Shear Modulus (GPa) = 27.99715 33.05663 30.52689
#
# Velocity S-wave (km/s) = 3.65305 3.96943 3.81452
# Velocity P-wave (km/s) = 7.53767 7.84781 7.69430
#
# Compressibility (1/GPa) = 0.01221441
#
# Stress axis : x y z
#
# Youngs Moduli (GPa) = 142.90746 66.65727 100.59266
#
# Poissons Ratio (x) = 0.20025 0.10841
# Poissons Ratio (y) = 0.42932 0.58155
# Poissons Ratio (z) = 0.15401 0.38536
#
# Static dielectric constant tensor:
#      x y z
#    x 4.148210 0.110570 -0.018850 
#    y 0.110570 3.771550 0.000760 
#    z -0.018850 0.000760 3.535820 
# 
# 
# High freq. dielectric constant tensor:
#      x y z
#    x 1.846860 0.007720 -0.001310 
#    y 0.007720 1.817170 -0.000020 
#    z -0.001310 -0.000020 1.804310 
# 
# From -- ./inp_files/27796.got.cif
#   From: 2010.06.25/outbox.cif.g09.slc.cpg/sg2_14_cif.got.tgz:27796.got - 2010.06.27 13:26:56.
