data_PCOD8017152
_publ_section_title
;
Structure prediction by ZEFSAII (Michael W. Deem and Ramdas Pophale) SiO2 
 PCOD8017152
Probable space group: P -1
;
_chemical_formula_sum "Si O2"
_cell_formula_units_Z 12
_cell_length_a 8.393425
_cell_length_b 10.480354
_cell_length_c 9.513108
_cell_angle_alpha 84.804249
_cell_angle_beta 73.292082
_cell_angle_gamma 42.345471
_cell_volume 530.162260
_symmetry_space_group_name_H-M "P -1"
_symmetry_group_IT_number 2
_symmetry_cell_setting 'triclinic'
loop_
_space_group_symop_operation_xyz
x,y,z
-x,-y,-z
loop_
_atom_site_type_symbol
_atom_site_label
_atom_site_fract_x
_atom_site_fract_y
_atom_site_fract_z
Si Si1 0.030559 0.117409 0.213101
Si Si2 0.146549 0.737461 0.461688
Si Si3 0.240478 0.973834 0.695645
Si Si4 0.989857 0.575034 0.848945
Si Si5 0.402011 0.350773 0.557921
Si Si6 0.445241 0.905814 0.936302
O O1 0.052274 0.109751 0.378981
O O2 0.806571 0.147456 0.233192
O O3 0.967562 0.296142 0.155080
O O4 0.276610 0.921036 0.088328
O O5 0.246322 0.536858 0.479027
O O6 0.380597 0.699830 0.407270
O O7 0.002860 0.828802 0.340638
O O8 0.482443 0.830999 0.546163
O O9 0.295859 0.021297 0.818236
O O10 0.208395 0.396070 0.710543
O O11 0.715673 0.693368 0.845705
O O12 0.000000 0.500000 0.000000
O O13 0.500000 0.000000 0.000000
#
# Coordination Sequence:
#
# PCOD8017152 Si02
#       6
#     2   2   2   2   2   2
#     4   9  19  40  62  91 120 159 210 248 301 380
#     4   9  19  36  68  93 123 157 200 269 310 348
#     4  11  21  38  69  94 117 165 208 265 303 352
#     4  10  22  38  61  85 130 175 187 251 321 362
#     4   9  19  38  60  97 125 153 215 249 302 384
#     4  10  23  42  58  87 130 164 205 251 314 378
#
# _framework density 22.63458
#
# number of rings (size 3 to 8) (size 9 to 14) (size 15 to 20)
#    0.000    2.333    0.000    3.500    4.667    0.667 
#    6.000    8.333    0.000    0.000    0.000    0.000 
#    0.000    0.000    0.000    0.000    0.000    0.000 
#
# Total GULP energy -148683.447716 kJ/mol
# GULP energy per Si atom -12390.287310 kJ/mol
# Density = 2.258306 g / cm^3
# Si number density = 22.634580 Si / 1000 Ang^3
#
#
#
# Elastic Constant Matrix: (Units=GPa)
#
#
# Indices 1 2 3 4 5 6 
#
# 1 63.9071 35.3966 62.2691 -9.6325 15.4577 -19.8303
# 2 35.3966 88.0583 56.3153 -4.2573 1.9120 -32.9279
# 3 62.2691 56.3153 152.4284 6.1921 -9.0483 -35.5614
# 4 -9.6325 -4.2573 6.1921 48.0988 -13.2515 -3.6916
# 5 15.4577 1.9120 -9.0483 -13.2515 47.0670 -3.8520
# 6 -19.8303 -32.9279 -35.5614 -3.6916 -3.8520 35.8255
#
#
#
# Elastic Compliance Matrix: (Units=1/GPa)
#
#
# Indices 1 2 3 4 5 6 
#
# 1 0.035520 -0.004739 -0.013445 0.005056 -0.012542 0.001131
# 2 -0.004739 0.020017 -0.002124 0.002817 0.002291 0.014203
# 3 -0.013445 -0.002124 0.014689 -0.002370 0.007126 0.005708
# 4 0.005056 0.002817 -0.002370 0.024226 0.005087 0.006079
# 5 -0.012542 0.002291 0.007126 0.005087 0.028551 0.005830
# 6 0.001131 0.014203 0.005708 0.006079 0.005830 0.048512
#
#
# Mechanical properties :
#
#
# Convention : Reuss Voigt Hill
#
# Bulk Modulus (GPa) = 33.77490 68.03951 50.90720
# Shear Modulus (GPa) = 22.52222 36.22580 29.37401
#
# Velocity S-wave (km/s) = 3.15784 4.00492 3.60634
# Velocity P-wave (km/s) = 5.31509 7.17712 6.31511
#
# Compressibility (1/GPa) = 0.02960779
#
# Stress axis : x y z
#
# Youngs Moduli (GPa) = 28.15283 49.95752 68.07928
#
# Poissons Ratio (x) = 0.23677 0.91536
# Poissons Ratio (y) = 0.13343 0.14462
# Poissons Ratio (z) = 0.37853 0.10612
#
# Static dielectric constant tensor:
#      x y z
#    x 4.168860 -0.513330 -0.625520 
#    y -0.513330 4.376530 0.634600 
#    z -0.625520 0.634600 4.712350 
# 
# 
# High freq. dielectric constant tensor:
#      x y z
#    x 1.865560 -0.017330 -0.020510 
#    y -0.017330 1.876750 0.012950 
#    z -0.020510 0.012950 1.902910 
# 
# From -- ./inp_files/175959.got.cif
#   From: 2010.06.25/outbox.cif.g09.slc.cpg/sg2_88_cif.got.tgz:175959.got - 2010.06.27 13:26:56.
