data_PCOD8017634
_publ_section_title
;
Structure prediction by ZEFSAII (Michael W. Deem and Ramdas Pophale) SiO2 
 PCOD8017634
Probable space group: P -1
;
_chemical_formula_sum "Si O2"
_cell_formula_units_Z 16
_cell_length_a 12.609708
_cell_length_b 14.713381
_cell_length_c 6.511159
_cell_angle_alpha 89.999276
_cell_angle_beta 71.062805
_cell_angle_gamma 44.167288
_cell_volume 744.826973
_symmetry_space_group_name_H-M "P -1"
_symmetry_group_IT_number 2
_symmetry_cell_setting 'triclinic'
loop_
_space_group_symop_operation_xyz
x,y,z
-x,-y,-z
loop_
_atom_site_type_symbol
_atom_site_label
_atom_site_fract_x
_atom_site_fract_y
_atom_site_fract_z
Si Si1 0.019047 0.275606 0.612844
Si Si2 0.619728 0.925031 0.122261
Si Si3 0.363583 0.973935 0.523101
Si Si4 0.424415 0.738281 0.390043
Si Si5 0.735254 0.321404 0.774436
Si Si6 0.807207 0.528398 0.016339
Si Si7 0.059258 0.372901 0.211871
Si Si8 0.535904 0.411698 0.286179
O O1 0.004413 0.369487 0.467297
O O2 0.929427 0.234970 0.604072
O O3 0.909382 0.376669 0.876740
O O4 0.216767 0.132283 0.532836
O O5 0.547052 0.891635 0.317619
O O6 0.621744 0.021567 0.238803
O O7 0.817446 0.781228 0.955121
O O8 0.500000 0.000000 0.000000
O O9 0.327810 0.893788 0.471669
O O10 0.303602 0.744629 0.335706
O O11 0.451253 0.693520 0.612347
O O12 0.605356 0.632268 0.158916
O O13 0.620231 0.479148 0.775214
O O14 0.706179 0.323158 0.038317
O O15 0.834479 0.597975 0.848153
O O16 0.885966 0.498751 0.192197
O O17 0.500000 0.500000 0.500000
#
# Coordination Sequence:
#
# PCOD8017634 Si02
#       8
#     2   2   2   2   2   2   2   2
#     4  12  23  41  64  95 132 171 210 262 322 374
#     4  11  22  45  65  90 129 171 212 253 326 396
#     4  11  25  41  66  92 129 170 210 264 320 387
#     4  11  23  42  65  95 127 172 215 262 313 379
#     4  10  22  39  63  93 128 169 217 262 311 375
#     4  11  23  40  64  97 134 157 218 270 314 377
#     4  11  23  40  65  98 125 170 209 269 323 377
#     4   9  18  38  61  88 122 167 211 259 312 362
#
# _framework density 21.4815
#
# number of rings (size 3 to 8) (size 9 to 14) (size 15 to 20)
#    0.000    1.250    3.750    3.375    0.000    2.500 
#    4.500    0.625    0.000    0.000    0.000    0.000 
#    0.000    0.000    0.000    0.000    0.000    0.000 
#
# Total GULP energy -198287.676302 kJ/mol
# GULP energy per Si atom -12392.979769 kJ/mol
# Density = 2.143261 g / cm^3
# Si number density = 21.481500 Si / 1000 Ang^3
#
#
#
# Elastic Constant Matrix: (Units=GPa)
#
#
# Indices 1 2 3 4 5 6 
#
# 1 94.3993 22.9236 34.9613 -12.2785 -1.5639 2.6459
# 2 22.9236 74.1208 30.1566 -1.7799 5.5566 12.3238
# 3 34.9613 30.1566 98.1574 -12.3009 1.3252 6.2346
# 4 -12.2785 -1.7799 -12.3009 26.1822 3.6209 -3.0447
# 5 -1.5639 5.5566 1.3252 3.6209 32.7638 3.8689
# 6 2.6459 12.3238 6.2346 -3.0447 3.8689 30.0758
#
#
#
# Elastic Compliance Matrix: (Units=1/GPa)
#
#
# Indices 1 2 3 4 5 6 
#
# 1 0.013056 -0.002807 -0.003310 0.004413 0.000621 0.001055
# 2 -0.002807 0.017124 -0.004178 -0.002542 -0.001889 -0.005918
# 3 -0.003310 -0.004178 0.013224 0.004411 -0.000444 -0.000234
# 4 0.004413 -0.002542 0.004411 0.043394 -0.004895 0.004762
# 5 0.000621 -0.001889 -0.000444 -0.004895 0.031877 -0.003785
# 6 0.001055 -0.005918 -0.000234 0.004762 -0.003785 0.036599
#
#
# Mechanical properties :
#
#
# Convention : Reuss Voigt Hill
#
# Bulk Modulus (GPa) = 43.83469 49.19562 46.51515
# Shear Modulus (GPa) = 27.25259 29.71344 28.48302
#
# Velocity S-wave (km/s) = 3.56568 3.72319 3.64529
# Velocity P-wave (km/s) = 6.11573 6.43692 6.27838
#
# Compressibility (1/GPa) = 0.02281298
#
# Stress axis : x y z
#
# Youngs Moduli (GPa) = 76.59546 58.39693 75.62009
#
# Poissons Ratio (x) = 0.16392 0.25030
# Poissons Ratio (y) = 0.21500 0.31597
# Poissons Ratio (z) = 0.25353 0.24401
#
# Static dielectric constant tensor:
#      x y z
#    x 3.783950 0.079320 -0.046400 
#    y 0.079320 3.803110 -0.184250 
#    z -0.046400 -0.184250 4.124400 
# 
# 
# High freq. dielectric constant tensor:
#      x y z
#    x 1.837250 0.002560 0.000450 
#    y 0.002560 1.824030 -0.001310 
#    z 0.000450 -0.001310 1.850160 
# 
# From -- ./inp_files/77823.got.cif
#   From: 2010.06.25/outbox.cif.g09.slc.cpg/sg2_39_cif.got.tgz:77823.got - 2010.06.27 13:26:56.
