data_PCOD8017386
_publ_section_title
;
Structure prediction by ZEFSAII (Michael W. Deem and Ramdas Pophale) SiO2 
 PCOD8017386
Probable space group: P -1
;
_chemical_formula_sum "Si O2"
_cell_formula_units_Z 16
_cell_length_a 9.219407
_cell_length_b 13.688311
_cell_length_c 8.938672
_cell_angle_alpha 119.107090
_cell_angle_beta 84.424036
_cell_angle_gamma 56.984643
_cell_volume 718.368503
_symmetry_space_group_name_H-M "P -1"
_symmetry_group_IT_number 2
_symmetry_cell_setting 'triclinic'
loop_
_space_group_symop_operation_xyz
x,y,z
-x,-y,-z
loop_
_atom_site_type_symbol
_atom_site_label
_atom_site_fract_x
_atom_site_fract_y
_atom_site_fract_z
Si Si1 0.916311 0.296282 0.967021
Si Si2 0.886054 0.652138 0.215949
Si Si3 0.202053 0.865626 0.290580
Si Si4 0.426752 0.415037 0.413702
Si Si5 0.427966 0.858741 0.002312
Si Si6 0.765372 0.851475 0.930234
Si Si7 0.429811 0.345204 0.690828
Si Si8 0.005294 0.613871 0.504669
O O1 0.843272 0.211874 0.873639
O O2 0.087371 0.243377 0.791504
O O3 0.724556 0.476495 0.117684
O O4 0.026674 0.242422 0.074516
O O5 0.657851 0.731662 0.315446
O O6 0.000519 0.601927 0.321366
O O7 0.000000 0.500000 0.000000
O O8 0.364572 0.745580 0.309241
O O9 0.288940 0.916794 0.208292
O O10 0.000000 0.000000 0.500000
O O11 0.500000 0.500000 0.500000
O O12 0.521577 0.291835 0.177645
O O13 0.456574 0.328531 0.497441
O O14 0.208112 0.564205 0.496874
O O15 0.621942 0.833029 0.009261
O O16 0.329884 0.977269 0.961238
O O17 0.816891 0.782873 0.706512
O O18 0.000000 0.500000 0.500000
#
# Coordination Sequence:
#
# PCOD8017386 Si02
#       8
#     2   2   2   2   2   2   2   2
#     4  11  24  45  71 105 137 185 234 294 357 420
#     4  10  22  38  71 104 136 178 230 297 341 413
#     4  12  30  48  65  98 148 193 235 285 362 436
#     4  12  26  42  73 109 142 188 235 297 356 426
#     4  11  27  47  73 103 147 190 232 295 360 431
#     4  11  24  47  75 108 141 185 241 297 356 419
#     4  11  23  46  69 103 134 179 239 292 356 413
#     4  12  21  43  72 107 144 179 249 292 347 422
#
# _framework density 22.272690999999998
#
# number of rings (size 3 to 8) (size 9 to 14) (size 15 to 20)
#    0.000    0.750    3.750    2.625    8.750    0.500 
#    0.000    1.250    0.000    0.000    0.000    0.000 
#    0.000    0.000    0.000    0.000    0.000    0.000 
#
# Total GULP energy -198273.855056 kJ/mol
# GULP energy per Si atom -12392.115941 kJ/mol
# Density = 2.222200 g / cm^3
# Si number density = 22.272691 Si / 1000 Ang^3
#
#
#
# Elastic Constant Matrix: (Units=GPa)
#
#
# Indices 1 2 3 4 5 6 
#
# 1 138.4898 42.1104 51.3798 3.6073 -2.3774 -16.2526
# 2 42.1104 81.0369 39.5315 0.9340 -1.0853 -16.1159
# 3 51.3798 39.5315 107.3257 -13.5270 -15.9244 -4.3091
# 4 3.6073 0.9340 -13.5270 38.6269 -2.2930 -0.8872
# 5 -2.3774 -1.0853 -15.9244 -2.2930 33.4408 -4.4107
# 6 -16.2526 -16.1159 -4.3091 -0.8872 -4.4107 43.3040
#
#
#
# Elastic Compliance Matrix: (Units=1/GPa)
#
#
# Indices 1 2 3 4 5 6 
#
# 1 0.009851 -0.002678 -0.004120 -0.002322 -0.001228 0.002118
# 2 -0.002678 0.017308 -0.005423 -0.002063 -0.001735 0.004677
# 3 -0.004120 -0.005423 0.015047 0.006170 0.006957 -0.001232
# 4 -0.002322 -0.002063 0.006170 0.028594 0.004672 0.000036
# 5 -0.001228 -0.001735 0.006957 0.004672 0.033805 0.003124
# 6 0.002118 0.004677 -0.001232 0.000036 0.003124 0.025825
#
#
# Mechanical properties :
#
#
# Convention : Reuss Voigt Hill
#
# Bulk Modulus (GPa) = 56.28742 65.87731 61.08237
# Shear Modulus (GPa) = 31.09578 35.99638 33.54608
#
# Velocity S-wave (km/s) = 3.74055 4.02452 3.88513
# Velocity P-wave (km/s) = 6.63192 7.15804 6.90000
#
# Compressibility (1/GPa) = 0.01776596
#
# Stress axis : x y z
#
# Youngs Moduli (GPa) = 101.50828 57.77769 66.45665
#
# Poissons Ratio (x) = 0.15473 0.27377
# Poissons Ratio (y) = 0.27185 0.36037
# Poissons Ratio (z) = 0.41817 0.31331
#
# Static dielectric constant tensor:
#      x y z
#    x 4.692640 0.369200 -0.709630 
#    y 0.369200 4.188850 -0.564210 
#    z -0.709630 -0.564210 4.733450 
# 
# 
# High freq. dielectric constant tensor:
#      x y z
#    x 1.894050 -0.002850 -0.003360 
#    y -0.002850 1.865820 -0.012910 
#    z -0.003360 -0.012910 1.879390 
# 
# From -- ./inp_files/208666.got.cif
#   From: 2010.06.25/outbox.cif.g09.slc.cpg/sg2_105_cif.got.tgz:208666.got - 2010.06.27 13:26:56.
