data_PCOD8017791
_publ_section_title
;
Structure prediction by ZEFSAII (Michael W. Deem and Ramdas Pophale) SiO2 
 PCOD8017791
Probable space group: P -1
;
_chemical_formula_sum "Si O2"
_cell_formula_units_Z 14
_cell_length_a 15.237215
_cell_length_b 8.293673
_cell_length_c 6.491901
_cell_angle_alpha 53.470080
_cell_angle_beta 88.098475
_cell_angle_gamma 91.211409
_cell_volume 658.009655
_symmetry_space_group_name_H-M "P -1"
_symmetry_group_IT_number 2
_symmetry_cell_setting 'triclinic'
loop_
_space_group_symop_operation_xyz
x,y,z
-x,-y,-z
loop_
_atom_site_type_symbol
_atom_site_label
_atom_site_fract_x
_atom_site_fract_y
_atom_site_fract_z
Si Si1 0.999366 0.484166 0.273265
Si Si2 0.892792 0.238602 0.184215
Si Si3 0.282193 0.135723 0.063418
Si Si4 0.153474 0.207396 0.369497
Si Si5 0.315510 0.365915 0.498472
Si Si6 0.599299 0.949923 0.500195
Si Si7 0.283591 0.786063 0.012148
O O1 0.080431 0.367493 0.262240
O O2 0.000000 0.500000 0.500000
O O3 0.907866 0.374506 0.287974
O O4 0.021609 0.707000 0.009520
O O5 0.893693 0.006320 0.411987
O O6 0.802550 0.298305 0.038779
O O7 0.196362 0.199572 0.144997
O O8 0.357043 0.070238 0.263992
O O9 0.257363 0.948782 0.058362
O O10 0.316388 0.325674 0.775427
O O11 0.227412 0.254398 0.499328
O O12 0.324270 0.601420 0.270263
O O13 0.397049 0.260249 0.464411
O O14 0.500000 0.000000 0.500000
O O15 0.647513 0.126331 0.227842
#
# Coordination Sequence:
#
# PCOD8017791 Si02
#       7
#     2   2   2   2   2   2   2
#     4  11  27  41  61  93 130 167 215 274 315 371
#     4  11  23  43  60  94 125 168 219 262 316 374
#     4  10  22  40  68  94 124 174 207 265 319 383
#     4  11  22  42  64  91 128 166 219 265 317 377
#     4  10  22  39  65  98 127 169 216 258 320 380
#     4  10  23  44  66  97 133 165 211 265 316 382
#     4  11  22  42  66  96 130 169 219 258 318 386
#
# _framework density 21.276282999999999
#
# number of rings (size 3 to 8) (size 9 to 14) (size 15 to 20)
#    0.000    1.429    5.714    0.429    2.000    9.143 
#    0.000    1.429    0.000    0.000    0.000    0.000 
#    0.000    0.000    0.000    0.000    0.000    0.000 
#
# Total GULP energy -173554.038699 kJ/mol
# GULP energy per Si atom -12396.717050 kJ/mol
# Density = 2.122786 g / cm^3
# Si number density = 21.276283 Si / 1000 Ang^3
#
#
#
# Elastic Constant Matrix: (Units=GPa)
#
#
# Indices 1 2 3 4 5 6 
#
# 1 96.4645 38.4417 29.0371 15.9909 0.1679 -13.4692
# 2 38.4417 80.5386 63.6649 15.7375 -2.2005 -9.3084
# 3 29.0371 63.6649 161.3641 17.9592 -2.3976 -0.1079
# 4 15.9909 15.7375 17.9592 42.1778 2.2383 0.7587
# 5 0.1679 -2.2005 -2.3976 2.2383 21.5200 -2.5054
# 6 -13.4692 -9.3084 -0.1079 0.7587 -2.5054 29.1543
#
#
#
# Elastic Compliance Matrix: (Units=1/GPa)
#
#
# Indices 1 2 3 4 5 6 
#
# 1 0.013703 -0.005361 0.000024 -0.003303 0.000241 0.004726
# 2 -0.005361 0.022026 -0.007322 -0.003281 0.002381 0.004819
# 3 0.000024 -0.007322 0.009212 -0.001166 0.000137 -0.002251
# 4 -0.003303 -0.003281 -0.001166 0.026941 -0.003660 -0.003593
# 5 0.000241 0.002381 0.000137 -0.003660 0.047696 0.005066
# 6 0.004726 0.004819 -0.002251 -0.003593 0.005066 0.038543
#
#
# Mechanical properties :
#
#
# Convention : Reuss Voigt Hill
#
# Bulk Modulus (GPa) = 50.96133 66.73940 58.85037
# Shear Modulus (GPa) = 26.31866 32.38531 29.35199
#
# Velocity S-wave (km/s) = 3.52091 3.90568 3.71828
# Velocity P-wave (km/s) = 6.36657 7.19550 6.79369
#
# Compressibility (1/GPa) = 0.01962272
#
# Stress axis : x y z
#
# Youngs Moduli (GPa) = 72.97843 45.40056 108.55443
#
# Poissons Ratio (x) = 0.24339 -0.00257
# Poissons Ratio (y) = 0.39124 0.79481
# Poissons Ratio (z) = -0.00173 0.33241
#
# Static dielectric constant tensor:
#      x y z
#    x 3.692610 -0.004600 0.054220 
#    y -0.004600 3.888000 -0.020290 
#    z 0.054220 -0.020290 4.245010 
# 
# 
# High freq. dielectric constant tensor:
#      x y z
#    x 1.812600 0.002010 0.005650 
#    y 0.002010 1.830950 -0.002810 
#    z 0.005650 -0.002810 1.861280 
# 
# From -- ./inp_files/43196.got.cif
#   From: 2010.06.25/outbox.cif.g09.slc.cpg/sg2_22_cif.got.tgz:43196.got - 2010.06.27 13:26:56.
