data_PCOD8017391
_publ_section_title
;
Structure prediction by ZEFSAII (Michael W. Deem and Ramdas Pophale) SiO2 
 PCOD8017391
Probable space group: P -1
;
_chemical_formula_sum "Si O2"
_cell_formula_units_Z 16
_cell_length_a 10.575032
_cell_length_b 28.598083
_cell_length_c 8.327744
_cell_angle_alpha 42.860310
_cell_angle_beta 113.779083
_cell_angle_gamma 147.297882
_cell_volume 753.141037
_symmetry_space_group_name_H-M "P -1"
_symmetry_group_IT_number 2
_symmetry_cell_setting 'triclinic'
loop_
_space_group_symop_operation_xyz
x,y,z
-x,-y,-z
loop_
_atom_site_type_symbol
_atom_site_label
_atom_site_fract_x
_atom_site_fract_y
_atom_site_fract_z
Si Si1 0.388188 0.520372 0.312355
Si Si2 0.660056 0.874722 0.607345
Si Si3 0.878199 0.827331 0.893189
Si Si4 0.250009 0.069462 0.855726
Si Si5 0.810084 0.107318 0.825774
Si Si6 0.788203 0.601560 0.816689
Si Si7 0.926980 0.392567 0.906844
Si Si8 0.860333 0.369641 0.563121
O O1 0.500000 0.500000 0.500000
O O2 0.259431 0.453488 0.240652
O O3 0.126611 0.435330 0.498752
O O4 0.662040 0.691721 0.007989
O O5 0.714502 0.827837 0.853743
O O6 0.772622 0.917704 0.373601
O O7 0.325605 0.743675 0.762062
O O8 0.822956 0.011053 0.433930
O O9 0.964199 0.813896 0.115665
O O10 0.565819 0.222446 0.697931
O O11 0.223053 0.974902 0.093891
O O12 0.000000 0.000000 0.000000
O O13 0.963667 0.232506 0.482746
O O14 0.500000 0.000000 0.000000
O O15 0.500000 0.500000 0.000000
O O16 0.850379 0.571467 0.058048
O O17 0.805476 0.348120 0.778716
O O18 0.056419 0.517895 0.733652
#
# Coordination Sequence:
#
# PCOD8017391 Si02
#       8
#     2   2   2   2   2   2   2   2
#     4  12  23  43  71  97 136 180 226 275 346 417
#     4  10  22  42  68 100 133 177 221 284 344 403
#     4  10  22  38  72  96 130 172 230 271 344 401
#     4  11  27  43  71 101 138 178 234 284 344 413
#     4  11  24  48  68  95 143 188 224 284 359 413
#     4  12  27  43  68 100 137 179 232 284 349 408
#     4  11  25  44  69  97 142 172 227 283 345 407
#     4  11  26  44  69 101 135 180 226 284 346 409
#
# _framework density 21.244361000000001
#
# number of rings (size 3 to 8) (size 9 to 14) (size 15 to 20)
#    0.000    1.000    2.500    3.750    8.750    1.000 
#    0.000    0.625    0.000    0.000    0.000    0.000 
#    0.000    0.000    0.000    0.000    0.000    0.000 
#
# Total GULP energy -198234.973792 kJ/mol
# GULP energy per Si atom -12389.685862 kJ/mol
# Density = 2.119601 g / cm^3
# Si number density = 21.244361 Si / 1000 Ang^3
#
#
#
# Elastic Constant Matrix: (Units=GPa)
#
#
# Indices 1 2 3 4 5 6 
#
# 1 136.7154 37.1395 67.2977 -18.8458 3.4425 14.0774
# 2 37.1395 103.6266 44.4278 -31.1904 10.9530 4.0024
# 3 67.2977 44.4278 123.6660 -35.0248 7.4626 1.6437
# 4 -18.8458 -31.1904 -35.0248 43.0707 -2.6950 8.4873
# 5 3.4425 10.9530 7.4626 -2.6950 40.6629 -0.8430
# 6 14.0774 4.0024 1.6437 8.4873 -0.8430 40.4640
#
#
#
# Elastic Compliance Matrix: (Units=1/GPa)
#
#
# Indices 1 2 3 4 5 6 
#
# 1 0.010623 -0.001476 -0.005227 0.000009 0.000389 -0.003331
# 2 -0.001476 0.013772 -0.001564 0.008394 -0.002795 -0.002604
# 3 -0.005227 -0.001564 0.013758 0.007742 -0.001153 -0.000234
# 4 0.000009 0.008394 0.007742 0.037282 -0.001398 -0.008997
# 5 0.000389 -0.002795 -0.001153 -0.001398 0.025452 0.001012
# 6 -0.003331 -0.002604 -0.000234 -0.008997 0.001012 0.028048
#
#
# Mechanical properties :
#
#
# Convention : Reuss Voigt Hill
#
# Bulk Modulus (GPa) = 46.25505 73.52644 59.89075
# Shear Modulus (GPa) = 32.74927 39.18238 35.96583
#
# Velocity S-wave (km/s) = 3.93052 4.29927 4.11902
# Velocity P-wave (km/s) = 6.51297 7.70259 7.13263
#
# Compressibility (1/GPa) = 0.02161926
#
# Stress axis : x y z
#
# Youngs Moduli (GPa) = 94.13540 72.61124 72.68405
#
# Poissons Ratio (x) = 0.10716 0.37994
# Poissons Ratio (y) = 0.13892 0.11367
# Poissons Ratio (z) = 0.49207 0.11356
#
# Static dielectric constant tensor:
#      x y z
#    x 3.925110 0.110060 0.200910 
#    y 0.110060 3.965840 -0.383190 
#    z 0.200910 -0.383190 3.451340 
# 
# 
# High freq. dielectric constant tensor:
#      x y z
#    x 1.833050 0.019890 0.016060 
#    y 0.019890 1.845390 -0.019250 
#    z 0.016060 -0.019250 1.841410 
# 
# From -- ./inp_files/227723.got.cif
#   From: 2010.06.25/outbox.cif.g09.slc.cpg/sg2_114_cif.got.tgz:227723.got - 2010.06.27 13:26:56.
