data_PCOD8017908
_publ_section_title
;
Structure prediction by ZEFSAII (Michael W. Deem and Ramdas Pophale) SiO2 
 PCOD8017908
Probable space group: P -1
;
_chemical_formula_sum "Si O2"
_cell_formula_units_Z 16
_cell_length_a 22.550092
_cell_length_b 9.455345
_cell_length_c 19.947944
_cell_angle_alpha 116.827505
_cell_angle_beta 167.934066
_cell_angle_gamma 60.452226
_cell_volume 762.178933
_symmetry_space_group_name_H-M "P -1"
_symmetry_group_IT_number 2
_symmetry_cell_setting 'triclinic'
loop_
_space_group_symop_operation_xyz
x,y,z
-x,-y,-z
loop_
_atom_site_type_symbol
_atom_site_label
_atom_site_fract_x
_atom_site_fract_y
_atom_site_fract_z
Si Si1 0.064311 0.077416 0.769833
Si Si2 0.352139 0.459023 0.892581
Si Si3 0.177066 0.988989 0.125449
Si Si4 0.967158 0.301690 0.171703
Si Si5 0.934105 0.240387 0.794269
Si Si6 0.375567 0.724752 0.080500
Si Si7 0.268769 0.900701 0.728446
Si Si8 0.713224 0.638205 0.888826
O O1 0.905029 0.115984 0.674991
O O2 0.838977 0.126400 0.470453
O O3 0.283789 0.194837 0.031440
O O4 0.226117 0.883554 0.903858
O O5 0.000000 0.500000 0.500000
O O6 0.500000 0.500000 0.000000
O O7 0.433159 0.562597 0.064917
O O8 0.528960 0.270630 0.057516
O O9 0.500000 0.000000 0.500000
O O10 0.174354 0.816888 0.052975
O O11 0.039764 0.139823 0.956628
O O12 0.000000 0.000000 0.000000
O O13 0.322772 0.243609 0.551926
O O14 0.838323 0.304164 0.103901
O O15 0.888334 0.481338 0.090489
O O16 0.619847 0.367551 0.489967
O O17 0.144098 0.352514 0.025446
O O18 0.000000 0.000000 0.500000
O O19 0.500000 0.000000 0.000000
#
# Coordination Sequence:
#
# PCOD8017908 Si02
#       8
#     2   2   2   2   2   2   2   2
#     4  10  24  41  69  92 133 174 225 274 338 394
#     4  12  26  47  66 102 144 182 231 292 351 405
#     4  12  25  45  70  99 138 176 220 279 341 412
#     4  12  24  43  66 107 127 176 230 277 334 411
#     4  10  22  43  65  96 128 173 217 263 332 403
#     4  12  24  41  72  95 137 177 230 281 333 403
#     4  12  27  43  67  96 138 181 232 279 348 410
#     4  10  22  39  68  92 135 161 228 267 327 387
#
# _framework density 20.992446999999999
#
# number of rings (size 3 to 8) (size 9 to 14) (size 15 to 20)
#    0.750    0.000    1.250    6.750    3.500    0.000 
#    0.000    3.750    0.000    0.000    0.000    0.000 
#    0.000    0.000    0.000    0.000    0.000    0.000 
#
# Total GULP energy -198303.132645 kJ/mol
# GULP energy per Si atom -12393.945790 kJ/mol
# Density = 2.094467 g / cm^3
# Si number density = 20.992447 Si / 1000 Ang^3
#
#
#
# Elastic Constant Matrix: (Units=GPa)
#
#
# Indices 1 2 3 4 5 6 
#
# 1 114.6205 35.7663 48.8096 -7.2827 4.4640 18.0066
# 2 35.7663 144.2805 37.9797 -15.1269 4.7579 20.4043
# 3 48.8096 37.9797 142.6713 -11.9144 16.6199 12.2359
# 4 -7.2827 -15.1269 -11.9144 42.2864 1.9161 -7.3330
# 5 4.4640 4.7579 16.6199 1.9161 40.6041 -0.0283
# 6 18.0066 20.4043 12.2359 -7.3330 -0.0283 33.7496
#
#
#
# Elastic Compliance Matrix: (Units=1/GPa)
#
#
# Indices 1 2 3 4 5 6 
#
# 1 0.011095 -0.001390 -0.003125 -0.000168 0.000227 -0.003983
# 2 -0.001390 0.008289 -0.001240 0.001800 -0.000398 -0.003429
# 3 -0.003125 -0.001240 0.008963 0.001607 -0.003256 -0.000486
# 4 -0.000168 0.001800 0.001607 0.025495 -0.002051 0.003957
# 5 0.000227 -0.000398 -0.003256 -0.002051 0.026080 0.000876
# 6 -0.003983 -0.003429 -0.000486 0.003957 0.000876 0.034865
#
#
# Mechanical properties :
#
#
# Convention : Reuss Voigt Hill
#
# Bulk Modulus (GPa) = 59.38997 71.85370 65.62184
# Shear Modulus (GPa) = 37.90501 41.92913 39.91707
#
# Velocity S-wave (km/s) = 4.25390 4.47401 4.36535
# Velocity P-wave (km/s) = 7.24432 7.80972 7.53233
#
# Compressibility (1/GPa) = 0.01683786
#
# Stress axis : x y z
#
# Youngs Moduli (GPa) = 90.13205 120.64589 111.56376
#
# Poissons Ratio (x) = 0.16766 0.34860
# Poissons Ratio (y) = 0.12525 0.13837
# Poissons Ratio (z) = 0.28163 0.14964
#
# Static dielectric constant tensor:
#      x y z
#    x 3.841190 0.146770 0.095120 
#    y 0.146770 3.815150 0.000340 
#    z 0.095120 0.000340 3.919570 
# 
# 
# High freq. dielectric constant tensor:
#      x y z
#    x 1.828170 0.015020 0.006200 
#    y 0.015020 1.833770 -0.003120 
#    z 0.006200 -0.003120 1.832210 
# 
# From -- ./inp_files/601942.got.cif
#   From: 2010.06.25/outbox.cif.g09.slc.cpg/sg2_301_cif.got.tgz:601942.got - 2010.06.27 13:26:56.
