data_PCOD8017679
_publ_section_title
;
Structure prediction by ZEFSAII (Michael W. Deem and Ramdas Pophale) SiO2 
 PCOD8017679
Probable space group: P -1
;
_chemical_formula_sum "Si O2"
_cell_formula_units_Z 14
_cell_length_a 13.083696
_cell_length_b 10.569395
_cell_length_c 10.936789
_cell_angle_alpha 58.526976
_cell_angle_beta 111.985298
_cell_angle_gamma 147.680951
_cell_volume 682.181124
_symmetry_space_group_name_H-M "P -1"
_symmetry_group_IT_number 2
_symmetry_cell_setting 'triclinic'
loop_
_space_group_symop_operation_xyz
x,y,z
-x,-y,-z
loop_
_atom_site_type_symbol
_atom_site_label
_atom_site_fract_x
_atom_site_fract_y
_atom_site_fract_z
Si Si1 0.274827 0.784292 0.147781
Si Si2 0.944747 0.213156 0.593427
Si Si3 0.321009 0.127372 0.845811
Si Si4 0.057272 0.778759 0.684692
Si Si5 0.997626 0.027164 0.126774
Si Si6 0.684805 0.186273 0.575436
Si Si7 0.732673 0.516885 0.820731
O O1 0.382340 0.879627 0.279040
O O2 0.344869 0.739880 0.099135
O O3 0.045158 0.497654 0.214540
O O4 0.303426 0.981327 0.014607
O O5 0.869783 0.106305 0.475663
O O6 0.790839 0.146519 0.625741
O O7 0.162934 0.516551 0.540240
O O8 0.939482 0.050099 0.737157
O O9 0.237981 0.979817 0.754499
O O10 0.215371 0.156744 0.833874
O O11 0.546137 0.417087 0.778786
O O12 0.107089 0.280906 0.317207
O O13 0.154523 0.329007 0.078714
O O14 0.000000 0.000000 0.000000
O O15 0.500000 0.000000 0.500000
#
# Coordination Sequence:
#
# PCOD8017679 Si02
#       7
#     2   2   2   2   2   2   2
#     4   9  19  39  57  91 121 141 206 241 272 355
#     4  10  22  42  58  87 121 150 196 242 284 352
#     4  11  20  37  63  87 117 161 185 242 299 327
#     4   8  20  35  58  83 118 150 192 237 287 331
#     4  11  25  41  59  85 119 156 194 237 296 348
#     4  10  22  39  64  89 113 156 192 241 296 336
#     4   9  22  37  56  91 115 151 201 235 278 350
#
# _framework density 20.522409
#
# number of rings (size 3 to 8) (size 9 to 14) (size 15 to 20)
#    0.857    1.429    0.000    1.714    2.000    5.143 
#    0.000    1.429    0.000    0.000    0.000    0.000 
#    0.000    0.000    0.000    0.000    0.000    0.000 
#
# Total GULP energy -173479.533632 kJ/mol
# GULP energy per Si atom -12391.395259 kJ/mol
# Density = 2.047570 g / cm^3
# Si number density = 20.522409 Si / 1000 Ang^3
#
#
#
# Elastic Constant Matrix: (Units=GPa)
#
#
# Indices 1 2 3 4 5 6 
#
# 1 95.8957 46.9440 26.5066 9.2246 -0.1688 -4.1640
# 2 46.9440 109.8515 32.9868 28.8392 -13.4255 2.3099
# 3 26.5066 32.9868 86.7533 17.7466 0.4767 -14.0556
# 4 9.2246 28.8392 17.7466 25.9599 -6.4590 -6.4686
# 5 -0.1688 -13.4255 0.4767 -6.4590 25.3456 6.7084
# 6 -4.1640 2.3099 -14.0556 -6.4686 6.7084 37.1755
#
#
#
# Elastic Compliance Matrix: (Units=1/GPa)
#
#
# Indices 1 2 3 4 5 6 
#
# 1 0.014082 -0.006842 -0.002070 0.003838 -0.003164 0.002458
# 2 -0.006842 0.017989 -0.002732 -0.015577 0.007408 -0.006964
# 3 -0.002070 -0.002732 0.015482 -0.006659 -0.004910 0.005519
# 4 0.003838 -0.015577 -0.006659 0.062575 0.005525 0.008771
# 5 -0.003164 0.007408 -0.004910 0.005525 0.047583 -0.010296
# 6 0.002458 -0.006964 0.005519 0.008771 -0.010296 0.033078
#
#
# Mechanical properties :
#
#
# Convention : Reuss Voigt Hill
#
# Bulk Modulus (GPa) = 41.21395 56.15281 48.68338
# Shear Modulus (GPa) = 22.50592 30.10041 26.30316
#
# Velocity S-wave (km/s) = 3.31516 3.83392 3.58394
# Velocity P-wave (km/s) = 5.89744 6.85709 6.39529
#
# Compressibility (1/GPa) = 0.02426363
#
# Stress axis : x y z
#
# Youngs Moduli (GPa) = 71.01486 55.59066 64.59264
#
# Poissons Ratio (x) = 0.38034 0.13373
# Poissons Ratio (y) = 0.48587 0.17647
# Poissons Ratio (z) = 0.14702 0.15187
#
# Static dielectric constant tensor:
#      x y z
#    x 3.788920 -0.114890 -0.152140 
#    y -0.114890 3.774030 0.112410 
#    z -0.152140 0.112410 3.512210 
# 
# 
# High freq. dielectric constant tensor:
#      x y z
#    x 1.802730 -0.006780 -0.012570 
#    y -0.006780 1.803050 0.014140 
#    z -0.012570 0.014140 1.775950 
# 
# From -- ./inp_files/449800.got.cif
#   From: 2010.06.25/outbox.cif.g09.slc.cpg/sg2_225_cif.got.tgz:449800.got - 2010.06.27 13:26:56.
