data_PCOD8017413
_publ_section_title
;
Structure prediction by ZEFSAII (Michael W. Deem and Ramdas Pophale) SiO2 
 PCOD8017413
Probable space group: P -1
;
_chemical_formula_sum "Si O2"
_cell_formula_units_Z 14
_cell_length_a 8.455622
_cell_length_b 10.825645
_cell_length_c 12.447421
_cell_angle_alpha 64.238878
_cell_angle_beta 131.076961
_cell_angle_gamma 121.554058
_cell_volume 724.578337
_symmetry_space_group_name_H-M "P -1"
_symmetry_group_IT_number 2
_symmetry_cell_setting 'triclinic'
loop_
_space_group_symop_operation_xyz
x,y,z
-x,-y,-z
loop_
_atom_site_type_symbol
_atom_site_label
_atom_site_fract_x
_atom_site_fract_y
_atom_site_fract_z
Si Si1 0.250483 0.809772 0.263131
Si Si2 0.295678 0.879723 0.008964
Si Si3 0.542459 0.615571 0.798285
Si Si4 0.183660 0.580899 0.966374
Si Si5 0.124439 0.067128 0.140583
Si Si6 0.055659 0.494687 0.717593
Si Si7 0.416745 0.588320 0.516045
O O1 0.326143 0.861111 0.156267
O O2 0.437220 0.750481 0.419963
O O3 0.007679 0.676583 0.208840
O O4 0.229644 0.945818 0.272549
O O5 0.306778 0.741229 0.003031
O O6 0.063378 0.910450 0.872847
O O7 0.500000 0.000000 0.000000
O O8 0.673290 0.778044 0.840722
O O9 0.280935 0.562818 0.726236
O O10 0.563163 0.609474 0.680800
O O11 0.640467 0.502341 0.939414
O O12 0.074407 0.587625 0.799906
O O13 0.000000 0.500000 0.000000
O O14 0.000000 0.000000 0.000000
O O15 0.849226 0.505512 0.549520
O O16 0.500000 0.500000 0.500000
#
# Coordination Sequence:
#
# PCOD8017413 Si02
#       7
#     2   2   2   2   2   2   2
#     4   9  21  41  56  84 129 154 199 250 303 356
#     4  11  23  35  60  89 121 162 203 252 307 355
#     4  12  23  38  69  90 121 167 207 244 310 370
#     4  12  20  38  60  93 122 155 210 258 302 351
#     4  10  22  39  57  88 126 158 198 252 305 357
#     4  10  23  38  63  92 122 159 205 256 297 366
#     4  10  22  42  65  89 125 159 202 258 307 359
#
# _framework density 19.321581999999999
#
# number of rings (size 3 to 8) (size 9 to 14) (size 15 to 20)
#    0.857    0.571    2.857    3.429    6.000    0.571 
#    0.000    0.000    0.000    1.714    0.000    0.000 
#    0.000    0.000    0.000    0.000    0.000    0.000 
#
# Total GULP energy -173467.060812 kJ/mol
# GULP energy per Si atom -12390.504344 kJ/mol
# Density = 1.927761 g / cm^3
# Si number density = 19.321582 Si / 1000 Ang^3
#
#
#
# Elastic Constant Matrix: (Units=GPa)
#
#
# Indices 1 2 3 4 5 6 
#
# 1 84.9465 49.2910 3.7915 2.4241 10.2585 10.9456
# 2 49.2910 139.6445 24.9487 -0.8189 9.7049 0.2802
# 3 3.7915 24.9487 57.4088 5.8650 -0.7478 -5.1169
# 4 2.4241 -0.8189 5.8650 30.9731 -6.1620 6.2182
# 5 10.2585 9.7049 -0.7478 -6.1620 34.4663 0.1922
# 6 10.9456 0.2802 -5.1169 6.2182 0.1922 39.5519
#
#
#
# Elastic Compliance Matrix: (Units=1/GPa)
#
#
# Indices 1 2 3 4 5 6 
#
# 1 0.015928 -0.005590 0.001131 -0.001485 -0.003386 -0.003972
# 2 -0.005590 0.009925 -0.003998 0.001094 -0.001026 0.000792
# 3 0.001131 -0.003998 0.019808 -0.004462 0.000405 0.002978
# 4 -0.001485 0.001094 -0.004462 0.035730 0.006457 -0.005823
# 5 -0.003386 -0.001026 0.000405 0.006457 0.031475 -0.000172
# 6 -0.003972 0.000792 0.002978 -0.005823 -0.000172 0.027678
#
#
# Mechanical properties :
#
#
# Convention : Reuss Voigt Hill
#
# Bulk Modulus (GPa) = 34.78678 48.67359 41.73018
# Shear Modulus (GPa) = 29.93276 34.59616 32.26446
#
# Velocity S-wave (km/s) = 3.94024 4.23607 4.09083
# Velocity P-wave (km/s) = 6.22446 7.01226 6.63007
#
# Compressibility (1/GPa) = 0.02874655
#
# Stress axis : x y z
#
# Youngs Moduli (GPa) = 62.78180 100.76012 50.48361
#
# Poissons Ratio (x) = 0.56322 -0.05708
# Poissons Ratio (y) = 0.35093 0.20185
# Poissons Ratio (z) = -0.07099 0.40287
#
# Static dielectric constant tensor:
#      x y z
#    x 3.622280 -0.288990 0.319240 
#    y -0.288990 3.689120 -0.191740 
#    z 0.319240 -0.191740 3.770980 
# 
# 
# High freq. dielectric constant tensor:
#      x y z
#    x 1.749250 -0.012940 0.007650 
#    y -0.012940 1.755450 0.003160 
#    z 0.007650 0.003160 1.737420 
# 
# From -- ./inp_files/490854.got.cif
#   From: 2010.06.25/outbox.cif.g09.slc.cpg/sg2_246_cif.got.tgz:490854.got - 2010.06.27 13:26:56.
