data_PCOD8017482
_publ_section_title
;
Structure prediction by ZEFSAII (Michael W. Deem and Ramdas Pophale) SiO2 
 PCOD8017482
Probable space group: P -1
;
_chemical_formula_sum "Si O2"
_cell_formula_units_Z 16
_cell_length_a 15.544647
_cell_length_b 10.581575
_cell_length_c 7.726444
_cell_angle_alpha 132.120112
_cell_angle_beta 58.096949
_cell_angle_gamma 95.828318
_cell_volume 732.900619
_symmetry_space_group_name_H-M "P -1"
_symmetry_group_IT_number 2
_symmetry_cell_setting 'triclinic'
loop_
_space_group_symop_operation_xyz
x,y,z
-x,-y,-z
loop_
_atom_site_type_symbol
_atom_site_label
_atom_site_fract_x
_atom_site_fract_y
_atom_site_fract_z
Si Si1 0.681760 0.273321 0.370339
Si Si2 0.892472 0.963384 0.274133
Si Si3 0.513580 0.043649 0.827916
Si Si4 0.098282 0.063657 0.156606
Si Si5 0.341239 0.741240 0.229107
Si Si6 0.548934 0.653831 0.422510
Si Si7 0.101366 0.310789 0.682286
Si Si8 0.684059 0.633774 0.596732
O O1 0.635296 0.255526 0.590486
O O2 0.580270 0.310057 0.380233
O O3 0.722967 0.441691 0.484432
O O4 0.785969 0.089035 0.037146
O O5 0.880039 0.824009 0.298732
O O6 0.789943 0.163814 0.584112
O O7 0.895279 0.884003 0.003272
O O8 0.004747 0.986360 0.214538
O O9 0.602772 0.133066 0.802334
O O10 0.551108 0.843731 0.506011
O O11 0.390888 0.194312 0.040165
O O12 0.500000 0.000000 0.000000
O O13 0.071829 0.240823 0.468479
O O14 0.388344 0.526984 0.926310
O O15 0.604255 0.617891 0.517021
O O16 0.212758 0.341588 0.572066
O O17 0.000000 0.500000 0.000000
#
# Coordination Sequence:
#
# PCOD8017482 Si02
#       8
#     2   2   2   2   2   2   2   2
#     4  11  23  43  65  96 134 177 228 278 340 407
#     4  10  23  46  71  99 135 180 233 276 352 408
#     4  10  22  39  60  94 129 167 221 267 329 404
#     4  10  24  45  71  97 134 184 226 289 342 407
#     4  11  24  42  66  99 136 176 225 283 339 410
#     4  11  23  39  68  92 132 183 219 276 337 402
#     4  12  26  44  69 104 137 175 231 288 342 414
#     4  11  24  41  62  98 134 174 226 279 344 406
#
# _framework density 21.831064999999999
#
# number of rings (size 3 to 8) (size 9 to 14) (size 15 to 20)
#    0.000    1.250    1.250    4.125    5.250    1.000 
#    6.750    0.000    0.000    0.000    0.000    0.000 
#    0.000    0.000    0.000    0.000    0.000    0.000 
#
# Total GULP energy -198365.459326 kJ/mol
# GULP energy per Si atom -12397.841208 kJ/mol
# Density = 2.178138 g / cm^3
# Si number density = 21.831065 Si / 1000 Ang^3
#
#
#
# Elastic Constant Matrix: (Units=GPa)
#
#
# Indices 1 2 3 4 5 6 
#
# 1 110.6020 40.9055 53.8360 -4.6981 -4.9703 -0.3971
# 2 40.9055 108.4172 41.3873 -5.0818 14.3013 9.2420
# 3 53.8360 41.3873 166.7535 20.7376 -0.0707 3.6941
# 4 -4.6981 -5.0818 20.7376 34.7414 8.4785 -3.7189
# 5 -4.9703 14.3013 -0.0707 8.4785 27.0827 8.1903
# 6 -0.3971 9.2420 3.6941 -3.7189 8.1903 14.0054
#
#
#
# Elastic Compliance Matrix: (Units=1/GPa)
#
#
# Indices 1 2 3 4 5 6 
#
# 1 0.012388 -0.003782 -0.003500 0.002972 0.002372 0.003172
# 2 -0.003782 0.013175 -0.002625 0.004914 -0.008672 -0.001732
# 3 -0.003500 -0.002625 0.008906 -0.008020 0.005028 -0.005785
# 4 0.002972 0.004914 -0.008020 0.042706 -0.022540 0.023478
# 5 0.002372 -0.008672 0.005028 -0.022540 0.060096 -0.036665
# 6 0.003172 -0.001732 -0.005785 0.023478 -0.036665 0.101835
#
#
# Mechanical properties :
#
#
# Convention : Reuss Voigt Hill
#
# Bulk Modulus (GPa) = 68.23679 73.11448 70.67563
# Shear Modulus (GPa) = 18.95346 31.80882 25.38114
#
# Velocity S-wave (km/s) = 2.94970 3.82127 3.41341
# Velocity P-wave (km/s) = 6.55176 7.28239 6.92671
#
# Compressibility (1/GPa) = 0.01465485
#
# Stress axis : x y z
#
# Youngs Moduli (GPa) = 80.72477 75.90314 112.28526
#
# Poissons Ratio (x) = 0.28706 0.39295
# Poissons Ratio (y) = 0.30530 0.29478
# Poissons Ratio (z) = 0.28250 0.19927
#
# Static dielectric constant tensor:
#      x y z
#    x 3.870820 0.128230 -0.066180 
#    y 0.128230 3.937590 0.329830 
#    z -0.066180 0.329830 4.549340 
# 
# 
# High freq. dielectric constant tensor:
#      x y z
#    x 1.853860 0.004050 -0.012360 
#    y 0.004050 1.865840 0.007260 
#    z -0.012360 0.007260 1.868820 
# 
# From -- ./inp_files/305961.got.cif
#   From: 2010.06.25/outbox.cif.g09.slc.cpg/sg2_153_cif.got.tgz:305961.got - 2010.06.27 13:26:56.
