data_PCOD8017623
_publ_section_title
;
Structure prediction by ZEFSAII (Michael W. Deem and Ramdas Pophale) SiO2 
 PCOD8017623
Probable space group: P -1
;
_chemical_formula_sum "Si O2"
_cell_formula_units_Z 16
_cell_length_a 11.825308
_cell_length_b 14.211836
_cell_length_c 14.094423
_cell_angle_alpha 138.734639
_cell_angle_beta 150.291706
_cell_angle_gamma 52.577395
_cell_volume 766.806132
_symmetry_space_group_name_H-M "P -1"
_symmetry_group_IT_number 2
_symmetry_cell_setting 'triclinic'
loop_
_space_group_symop_operation_xyz
x,y,z
-x,-y,-z
loop_
_atom_site_type_symbol
_atom_site_label
_atom_site_fract_x
_atom_site_fract_y
_atom_site_fract_z
Si Si1 0.790772 0.007617 0.550576
Si Si2 0.065166 0.277323 0.635839
Si Si3 0.725603 0.456311 0.259073
Si Si4 0.682151 0.408860 0.982051
Si Si5 0.124224 0.135829 0.749934
Si Si6 0.303739 0.001913 0.135508
Si Si7 0.872866 0.130823 0.898692
Si Si8 0.642200 0.204939 0.146721
O O1 0.778266 0.015408 0.661291
O O2 0.012445 0.119822 0.761186
O O3 0.571622 0.065050 0.384904
O O4 0.785520 0.841410 0.388449
O O5 0.805192 0.235290 0.379133
O O6 0.164896 0.435774 0.795703
O O7 0.072588 0.272906 0.753284
O O8 0.660528 0.371950 0.049928
O O9 0.625957 0.354849 0.195331
O O10 0.000000 0.500000 0.500000
O O11 0.573410 0.590449 0.250029
O O12 0.814379 0.286449 0.939189
O O13 0.397056 0.135620 0.957182
O O14 0.000000 0.000000 0.500000
O O15 0.247338 0.910957 0.121205
O O16 0.250567 0.900986 0.927788
O O17 0.147981 0.130799 0.111497
#
# Coordination Sequence:
#
# PCOD8017623 Si02
#       8
#     2   2   2   2   2   2   2   2
#     4  11  23  42  63  90 120 166 209 257 314 359
#     4  11  22  38  66  91 121 160 208 260 307 358
#     4  11  22  36  63  93 126 163 203 254 314 370
#     4  11  23  39  60  92 128 160 202 254 309 375
#     4  10  22  39  63  92 121 161 213 272 303 349
#     4  11  22  40  61  91 131 158 206 253 307 388
#     4  11  25  39  61  92 129 168 196 248 320 378
#     4  12  20  38  66  97 121 159 213 261 310 365
#
# _framework density 20.865769
#
# number of rings (size 3 to 8) (size 9 to 14) (size 15 to 20)
#    0.000    1.000    7.500    0.375    1.750    4.000 
#    0.000    0.625    0.000    1.500    0.000    0.000 
#    0.000    0.000    0.000    0.000    0.000    0.000 
#
# Total GULP energy -198314.677988 kJ/mol
# GULP energy per Si atom -12394.667374 kJ/mol
# Density = 2.081828 g / cm^3
# Si number density = 20.865769 Si / 1000 Ang^3
#
#
#
# Elastic Constant Matrix: (Units=GPa)
#
#
# Indices 1 2 3 4 5 6 
#
# 1 67.0453 32.5777 20.4086 4.3420 10.5161 -5.3896
# 2 32.5777 137.8838 46.7654 -18.5750 12.4137 -21.6839
# 3 20.4086 46.7654 98.5377 -22.7994 24.9399 -13.3225
# 4 4.3420 -18.5750 -22.7994 34.8475 -3.0106 3.9055
# 5 10.5161 12.4137 24.9399 -3.0106 32.4304 -7.3906
# 6 -5.3896 -21.6839 -13.3225 3.9055 -7.3906 21.4498
#
#
#
# Elastic Compliance Matrix: (Units=1/GPa)
#
#
# Indices 1 2 3 4 5 6 
#
# 1 0.018636 -0.004270 -0.002686 -0.006496 -0.003226 -0.001232
# 2 -0.004270 0.010799 -0.002654 0.003780 0.001470 0.008013
# 3 -0.002686 -0.002654 0.016736 0.008797 -0.009689 0.002096
# 4 -0.006496 0.003780 0.008797 0.037047 -0.002669 -0.000012
# 5 -0.003226 0.001470 -0.009689 -0.002669 0.040603 0.009133
# 6 -0.001232 0.008013 0.002096 -0.000012 0.009133 0.058863
#
#
# Mechanical properties :
#
#
# Convention : Reuss Voigt Hill
#
# Bulk Modulus (GPa) = 37.10801 55.88559 46.49680
# Shear Modulus (GPa) = 23.70923 31.32653 27.51788
#
# Velocity S-wave (km/s) = 3.37452 3.87891 3.63548
# Velocity P-wave (km/s) = 5.74508 6.84856 6.32095
#
# Compressibility (1/GPa) = 0.02694836
#
# Stress axis : x y z
#
# Youngs Moduli (GPa) = 53.66045 92.60219 59.75284
#
# Poissons Ratio (x) = 0.39545 0.16050
# Poissons Ratio (y) = 0.22915 0.15861
# Poissons Ratio (z) = 0.14413 0.24581
#
# Static dielectric constant tensor:
#      x y z
#    x 4.207610 0.239830 0.130630 
#    y 0.239830 3.968050 -0.346060 
#    z 0.130630 -0.346060 3.684290 
# 
# 
# High freq. dielectric constant tensor:
#      x y z
#    x 1.802880 0.014010 0.010990 
#    y 0.014010 1.814390 -0.034090 
#    z 0.010990 -0.034090 1.809610 
# 
# From -- ./inp_files/465072.got.cif
#   From: 2010.06.25/outbox.cif.g09.slc.cpg/sg2_233_cif.got.tgz:465072.got - 2010.06.27 13:26:56.
