data_PCOD8017509
_publ_section_title
;
Structure prediction by ZEFSAII (Michael W. Deem and Ramdas Pophale) SiO2 
 PCOD8017509
Probable space group: P -1
;
_chemical_formula_sum "Si O2"
_cell_formula_units_Z 16
_cell_length_a 8.275433
_cell_length_b 6.470933
_cell_length_c 17.048003
_cell_angle_alpha 88.551514
_cell_angle_beta 130.043349
_cell_angle_gamma 92.523387
_cell_volume 698.207346
_symmetry_space_group_name_H-M "P -1"
_symmetry_group_IT_number 2
_symmetry_cell_setting 'triclinic'
loop_
_space_group_symop_operation_xyz
x,y,z
-x,-y,-z
loop_
_atom_site_type_symbol
_atom_site_label
_atom_site_fract_x
_atom_site_fract_y
_atom_site_fract_z
Si Si1 0.712174 0.755244 0.041898
Si Si2 0.916893 0.964744 0.818325
Si Si3 0.818451 0.073760 0.623235
Si Si4 0.484019 0.080694 0.874363
Si Si5 0.580804 0.020989 0.314419
Si Si6 0.140909 0.631417 0.982550
Si Si7 0.180400 0.643069 0.516599
Si Si8 0.590986 0.736871 0.457201
O O1 0.662159 0.781786 0.117958
O O2 0.711465 0.516162 0.020809
O O3 0.945577 0.857454 0.094643
O O4 0.532976 0.865597 0.934473
O O5 0.670805 0.965192 0.759419
O O6 0.995033 0.743600 0.873035
O O7 0.970095 0.003300 0.741578
O O8 0.920651 0.197233 0.579238
O O9 0.657099 0.233814 0.609691
O O10 0.706749 0.858794 0.562978
O O11 0.358034 0.026803 0.755557
O O12 0.704126 0.207898 0.924057
O O13 0.694603 0.234733 0.376473
O O14 0.663176 0.836734 0.395562
O O15 0.000000 0.500000 0.000000
O O16 0.348513 0.502954 0.524031
O O17 0.000000 0.500000 0.500000
#
# Coordination Sequence:
#
# PCOD8017509 Si02
#       8
#     2   2   2   2   2   2   2   2
#     4  10  22  39  61  91 124 161 202 247 302 359
#     4  10  22  39  61  90 120 159 205 248 300 359
#     4   9  20  40  62  84 120 158 197 251 302 358
#     4  10  22  41  60  86 128 163 197 249 303 359
#     4  10  22  40  61  86 120 161 203 250 303 360
#     4  11  22  38  64  94 124 158 203 252 298 357
#     4  11  24  39  61  92 122 156 202 252 308 364
#     4   9  20  39  61  86 115 156 204 250 300 357
#
# _framework density 22.915827
#
# number of rings (size 3 to 8) (size 9 to 14) (size 15 to 20)
#    0.000    2.000    0.000    3.000    0.000   11.000 
#    0.000    2.500    0.000    0.000    0.000    0.000 
#    0.000    0.000    0.000    0.000    0.000    0.000 
#
# Total GULP energy -198357.555438 kJ/mol
# GULP energy per Si atom -12397.347215 kJ/mol
# Density = 2.286367 g / cm^3
# Si number density = 22.915827 Si / 1000 Ang^3
#
#
#
# Elastic Constant Matrix: (Units=GPa)
#
#
# Indices 1 2 3 4 5 6 
#
# 1 53.0831 11.9943 11.8471 1.9011 -20.5602 6.8955
# 2 11.9943 105.4969 42.6397 -5.8774 -14.8332 -2.2861
# 3 11.8471 42.6397 106.4700 -3.9588 -25.2621 0.6856
# 4 1.9011 -5.8774 -3.9588 32.9256 3.5592 -2.7049
# 5 -20.5602 -14.8332 -25.2621 3.5592 36.8095 5.6204
# 6 6.8955 -2.2861 0.6856 -2.7049 5.6204 37.7890
#
#
#
# Elastic Compliance Matrix: (Units=1/GPa)
#
#
# Indices 1 2 3 4 5 6 
#
# 1 0.026537 -0.001702 0.001620 -0.004099 0.016831 -0.007771
# 2 -0.001702 0.011588 -0.004293 0.001698 0.000434 0.001147
# 3 0.001620 -0.004293 0.012922 -0.000383 0.008396 -0.002066
# 4 -0.004099 0.001698 -0.000383 0.031790 -0.005547 0.003958
# 5 0.016831 0.000434 0.008396 -0.005547 0.044603 -0.010228
# 6 -0.007771 0.001147 -0.002066 0.003958 -0.010228 0.029792
#
#
# Mechanical properties :
#
#
# Convention : Reuss Voigt Hill
#
# Bulk Modulus (GPa) = 23.64203 44.22357 33.93280
# Shear Modulus (GPa) = 27.76523 34.74275 31.25399
#
# Velocity S-wave (km/s) = 3.48461 3.89794 3.69705
# Velocity P-wave (km/s) = 5.15066 6.29275 5.75013
#
# Compressibility (1/GPa) = 0.04229755
#
# Stress axis : x y z
#
# Youngs Moduli (GPa) = 37.68348 86.29670 77.38470
#
# Poissons Ratio (x) = 0.14689 -0.12537
# Poissons Ratio (y) = 0.06414 0.33220
# Poissons Ratio (z) = -0.06105 0.37045
#
# Static dielectric constant tensor:
#      x y z
#    x 4.038610 0.024080 -0.183820 
#    y 0.024080 4.105010 -0.074520 
#    z -0.183820 -0.074520 4.158190 
# 
# 
# High freq. dielectric constant tensor:
#      x y z
#    x 1.906890 0.005490 -0.007480 
#    y 0.005490 1.901820 -0.002600 
#    z -0.007480 -0.002600 1.900920 
# 
# From -- ./inp_files/106945.got.cif
#   From: 2010.06.25/outbox.cif.g09.slc.cpg/sg2_54_cif.got.tgz:106945.got - 2010.06.27 13:26:56.
