data_PCOD8017964
_publ_section_title
;
Structure prediction by ZEFSAII (Michael W. Deem and Ramdas Pophale) SiO2 
 PCOD8017964
Probable space group: P -1
;
_chemical_formula_sum "Si O2"
_cell_formula_units_Z 16
_cell_length_a 8.071397
_cell_length_b 8.729464
_cell_length_c 15.225779
_cell_angle_alpha 133.002457
_cell_angle_beta 94.878665
_cell_angle_gamma 71.816021
_cell_volume 732.661534
_symmetry_space_group_name_H-M "P -1"
_symmetry_group_IT_number 2
_symmetry_cell_setting 'triclinic'
loop_
_space_group_symop_operation_xyz
x,y,z
-x,-y,-z
loop_
_atom_site_type_symbol
_atom_site_label
_atom_site_fract_x
_atom_site_fract_y
_atom_site_fract_z
Si Si1 0.277698 0.364153 0.121634
Si Si2 0.599710 0.292069 0.981936
Si Si3 0.582318 0.846084 0.771312
Si Si4 0.754269 0.543143 0.511925
Si Si5 0.208653 0.927285 0.745959
Si Si6 0.932521 0.732010 0.466051
Si Si7 0.991425 0.148029 0.974600
Si Si8 0.004686 0.815426 0.312510
O O1 0.311922 0.296128 0.197911
O O2 0.186317 0.631901 0.214266
O O3 0.471109 0.283162 0.053371
O O4 0.131218 0.275641 0.037645
O O5 0.786931 0.316896 0.026861
O O6 0.648230 0.055387 0.840581
O O7 0.500000 0.500000 0.000000
O O8 0.595839 0.697030 0.626000
O O9 0.370915 0.949768 0.818447
O O10 0.731670 0.322246 0.386857
O O11 0.760411 0.702703 0.491919
O O12 0.916223 0.475277 0.562179
O O13 0.042128 0.986507 0.828153
O O14 0.152753 0.111875 0.737679
O O15 0.934493 0.712233 0.352841
O O16 0.944565 0.969738 0.580939
O O17 0.000000 0.000000 0.000000
#
# Coordination Sequence:
#
# PCOD8017964 Si02
#       8
#     2   2   2   2   2   2   2   2
#     4  12  25  47  71  98 139 183 225 282 337 406
#     4  12  28  44  67 102 139 177 228 281 340 400
#     4  12  24  46  67  98 135 179 223 282 338 403
#     4  10  22  39  70  97 129 175 226 277 330 407
#     4  11  25  43  67  99 137 173 228 279 340 399
#     4   9  20  40  64 101 128 174 227 271 335 405
#     4  12  26  45  73 101 134 184 233 277 336 411
#     4  10  22  40  68  95 137 177 217 278 343 396
#
# _framework density 21.838187999999999
#
# number of rings (size 3 to 8) (size 9 to 14) (size 15 to 20)
#    0.000    1.000    3.750    2.250   10.500    1.000 
#    0.000    0.625    0.000    0.000    0.000    0.000 
#    0.000    0.000    0.000    0.000    0.000    0.000 
#
# Total GULP energy -198299.642336 kJ/mol
# GULP energy per Si atom -12393.727646 kJ/mol
# Density = 2.178848 g / cm^3
# Si number density = 21.838188 Si / 1000 Ang^3
#
#
#
# Elastic Constant Matrix: (Units=GPa)
#
#
# Indices 1 2 3 4 5 6 
#
# 1 130.0457 40.8508 38.8539 -9.1089 -8.0841 -8.5982
# 2 40.8508 137.9265 40.7416 -4.9419 -1.2291 0.6016
# 3 38.8539 40.7416 93.5845 -6.9352 -17.7845 0.6725
# 4 -9.1089 -4.9419 -6.9352 28.1829 -5.2525 -5.5249
# 5 -8.0841 -1.2291 -17.7845 -5.2525 25.2358 -6.8982
# 6 -8.5982 0.6016 0.6725 -5.5249 -6.8982 35.3316
#
#
#
# Elastic Compliance Matrix: (Units=1/GPa)
#
#
# Indices 1 2 3 4 5 6 
#
# 1 0.009698 -0.002052 -0.002316 0.003482 0.003079 0.003585
# 2 -0.002052 0.008903 -0.003736 -0.000935 -0.003432 -0.001396
# 3 -0.002316 -0.003736 0.015931 0.005223 0.012036 0.002364
# 4 0.003482 -0.000935 0.005223 0.042928 0.016616 0.010721
# 5 0.003079 -0.003432 0.012036 0.016616 0.056257 0.014161
# 6 0.003585 -0.001396 0.002364 0.010721 0.014161 0.033596
#
#
# Mechanical properties :
#
#
# Convention : Reuss Voigt Hill
#
# Bulk Modulus (GPa) = 54.56788 66.93879 60.75334
# Shear Modulus (GPa) = 26.36740 33.82409 30.09574
#
# Velocity S-wave (km/s) = 3.47853 3.93981 3.71634
# Velocity P-wave (km/s) = 6.41679 7.17042 6.80405
#
# Compressibility (1/GPa) = 0.01832580
#
# Stress axis : x y z
#
# Youngs Moduli (GPa) = 103.11040 112.31611 62.77169
#
# Poissons Ratio (x) = 0.23045 0.14537
# Poissons Ratio (y) = 0.21157 0.23450
# Poissons Ratio (z) = 0.23878 0.41958
#
# Static dielectric constant tensor:
#      x y z
#    x 3.747360 0.019140 -0.185200 
#    y 0.019140 4.022560 -0.070510 
#    z -0.185200 -0.070510 4.167310 
# 
# 
# High freq. dielectric constant tensor:
#      x y z
#    x 1.850210 -0.001670 -0.013420 
#    y -0.001670 1.864710 0.002260 
#    z -0.013420 0.002260 1.864020 
# 
# From -- ./inp_files/495727.got.cif
#   From: 2010.06.25/outbox.cif.g09.slc.cpg/sg2_248_cif.got.tgz:495727.got - 2010.06.27 13:26:56.
