data_PCOD8017780
_publ_section_title
;
Structure prediction by ZEFSAII (Michael W. Deem and Ramdas Pophale) SiO2 
 PCOD8017780
Probable space group: P -1
;
_chemical_formula_sum "Si O2"
_cell_formula_units_Z 14
_cell_length_a 9.399701
_cell_length_b 9.194332
_cell_length_c 11.448513
_cell_angle_alpha 113.336326
_cell_angle_beta 113.765996
_cell_angle_gamma 47.483756
_cell_volume 656.114846
_symmetry_space_group_name_H-M "P -1"
_symmetry_group_IT_number 2
_symmetry_cell_setting 'triclinic'
loop_
_space_group_symop_operation_xyz
x,y,z
-x,-y,-z
loop_
_atom_site_type_symbol
_atom_site_label
_atom_site_fract_x
_atom_site_fract_y
_atom_site_fract_z
Si Si1 0.701861 0.751597 0.272840
Si Si2 0.926538 0.388310 0.383077
Si Si3 0.772880 0.954486 0.016586
Si Si4 0.658816 0.701324 0.976832
Si Si5 0.262023 0.986496 0.237023
Si Si6 0.836044 0.279533 0.795583
Si Si7 0.036533 0.792287 0.437551
O O1 0.760471 0.545926 0.286047
O O2 0.476748 0.934297 0.289008
O O3 0.832814 0.819635 0.376999
O O4 0.727396 0.709072 0.130439
O O5 0.844428 0.330164 0.443716
O O6 0.000000 0.500000 0.500000
O O7 0.110259 0.190752 0.319173
O O8 0.745532 0.780954 0.944578
O O9 0.817584 0.990256 0.913390
O O10 0.944354 0.897197 0.143192
O O11 0.576782 0.159492 0.068116
O O12 0.745369 0.478064 0.902687
O O13 0.288737 0.800867 0.250411
O O14 0.836694 0.324936 0.673396
O O15 0.000000 0.000000 0.500000
#
# Coordination Sequence:
#
# PCOD8017780 Si02
#       7
#     2   2   2   2   2   2   2
#     4  10  23  44  68  89 128 166 206 266 308 382
#     4  10  23  41  64  87 124 169 213 253 306 368
#     4  10  22  39  65  96 128 164 201 263 315 379
#     4  10  22  40  66 100 124 162 211 252 326 374
#     4  11  24  41  64  99 124 165 211 256 322 371
#     4  12  23  40  66  94 133 162 204 266 312 372
#     4  11  23  44  64  92 127 168 214 260 308 366
#
# _framework density 21.337729
#
# number of rings (size 3 to 8) (size 9 to 14) (size 15 to 20)
#    0.000    1.429    2.857    1.714    4.000    5.714 
#    0.000    2.143    0.000    0.000    0.000    0.000 
#    0.000    0.000    0.000    0.000    0.000    0.000 
#
# Total GULP energy -173596.786536 kJ/mol
# GULP energy per Si atom -12399.770467 kJ/mol
# Density = 2.128916 g / cm^3
# Si number density = 21.337729 Si / 1000 Ang^3
#
#
#
# Elastic Constant Matrix: (Units=GPa)
#
#
# Indices 1 2 3 4 5 6 
#
# 1 90.3238 34.1330 42.1049 -1.6029 -15.4921 13.1468
# 2 34.1330 107.6064 39.0344 -2.7210 -4.3619 8.7810
# 3 42.1049 39.0344 64.8321 4.4639 -13.9297 -3.0117
# 4 -1.6029 -2.7210 4.4639 34.2270 9.1053 -5.3462
# 5 -15.4921 -4.3619 -13.9297 9.1053 35.1903 -3.8657
# 6 13.1468 8.7810 -3.0117 -5.3462 -3.8657 31.0819
#
#
#
# Elastic Compliance Matrix: (Units=1/GPa)
#
#
# Indices 1 2 3 4 5 6 
#
# 1 0.018251 -0.000983 -0.011112 0.000274 0.002548 -0.008155
# 2 -0.000983 0.012781 -0.008047 0.002208 -0.003042 -0.003973
# 3 -0.011112 -0.008047 0.030218 -0.005853 0.008682 0.009974
# 4 0.000274 0.002208 -0.005853 0.033379 -0.010211 0.003164
# 5 0.002548 -0.003042 0.008682 -0.010211 0.035602 0.003294
# 6 -0.008155 -0.003973 0.009974 0.003164 0.003294 0.038665
#
#
# Mechanical properties :
#
#
# Convention : Reuss Voigt Hill
#
# Bulk Modulus (GPa) = 47.69472 54.81186 51.25329
# Shear Modulus (GPa) = 23.13014 29.93250 26.53132
#
# Velocity S-wave (km/s) = 3.29599 3.74946 3.53001
# Velocity P-wave (km/s) = 6.07335 6.66994 6.37862
#
# Compressibility (1/GPa) = 0.02096668
#
# Stress axis : x y z
#
# Youngs Moduli (GPa) = 54.79058 78.24319 33.09331
#
# Poissons Ratio (x) = 0.07690 0.36772
# Poissons Ratio (y) = 0.05385 0.26630
# Poissons Ratio (z) = 0.60882 0.62961
#
# Static dielectric constant tensor:
#      x y z
#    x 4.011190 0.434400 -0.382680 
#    y 0.434400 4.626470 -0.660290 
#    z -0.382680 -0.660290 4.048820 
# 
# 
# High freq. dielectric constant tensor:
#      x y z
#    x 1.836270 0.015360 -0.016660 
#    y 0.015360 1.839690 -0.007750 
#    z -0.016660 -0.007750 1.837350 
# 
# From -- ./inp_files/178468.got.cif
#   From: 2010.06.25/outbox.cif.g09.slc.cpg/sg2_90_cif.got.tgz:178468.got - 2010.06.27 13:26:56.
