data_PCOD8017726
_publ_section_title
;
Structure prediction by ZEFSAII (Michael W. Deem and Ramdas Pophale) SiO2 
 PCOD8017726
Probable space group: P -1
;
_chemical_formula_sum "Si O2"
_cell_formula_units_Z 16
_cell_length_a 13.807536
_cell_length_b 7.053080
_cell_length_c 10.383080
_cell_angle_alpha 91.457883
_cell_angle_beta 46.704642
_cell_angle_gamma 90.103633
_cell_volume 735.544921
_symmetry_space_group_name_H-M "P -1"
_symmetry_group_IT_number 2
_symmetry_cell_setting 'triclinic'
loop_
_space_group_symop_operation_xyz
x,y,z
-x,-y,-z
loop_
_atom_site_type_symbol
_atom_site_label
_atom_site_fract_x
_atom_site_fract_y
_atom_site_fract_z
Si Si1 0.623979 0.000979 0.732661
Si Si2 0.653732 0.992197 0.405946
Si Si3 0.870134 0.284498 0.224716
Si Si4 0.840984 0.662781 0.132815
Si Si5 0.557758 0.699517 0.982413
Si Si6 0.205290 0.488594 0.099550
Si Si7 0.157109 0.874160 0.269016
Si Si8 0.998200 0.222321 0.358061
O O1 0.749256 0.034374 0.709422
O O2 0.659419 0.959799 0.552955
O O3 0.556828 0.815297 0.851229
O O4 0.526598 0.184798 0.831602
O O5 0.727712 0.816142 0.268765
O O6 0.500000 0.000000 0.500000
O O7 0.740862 0.174587 0.286453
O O8 0.848409 0.511798 0.240245
O O9 0.877058 0.215119 0.366199
O O10 0.014313 0.241185 0.021937
O O11 0.788144 0.538796 0.059435
O O12 0.699626 0.659871 0.915658
O O13 0.500000 0.500000 0.000000
O O14 0.228875 0.710153 0.115060
O O15 0.061455 0.425161 0.277041
O O16 0.041873 0.778464 0.456301
O O17 0.096538 0.039754 0.235886
#
# Coordination Sequence:
#
# PCOD8017726 Si02
#       8
#     2   2   2   2   2   2   2   2
#     4  11  24  42  65  99 126 171 220 260 335 395
#     4  12  26  45  70  98 137 177 224 281 328 396
#     4  10  23  46  69  97 134 181 226 276 330 390
#     4  10  25  44  67  99 134 180 230 268 327 403
#     4  11  23  41  65  93 133 169 211 266 330 397
#     4  11  22  39  63  95 127 171 212 262 327 386
#     4  11  21  39  64  97 128 161 211 271 326 390
#     4  10  22  39  64  97 129 161 214 273 326 386
#
# _framework density 21.752580999999999
#
# number of rings (size 3 to 8) (size 9 to 14) (size 15 to 20)
#    0.000    1.250    3.750    1.500    0.000    8.500 
#    0.000    0.000    0.000    0.000    0.000    0.000 
#    0.000    0.000    0.000    0.000    0.000    0.000 
#
# Total GULP energy -198300.208550 kJ/mol
# GULP energy per Si atom -12393.763034 kJ/mol
# Density = 2.170307 g / cm^3
# Si number density = 21.752581 Si / 1000 Ang^3
#
#
#
# Elastic Constant Matrix: (Units=GPa)
#
#
# Indices 1 2 3 4 5 6 
#
# 1 113.9873 43.1208 29.2606 -2.5267 -9.3280 3.4841
# 2 43.1208 107.7670 33.7021 -0.4330 -0.5113 -1.4086
# 3 29.2606 33.7021 77.7300 2.8285 -1.8285 7.2823
# 4 -2.5267 -0.4330 2.8285 31.0045 -5.7289 -2.6231
# 5 -9.3280 -0.5113 -1.8285 -5.7289 35.4183 3.0824
# 6 3.4841 -1.4086 7.2823 -2.6231 3.0824 31.3055
#
#
#
# Elastic Compliance Matrix: (Units=1/GPa)
#
#
# Indices 1 2 3 4 5 6 
#
# 1 0.011114 -0.003661 -0.002488 0.001568 0.003086 -0.000996
# 2 -0.003661 0.012037 -0.004065 0.000200 -0.001144 0.002024
# 3 -0.002488 -0.004065 0.015997 -0.002019 0.000117 -0.003808
# 4 0.001568 0.000200 -0.002019 0.033814 0.005555 0.002591
# 5 0.003086 -0.001144 0.000117 0.005555 0.030190 -0.002929
# 6 -0.000996 0.002024 -0.003808 0.002591 -0.002929 0.033536
#
#
# Mechanical properties :
#
#
# Convention : Reuss Voigt Hill
#
# Bulk Modulus (GPa) = 53.41522 56.85014 55.13268
# Shear Modulus (GPa) = 30.60805 32.43905 31.52355
#
# Velocity S-wave (km/s) = 3.75520 3.86589 3.81095
# Velocity P-wave (km/s) = 6.58872 6.79106 6.69065
#
# Compressibility (1/GPa) = 0.01872126
#
# Stress axis : x y z
#
# Youngs Moduli (GPa) = 89.97490 83.07541 62.51246
#
# Poissons Ratio (x) = 0.30416 0.15550
# Poissons Ratio (y) = 0.32942 0.25409
# Poissons Ratio (z) = 0.22382 0.33768
#
# Static dielectric constant tensor:
#      x y z
#    x 3.970100 0.017990 0.010150 
#    y 0.017990 3.834550 -0.147810 
#    z 0.010150 -0.147810 3.946410 
# 
# 
# High freq. dielectric constant tensor:
#      x y z
#    x 1.859270 -0.005570 -0.006590 
#    y -0.005570 1.860530 -0.010000 
#    z -0.006590 -0.010000 1.843270 
# 
# From -- ./inp_files/441158.got.cif
#   From: 2010.06.25/outbox.cif.g09.slc.cpg/sg2_221_cif.got.tgz:441158.got - 2010.06.27 13:26:56.
