data_PCOD8017302
_publ_section_title
;
Structure prediction by ZEFSAII (Michael W. Deem and Ramdas Pophale) SiO2 
 PCOD8017302
Probable space group: P -1
;
_chemical_formula_sum "Si O2"
_cell_formula_units_Z 14
_cell_length_a 6.591511
_cell_length_b 11.069425
_cell_length_c 16.130996
_cell_angle_alpha 30.397055
_cell_angle_beta 93.032092
_cell_angle_gamma 92.727776
_cell_volume 594.704155
_symmetry_space_group_name_H-M "P -1"
_symmetry_group_IT_number 2
_symmetry_cell_setting 'triclinic'
loop_
_space_group_symop_operation_xyz
x,y,z
-x,-y,-z
loop_
_atom_site_type_symbol
_atom_site_label
_atom_site_fract_x
_atom_site_fract_y
_atom_site_fract_z
Si Si1 0.363923 0.949327 0.627080
Si Si2 0.820238 0.386278 0.615017
Si Si3 0.554663 0.350189 0.485465
Si Si4 0.022242 0.779174 0.833074
Si Si5 0.835243 0.771057 0.174847
Si Si6 0.070073 0.767179 0.025472
Si Si7 0.253178 0.247534 0.303777
O O1 0.535021 0.145794 0.538427
O O2 0.212089 0.066336 0.486994
O O3 0.244349 0.851473 0.761506
O O4 0.502902 0.739018 0.715490
O O5 0.673849 0.244876 0.630705
O O6 0.677843 0.586168 0.535120
O O7 0.000000 0.500000 0.500000
O O8 0.932652 0.239503 0.776087
O O9 0.673018 0.581217 0.315844
O O10 0.855687 0.868975 0.710549
O O11 0.999154 0.874104 0.870708
O O12 0.000000 0.500000 0.000000
O O13 0.869561 0.736800 0.097249
O O14 0.772800 0.040382 0.042636
O O15 0.178757 0.512840 0.167368
#
# Coordination Sequence:
#
# PCOD8017302 Si02
#       7
#     2   2   2   2   2   2   2
#     4  11  24  41  72 100 130 171 227 282 337 391
#     4   9  20  37  62  94 134 168 216 267 329 391
#     4  10  22  38  66 103 130 168 226 277 329 397
#     4  10  24  43  67  95 132 178 220 274 337 399
#     4  10  22  43  65  97 136 183 218 271 334 399
#     4  10  23  43  68  94 140 179 224 268 334 406
#     4  10  24  46  67  99 129 177 225 281 331 395
#
# _framework density 23.541118000000001
#
# number of rings (size 3 to 8) (size 9 to 14) (size 15 to 20)
#    0.000    2.000    0.000    1.286    8.000    9.143 
#    0.000   10.714    0.000    0.000    0.000    0.000 
#    0.000    0.000    0.000    0.000    0.000    0.000 
#
# Total GULP energy -173438.788711 kJ/mol
# GULP energy per Si atom -12388.484908 kJ/mol
# Density = 2.348754 g / cm^3
# Si number density = 23.541118 Si / 1000 Ang^3
#
#
#
# Elastic Constant Matrix: (Units=GPa)
#
#
# Indices 1 2 3 4 5 6 
#
# 1 113.3793 46.5348 47.3898 1.7406 -7.9027 -14.8335
# 2 46.5348 140.4258 48.2811 17.5802 -5.0266 -16.4016
# 3 47.3898 48.2811 77.4005 4.3625 -14.5479 -16.6452
# 4 1.7406 17.5802 4.3625 38.8059 -2.6374 -9.6592
# 5 -7.9027 -5.0266 -14.5479 -2.6374 40.1194 2.0654
# 6 -14.8335 -16.4016 -16.6452 -9.6592 2.0654 27.3557
#
#
#
# Elastic Compliance Matrix: (Units=1/GPa)
#
#
# Indices 1 2 3 4 5 6 
#
# 1 0.012411 -0.001994 -0.005899 0.001640 0.000034 0.002521
# 2 -0.001994 0.009964 -0.004856 -0.003788 -0.001190 0.000690
# 3 -0.005899 -0.004856 0.022240 0.002312 0.006046 0.007782
# 4 0.001640 -0.003788 0.002312 0.029889 0.002115 0.010419
# 5 0.000034 -0.001190 0.006046 0.002115 0.027027 0.001690
# 6 0.002521 0.000690 0.007782 0.010419 0.001690 0.046623
#
#
# Mechanical properties :
#
#
# Convention : Reuss Voigt Hill
#
# Bulk Modulus (GPa) = 52.30920 68.40191 60.35556
# Shear Modulus (GPa) = 27.77390 33.85618 30.81504
#
# Velocity S-wave (km/s) = 3.43855 3.79644 3.62192
# Velocity P-wave (km/s) = 6.16713 6.95246 6.57154
#
# Compressibility (1/GPa) = 0.01911710
#
# Stress axis : x y z
#
# Youngs Moduli (GPa) = 80.57324 100.36267 44.96393
#
# Poissons Ratio (x) = 0.20016 0.26523
# Poissons Ratio (y) = 0.16069 0.21834
# Poissons Ratio (z) = 0.47528 0.48735
#
# Static dielectric constant tensor:
#      x y z
#    x 4.158220 0.135210 0.313390 
#    y 0.135210 4.909200 0.535440 
#    z 0.313390 0.535440 4.397230 
# 
# 
# High freq. dielectric constant tensor:
#      x y z
#    x 1.916900 -0.011020 0.003080 
#    y -0.011020 1.949930 0.014200 
#    z 0.003080 0.014200 1.927760 
# 
# From -- ./inp_files/549377.got.cif
#   From: 2010.06.25/outbox.cif.g09.slc.cpg/sg2_275_cif.got.tgz:549377.got - 2010.06.27 13:26:56.
