data_PCOD8017009
_publ_section_title
;
Structure prediction by ZEFSAII (Michael W. Deem and Ramdas Pophale) SiO2 
 PCOD8017009
Probable space group: P -1
;
_chemical_formula_sum "Si O2"
_cell_formula_units_Z 16
_cell_length_a 19.532060
_cell_length_b 21.115238
_cell_length_c 9.708476
_cell_angle_alpha 144.667164
_cell_angle_beta 146.295051
_cell_angle_gamma 19.497919
_cell_volume 730.728098
_symmetry_space_group_name_H-M "P -1"
_symmetry_group_IT_number 2
_symmetry_cell_setting 'triclinic'
loop_
_space_group_symop_operation_xyz
x,y,z
-x,-y,-z
loop_
_atom_site_type_symbol
_atom_site_label
_atom_site_fract_x
_atom_site_fract_y
_atom_site_fract_z
Si Si1 0.769224 0.308953 0.715893
Si Si2 0.076390 0.217213 0.908214
Si Si3 0.974010 0.054479 0.856089
Si Si4 0.688047 0.950604 0.724278
Si Si5 0.118638 0.524251 0.206829
Si Si6 0.385835 0.741334 0.835148
Si Si7 0.130618 0.132019 0.410570
Si Si8 0.622955 0.123810 0.390863
O O1 0.928996 0.174649 0.871778
O O2 0.607254 0.524112 0.872490
O O3 0.655151 0.278468 0.422789
O O4 0.910241 0.239212 0.694644
O O5 0.946920 0.401216 0.928080
O O6 0.289139 0.020059 0.835623
O O7 0.147203 0.208954 0.162744
O O8 0.769646 0.125118 0.650949
O O9 0.203538 0.834301 0.804703
O O10 0.012094 0.099656 0.137062
O O11 0.804477 0.859528 0.609080
O O12 0.500000 0.000000 0.500000
O O13 0.594238 0.141752 0.933173
O O14 0.376227 0.328868 0.307572
O O15 0.042944 0.671169 0.447375
O O16 0.000000 0.500000 0.000000
O O17 0.348894 0.957514 0.558628
#
# Coordination Sequence:
#
# PCOD8017009 Si02
#       8
#     2   2   2   2   2   2   2   2
#     4  11  21  37  68 106 138 170 222 283 342 396
#     4  11  24  44  70 102 128 176 232 276 334 402
#     4  11  21  41  65 102 139 170 221 284 343 400
#     4  11  25  45  72  99 138 180 224 282 344 397
#     4  11  29  47  67  94 135 184 232 272 328 412
#     4  10  22  37  64 101 142 173 214 282 339 401
#     4  10  25  46  65 100 137 173 226 278 338 402
#     4  11  25  43  73  93 135 186 220 273 342 404
#
# _framework density 21.895969999999998
#
# number of rings (size 3 to 8) (size 9 to 14) (size 15 to 20)
#    0.000    1.250    3.750    1.500    8.750    3.500 
#    0.000    1.250    0.000    0.000    0.000    0.000 
#    0.000    0.000    0.000    0.000    0.000    0.000 
#
# Total GULP energy -198346.191874 kJ/mol
# GULP energy per Si atom -12396.636992 kJ/mol
# Density = 2.184613 g / cm^3
# Si number density = 21.895970 Si / 1000 Ang^3
#
#
#
# Elastic Constant Matrix: (Units=GPa)
#
#
# Indices 1 2 3 4 5 6 
#
# 1 115.1076 55.3766 43.4903 -18.8367 -16.0215 5.1101
# 2 55.3766 134.3370 55.1356 -4.2666 -14.5046 -0.2210
# 3 43.4903 55.1356 86.9866 -9.6010 1.2512 -1.7363
# 4 -18.8367 -4.2666 -9.6010 27.1211 -0.8537 2.3395
# 5 -16.0215 -14.5046 1.2512 -0.8537 43.1539 -9.6882
# 6 5.1101 -0.2210 -1.7363 2.3395 -9.6882 29.4947
#
#
#
# Elastic Compliance Matrix: (Units=1/GPa)
#
#
# Indices 1 2 3 4 5 6 
#
# 1 0.013705 -0.003381 -0.003933 0.007887 0.003768 -0.002019
# 2 -0.003381 0.011517 -0.005917 -0.002668 0.003082 0.001548
# 3 -0.003933 -0.005917 0.017538 0.002407 -0.003863 0.000210
# 4 0.007887 -0.002668 0.002407 0.043191 0.001908 -0.004044
# 5 0.003768 0.003082 -0.003863 0.001908 0.027564 0.008045
# 6 -0.002019 0.001548 0.000210 -0.004044 0.008045 0.037242
#
#
# Mechanical properties :
#
#
# Convention : Reuss Voigt Hill
#
# Bulk Modulus (GPa) = 61.35912 71.60403 66.48157
# Shear Modulus (GPa) = 27.37450 32.11586 29.74518
#
# Velocity S-wave (km/s) = 3.53966 3.83397 3.68975
# Velocity P-wave (km/s) = 6.69249 7.23685 6.96999
#
# Compressibility (1/GPa) = 0.01629750
#
# Stress axis : x y z
#
# Youngs Moduli (GPa) = 72.96622 86.82814 57.01812
#
# Poissons Ratio (x) = 0.29359 0.22424
# Poissons Ratio (y) = 0.24672 0.33739
# Poissons Ratio (z) = 0.28696 0.51379
#
# Static dielectric constant tensor:
#      x y z
#    x 4.125520 0.177780 -0.094660 
#    y 0.177780 3.979900 -0.087090 
#    z -0.094660 -0.087090 3.962170 
# 
# 
# High freq. dielectric constant tensor:
#      x y z
#    x 1.866090 0.003910 -0.007790 
#    y 0.003910 1.858610 -0.008930 
#    z -0.007790 -0.008930 1.860710 
# 
# From -- ./inp_files/338206.got.cif
#   From: 2010.06.25/outbox.cif.g09.slc.cpg/sg2_170_cif.got.tgz:338206.got - 2010.06.27 13:26:56.
