data_PCOD8017684
_publ_section_title
;
Structure prediction by ZEFSAII (Michael W. Deem and Ramdas Pophale) SiO2 
 PCOD8017684
Probable space group: P -1
;
_chemical_formula_sum "Si O2"
_cell_formula_units_Z 16
_cell_length_a 13.437317
_cell_length_b 8.353049
_cell_length_c 11.220529
_cell_angle_alpha 93.838101
_cell_angle_beta 45.853040
_cell_angle_gamma 117.097499
_cell_volume 740.163512
_symmetry_space_group_name_H-M "P -1"
_symmetry_group_IT_number 2
_symmetry_cell_setting 'triclinic'
loop_
_space_group_symop_operation_xyz
x,y,z
-x,-y,-z
loop_
_atom_site_type_symbol
_atom_site_label
_atom_site_fract_x
_atom_site_fract_y
_atom_site_fract_z
Si Si1 0.351748 0.818267 0.041733
Si Si2 0.899269 0.896906 0.262691
Si Si3 0.065353 0.845991 0.352020
Si Si4 0.232393 0.270574 0.262491
Si Si5 0.259939 0.716885 0.853567
Si Si6 0.414613 0.507404 0.923260
Si Si7 0.486000 0.354329 0.408969
Si Si8 0.985161 0.736977 0.966035
O O1 0.169024 0.752088 0.240841
O O2 0.348371 0.852472 0.903883
O O3 0.380946 0.650932 0.027956
O O4 0.500000 0.000000 0.000000
O O5 0.709427 0.812350 0.461837
O O6 0.996992 0.878824 0.288466
O O7 0.986699 0.121337 0.159733
O O8 0.891102 0.765903 0.153971
O O9 0.915206 0.710144 0.564100
O O10 0.187619 0.057920 0.322648
O O11 0.402112 0.439916 0.194283
O O12 0.265228 0.298332 0.092686
O O13 0.410082 0.738488 0.647360
O O14 0.169170 0.796974 0.859449
O O15 0.124224 0.489041 0.995428
O O16 0.407110 0.512755 0.788237
O O17 0.500000 0.500000 0.500000
#
# Coordination Sequence:
#
# PCOD8017684 Si02
#       8
#     2   2   2   2   2   2   2   2
#     4  11  22  39  62  90 130 169 206 261 320 371
#     4  11  22  38  63  95 122 165 210 261 317 380
#     4  11  22  39  63  91 125 162 209 264 314 370
#     4  10  22  39  64  90 120 161 212 259 308 375
#     4  10  22  40  64  91 129 170 204 264 315 378
#     4  10  22  40  62  90 123 165 209 255 314 373
#     4  11  22  39  64  91 128 165 207 257 317 376
#     4  10  22  40  64  95 125 162 215 258 319 375
#
# _framework density 21.616844
#
# number of rings (size 3 to 8) (size 9 to 14) (size 15 to 20)
#    0.000    1.500    5.000    0.000    3.500    1.000 
#    0.000    0.000    5.500    0.000    0.000    0.000 
#    0.000    0.000    0.000    0.000    0.000    0.000 
#
# Total GULP energy -198287.638758 kJ/mol
# GULP energy per Si atom -12392.977422 kJ/mol
# Density = 2.156764 g / cm^3
# Si number density = 21.616844 Si / 1000 Ang^3
#
#
#
# Elastic Constant Matrix: (Units=GPa)
#
#
# Indices 1 2 3 4 5 6 
#
# 1 95.6357 20.1780 44.3678 -0.1451 -14.4844 8.2479
# 2 20.1780 63.1281 29.8644 13.5718 -1.1595 8.8749
# 3 44.3678 29.8644 157.1217 13.6431 -14.5845 -7.9773
# 4 -0.1451 13.5718 13.6431 33.9793 -8.6755 0.0690
# 5 -14.4844 -1.1595 -14.5845 -8.6755 42.7988 5.8658
# 6 8.2479 8.8749 -7.9773 0.0690 5.8658 30.6115
#
#
#
# Elastic Compliance Matrix: (Units=1/GPa)
#
#
# Indices 1 2 3 4 5 6 
#
# 1 0.013822 -0.002836 -0.003489 0.003838 0.004841 -0.004747
# 2 -0.002836 0.020488 -0.002918 -0.007569 -0.002179 -0.005501
# 3 -0.003489 -0.002918 0.008336 -0.002041 0.000641 0.003840
# 4 0.003838 -0.007569 -0.002041 0.035249 0.007670 -0.000921
# 5 0.004841 -0.002179 0.000641 0.007670 0.027512 -0.005794
# 6 -0.004747 -0.005501 0.003840 -0.000921 -0.005794 0.037655
#
#
# Mechanical properties :
#
#
# Convention : Reuss Voigt Hill
#
# Bulk Modulus (GPa) = 41.39026 56.07842 48.73434
# Shear Modulus (GPa) = 29.48112 36.24295 32.86204
#
# Velocity S-wave (km/s) = 3.69698 4.09908 3.90321
# Velocity P-wave (km/s) = 6.11656 6.95713 6.55034
#
# Compressibility (1/GPa) = 0.02416027
#
# Stress axis : x y z
#
# Youngs Moduli (GPa) = 72.35005 48.80809 119.96331
#
# Poissons Ratio (x) = 0.13843 0.41853
# Poissons Ratio (y) = 0.20521 0.35002
# Poissons Ratio (z) = 0.25242 0.14241
#
# Static dielectric constant tensor:
#      x y z
#    x 4.110280 -0.108930 -0.282830 
#    y -0.108930 3.724930 0.100360 
#    z -0.282830 0.100360 4.264600 
# 
# 
# High freq. dielectric constant tensor:
#      x y z
#    x 1.855300 0.009620 -0.021760 
#    y 0.009620 1.826120 0.010520 
#    z -0.021760 0.010520 1.855870 
# 
# From -- ./inp_files/335482.got.cif
#   From: 2010.06.25/outbox.cif.g09.slc.cpg/sg2_168_cif.got.tgz:335482.got - 2010.06.27 13:26:56.
