data_PCOD8017099
_publ_section_title
;
Structure prediction by ZEFSAII (Michael W. Deem and Ramdas Pophale) SiO2 
 PCOD8017099
Probable space group: P -1
;
_chemical_formula_sum "Si O2"
_cell_formula_units_Z 14
_cell_length_a 14.983108
_cell_length_b 16.591244
_cell_length_c 7.788047
_cell_angle_alpha 107.432020
_cell_angle_beta 94.247826
_cell_angle_gamma 25.535748
_cell_volume 699.752140
_symmetry_space_group_name_H-M "P -1"
_symmetry_group_IT_number 2
_symmetry_cell_setting 'triclinic'
loop_
_space_group_symop_operation_xyz
x,y,z
-x,-y,-z
loop_
_atom_site_type_symbol
_atom_site_label
_atom_site_fract_x
_atom_site_fract_y
_atom_site_fract_z
Si Si1 0.844250 0.261827 0.696326
Si Si2 0.851401 0.753682 0.590188
Si Si3 0.818136 0.884262 0.340635
Si Si4 0.682705 0.008699 0.037226
Si Si5 0.657341 0.746839 0.599925
Si Si6 0.656191 0.223034 0.073765
Si Si7 0.044564 0.944425 0.729827
O O1 0.604982 0.522542 0.862492
O O2 0.817293 0.218953 0.510823
O O3 0.059134 0.136392 0.600720
O O4 0.912975 0.147740 0.799748
O O5 0.904788 0.737413 0.393246
O O6 0.666934 0.837782 0.613810
O O7 0.091520 0.514244 0.560272
O O8 0.756263 0.911225 0.799360
O O9 0.867595 0.824076 0.103401
O O10 0.530906 0.136410 0.477917
O O11 0.432079 0.186233 0.172165
O O12 0.646898 0.140616 0.110512
O O13 0.752109 0.212959 0.205274
O O14 0.842229 0.056687 0.837754
#
# Coordination Sequence:
#
# PCOD8017099 Si02
#       7
#     2   2   2   2   2   2   2
#     4  11  21  39  59  81 118 150 186 241 291 332
#     4  11  20  42  62  82 123 156 187 246 293 331
#     4  10  22  39  58  89 119 149 197 241 281 354
#     4  10  22  39  58  89 118 152 195 238 290 347
#     4   9  22  40  60  90 115 152 202 234 285 358
#     4  11  21  39  58  83 116 148 191 240 282 344
#     4  10  22  38  59  86 108 152 195 231 289 344
#
# _framework density 20.007083999999999
#
# number of rings (size 3 to 8) (size 9 to 14) (size 15 to 20)
#    0.857    0.857    1.429    3.429    0.000    0.000 
#    7.714    2.857    0.000    0.000    0.000    0.000 
#    0.000    0.000    0.000    0.000    0.000    0.000 
#
# Total GULP energy -173458.934287 kJ/mol
# GULP energy per Si atom -12389.923878 kJ/mol
# Density = 1.996155 g / cm^3
# Si number density = 20.007084 Si / 1000 Ang^3
#
#
#
# Elastic Constant Matrix: (Units=GPa)
#
#
# Indices 1 2 3 4 5 6 
#
# 1 108.3045 33.4459 12.3882 2.6917 -20.2612 5.6103
# 2 33.4459 73.6756 14.2513 -3.9979 -3.9353 3.1314
# 3 12.3882 14.2513 45.3757 -0.9709 1.5081 4.0993
# 4 2.6917 -3.9979 -0.9709 23.2516 8.4078 -10.5183
# 5 -20.2612 -3.9353 1.5081 8.4078 21.3578 -5.2990
# 6 5.6103 3.1314 4.0993 -10.5183 -5.2990 35.8475
#
#
#
# Elastic Compliance Matrix: (Units=1/GPa)
#
#
# Indices 1 2 3 4 5 6 
#
# 1 0.014724 -0.005704 -0.002811 -0.009588 0.016426 -0.001870
# 2 -0.005704 0.016895 -0.003578 0.005170 -0.003890 0.000768
# 3 -0.002811 -0.003578 0.024403 0.001959 -0.006418 -0.002412
# 4 -0.009588 0.005170 0.001959 0.062323 -0.029143 0.014804
# 5 0.016426 -0.003890 -0.006418 -0.029143 0.073828 0.000865
# 6 -0.001870 0.000768 -0.002412 0.014804 0.000865 0.032869
#
#
# Mechanical properties :
#
#
# Convention : Reuss Voigt Hill
#
# Bulk Modulus (GPa) = 31.41141 38.61408 35.01274
# Shear Modulus (GPa) = 19.24264 27.24275 23.24269
#
# Velocity S-wave (km/s) = 3.10464 3.69406 3.41210
# Velocity P-wave (km/s) = 5.34658 6.12674 5.74991
#
# Compressibility (1/GPa) = 0.03183557
#
# Stress axis : x y z
#
# Youngs Moduli (GPa) = 67.91471 59.19015 40.97931
#
# Poissons Ratio (x) = 0.33762 0.11518
# Poissons Ratio (y) = 0.38739 0.14664
# Poissons Ratio (z) = 0.19088 0.21180
#
# Static dielectric constant tensor:
#      x y z
#    x 3.677810 0.026980 -0.249750 
#    y 0.026980 3.562360 -0.138100 
#    z -0.249750 -0.138100 3.280670 
# 
# 
# High freq. dielectric constant tensor:
#      x y z
#    x 1.792670 0.002910 -0.020830 
#    y 0.002910 1.777750 -0.012010 
#    z -0.020830 -0.012010 1.753500 
# 
# From -- ./inp_files/313080.got.cif
#   From: 2010.06.25/outbox.cif.g09.slc.cpg/sg2_157_cif.got.tgz:313080.got - 2010.06.27 13:26:56.
