data_PCOD8017409
_publ_section_title
;
Structure prediction by ZEFSAII (Michael W. Deem and Ramdas Pophale) SiO2 
 PCOD8017409
Probable space group: P -1
;
_chemical_formula_sum "Si O2"
_cell_formula_units_Z 14
_cell_length_a 11.203875
_cell_length_b 17.164751
_cell_length_c 12.010188
_cell_angle_alpha 34.309516
_cell_angle_beta 45.364254
_cell_angle_gamma 32.822839
_cell_volume 705.411464
_symmetry_space_group_name_H-M "P -1"
_symmetry_group_IT_number 2
_symmetry_cell_setting 'triclinic'
loop_
_space_group_symop_operation_xyz
x,y,z
-x,-y,-z
loop_
_atom_site_type_symbol
_atom_site_label
_atom_site_fract_x
_atom_site_fract_y
_atom_site_fract_z
Si Si1 0.277748 0.945653 0.726945
Si Si2 0.453353 0.452209 0.971527
Si Si3 0.595228 0.834173 0.214009
Si Si4 0.058092 0.478382 0.265198
Si Si5 0.395194 0.131145 0.578310
Si Si6 0.447592 0.607990 0.568893
Si Si7 0.142121 0.685776 0.491673
O O1 0.399751 0.913663 0.568762
O O2 0.356994 0.998164 0.714711
O O3 0.337109 0.757802 0.944731
O O4 0.018805 0.103995 0.688212
O O5 0.432749 0.581017 0.740348
O O6 0.500000 0.500000 0.000000
O O7 0.227233 0.485761 0.079932
O O8 0.552246 0.906970 0.281408
O O9 0.464976 0.762749 0.359973
O O10 0.855143 0.676628 0.208415
O O11 0.500000 0.000000 0.000000
O O12 0.180180 0.342260 0.451010
O O13 0.982180 0.395944 0.328934
O O14 0.229613 0.669645 0.577210
O O15 0.659792 0.418889 0.602379
#
# Coordination Sequence:
#
# PCOD8017409 Si02
#       7
#     2   2   2   2   2   2   2
#     4   9  19  35  60  85 109 147 191 236 279 335
#     4  11  23  38  59  88 118 149 190 237 289 341
#     4  11  23  38  59  85 116 155 194 233 284 344
#     4   9  20  39  60  84 116 156 189 230 289 341
#     4   9  18  36  59  85 112 144 193 237 277 334
#     4  10  22  39  57  84 122 152 186 242 286 332
#     4   9  20  39  60  84 117 154 192 231 284 338
#
# _framework density 19.846571000000001
#
# number of rings (size 3 to 8) (size 9 to 14) (size 15 to 20)
#    0.000    2.286    0.000    3.000    0.000    9.143 
#    0.000    2.143    0.000    0.000    0.000    0.000 
#    0.000    0.000    0.000    0.000    0.000    0.000 
#
# Total GULP energy -173624.647048 kJ/mol
# GULP energy per Si atom -12401.760503 kJ/mol
# Density = 1.980140 g / cm^3
# Si number density = 19.846571 Si / 1000 Ang^3
#
#
#
# Elastic Constant Matrix: (Units=GPa)
#
#
# Indices 1 2 3 4 5 6 
#
# 1 128.5436 45.0998 54.5620 6.1424 13.1433 1.9593
# 2 45.0998 76.1811 27.3680 -10.2757 0.8514 5.5649
# 3 54.5620 27.3680 112.9232 -3.9278 8.0862 6.4624
# 4 6.1424 -10.2757 -3.9278 24.5878 3.5161 -2.8403
# 5 13.1433 0.8514 8.0862 3.5161 30.9138 9.1716
# 6 1.9593 5.5649 6.4624 -2.8403 9.1716 30.0132
#
#
#
# Elastic Compliance Matrix: (Units=1/GPa)
#
#
# Indices 1 2 3 4 5 6 
#
# 1 0.012773 -0.006836 -0.004555 -0.005967 -0.003985 0.002068
# 2 -0.006836 0.018886 -0.000987 0.008770 0.002468 -0.002767
# 3 -0.004555 -0.000987 0.011533 0.002524 -0.000898 -0.001490
# 4 -0.005967 0.008770 0.002524 0.047438 -0.005019 0.004243
# 5 -0.003985 0.002468 -0.000898 -0.005019 0.038404 -0.012215
# 6 0.002068 -0.002767 -0.001490 0.004243 -0.012215 0.038152
#
#
# Mechanical properties :
#
#
# Convention : Reuss Voigt Hill
#
# Bulk Modulus (GPa) = 54.24703 63.52306 58.88505
# Shear Modulus (GPa) = 25.24134 29.81081 27.52607
#
# Velocity S-wave (km/s) = 3.57013 3.87985 3.72821
# Velocity P-wave (km/s) = 6.66236 7.22133 6.94747
#
# Compressibility (1/GPa) = 0.01843419
#
# Stress axis : x y z
#
# Youngs Moduli (GPa) = 78.29257 52.94905 86.70679
#
# Poissons Ratio (x) = 0.36198 0.39495
# Poissons Ratio (y) = 0.53524 0.08561
# Poissons Ratio (z) = 0.35663 0.05228
#
# Static dielectric constant tensor:
#      x y z
#    x 3.662560 -0.077190 -0.101070 
#    y -0.077190 3.708200 -0.158220 
#    z -0.101070 -0.158220 3.429070 
# 
# 
# High freq. dielectric constant tensor:
#      x y z
#    x 1.778000 0.000450 -0.005260 
#    y 0.000450 1.777770 -0.010050 
#    z -0.005260 -0.010050 1.758630 
# 
# From -- ./inp_files/151711.got.cif
#   From: 2010.06.25/outbox.cif.g09.slc.cpg/sg2_76_cif.got.tgz:151711.got - 2010.06.27 13:26:56.
