data_PCOD8017676
_publ_section_title
;
Structure prediction by ZEFSAII (Michael W. Deem and Ramdas Pophale) SiO2 
 PCOD8017676
Probable space group: P -1
;
_chemical_formula_sum "Si O2"
_cell_formula_units_Z 14
_cell_length_a 23.271457
_cell_length_b 16.132750
_cell_length_c 9.357935
_cell_angle_alpha 143.500254
_cell_angle_beta 25.739034
_cell_angle_gamma 152.555362
_cell_volume 703.016657
_symmetry_space_group_name_H-M "P -1"
_symmetry_group_IT_number 2
_symmetry_cell_setting 'triclinic'
loop_
_space_group_symop_operation_xyz
x,y,z
-x,-y,-z
loop_
_atom_site_type_symbol
_atom_site_label
_atom_site_fract_x
_atom_site_fract_y
_atom_site_fract_z
Si Si1 0.564182 0.155087 0.461139
Si Si2 0.189878 0.500607 0.463111
Si Si3 0.511639 0.648704 0.767517
Si Si4 0.541083 0.093498 0.887723
Si Si5 0.944662 0.751445 0.324864
Si Si6 0.073530 0.606976 0.631795
Si Si7 0.272252 0.159740 0.189157
O O1 0.749936 0.329429 0.337457
O O2 0.500000 0.000000 0.500000
O O3 0.581988 0.086587 0.179069
O O4 0.434886 0.199818 0.801719
O O5 0.087396 0.330946 0.560406
O O6 0.071686 0.477489 0.567777
O O7 0.354535 0.538995 0.077109
O O8 0.500000 0.500000 0.500000
O O9 0.683000 0.774725 0.654423
O O10 0.506670 0.775552 0.843743
O O11 0.738035 0.205414 0.557213
O O12 0.500000 0.000000 0.000000
O O13 0.780980 0.735562 0.628718
O O14 0.116572 0.950201 0.237968
O O15 0.961173 0.653316 0.020639
O O16 0.000000 0.500000 0.500000
#
# Coordination Sequence:
#
# PCOD8017676 Si02
#       7
#     2   2   2   2   2   2   2
#     4  11  18  42  66  85 118 158 214 254 292 363
#     4  10  23  39  67  90 114 168 210 250 304 367
#     4  10  23  42  63  89 128 160 206 262 307 362
#     4  11  24  39  65  93 119 163 210 254 309 362
#     4  11  23  40  62  92 125 159 206 249 313 377
#     4  11  24  40  59  90 128 158 197 258 310 365
#     4  10  22  39  64  86 123 164 199 254 311 358
#
# _framework density 19.914180000000002
#
# number of rings (size 3 to 8) (size 9 to 14) (size 15 to 20)
#    0.000    1.429    5.714    0.429    6.000    4.571 
#    0.000    0.714    0.000    0.000    0.000    0.000 
#    0.000    0.000    0.000    0.000    0.000    0.000 
#
# Total GULP energy -173531.933117 kJ/mol
# GULP energy per Si atom -12395.138080 kJ/mol
# Density = 1.986885 g / cm^3
# Si number density = 19.914180 Si / 1000 Ang^3
#
#
#
# Elastic Constant Matrix: (Units=GPa)
#
#
# Indices 1 2 3 4 5 6 
#
# 1 161.9635 56.4077 55.0724 18.8561 7.1206 -7.5224
# 2 56.4077 65.8325 31.7775 23.2214 6.7857 -1.2703
# 3 55.0724 31.7775 86.1787 29.5445 1.4786 -6.4954
# 4 18.8561 23.2214 29.5445 31.1903 5.2791 10.3939
# 5 7.1206 6.7857 1.4786 5.2791 36.3135 2.0900
# 6 -7.5224 -1.2703 -6.4954 10.3939 2.0900 47.1565
#
#
#
# Elastic Compliance Matrix: (Units=1/GPa)
#
#
# Indices 1 2 3 4 5 6 
#
# 1 0.010147 -0.007791 -0.005352 0.005040 -0.001026 -0.000394
# 2 -0.007791 0.027921 0.001272 -0.018323 -0.001295 0.003781
# 3 -0.005352 0.001272 0.022511 -0.021808 0.002664 0.006970
# 4 0.005040 -0.018323 -0.021808 0.070279 -0.005862 -0.017924
# 5 -0.001026 -0.001295 0.002664 -0.005862 0.028714 0.000188
# 6 -0.000394 0.003781 0.006970 -0.017924 0.000188 0.026147
#
#
# Mechanical properties :
#
#
# Convention : Reuss Voigt Hill
#
# Bulk Modulus (GPa) = 27.14587 66.72110 46.93349
# Shear Modulus (GPa) = 22.54880 34.31320 28.43100
#
# Velocity S-wave (km/s) = 3.36862 4.15547 3.78256
# Velocity P-wave (km/s) = 5.36574 7.52336 6.53422
#
# Compressibility (1/GPa) = 0.03683801
#
# Stress axis : x y z
#
# Youngs Moduli (GPa) = 98.54659 35.81480 44.42264
#
# Poissons Ratio (x) = 0.27904 0.23774
# Poissons Ratio (y) = 0.76778 -0.05650
# Poissons Ratio (z) = 0.52741 -0.04556
#
# Static dielectric constant tensor:
#      x y z
#    x 4.229270 -0.072470 0.047510 
#    y -0.072470 3.662330 -0.033750 
#    z 0.047510 -0.033750 3.759380 
# 
# 
# High freq. dielectric constant tensor:
#      x y z
#    x 1.788060 0.007760 -0.005550 
#    y 0.007760 1.776370 0.008590 
#    z -0.005550 0.008590 1.769960 
# 
# From -- ./inp_files/159548.got.cif
#   From: 2010.06.25/outbox.cif.g09.slc.cpg/sg2_80_cif.got.tgz:159548.got - 2010.06.27 13:26:56.
