data_PCOD8017109
_publ_section_title
;
Structure prediction by ZEFSAII (Michael W. Deem and Ramdas Pophale) SiO2 
 PCOD8017109
Probable space group: P -1
;
_chemical_formula_sum "Si O2"
_cell_formula_units_Z 12
_cell_length_a 9.145431
_cell_length_b 17.768715
_cell_length_c 18.261258
_cell_angle_alpha 156.753120
_cell_angle_beta 30.168922
_cell_angle_gamma 136.298896
_cell_volume 549.154388
_symmetry_space_group_name_H-M "P -1"
_symmetry_group_IT_number 2
_symmetry_cell_setting 'triclinic'
loop_
_space_group_symop_operation_xyz
x,y,z
-x,-y,-z
loop_
_atom_site_type_symbol
_atom_site_label
_atom_site_fract_x
_atom_site_fract_y
_atom_site_fract_z
Si Si1 0.109628 0.788861 0.941348
Si Si2 0.176592 0.345064 0.500530
Si Si3 0.248801 0.687284 0.234089
Si Si4 0.863113 0.864715 0.279481
Si Si5 0.263773 0.591791 0.974578
Si Si6 0.279661 0.785127 0.518690
O O1 0.089499 0.584213 0.731513
O O2 0.462060 0.781072 0.780933
O O3 0.985574 0.813735 0.099459
O O4 0.889802 0.989922 0.170793
O O5 0.088903 0.316806 0.597928
O O6 0.974648 0.248533 0.453883
O O7 0.282561 0.677624 0.123802
O O8 0.295005 0.894096 0.423851
O O9 0.500000 0.500000 0.000000
O O10 0.593236 0.771137 0.325804
O O11 0.169349 0.773290 0.118066
O O12 0.595949 0.404351 0.646705
O O13 0.000000 0.500000 0.000000
#
# Coordination Sequence:
#
# PCOD8017109 Si02
#       6
#     2   2   2   2   2   2
#     4  11  23  40  61  92 123 160 207 250 310 355
#     4  11  23  37  65  90 123 157 208 258 296 359
#     4  12  21  38  66  91 121 160 211 248 300 359
#     4  11  23  37  63  90 124 161 200 256 305 361
#     4  10  22  38  59  92 127 157 201 255 303 354
#     4  11  21  39  63  88 120 163 207 248 293 366
#
# _framework density 21.851776999999998
#
# number of rings (size 3 to 8) (size 9 to 14) (size 15 to 20)
#    0.000    1.000    3.333    4.500    0.000    0.000 
#    0.000    0.833    0.000    6.000    0.000    0.000 
#    0.000    0.000    0.000    0.000    0.000    0.000 
#
# Total GULP energy -148684.271766 kJ/mol
# GULP energy per Si atom -12390.355980 kJ/mol
# Density = 2.180204 g / cm^3
# Si number density = 21.851777 Si / 1000 Ang^3
#
#
#
# Elastic Constant Matrix: (Units=GPa)
#
#
# Indices 1 2 3 4 5 6 
#
# 1 55.6811 6.1310 26.5487 2.8160 -19.3874 -0.3770
# 2 6.1310 80.7060 29.5365 -3.8342 -6.5744 17.6802
# 3 26.5487 29.5365 145.4551 5.4032 -26.4073 -6.2055
# 4 2.8160 -3.8342 5.4032 31.6666 -4.0108 -7.1414
# 5 -19.3874 -6.5744 -26.4073 -4.0108 33.1115 7.0566
# 6 -0.3770 17.6802 -6.2055 -7.1414 7.0566 18.7070
#
#
#
# Elastic Compliance Matrix: (Units=1/GPa)
#
#
# Indices 1 2 3 4 5 6 
#
# 1 0.023773 0.001899 -0.002500 -0.001496 0.013811 -0.007926
# 2 0.001899 0.018982 -0.003954 -0.001387 0.006271 -0.022109
# 3 -0.002500 -0.003954 0.009061 -0.000145 0.003855 0.005183
# 4 -0.001496 -0.001387 -0.000145 0.034840 -0.000157 0.014592
# 5 0.013811 0.006271 0.003855 -0.000157 0.047338 -0.022286
# 6 -0.007926 -0.022109 0.005183 0.014592 -0.022286 0.089888
#
#
# Mechanical properties :
#
#
# Convention : Reuss Voigt Hill
#
# Bulk Modulus (GPa) = 23.41624 45.14161 34.27892
# Shear Modulus (GPa) = 20.22444 31.33876 25.78160
#
# Velocity S-wave (km/s) = 3.04555 3.79113 3.43861
# Velocity P-wave (km/s) = 4.80691 6.31399 5.61128
#
# Compressibility (1/GPa) = 0.04270540
#
# Stress axis : x y z
#
# Youngs Moduli (GPa) = 42.06447 52.68212 110.36743
#
# Poissons Ratio (x) = -0.10006 0.27592
# Poissons Ratio (y) = -0.07989 0.43643
# Poissons Ratio (z) = 0.10516 0.20832
#
# Static dielectric constant tensor:
#      x y z
#    x 6.464370 0.488210 -0.399820 
#    y 0.488210 4.390950 0.351700 
#    z -0.399820 0.351700 4.904690 
# 
# 
# High freq. dielectric constant tensor:
#      x y z
#    x 1.826240 0.021470 -0.015280 
#    y 0.021470 1.851900 0.021180 
#    z -0.015280 0.021180 1.886670 
# 
# From -- ./inp_files/312131.got.cif
#   From: 2010.06.25/outbox.cif.g09.slc.cpg/sg2_157_cif.got.tgz:312131.got - 2010.06.27 13:26:56.
