data_PCOD8017437
_publ_section_title
;
Structure prediction by ZEFSAII (Michael W. Deem and Ramdas Pophale) SiO2 
 PCOD8017437
Probable space group: P -1
;
_chemical_formula_sum "Si O2"
_cell_formula_units_Z 16
_cell_length_a 15.265541
_cell_length_b 9.356195
_cell_length_c 15.900059
_cell_angle_alpha 123.222090
_cell_angle_beta 144.358440
_cell_angle_gamma 39.803531
_cell_volume 829.150759
_symmetry_space_group_name_H-M "P -1"
_symmetry_group_IT_number 2
_symmetry_cell_setting 'triclinic'
loop_
_space_group_symop_operation_xyz
x,y,z
-x,-y,-z
loop_
_atom_site_type_symbol
_atom_site_label
_atom_site_fract_x
_atom_site_fract_y
_atom_site_fract_z
Si Si1 0.884388 0.455065 0.955315
Si Si2 0.707736 0.794025 0.205524
Si Si3 0.384974 0.040609 0.634240
Si Si4 0.472532 0.429266 0.370506
Si Si5 0.165215 0.356032 0.422054
Si Si6 0.474828 0.410742 0.693482
Si Si7 0.747996 0.902238 0.765522
Si Si8 0.461519 0.268439 0.096326
O O1 0.763325 0.419145 0.787397
O O2 0.715490 0.657708 0.952788
O O3 0.000000 0.500000 0.000000
O O4 0.040715 0.240006 0.067834
O O5 0.649147 0.814209 0.264036
O O6 0.941094 0.583712 0.309084
O O7 0.658367 0.018484 0.201180
O O8 0.588830 0.742532 0.042037
O O9 0.200414 0.193545 0.472948
O O10 0.398596 0.839941 0.615788
O O11 0.593770 0.927438 0.716079
O O12 0.500000 0.500000 0.500000
O O13 0.572580 0.482452 0.400674
O O14 0.291348 0.424309 0.576023
O O15 0.243630 0.217864 0.351239
O O16 0.498419 0.558088 0.819735
O O17 0.680004 0.145943 0.770024
#
# Coordination Sequence:
#
# PCOD8017437 Si02
#       8
#     2   2   2   2   2   2   2   2
#     4  11  20  37  63  88 118 158 203 242 293 366
#     4  11  21  41  63  84 120 165 207 237 302 369
#     4  11  21  40  61  89 123 159 201 249 298 359
#     4  11  21  36  58  89 125 150 193 252 305 341
#     4  11  23  38  66  88 121 163 202 244 303 365
#     4  10  22  39  59  90 124 154 197 260 297 347
#     4  11  21  40  64  93 118 158 205 245 306 360
#     4  10  22  39  60  89 121 161 198 259 298 346
#
# _framework density 19.296852999999999
#
# number of rings (size 3 to 8) (size 9 to 14) (size 15 to 20)
#    0.000    1.250    5.000    3.375    0.000    2.500 
#    2.250    2.500    0.000    0.000    0.000    0.000 
#    0.000    0.000    0.000    0.000    0.000    0.000 
#
# Total GULP energy -198290.482810 kJ/mol
# GULP energy per Si atom -12393.155176 kJ/mol
# Density = 1.925293 g / cm^3
# Si number density = 19.296853 Si / 1000 Ang^3
#
#
#
# Elastic Constant Matrix: (Units=GPa)
#
#
# Indices 1 2 3 4 5 6 
#
# 1 59.0828 31.7855 28.9309 2.6704 -22.4339 -1.7952
# 2 31.7855 134.1896 62.6499 -9.0152 -7.3088 4.2921
# 3 28.9309 62.6499 128.4857 -2.3461 -24.0028 -5.7483
# 4 2.6704 -9.0152 -2.3461 49.0420 -7.6434 -7.8734
# 5 -22.4339 -7.3088 -24.0028 -7.6434 27.9615 3.1621
# 6 -1.7952 4.2921 -5.7483 -7.8734 3.1621 33.6870
#
#
#
# Elastic Compliance Matrix: (Units=1/GPa)
#
#
# Indices 1 2 3 4 5 6 
#
# 1 0.027831 -0.005624 0.000532 0.000906 0.021509 0.000483
# 2 -0.005624 0.011044 -0.005245 0.000903 -0.005670 -0.001858
# 3 0.000532 -0.005245 0.012144 0.001442 0.009625 0.002202
# 4 0.000906 0.000903 0.001442 0.022554 0.007833 0.004715
# 5 0.021509 -0.005670 0.009625 0.007833 0.061996 -0.000478
# 6 0.000483 -0.001858 0.002202 0.004715 -0.000478 0.031470
#
#
# Mechanical properties :
#
#
# Convention : Reuss Voigt Hill
#
# Bulk Modulus (GPa) = 32.95402 63.16562 48.05982
# Shear Modulus (GPa) = 25.27453 35.36422 30.31938
#
# Velocity S-wave (km/s) = 3.62301 4.28558 3.96815
# Velocity P-wave (km/s) = 5.88354 7.56921 6.77898
#
# Compressibility (1/GPa) = 0.03034531
#
# Stress axis : x y z
#
# Youngs Moduli (GPa) = 35.93092 90.54517 82.34831
#
# Poissons Ratio (x) = 0.50920 -0.04379
# Poissons Ratio (y) = 0.20206 0.43190
# Poissons Ratio (z) = -0.01911 0.47489
#
# Static dielectric constant tensor:
#      x y z
#    x 3.484450 -0.035750 -0.337550 
#    y -0.035750 3.794780 -0.140790 
#    z -0.337550 -0.140790 3.756130 
# 
# 
# High freq. dielectric constant tensor:
#      x y z
#    x 1.735710 0.001750 -0.024730 
#    y 0.001750 1.755960 -0.010740 
#    z -0.024730 -0.010740 1.762760 
# 
# From -- ./inp_files/498910.got.cif
#   From: 2010.06.25/outbox.cif.g09.slc.cpg/sg2_250_cif.got.tgz:498910.got - 2010.06.27 13:26:56.
