data_PCOD8017179
_publ_section_title
;
Structure prediction by ZEFSAII (Michael W. Deem and Ramdas Pophale) SiO2 
 PCOD8017179
Probable space group: P -1
;
_chemical_formula_sum "Si O2"
_cell_formula_units_Z 14
_cell_length_a 9.374325
_cell_length_b 5.139365
_cell_length_c 25.972867
_cell_angle_alpha 73.324237
_cell_angle_beta 37.901879
_cell_angle_gamma 84.062387
_cell_volume 720.113495
_symmetry_space_group_name_H-M "P -1"
_symmetry_group_IT_number 2
_symmetry_cell_setting 'triclinic'
loop_
_space_group_symop_operation_xyz
x,y,z
-x,-y,-z
loop_
_atom_site_type_symbol
_atom_site_label
_atom_site_fract_x
_atom_site_fract_y
_atom_site_fract_z
Si Si1 0.859577 0.930031 0.671587
Si Si2 0.376966 0.897191 0.762790
Si Si3 0.338775 0.025198 0.172115
Si Si4 0.641475 0.492103 0.299855
Si Si5 0.911571 0.528801 0.762382
Si Si6 0.847902 0.193704 0.058593
Si Si7 0.883037 0.760806 0.508478
O O1 0.764657 0.097074 0.735775
O O2 0.070811 0.129376 0.569544
O O3 0.636058 0.831209 0.702980
O O4 0.942131 0.662253 0.688274
O O5 0.264882 0.656532 0.767692
O O6 0.217082 0.886936 0.859553
O O7 0.400181 0.202319 0.715903
O O8 0.278148 0.765824 0.165589
O O9 0.202622 0.267859 0.179546
O O10 0.616110 0.163682 0.090267
O O11 0.398351 0.306378 0.400547
O O12 0.835933 0.512558 0.287979
O O13 0.000000 0.500000 0.000000
O O14 0.000000 0.000000 0.000000
O O15 0.000000 0.500000 0.500000
O O16 0.000000 0.000000 0.500000
#
# Coordination Sequence:
#
# PCOD8017179 Si02
#       7
#     2   2   2   2   2   2   2
#     4   9  22  37  62  84 119 165 207 243 298 344
#     4  11  23  39  65  88 125 155 204 248 306 363
#     4   9  21  38  62  86 120 158 196 246 303 353
#     4  12  23  40  60  93 123 167 201 249 303 356
#     4  10  22  38  62  85 124 171 202 235 301 369
#     4  11  22  38  67  99 117 146 205 258 296 358
#     4  12  23  36  58  90 125 156 210 260 298 334
#
# _framework density 19.441381
#
# number of rings (size 3 to 8) (size 9 to 14) (size 15 to 20)
#    0.857    0.571    2.857    2.571    6.000    0.571 
#    0.000    0.714    0.000   17.143    0.000    0.000 
#    0.000    0.000    0.000    0.000    0.000    0.000 
#
# Total GULP energy -173502.913490 kJ/mol
# GULP energy per Si atom -12393.065249 kJ/mol
# Density = 1.939713 g / cm^3
# Si number density = 19.441381 Si / 1000 Ang^3
#
#
#
# Elastic Constant Matrix: (Units=GPa)
#
#
# Indices 1 2 3 4 5 6 
#
# 1 114.6422 46.7503 45.7720 -10.6547 -22.4894 -12.1668
# 2 46.7503 121.9387 32.2733 -14.0550 -12.3801 9.6909
# 3 45.7720 32.2733 97.5355 -0.7766 -17.5466 -5.9085
# 4 -10.6547 -14.0550 -0.7766 32.7105 3.5305 -2.4547
# 5 -22.4894 -12.3801 -17.5466 3.5305 28.7975 0.1082
# 6 -12.1668 9.6909 -5.9085 -2.4547 0.1082 24.4841
#
#
#
# Elastic Compliance Matrix: (Units=1/GPa)
#
#
# Indices 1 2 3 4 5 6 
#
# 1 0.014313 -0.004185 -0.003588 0.002652 0.006837 0.008139
# 2 -0.004185 0.011241 -0.002156 0.002917 -0.000082 -0.006756
# 3 -0.003588 -0.002156 0.013631 -0.002134 0.004830 0.002125
# 4 0.002652 0.002917 -0.002134 0.033081 -0.002042 0.002974
# 5 0.006837 -0.000082 0.004830 -0.002042 0.043207 0.004200
# 6 0.008139 -0.006756 0.002125 0.002974 0.004200 0.048354
#
#
# Mechanical properties :
#
#
# Convention : Reuss Voigt Hill
#
# Bulk Modulus (GPa) = 51.74389 64.85640 58.30014
# Shear Modulus (GPa) = 26.29810 31.15315 28.72563
#
# Velocity S-wave (km/s) = 3.68188 4.00736 3.84806
# Velocity P-wave (km/s) = 6.68940 7.40569 7.05664
#
# Compressibility (1/GPa) = 0.01932595
#
# Stress axis : x y z
#
# Youngs Moduli (GPa) = 69.86434 88.96033 73.36415
#
# Poissons Ratio (x) = 0.37230 0.26325
# Poissons Ratio (y) = 0.29238 0.15820
# Poissons Ratio (z) = 0.25069 0.19183
#
# Static dielectric constant tensor:
#      x y z
#    x 3.453120 0.021510 -0.064370 
#    y 0.021510 3.509660 0.007000 
#    z -0.064370 0.007000 3.615300 
# 
# 
# High freq. dielectric constant tensor:
#      x y z
#    x 1.744850 0.001510 -0.009480 
#    y 0.001510 1.768790 -0.003690 
#    z -0.009480 -0.003690 1.744520 
# 
# From -- ./inp_files/616310.got.cif
#   From: 2010.06.25/outbox.cif.g09.slc.cpg/sg2_309_cif.got.tgz:616310.got - 2010.06.27 13:26:56.
