data_PCOD8017115
_publ_section_title
;
Structure prediction by ZEFSAII (Michael W. Deem and Ramdas Pophale) SiO2 
 PCOD8017115
Probable space group: P -1
;
_chemical_formula_sum "Si O2"
_cell_formula_units_Z 16
_cell_length_a 19.862061
_cell_length_b 9.065857
_cell_length_c 11.654432
_cell_angle_alpha 39.546279
_cell_angle_beta 141.113276
_cell_angle_gamma 112.886232
_cell_volume 712.006025
_symmetry_space_group_name_H-M "P -1"
_symmetry_group_IT_number 2
_symmetry_cell_setting 'triclinic'
loop_
_space_group_symop_operation_xyz
x,y,z
-x,-y,-z
loop_
_atom_site_type_symbol
_atom_site_label
_atom_site_fract_x
_atom_site_fract_y
_atom_site_fract_z
Si Si1 0.886848 0.525439 0.907608
Si Si2 0.963140 0.280075 0.606030
Si Si3 0.184317 0.708769 0.233410
Si Si4 0.783892 0.680424 0.296799
Si Si5 0.998380 0.785875 0.545104
Si Si6 0.452810 0.437122 0.686761
Si Si7 0.609782 0.912984 0.347963
Si Si8 0.508943 0.094645 0.582922
O O1 0.864602 0.296939 0.957497
O O2 0.752339 0.810197 0.557787
O O3 0.000000 0.500000 0.000000
O O4 0.925325 0.490041 0.113622
O O5 0.846259 0.411110 0.459236
O O6 0.000000 0.500000 0.500000
O O7 0.925503 0.230250 0.459538
O O8 0.081836 0.996246 0.983751
O O9 0.208138 0.439492 0.493962
O O10 0.319447 0.676735 0.419393
O O11 0.860151 0.836838 0.301440
O O12 0.643362 0.888942 0.944004
O O13 0.000000 0.000000 0.500000
O O14 0.438881 0.271384 0.663381
O O15 0.520159 0.597037 0.641447
O O16 0.530098 0.226370 0.016855
O O17 0.596138 0.899046 0.476168
O O18 0.500000 0.000000 0.500000
#
# Coordination Sequence:
#
# PCOD8017115 Si02
#       8
#     2   2   2   2   2   2   2   2
#     4  11  23  42  67 104 136 171 221 291 350 407
#     4  10  22  38  59  99 132 182 223 274 339 408
#     4  11  20  43  69  96 138 179 228 283 345 410
#     4  11  24  43  68  96 141 185 233 278 351 417
#     4  11  22  40  68  99 138 175 227 288 347 408
#     4  10  22  46  75  98 134 184 234 294 348 413
#     4  10  24  46  72 103 136 181 240 287 355 416
#     4  12  27  48  69 102 142 190 237 288 347 419
#
# _framework density 22.471719
#
# number of rings (size 3 to 8) (size 9 to 14) (size 15 to 20)
#    0.000    1.250    3.750    2.250    3.500    0.500 
#    4.500    0.000    0.000    0.000    0.000    0.000 
#    0.000    0.000    0.000    0.000    0.000    0.000 
#
# Total GULP energy -198270.409834 kJ/mol
# GULP energy per Si atom -12391.900615 kJ/mol
# Density = 2.242057 g / cm^3
# Si number density = 22.471719 Si / 1000 Ang^3
#
#
#
# Elastic Constant Matrix: (Units=GPa)
#
#
# Indices 1 2 3 4 5 6 
#
# 1 118.3119 29.2229 43.3225 4.9203 4.2347 -12.9074
# 2 29.2229 77.9458 42.5869 1.7376 -0.7559 -9.6628
# 3 43.3225 42.5869 115.4869 -6.1893 3.4148 3.4764
# 4 4.9203 1.7376 -6.1893 35.1947 -1.7191 -3.2287
# 5 4.2347 -0.7559 3.4148 -1.7191 39.0306 1.4366
# 6 -12.9074 -9.6628 3.4764 -3.2287 1.4366 35.0343
#
#
#
# Elastic Compliance Matrix: (Units=1/GPa)
#
#
# Indices 1 2 3 4 5 6 
#
# 1 0.010676 -0.001534 -0.003614 -0.001761 -0.001087 0.003751
# 2 -0.001534 0.017319 -0.006041 -0.001236 0.000804 0.004664
# 3 -0.003614 -0.006041 0.012519 0.002613 -0.000559 -0.003976
# 4 -0.001761 -0.001236 0.002613 0.029367 0.001180 0.001409
# 5 -0.001087 0.000804 -0.000559 0.001180 0.025895 -0.001076
# 6 0.003751 0.004664 -0.003976 0.001409 -0.001076 0.031780
#
#
# Mechanical properties :
#
#
# Convention : Reuss Voigt Hill
#
# Bulk Modulus (GPa) = 55.14459 60.22325 57.68392
# Shear Modulus (GPa) = 32.05518 34.95940 33.50729
#
# Velocity S-wave (km/s) = 3.78096 3.94852 3.86565
# Velocity P-wave (km/s) = 6.60709 6.90257 6.75645
#
# Compressibility (1/GPa) = 0.01813414
#
# Stress axis : x y z
#
# Youngs Moduli (GPa) = 93.66779 57.74003 79.87888
#
# Poissons Ratio (x) = 0.08858 0.28871
# Poissons Ratio (y) = 0.14370 0.48259
# Poissons Ratio (z) = 0.33855 0.34884
#
# Static dielectric constant tensor:
#      x y z
#    x 0.201140 2.437970 1.244050 
#    y 2.437970 2.149690 -0.855260 
#    z 1.244050 -0.855260 3.911060 
# 
# 
# High freq. dielectric constant tensor:
#      x y z
#    x 1.889220 -0.014390 -0.010740 
#    y -0.014390 1.864570 -0.004100 
#    z -0.010740 -0.004100 1.897260 
# 
# From -- ./inp_files/403180.got.cif
#   From: 2010.06.25/outbox.cif.g09.slc.cpg/sg2_202_cif.got.tgz:403180.got - 2010.06.27 13:26:56.
