data_PCOD8017871
_publ_section_title
;
Structure prediction by ZEFSAII (Michael W. Deem and Ramdas Pophale) SiO2 
 PCOD8017871
Probable space group: P -1
;
_chemical_formula_sum "Si O2"
_cell_formula_units_Z 14
_cell_length_a 4.825747
_cell_length_b 6.216034
_cell_length_c 22.888145
_cell_angle_alpha 126.265431
_cell_angle_beta 91.060134
_cell_angle_gamma 100.243261
_cell_volume 538.092664
_symmetry_space_group_name_H-M "P -1"
_symmetry_group_IT_number 2
_symmetry_cell_setting 'triclinic'
loop_
_space_group_symop_operation_xyz
x,y,z
-x,-y,-z
loop_
_atom_site_type_symbol
_atom_site_label
_atom_site_fract_x
_atom_site_fract_y
_atom_site_fract_z
Si Si1 0.218286 0.099203 0.348666
Si Si2 0.782831 0.403811 0.351302
Si Si3 0.589609 0.590847 0.151950
Si Si4 0.028678 0.753162 0.919825
Si Si5 0.430454 0.580493 0.272445
Si Si6 0.128878 0.822256 0.800195
Si Si7 0.687398 0.132575 0.575505
O O1 0.923101 0.146983 0.328725
O O2 0.479993 0.357110 0.374413
O O3 0.265721 0.804482 0.278846
O O4 0.216971 0.092333 0.418754
O O5 0.736730 0.392717 0.276158
O O6 0.016378 0.672862 0.415259
O O7 0.254675 0.484827 0.124048
O O8 0.654534 0.554053 0.216469
O O9 0.737723 0.402151 0.080460
O O10 0.711469 0.898220 0.183211
O O11 0.164382 0.864610 0.875996
O O12 0.000000 0.000000 0.000000
O O13 0.206873 0.282838 0.231542
O O14 0.512649 0.707073 0.359409
O O15 0.500000 0.000000 0.500000
#
# Coordination Sequence:
#
# PCOD8017871 Si02
#       7
#     2   2   2   2   2   2   2
#     4  10  23  40  62  92 130 159 217 266 312 367
#     4  11  23  40  65  93 125 168 215 266 313 371
#     4  11  23  42  69  91 128 168 211 261 310 374
#     4  11  27  45  64  98 132 162 207 260 316 385
#     4   8  20  40  60  98 124 163 216 267 300 374
#     4  10  22  39  67  94 122 168 210 256 319 367
#     4   9  21  42  63  94 133 172 212 263 323 376
#
# _framework density 26.017825999999999
#
# number of rings (size 3 to 8) (size 9 to 14) (size 15 to 20)
#    0.857    1.143    1.429    0.429    4.000    9.143 
#    0.000    1.429    0.000    0.000    0.000    0.000 
#    0.000    0.000    0.000    0.000    0.000    0.000 
#
# Total GULP energy -173433.653964 kJ/mol
# GULP energy per Si atom -12388.118140 kJ/mol
# Density = 2.595861 g / cm^3
# Si number density = 26.017826 Si / 1000 Ang^3
#
#
#
# Elastic Constant Matrix: (Units=GPa)
#
#
# Indices 1 2 3 4 5 6 
#
# 1 81.4850 28.1737 12.7594 -8.8000 -2.3923 12.4223
# 2 28.1737 145.9173 42.3524 3.3724 13.5690 29.8755
# 3 12.7594 42.3524 116.0782 -4.1421 5.4003 2.8475
# 4 -8.8000 3.3724 -4.1421 30.2074 3.4376 6.8038
# 5 -2.3923 13.5690 5.4003 3.4376 35.0191 -2.1227
# 6 12.4223 29.8755 2.8475 6.8038 -2.1227 35.8569
#
#
#
# Elastic Compliance Matrix: (Units=1/GPa)
#
#
# Indices 1 2 3 4 5 6 
#
# 1 0.014259 -0.001931 -0.000628 0.005105 0.001064 -0.004187
# 2 -0.001931 0.010080 -0.003084 0.000093 -0.004040 -0.007741
# 3 -0.000628 -0.003084 0.009824 0.001153 -0.000369 0.001766
# 4 0.005105 0.000093 0.001153 0.037289 -0.004086 -0.009255
# 5 0.001064 -0.004040 -0.000369 -0.004086 0.030994 0.005637
# 6 -0.004187 -0.007741 0.001766 -0.009255 0.005637 0.037739
#
#
# Mechanical properties :
#
#
# Convention : Reuss Voigt Hill
#
# Bulk Modulus (GPa) = 43.71033 56.67240 50.19136
# Shear Modulus (GPa) = 31.42772 37.56300 34.49536
#
# Velocity S-wave (km/s) = 3.47930 3.80378 3.64515
# Velocity P-wave (km/s) = 5.74259 6.41257 6.08681
#
# Compressibility (1/GPa) = 0.02287789
#
# Stress axis : x y z
#
# Youngs Moduli (GPa) = 70.13154 99.20922 101.78976
#
# Poissons Ratio (x) = 0.19153 0.06388
# Poissons Ratio (y) = 0.13539 0.31395
# Poissons Ratio (z) = 0.04401 0.30599
#
# Static dielectric constant tensor:
#      x y z
#    x 5.098440 -0.274770 -0.247530 
#    y -0.274770 5.030320 -0.180310 
#    z -0.247530 -0.180310 4.436340 
# 
# 
# High freq. dielectric constant tensor:
#      x y z
#    x 2.064430 -0.006750 -0.012710 
#    y -0.006750 2.070350 -0.002510 
#    z -0.012710 -0.002510 2.018030 
# 
# From -- ./inp_files/615043.got.cif
#   From: 2010.06.25/outbox.cif.g09.slc.cpg/sg2_308_cif.got.tgz:615043.got - 2010.06.27 13:26:56.
