data_PCOD8017253
_publ_section_title
;
Structure prediction by ZEFSAII (Michael W. Deem and Ramdas Pophale) SiO2 
 PCOD8017253
Probable space group: P -1
;
_chemical_formula_sum "Si O2"
_cell_formula_units_Z 16
_cell_length_a 11.404704
_cell_length_b 13.075775
_cell_length_c 12.778947
_cell_angle_alpha 40.455814
_cell_angle_beta 35.147806
_cell_angle_gamma 52.679492
_cell_volume 711.200063
_symmetry_space_group_name_H-M "P -1"
_symmetry_group_IT_number 2
_symmetry_cell_setting 'triclinic'
loop_
_space_group_symop_operation_xyz
x,y,z
-x,-y,-z
loop_
_atom_site_type_symbol
_atom_site_label
_atom_site_fract_x
_atom_site_fract_y
_atom_site_fract_z
Si Si1 0.463127 0.315704 0.191803
Si Si2 0.928770 0.828115 0.315276
Si Si3 0.480596 0.479560 0.672773
Si Si4 0.761405 0.685832 0.194977
Si Si5 0.133088 0.734183 0.444272
Si Si6 0.720470 0.942661 0.867422
Si Si7 0.726903 0.693219 0.872551
Si Si8 0.888979 0.190575 0.030547
O O1 0.281253 0.275435 0.437004
O O2 0.402331 0.240291 0.181604
O O3 0.658260 0.238697 0.157528
O O4 0.500000 0.500000 0.000000
O O5 0.092723 0.764602 0.327512
O O6 0.893835 0.013914 0.210494
O O7 0.011945 0.794237 0.167118
O O8 0.585940 0.652396 0.439252
O O9 0.294235 0.443769 0.754246
O O10 0.657380 0.353017 0.625985
O O11 0.387771 0.462326 0.870490
O O12 0.761355 0.858998 0.012793
O O13 0.984542 0.682049 0.087914
O O14 0.945028 0.638851 0.712434
O O15 0.133493 0.902586 0.372588
O O16 0.745744 0.828995 0.839617
O O17 0.500000 0.000000 0.000000
#
# Coordination Sequence:
#
# PCOD8017253 Si02
#       8
#     2   2   2   2   2   2   2   2
#     4  11  26  43  63  95 127 168 215 261 309 375
#     4  10  24  41  65  97 122 168 213 259 318 369
#     4  10  22  42  61  91 131 157 203 261 310 373
#     4  10  22  38  64  91 123 166 200 254 314 368
#     4  11  20  40  67  89 122 162 207 257 310 374
#     4  11  20  40  67  90 124 163 206 258 313 369
#     4  10  23  39  64  91 122 161 214 250 312 369
#     4  11  23  42  66  88 131 167 210 261 316 370
#
# _framework density 22.497187
#
# number of rings (size 3 to 8) (size 9 to 14) (size 15 to 20)
#    0.000    1.500    3.750    1.500    5.250    0.500 
#    0.000    8.125    0.000    0.000    0.000    0.000 
#    0.000    0.000    0.000    0.000    0.000    0.000 
#
# Total GULP energy -198261.655420 kJ/mol
# GULP energy per Si atom -12391.353464 kJ/mol
# Density = 2.244598 g / cm^3
# Si number density = 22.497187 Si / 1000 Ang^3
#
#
#
# Elastic Constant Matrix: (Units=GPa)
#
#
# Indices 1 2 3 4 5 6 
#
# 1 109.8409 26.0441 33.1365 5.6441 -9.4161 -12.5771
# 2 26.0441 55.2363 15.3733 -3.0744 1.8722 -3.8304
# 3 33.1365 15.3733 111.4305 4.7418 6.2619 4.2044
# 4 5.6441 -3.0744 4.7418 19.9205 0.9487 -0.8465
# 5 -9.4161 1.8722 6.2619 0.9487 44.0681 -0.0386
# 6 -12.5771 -3.8304 4.2044 -0.8465 -0.0386 11.6008
#
#
#
# Elastic Compliance Matrix: (Units=1/GPa)
#
#
# Indices 1 2 3 4 5 6 
#
# 1 0.013527 -0.004565 -0.004012 -0.003148 0.003735 0.014395
# 2 -0.004565 0.021333 -0.001829 0.005237 -0.001732 0.003134
# 3 -0.004012 -0.001829 0.010979 -0.002035 -0.002304 -0.009089
# 4 -0.003148 0.005237 -0.002035 0.052590 -0.001736 0.002885
# 5 0.003735 -0.001732 -0.002304 -0.001736 0.023932 0.004265
# 6 0.014395 0.003134 -0.009089 0.002885 0.004265 0.106361
#
#
# Mechanical properties :
#
#
# Convention : Reuss Voigt Hill
#
# Bulk Modulus (GPa) = 39.95822 47.29060 43.62441
# Shear Modulus (GPa) = 19.38918 28.58146 23.98532
#
# Velocity S-wave (km/s) = 2.93891 3.56820 3.26873
# Velocity P-wave (km/s) = 5.41445 6.16785 5.80339
#
# Compressibility (1/GPa) = 0.02502614
#
# Stress axis : x y z
#
# Youngs Moduli (GPa) = 73.92665 46.87532 91.08637
#
# Poissons Ratio (x) = 0.21399 0.36542
# Poissons Ratio (y) = 0.33748 0.16664
# Poissons Ratio (z) = 0.29658 0.08576
#
# Static dielectric constant tensor:
#      x y z
#    x 15.609380 35.486160 -29.145230 
#    y 35.486160 115.902100 -92.382930 
#    z -29.145230 -92.382930 80.107570 
# 
# 
# High freq. dielectric constant tensor:
#      x y z
#    x 1.904500 -0.010530 0.000090 
#    y -0.010530 1.844280 -0.012700 
#    z 0.000090 -0.012700 1.912300 
# 
# From -- ./inp_files/521442.got.cif
#   From: 2010.06.25/outbox.cif.g09.slc.cpg/sg2_261_cif.got.tgz:521442.got - 2010.06.27 13:26:56.
