data_PCOD8017553
_publ_section_title
;
Structure prediction by ZEFSAII (Michael W. Deem and Ramdas Pophale) SiO2 
 PCOD8017553
Probable space group: P -1
;
_chemical_formula_sum "Si O2"
_cell_formula_units_Z 16
_cell_length_a 11.519827
_cell_length_b 15.227014
_cell_length_c 9.122767
_cell_angle_alpha 82.048176
_cell_angle_beta 37.632558
_cell_angle_gamma 66.944596
_cell_volume 855.993077
_symmetry_space_group_name_H-M "P -1"
_symmetry_group_IT_number 2
_symmetry_cell_setting 'triclinic'
loop_
_space_group_symop_operation_xyz
x,y,z
-x,-y,-z
loop_
_atom_site_type_symbol
_atom_site_label
_atom_site_fract_x
_atom_site_fract_y
_atom_site_fract_z
Si Si1 0.964966 0.257343 0.894731
Si Si2 0.604935 0.895059 0.996599
Si Si3 0.912691 0.587288 0.677808
Si Si4 0.520289 0.257342 0.339385
Si Si5 0.935456 0.564582 0.191762
Si Si6 0.465349 0.754576 0.013258
Si Si7 0.390388 0.109583 0.655743
Si Si8 0.974494 0.245446 0.546897
O O1 0.735830 0.264134 0.158279
O O2 0.032672 0.227628 0.664993
O O3 0.948599 0.365664 0.919997
O O4 0.142797 0.170878 0.837782
O O5 0.469346 0.841176 0.087623
O O6 0.848271 0.841167 0.708658
O O7 0.599087 0.900940 0.176920
O O8 0.500000 0.000000 0.000000
O O9 0.658760 0.650619 0.894798
O O10 0.000000 0.500000 0.500000
O O11 0.965052 0.534844 0.790428
O O12 0.040008 0.650605 0.513605
O O13 0.319991 0.365676 0.548503
O O14 0.512133 0.227573 0.185536
O O15 0.515337 0.170903 0.465247
O O16 0.000000 0.500000 0.000000
O O17 0.248823 0.751168 0.266844
O O18 0.500000 0.000000 0.500000
#
# Coordination Sequence:
#
# PCOD8017553 Si02
#       8
#     2   2   2   2   2   2   2   2
#     4  10  22  41  61  86 120 156 197 242 291 349
#     4  11  23  41  64  89 118 150 191 245 295 348
#     4  11  19  37  60  86 119 158 200 239 287 342
#     4  10  22  41  61  86 120 156 197 242 291 349
#     4  11  23  37  56  86 123 162 196 239 291 342
#     4  10  22  39  62  90 118 152 198 247 291 342
#     4  11  23  41  64  87 118 157 191 233 297 357
#     4  10  22  39  62  90 118 152 198 247 291 342
#
# _framework density 18.691739999999999
#
# number of rings (size 3 to 8) (size 9 to 14) (size 15 to 20)
#    0.000    1.500    2.500    3.750    7.000    4.000 
#    0.000    0.000    0.000    0.000    0.000    0.000 
#    0.000    0.000    0.000    0.000    0.000    0.000 
#
# Total GULP energy -198316.121576 kJ/mol
# GULP energy per Si atom -12394.757598 kJ/mol
# Density = 1.864920 g / cm^3
# Si number density = 18.691740 Si / 1000 Ang^3
#
#
#
# Elastic Constant Matrix: (Units=GPa)
#
#
# Indices 1 2 3 4 5 6 
#
# 1 139.7861 88.7905 98.8438 -12.8484 4.9520 -0.2192
# 2 88.7905 147.9724 82.7117 7.3259 -7.0650 -15.8821
# 3 98.8438 82.7117 139.1471 -2.8329 0.0022 10.7862
# 4 -12.8484 7.3259 -2.8329 26.6102 8.4963 9.0542
# 5 4.9520 -7.0650 0.0022 8.4963 48.7838 -9.4591
# 6 -0.2192 -15.8821 10.7862 9.0542 -9.4591 33.7676
#
#
#
# Elastic Compliance Matrix: (Units=1/GPa)
#
#
# Indices 1 2 3 4 5 6 
#
# 1 0.021860 -0.011547 -0.007426 0.019626 -0.009406 -0.010814
# 2 -0.011547 0.021830 -0.007009 -0.024108 0.012897 0.022508
# 3 -0.007426 -0.007009 0.017607 0.005123 -0.003341 -0.011279
# 4 0.019626 -0.024108 0.005123 0.076710 -0.026778 -0.040917
# 5 -0.009406 0.012897 -0.003341 -0.026778 0.032515 0.023360
# 6 -0.010814 0.022508 -0.011279 -0.040917 0.023360 0.061248
#
#
# Mechanical properties :
#
#
# Convention : Reuss Voigt Hill
#
# Bulk Modulus (GPa) = 107.16846 107.51085 107.33966
# Shear Modulus (GPa) = 17.43093 32.26961 24.85027
#
# Velocity S-wave (km/s) = 3.05708 4.15952 3.65016
# Velocity P-wave (km/s) = 8.36182 8.98396 8.67847
#
# Compressibility (1/GPa) = 0.00933110
#
# Stress axis : x y z
#
# Youngs Moduli (GPa) = 45.74566 45.80813 56.79547
#
# Poissons Ratio (x) = 0.52897 0.42178
# Poissons Ratio (y) = 0.52825 0.39810
# Poissons Ratio (z) = 0.33972 0.32108
#
# Static dielectric constant tensor:
#      x y z
#    x 3.538570 0.014100 -0.000700 
#    y 0.014100 3.493190 -0.011170 
#    z -0.000700 -0.011170 3.540120 
# 
# 
# High freq. dielectric constant tensor:
#      x y z
#    x 1.735310 -0.002810 0.004890 
#    y -0.002810 1.736400 0.000880 
#    z 0.004890 0.000880 1.733840 
# 
# From -- ./inp_files/273061.got.cif
#   From: 2010.06.25/outbox.cif.g09.slc.cpg/sg2_137_cif.got.tgz:273061.got - 2010.06.27 13:26:56.
