data_PCOD8017001
_publ_section_title
;
Structure prediction by ZEFSAII (Michael W. Deem and Ramdas Pophale) SiO2 
 PCOD8017001
Probable space group: P -1
;
_chemical_formula_sum "Si O2"
_cell_formula_units_Z 16
_cell_length_a 8.806568
_cell_length_b 8.702073
_cell_length_c 21.617803
_cell_angle_alpha 147.878889
_cell_angle_beta 56.451012
_cell_angle_gamma 122.031096
_cell_volume 726.839153
_symmetry_space_group_name_H-M "P -1"
_symmetry_group_IT_number 2
_symmetry_cell_setting 'triclinic'
loop_
_space_group_symop_operation_xyz
x,y,z
-x,-y,-z
loop_
_atom_site_type_symbol
_atom_site_label
_atom_site_fract_x
_atom_site_fract_y
_atom_site_fract_z
Si Si1 0.172759 0.163453 0.682568
Si Si2 0.000234 0.193126 0.925321
Si Si3 0.855943 0.137552 0.537380
Si Si4 0.613150 0.554628 0.056066
Si Si5 0.084177 0.242505 0.313209
Si Si6 0.437043 0.093893 0.143208
Si Si7 0.153299 0.806339 0.917269
Si Si8 0.476703 0.645930 0.247652
O O1 0.084796 0.465291 0.801591
O O2 0.347829 0.203792 0.701958
O O3 0.225930 0.086176 0.574424
O O4 0.025678 0.899134 0.651314
O O5 0.201740 0.222109 0.923157
O O6 0.983539 0.929799 0.792190
O O7 0.000000 0.500000 0.000000
O O8 0.833544 0.145976 0.995555
O O9 0.951422 0.427994 0.579235
O O10 0.695583 0.200249 0.641004
O O11 0.000000 0.000000 0.500000
O O12 0.503073 0.687865 0.182156
O O13 0.500000 0.500000 0.000000
O O14 0.657580 0.236919 0.961555
O O15 0.303627 0.228447 0.268637
O O16 0.643886 0.096151 0.124489
O O17 0.443314 0.299022 0.151088
O O18 0.000000 0.000000 0.000000
#
# Coordination Sequence:
#
# PCOD8017001 Si02
#       8
#     2   2   2   2   2   2   2   2
#     4  11  22  47  69  93 131 181 223 261 324 403
#     4  12  21  40  64  94 132 173 212 262 330 405
#     4  11  27  44  68  97 127 171 226 284 325 374
#     4  12  23  38  62 101 137 166 209 272 335 382
#     4  11  23  42  70  91 130 174 227 263 327 399
#     4  10  22  37  63  95 128 177 213 257 321 403
#     4  11  24  37  63 102 137 167 211 275 334 378
#     4  10  23  44  67  91 129 176 224 264 319 402
#
# _framework density 22.013123
#
# number of rings (size 3 to 8) (size 9 to 14) (size 15 to 20)
#    0.000    1.000    3.750    2.625    5.250    2.000 
#    0.000    0.625    0.000    0.000    0.000    0.000 
#    0.000    0.000    0.000    0.000    0.000    0.000 
#
# Total GULP energy -198298.704163 kJ/mol
# GULP energy per Si atom -12393.669010 kJ/mol
# Density = 2.196302 g / cm^3
# Si number density = 22.013123 Si / 1000 Ang^3
#
#
#
# Elastic Constant Matrix: (Units=GPa)
#
#
# Indices 1 2 3 4 5 6 
#
# 1 133.1023 43.0931 55.7972 -4.9633 -11.0593 3.7115
# 2 43.0931 83.3329 37.1869 -1.1372 -9.2921 16.6510
# 3 55.7972 37.1869 128.9245 -7.8943 0.2272 -11.0895
# 4 -4.9633 -1.1372 -7.8943 39.0326 -7.7430 0.3839
# 5 -11.0593 -9.2921 0.2272 -7.7430 45.2444 -4.5858
# 6 3.7115 16.6510 -11.0895 0.3839 -4.5858 30.3580
#
#
#
# Elastic Compliance Matrix: (Units=1/GPa)
#
#
# Indices 1 2 3 4 5 6 
#
# 1 0.010281 -0.003506 -0.003412 0.000902 0.001934 -0.000300
# 2 -0.003506 0.018342 -0.004757 -0.000420 0.001737 -0.011102
# 3 -0.003412 -0.004757 0.011299 0.001464 -0.000908 0.006998
# 4 0.000902 -0.000420 0.001464 0.026970 0.004848 0.001046
# 5 0.001934 0.001737 -0.000908 0.004848 0.023973 0.002039
# 6 -0.000300 -0.011102 0.006998 0.001046 0.002039 0.041917
#
#
# Mechanical properties :
#
#
# Convention : Reuss Voigt Hill
#
# Bulk Modulus (GPa) = 60.34520 68.61270 64.47895
# Shear Modulus (GPa) = 30.93000 36.87918 33.90459
#
# Velocity S-wave (km/s) = 3.75249 4.09752 3.92879
# Velocity P-wave (km/s) = 6.80057 7.32276 7.06649
#
# Compressibility (1/GPa) = 0.01657133
#
# Stress axis : x y z
#
# Youngs Moduli (GPa) = 97.26411 54.51949 88.50724
#
# Poissons Ratio (x) = 0.19115 0.30201
# Poissons Ratio (y) = 0.34102 0.42102
# Poissons Ratio (z) = 0.33190 0.25934
#
# Static dielectric constant tensor:
#      x y z
#    x 4.141640 0.457670 -0.085110 
#    y 0.457670 4.400180 0.069160 
#    z -0.085110 0.069160 4.019390 
# 
# 
# High freq. dielectric constant tensor:
#      x y z
#    x 1.860100 0.012670 -0.004760 
#    y 0.012670 1.874390 -0.001200 
#    z -0.004760 -0.001200 1.863320 
# 
# From -- ./inp_files/242461.got.cif
#   From: 2010.06.25/outbox.cif.g09.slc.cpg/sg2_122_cif.got.tgz:242461.got - 2010.06.27 13:26:56.
