data_PCOD8017700
_publ_section_title
;
Structure prediction by ZEFSAII (Michael W. Deem and Ramdas Pophale) SiO2 
 PCOD8017700
Probable space group: P -1
;
_chemical_formula_sum "Si O2"
_cell_formula_units_Z 16
_cell_length_a 6.032066
_cell_length_b 12.482371
_cell_length_c 9.346804
_cell_angle_alpha 107.509374
_cell_angle_beta 89.645024
_cell_angle_gamma 96.644764
_cell_volume 666.343194
_symmetry_space_group_name_H-M "P -1"
_symmetry_group_IT_number 2
_symmetry_cell_setting 'triclinic'
loop_
_space_group_symop_operation_xyz
x,y,z
-x,-y,-z
loop_
_atom_site_type_symbol
_atom_site_label
_atom_site_fract_x
_atom_site_fract_y
_atom_site_fract_z
Si Si1 0.275589 0.914271 0.963066
Si Si2 0.848535 0.603077 0.886012
Si Si3 0.036606 0.367419 0.805883
Si Si4 0.330209 0.707491 0.428411
Si Si5 0.207278 0.697258 0.728453
Si Si6 0.681485 0.912621 0.466937
Si Si7 0.440592 0.492131 0.717077
Si Si8 0.994544 0.009331 0.752967
O O1 0.335062 0.787369 0.876799
O O2 0.118164 0.937617 0.838544
O O3 0.152041 0.914777 0.117458
O O4 0.500000 0.000000 0.000000
O O5 0.581865 0.572616 0.865639
O O6 0.954786 0.488985 0.862114
O O7 0.950486 0.668950 0.770762
O O8 0.920836 0.680778 0.055364
O O9 0.277007 0.388715 0.739638
O O10 0.857345 0.280590 0.687558
O O11 0.217676 0.748559 0.589902
O O12 0.553104 0.787654 0.422023
O O13 0.384196 0.577027 0.396607
O O14 0.317078 0.580623 0.664362
O O15 0.827995 0.917290 0.322015
O O16 0.500000 0.000000 0.500000
O O17 0.832470 0.929854 0.615952
#
# Coordination Sequence:
#
# PCOD8017700 Si02
#       8
#     2   2   2   2   2   2   2   2
#     4  11  24  45  69  98 134 171 218 274 328 389
#     4   9  20  38  59  86 121 162 211 263 314 378
#     4   9  20  39  60  86 120 163 213 262 316 379
#     4  11  24  40  63  93 129 170 213 266 324 384
#     4  11  24  40  62  92 130 169 212 263 320 387
#     4  11  24  45  69  98 134 170 218 276 330 390
#     4  10  22  39  64  92 126 169 215 263 322 385
#     4  10  24  44  70  99 128 172 221 267 334 397
#
# _framework density 24.011651000000001
#
# number of rings (size 3 to 8) (size 9 to 14) (size 15 to 20)
#    0.000    1.750    0.000    3.000    0.000   15.500 
#    0.000    0.000    0.000    0.000    0.000    0.000 
#    0.000    0.000    0.000    0.000    0.000    0.000 
#
# Total GULP energy -198231.616910 kJ/mol
# GULP energy per Si atom -12389.476057 kJ/mol
# Density = 2.395700 g / cm^3
# Si number density = 24.011651 Si / 1000 Ang^3
#
#
#
# Elastic Constant Matrix: (Units=GPa)
#
#
# Indices 1 2 3 4 5 6 
#
# 1 115.1574 38.6247 76.2523 4.6307 3.7663 35.2436
# 2 38.6247 81.2617 47.0478 6.1692 1.1018 27.4262
# 3 76.2523 47.0478 180.0618 -12.8024 -0.3433 30.9601
# 4 4.6307 6.1692 -12.8024 30.6284 11.4106 -2.9500
# 5 3.7663 1.1018 -0.3433 11.4106 32.1356 8.7799
# 6 35.2436 27.4262 30.9601 -2.9500 8.7799 45.3004
#
#
#
# Elastic Compliance Matrix: (Units=1/GPa)
#
#
# Indices 1 2 3 4 5 6 
#
# 1 0.015209 -0.000881 -0.005143 -0.006138 0.002754 -0.008718
# 2 -0.000881 0.018411 -0.003320 -0.007674 0.004790 -0.009621
# 3 -0.005143 -0.003320 0.008907 0.005738 -0.001380 0.000565
# 4 -0.006138 -0.007674 0.005738 0.045541 -0.018415 0.012034
# 5 0.002754 0.004790 -0.001380 -0.018415 0.040761 -0.013199
# 6 -0.008718 -0.009621 0.000565 0.012034 -0.013199 0.037638
#
#
# Mechanical properties :
#
#
# Convention : Reuss Voigt Hill
#
# Bulk Modulus (GPa) = 41.94436 77.81448 59.87942
# Shear Modulus (GPa) = 25.89299 35.91663 30.90481
#
# Velocity S-wave (km/s) = 3.28739 3.87175 3.59148
# Velocity P-wave (km/s) = 5.64938 7.24325 6.49539
#
# Compressibility (1/GPa) = 0.02384111
#
# Stress axis : x y z
#
# Youngs Moduli (GPa) = 65.74843 54.31436 112.26809
#
# Poissons Ratio (x) = 0.04783 0.57738
# Poissons Ratio (y) = 0.05790 0.37273
# Poissons Ratio (z) = 0.33814 0.18032
#
# Static dielectric constant tensor:
#      x y z
#    x 4.503030 0.141030 -0.021740 
#    y 0.141030 4.017830 0.023280 
#    z -0.021740 0.023280 4.573760 
# 
# 
# High freq. dielectric constant tensor:
#      x y z
#    x 1.952830 0.010840 -0.005400 
#    y 0.010840 1.937510 0.006980 
#    z -0.005400 0.006980 1.963180 
# 
# From -- ./inp_files/135713.got.cif
#   From: 2010.06.25/outbox.cif.g09.slc.cpg/sg2_68_cif.got.tgz:135713.got - 2010.06.27 13:26:56.
