data_PCOD8017682
_publ_section_title
;
Structure prediction by ZEFSAII (Michael W. Deem and Ramdas Pophale) SiO2 
 PCOD8017682
Probable space group: P -1
;
_chemical_formula_sum "Si O2"
_cell_formula_units_Z 14
_cell_length_a 4.844518
_cell_length_b 11.559368
_cell_length_c 13.736178
_cell_angle_alpha 69.062336
_cell_angle_beta 53.857031
_cell_angle_gamma 72.823426
_cell_volume 576.508154
_symmetry_space_group_name_H-M "P -1"
_symmetry_group_IT_number 2
_symmetry_cell_setting 'triclinic'
loop_
_space_group_symop_operation_xyz
x,y,z
-x,-y,-z
loop_
_atom_site_type_symbol
_atom_site_label
_atom_site_fract_x
_atom_site_fract_y
_atom_site_fract_z
Si Si1 0.150821 0.358359 0.260763
Si Si2 0.598288 0.531674 0.643033
Si Si3 0.663671 0.271445 0.020202
Si Si4 0.833322 0.744401 0.417163
Si Si5 0.904840 0.145551 0.487796
Si Si6 0.317690 0.134224 0.972711
Si Si7 0.262605 0.294408 0.766921
O O1 0.202712 0.465480 0.296972
O O2 0.451148 0.354048 0.120160
O O3 0.776336 0.393656 0.282606
O O4 0.171092 0.223350 0.351039
O O5 0.805090 0.598554 0.495636
O O6 0.557066 0.388589 0.664131
O O7 0.397713 0.229688 0.010797
O O8 0.896816 0.147934 0.053554
O O9 0.936264 0.353308 0.884022
O O10 0.469162 0.824027 0.490100
O O11 0.902288 0.748774 0.286133
O O12 0.104047 0.808516 0.410133
O O13 0.000000 0.000000 0.500000
O O14 0.444321 0.175937 0.826542
O O15 0.500000 0.000000 0.000000
#
# Coordination Sequence:
#
# PCOD8017682 Si02
#       7
#     2   2   2   2   2   2   2
#     4  10  22  41  60  91 125 165 206 255 308 358
#     4  10  22  39  64  89 128 163 204 257 304 367
#     4  10  23  40  62  90 124 162 208 250 310 363
#     4  10  22  40  63  92 125 158 204 256 308 362
#     4  10  22  41  63  90 119 162 209 252 306 366
#     4  10  23  42  58  87 126 158 208 250 308 361
#     4  10  25  38  65  93 126 162 210 247 316 367
#
# _framework density 24.284134000000002
#
# number of rings (size 3 to 8) (size 9 to 14) (size 15 to 20)
#    0.857    1.143    0.000    2.143    4.000    2.286 
#    0.000    4.286    0.000    0.000    0.000    0.000 
#    0.000    0.000    0.000    0.000    0.000    0.000 
#
# Total GULP energy -173535.308063 kJ/mol
# GULP energy per Si atom -12395.379147 kJ/mol
# Density = 2.422886 g / cm^3
# Si number density = 24.284134 Si / 1000 Ang^3
#
#
#
# Elastic Constant Matrix: (Units=GPa)
#
#
# Indices 1 2 3 4 5 6 
#
# 1 78.2969 -6.6393 8.8147 -4.9099 17.9453 13.5982
# 2 -6.6393 98.3472 17.3335 -11.8922 18.6254 11.4990
# 3 8.8147 17.3335 108.3980 9.0417 13.2765 11.6702
# 4 -4.9099 -11.8922 9.0417 30.9030 0.0529 4.9661
# 5 17.9453 18.6254 13.2765 0.0529 37.5546 -0.2722
# 6 13.5982 11.4990 11.6702 4.9661 -0.2722 34.3535
#
#
#
# Elastic Compliance Matrix: (Units=1/GPa)
#
#
# Indices 1 2 3 4 5 6 
#
# 1 0.017948 0.005349 -0.000448 0.006634 -0.011151 -0.009790
# 2 0.005349 0.014414 -0.001451 0.008073 -0.009259 -0.007689
# 3 -0.000448 -0.001451 0.010361 -0.003270 -0.002742 -0.002406
# 4 0.006634 0.008073 -0.003270 0.039081 -0.006144 -0.009915
# 5 -0.011151 -0.009259 -0.002742 -0.006144 0.037596 0.009631
# 6 -0.009790 -0.007689 -0.002406 -0.009915 0.009631 0.037885
#
#
# Mechanical properties :
#
#
# Convention : Reuss Voigt Hill
#
# Bulk Modulus (GPa) = 20.15226 36.00666 28.07946
# Shear Modulus (GPa) = 29.95333 38.26444 34.10889
#
# Velocity S-wave (km/s) = 3.51586 3.97381 3.75183
# Velocity P-wave (km/s) = 4.97979 5.99286 5.50966
#
# Compressibility (1/GPa) = 0.04962223
#
# Stress axis : x y z
#
# Youngs Moduli (GPa) = 55.71636 69.37844 96.51241
#
# Poissons Ratio (x) = -0.37113 0.04328
# Poissons Ratio (y) = -0.29805 0.14008
# Poissons Ratio (z) = 0.02499 0.10069
#
# Static dielectric constant tensor:
#      x y z
#    x 4.712710 -0.098480 0.153430 
#    y -0.098480 3.877670 -0.114120 
#    z 0.153430 -0.114120 4.278940 
# 
# 
# High freq. dielectric constant tensor:
#      x y z
#    x 1.996090 -0.013150 0.005750 
#    y -0.013150 1.938670 0.003790 
#    z 0.005750 0.003790 1.959500 
# 
# From -- ./inp_files/81717.got.cif
#   From: 2010.06.25/outbox.cif.g09.slc.cpg/sg2_41_cif.got.tgz:81717.got - 2010.06.27 13:26:56.
