data_PCOD8017418
_publ_section_title
;
Structure prediction by ZEFSAII (Michael W. Deem and Ramdas Pophale) SiO2 
 PCOD8017418
Probable space group: P -1
;
_chemical_formula_sum "Si O2"
_cell_formula_units_Z 14
_cell_length_a 10.181686
_cell_length_b 5.051413
_cell_length_c 15.129972
_cell_angle_alpha 103.182312
_cell_angle_beta 67.925986
_cell_angle_gamma 126.436692
_cell_volume 580.141174
_symmetry_space_group_name_H-M "P -1"
_symmetry_group_IT_number 2
_symmetry_cell_setting 'triclinic'
loop_
_space_group_symop_operation_xyz
x,y,z
-x,-y,-z
loop_
_atom_site_type_symbol
_atom_site_label
_atom_site_fract_x
_atom_site_fract_y
_atom_site_fract_z
Si Si1 0.237746 0.597132 0.478637
Si Si2 0.825150 0.402730 0.847244
Si Si3 0.882425 0.084161 0.087421
Si Si4 0.963769 0.635442 0.649379
Si Si5 0.680599 0.820219 0.956170
Si Si6 0.559199 0.245740 0.399098
Si Si7 0.728524 0.850405 0.288834
O O1 0.165973 0.367432 0.390750
O O2 0.356808 0.550773 0.513346
O O3 0.069748 0.512945 0.566081
O O4 0.356943 0.978779 0.444910
O O5 0.852331 0.370199 0.734690
O O6 0.792627 0.688914 0.884970
O O7 0.002071 0.548671 0.870585
O O8 0.677775 0.045638 0.896430
O O9 0.769181 0.826462 0.174739
O O10 0.751690 0.051389 0.043288
O O11 0.000000 0.000000 0.000000
O O12 0.095012 0.994398 0.686997
O O13 0.500000 0.500000 0.000000
O O14 0.585937 0.487447 0.332060
O O15 0.655194 0.072895 0.334745
#
# Coordination Sequence:
#
# PCOD8017418 Si02
#       7
#     2   2   2   2   2   2   2
#     4   9  20  38  60  85 116 152 191 235 285 338
#     4  10  22  40  60  84 116 152 191 233 282 340
#     4   9  21  39  61  85 115 153 192 232 283 341
#     4   9  20  38  60  86 115 151 193 236 281 336
#     4  11  23  39  60  87 117 149 189 237 286 336
#     4  10  22  39  58  85 118 151 188 235 287 337
#     4  10  22  39  60  85 115 151 192 235 282 338
#
# _framework density 24.132055999999999
#
# number of rings (size 3 to 8) (size 9 to 14) (size 15 to 20)
#    0.000    2.286    0.000    0.857    0.000   20.571 
#    0.000    5.714    0.000    0.000    0.000    0.000 
#    0.000    0.000    0.000    0.000    0.000    0.000 
#
# Total GULP energy -173463.633934 kJ/mol
# GULP energy per Si atom -12390.259567 kJ/mol
# Density = 2.407713 g / cm^3
# Si number density = 24.132056 Si / 1000 Ang^3
#
#
#
# Elastic Constant Matrix: (Units=GPa)
#
#
# Indices 1 2 3 4 5 6 
#
# 1 25.5507 7.3828 23.9951 12.5284 8.6014 7.2322
# 2 7.3828 58.5849 46.6170 -16.4349 2.1476 -10.3831
# 3 23.9951 46.6170 185.3198 -17.1782 13.5960 3.9267
# 4 12.5284 -16.4349 -17.1782 42.1470 3.7411 11.0229
# 5 8.6014 2.1476 13.5960 3.7411 21.7897 -2.7437
# 6 7.2322 -10.3831 3.9267 11.0229 -2.7437 37.6473
#
#
#
# Elastic Compliance Matrix: (Units=1/GPa)
#
#
# Indices 1 2 3 4 5 6 
#
# 1 0.069560 -0.011054 -0.006741 -0.023314 -0.019457 -0.010300
# 2 -0.011054 0.025935 -0.004697 0.009194 0.004088 0.007372
# 3 -0.006741 -0.004697 0.008124 0.004361 -0.002989 -0.002342
# 4 -0.023314 0.009194 0.004361 0.037311 -0.001393 -0.004466
# 5 -0.019457 0.004088 -0.002989 -0.001393 0.056496 0.009702
# 6 -0.010300 0.007372 -0.002342 -0.004466 0.009702 0.032833
#
#
# Mechanical properties :
#
#
# Convention : Reuss Voigt Hill
#
# Bulk Modulus (GPa) = 17.05480 47.27169 32.16325
# Shear Modulus (GPa) = 16.96126 33.08082 25.02104
#
# Velocity S-wave (km/s) = 2.65401 3.70648 3.22349
# Velocity P-wave (km/s) = 4.05886 6.16025 5.21646
#
# Compressibility (1/GPa) = 0.05863450
#
# Stress axis : x y z
#
# Youngs Moduli (GPa) = 14.37608 38.55726 123.09926
#
# Poissons Ratio (x) = 0.42622 0.82985
# Poissons Ratio (y) = 0.15892 0.57815
# Poissons Ratio (z) = 0.09691 0.18109
#
# Static dielectric constant tensor:
#      x y z
#    x 4.354370 0.480930 0.244400 
#    y 0.480930 4.214790 0.062540 
#    z 0.244400 0.062540 4.805430 
# 
# 
# High freq. dielectric constant tensor:
#      x y z
#    x 1.926660 0.021980 0.004400 
#    y 0.021980 1.936410 -0.013970 
#    z 0.004400 -0.013970 1.982940 
# 
# From -- ./inp_files/35003.got.cif
#   From: 2010.06.25/outbox.cif.g09.slc.cpg/sg2_18_cif.got.tgz:35003.got - 2010.06.27 13:26:56.
