data_PCOD8017724
_publ_section_title
;
Structure prediction by ZEFSAII (Michael W. Deem and Ramdas Pophale) SiO2 
 PCOD8017724
Probable space group: P -1
;
_chemical_formula_sum "Si O2"
_cell_formula_units_Z 16
_cell_length_a 9.233518
_cell_length_b 9.047204
_cell_length_c 15.490195
_cell_angle_alpha 75.883789
_cell_angle_beta 101.638179
_cell_angle_gamma 46.211248
_cell_volume 768.673688
_symmetry_space_group_name_H-M "P -1"
_symmetry_group_IT_number 2
_symmetry_cell_setting 'triclinic'
loop_
_space_group_symop_operation_xyz
x,y,z
-x,-y,-z
loop_
_atom_site_type_symbol
_atom_site_label
_atom_site_fract_x
_atom_site_fract_y
_atom_site_fract_z
Si Si1 0.097349 0.325618 0.247771
Si Si2 0.274058 0.528668 0.709612
Si Si3 0.769541 0.825888 0.041587
Si Si4 0.686267 0.310320 0.476550
Si Si5 0.768162 0.982148 0.848023
Si Si6 0.455322 0.289923 0.320852
Si Si7 0.861263 0.057714 0.303151
Si Si8 0.961447 0.148020 0.832058
O O1 0.318111 0.242687 0.323528
O O2 0.959509 0.381521 0.308591
O O3 0.933754 0.560131 0.133874
O O4 0.188809 0.111847 0.230733
O O5 0.287238 0.574581 0.605900
O O6 0.496605 0.242613 0.793971
O O7 0.271751 0.671941 0.756766
O O8 0.825879 0.941232 0.079244
O O9 0.500000 0.000000 0.000000
O O10 0.827869 0.803473 0.950473
O O11 0.500000 0.500000 0.500000
O O12 0.587433 0.235322 0.431849
O O13 0.942941 0.074105 0.580401
O O14 0.931184 0.999508 0.882182
O O15 0.660000 0.098381 0.301262
O O16 0.282415 0.564149 0.228508
O O17 0.977569 0.901551 0.254159
#
# Coordination Sequence:
#
# PCOD8017724 Si02
#       8
#     2   2   2   2   2   2   2   2
#     4  11  25  42  65  93 138 172 205 267 332 372
#     4  11  22  40  67  96 129 167 215 267 307 387
#     4  11  25  43  64  95 134 169 214 271 322 384
#     4  11  21  42  70  96 130 169 214 262 320 383
#     4  12  22  44  65  94 129 172 220 262 320 381
#     4  10  22  39  64  96 127 170 211 260 319 378
#     4  11  21  41  69  93 125 171 214 264 319 381
#     4  11  22  41  68  93 127 168 223 263 316 379
#
# _framework density 20.815073000000002
#
# number of rings (size 3 to 8) (size 9 to 14) (size 15 to 20)
#    0.000    1.000    6.250    2.250    1.750    0.000 
#    0.000    4.375    0.000    0.000    0.000    0.000 
#    0.000    0.000    0.000    0.000    0.000    0.000 
#
# Total GULP energy -198380.432641 kJ/mol
# GULP energy per Si atom -12398.777040 kJ/mol
# Density = 2.076770 g / cm^3
# Si number density = 20.815073 Si / 1000 Ang^3
#
#
#
# Elastic Constant Matrix: (Units=GPa)
#
#
# Indices 1 2 3 4 5 6 
#
# 1 178.5575 50.6292 41.2948 11.2960 12.6431 -15.5238
# 2 50.6292 68.3022 30.7350 -1.7791 4.9480 -4.7817
# 3 41.2948 30.7350 71.5873 13.4218 4.0632 -11.0176
# 4 11.2960 -1.7791 13.4218 25.4992 -6.3824 -1.9665
# 5 12.6431 4.9480 4.0632 -6.3824 38.1933 0.8435
# 6 -15.5238 -4.7817 -11.0176 -1.9665 0.8435 32.9916
#
#
#
# Elastic Compliance Matrix: (Units=1/GPa)
#
#
# Indices 1 2 3 4 5 6 
#
# 1 0.007944 -0.005100 -0.001181 -0.003694 -0.002515 0.002449
# 2 -0.005100 0.022281 -0.008514 0.008466 0.001156 -0.001538
# 3 -0.001181 -0.008514 0.021382 -0.011671 -0.002836 0.004728
# 4 -0.003694 0.008466 -0.011671 0.049896 0.009743 -0.001684
# 5 -0.002515 0.001156 -0.002836 0.009743 0.028842 -0.002119
# 6 0.002449 -0.001538 0.004728 -0.001684 -0.002119 0.032773
#
#
# Mechanical properties :
#
#
# Convention : Reuss Voigt Hill
#
# Bulk Modulus (GPa) = 45.41672 62.64057 54.02864
# Shear Modulus (GPa) = 24.99407 32.38935 28.69171
#
# Velocity S-wave (km/s) = 3.46897 3.94896 3.71672
# Velocity P-wave (km/s) = 6.15723 7.13804 6.66570
#
# Compressibility (1/GPa) = 0.02201832
#
# Stress axis : x y z
#
# Youngs Moduli (GPa) = 125.87711 44.88042 46.76795
#
# Poissons Ratio (x) = 0.22889 0.05522
# Poissons Ratio (y) = 0.64197 0.39818
# Poissons Ratio (z) = 0.14863 0.38211
#
# Static dielectric constant tensor:
#      x y z
#    x 4.061500 -0.163030 0.060000 
#    y -0.163030 3.769830 0.007750 
#    z 0.060000 0.007750 3.640810 
# 
# 
# High freq. dielectric constant tensor:
#      x y z
#    x 1.830140 -0.018010 0.000220 
#    y -0.018010 1.818250 0.000460 
#    z 0.000220 0.000460 1.797320 
# 
# From -- ./inp_files/188931.got.cif
#   From: 2010.06.25/outbox.cif.g09.slc.cpg/sg2_95_cif.got.tgz:188931.got - 2010.06.27 13:26:56.
