data_PCOD8017170
_publ_section_title
;
Structure prediction by ZEFSAII (Michael W. Deem and Ramdas Pophale) SiO2 
 PCOD8017170
Probable space group: P -1
;
_chemical_formula_sum "Si O2"
_cell_formula_units_Z 16
_cell_length_a 18.010232
_cell_length_b 14.280772
_cell_length_c 13.900304
_cell_angle_alpha 34.571500
_cell_angle_beta 36.907459
_cell_angle_gamma 21.698401
_cell_volume 739.809675
_symmetry_space_group_name_H-M "P -1"
_symmetry_group_IT_number 2
_symmetry_cell_setting 'triclinic'
loop_
_space_group_symop_operation_xyz
x,y,z
-x,-y,-z
loop_
_atom_site_type_symbol
_atom_site_label
_atom_site_fract_x
_atom_site_fract_y
_atom_site_fract_z
Si Si1 0.991065 0.756907 0.760556
Si Si2 0.238110 0.929005 0.641943
Si Si3 0.013627 0.656504 0.298164
Si Si4 0.410190 0.537137 0.205846
Si Si5 0.352317 0.128195 0.955457
Si Si6 0.986615 0.105578 0.575990
Si Si7 0.414769 0.105775 0.285287
Si Si8 0.641233 0.100919 0.175223
O O1 0.180893 0.449846 0.859324
O O2 0.007554 0.762450 0.624119
O O3 0.008358 0.905464 0.675709
O O4 0.769347 0.915060 0.877068
O O5 0.405759 0.629027 0.768017
O O6 0.340067 0.001430 0.472323
O O7 0.039144 0.145428 0.735689
O O8 0.176092 0.932672 0.598023
O O9 0.234903 0.433497 0.208595
O O10 0.000000 0.500000 0.500000
O O11 0.859487 0.837264 0.217085
O O12 0.223589 0.648859 0.358358
O O13 0.478746 0.337765 0.220713
O O14 0.340543 0.786692 0.025174
O O15 0.496607 0.976696 0.842498
O O16 0.500000 0.000000 0.000000
O O17 0.580504 0.986212 0.293382
#
# Coordination Sequence:
#
# PCOD8017170 Si02
#       8
#     2   2   2   2   2   2   2   2
#     4  10  25  42  62  90 116 157 206 251 304 347
#     4  10  22  38  61  92 122 157 199 242 295 360
#     4   9  21  37  59  93 123 156 197 237 293 355
#     4  10  22  39  61  90 123 162 196 240 304 356
#     4  11  24  43  63  89 121 153 202 257 299 352
#     4  11  22  42  64  85 122 160 200 250 296 357
#     4  11  22  38  64  89 117 162 200 242 304 354
#     4  10  22  39  60  92 128 154 196 247 291 361
#
# _framework density 21.627182999999999
#
# number of rings (size 3 to 8) (size 9 to 14) (size 15 to 20)
#    0.000    1.750    0.000    3.000    0.000   14.500 
#    0.000    6.875    0.000    0.000    0.000    0.000 
#    0.000    0.000    0.000    0.000    0.000    0.000 
#
# Total GULP energy -198402.015847 kJ/mol
# GULP energy per Si atom -12400.125990 kJ/mol
# Density = 2.157796 g / cm^3
# Si number density = 21.627183 Si / 1000 Ang^3
#
#
#
# Elastic Constant Matrix: (Units=GPa)
#
#
# Indices 1 2 3 4 5 6 
#
# 1 120.1776 14.1498 13.5673 -13.2037 12.6678 -18.0456
# 2 14.1498 72.9646 31.3979 -0.2295 19.4625 -7.8959
# 3 13.5673 31.3979 66.4756 -4.3198 10.6157 -4.7863
# 4 -13.2037 -0.2295 -4.3198 36.9630 -1.5374 16.7491
# 5 12.6678 19.4625 10.6157 -1.5374 32.5026 -3.8189
# 6 -18.0456 -7.8959 -4.7863 16.7491 -3.8189 27.2367
#
#
#
# Elastic Compliance Matrix: (Units=1/GPa)
#
#
# Indices 1 2 3 4 5 6 
#
# 1 0.009617 -0.000130 -0.001042 0.000810 -0.002671 0.005278
# 2 -0.000130 0.020070 -0.007877 -0.003627 -0.008940 0.005324
# 3 -0.001042 -0.007877 0.019231 0.002313 -0.001188 -0.001184
# 4 0.000810 -0.003627 0.002313 0.038313 0.000134 -0.023650
# 5 -0.002671 -0.008940 -0.001188 0.000134 0.037629 0.000623
# 6 0.005278 0.005324 -0.001184 -0.023650 0.000623 0.056179
#
#
# Mechanical properties :
#
#
# Convention : Reuss Voigt Hill
#
# Bulk Modulus (GPa) = 32.44786 41.98307 37.21547
# Shear Modulus (GPa) = 23.87644 32.70732 28.29188
#
# Velocity S-wave (km/s) = 3.32626 3.89308 3.62078
# Velocity P-wave (km/s) = 5.45782 6.29781 5.89280
#
# Compressibility (1/GPa) = 0.03081867
#
# Stress axis : x y z
#
# Youngs Moduli (GPa) = 103.98095 49.82614 51.99879
#
# Poissons Ratio (x) = 0.00649 0.05418
# Poissons Ratio (y) = 0.01355 0.40962
# Poissons Ratio (z) = 0.10834 0.39250
#
# Static dielectric constant tensor:
#      x y z
#    x 3.918790 -0.006390 0.202250 
#    y -0.006390 4.158490 0.074600 
#    z 0.202250 0.074600 3.996260 
# 
# 
# High freq. dielectric constant tensor:
#      x y z
#    x 1.854690 -0.003100 0.011970 
#    y -0.003100 1.857660 0.001660 
#    z 0.011970 0.001660 1.849500 
# 
# From -- ./inp_files/538873.got.cif
#   From: 2010.06.25/outbox.cif.g09.slc.cpg/sg2_270_cif.got.tgz:538873.got - 2010.06.27 13:26:56.
