data_PCOD8017364
_publ_section_title
;
Structure prediction by ZEFSAII (Michael W. Deem and Ramdas Pophale) SiO2 
 PCOD8017364
Probable space group: P -1
;
_chemical_formula_sum "Si O2"
_cell_formula_units_Z 14
_cell_length_a 9.223700
_cell_length_b 11.286088
_cell_length_c 17.179144
_cell_angle_alpha 34.360445
_cell_angle_beta 56.215136
_cell_angle_gamma 41.058721
_cell_volume 652.247268
_symmetry_space_group_name_H-M "P -1"
_symmetry_group_IT_number 2
_symmetry_cell_setting 'triclinic'
loop_
_space_group_symop_operation_xyz
x,y,z
-x,-y,-z
loop_
_atom_site_type_symbol
_atom_site_label
_atom_site_fract_x
_atom_site_fract_y
_atom_site_fract_z
Si Si1 0.935359 0.779340 0.790656
Si Si2 0.794471 0.806888 0.388197
Si Si3 0.751047 0.846557 0.974333
Si Si4 0.689997 0.176928 0.341298
Si Si5 0.054218 0.964151 0.890474
Si Si6 0.250322 0.544338 0.182875
Si Si7 0.669112 0.980133 0.610405
O O1 0.761728 0.863943 0.867430
O O2 0.793764 0.963779 0.658969
O O3 0.102949 0.833448 0.738749
O O4 0.083216 0.471115 0.884512
O O5 0.000000 0.500000 0.500000
O O6 0.721558 0.917526 0.438134
O O7 0.834391 0.005773 0.232029
O O8 0.592111 0.847011 0.382122
O O9 0.846207 0.978797 0.917523
O O10 0.500000 0.000000 0.000000
O O11 0.463889 0.443895 0.226700
O O12 0.681525 0.158282 0.447039
O O13 0.246637 0.682096 0.029121
O O14 0.970263 0.217812 0.833090
O O15 0.233050 0.312461 0.293121
#
# Coordination Sequence:
#
# PCOD8017364 Si02
#       7
#     2   2   2   2   2   2   2
#     4  11  24  44  67  96 134 176 220 263 336 395
#     4  11  23  40  65  93 130 169 220 273 327 388
#     4  11  24  43  67  97 136 172 216 276 329 392
#     4  11  22  42  65  91 134 174 215 265 332 388
#     4  11  21  40  65  97 129 164 224 274 324 387
#     4  10  22  38  68  95 126 171 217 273 326 385
#     4  11  23  42  64  97 132 174 218 267 331 392
#
# _framework density 21.464254
#
# number of rings (size 3 to 8) (size 9 to 14) (size 15 to 20)
#    0.000    1.143    2.857    4.714    0.000    6.857 
#    2.571    0.714    0.000    0.000    0.000    0.000 
#    0.000    0.000    0.000    0.000    0.000    0.000 
#
# Total GULP energy -173565.832235 kJ/mol
# GULP energy per Si atom -12397.559445 kJ/mol
# Density = 2.141540 g / cm^3
# Si number density = 21.464254 Si / 1000 Ang^3
#
#
#
# Elastic Constant Matrix: (Units=GPa)
#
#
# Indices 1 2 3 4 5 6 
#
# 1 90.2531 21.2588 33.4375 11.6594 22.5044 -11.9876
# 2 21.2588 97.7975 34.6250 2.9512 8.0151 -10.3489
# 3 33.4375 34.6250 108.6238 11.4153 24.9944 -9.7266
# 4 11.6594 2.9512 11.4153 38.6528 1.0960 -6.0987
# 5 22.5044 8.0151 24.9944 1.0960 38.3620 2.8753
# 6 -11.9876 -10.3489 -9.7266 -6.0987 2.8753 29.5488
#
#
#
# Elastic Compliance Matrix: (Units=1/GPa)
#
#
# Indices 1 2 3 4 5 6 
#
# 1 0.015017 -0.001417 -0.001610 -0.002902 -0.007773 0.005224
# 2 -0.001417 0.011931 -0.003278 0.000901 0.000247 0.002687
# 3 -0.001610 -0.003278 0.012808 -0.002446 -0.006839 0.002575
# 4 -0.002902 0.000901 -0.002446 0.027960 0.002016 0.003908
# 5 -0.007773 0.000247 -0.006839 0.002016 0.035601 -0.008366
# 6 0.005224 0.002687 0.002575 0.003908 -0.008366 0.039371
#
#
# Mechanical properties :
#
#
# Convention : Reuss Voigt Hill
#
# Bulk Modulus (GPa) = 36.83746 52.81300 44.82523
# Shear Modulus (GPa) = 30.42386 35.13625 32.78006
#
# Velocity S-wave (km/s) = 3.76895 4.05033 3.91217
# Velocity P-wave (km/s) = 6.01161 6.82144 6.42929
#
# Compressibility (1/GPa) = 0.02714628
#
# Stress axis : x y z
#
# Youngs Moduli (GPa) = 66.59126 83.81814 78.07779
#
# Poissons Ratio (x) = 0.11877 0.12568
# Poissons Ratio (y) = 0.09436 0.25592
# Poissons Ratio (z) = 0.10719 0.27474
#
# Static dielectric constant tensor:
#      x y z
#    x 3.796230 0.039920 0.170670 
#    y 0.039920 3.812060 0.092980 
#    z 0.170670 0.092980 3.964050 
# 
# 
# High freq. dielectric constant tensor:
#      x y z
#    x 1.841470 0.002430 0.009710 
#    y 0.002430 1.838460 0.003750 
#    z 0.009710 0.003750 1.849400 
# 
# From -- ./inp_files/308586.got.cif
#   From: 2010.06.25/outbox.cif.g09.slc.cpg/sg2_155_cif.got.tgz:308586.got - 2010.06.27 13:26:56.
