data_PCOD8017730
_publ_section_title
;
Structure prediction by ZEFSAII (Michael W. Deem and Ramdas Pophale) SiO2 
 PCOD8017730
Probable space group: P -1
;
_chemical_formula_sum "Si O2"
_cell_formula_units_Z 14
_cell_length_a 9.625552
_cell_length_b 14.684441
_cell_length_c 7.719792
_cell_angle_alpha 62.950778
_cell_angle_beta 73.573156
_cell_angle_gamma 122.917010
_cell_volume 575.474974
_symmetry_space_group_name_H-M "P -1"
_symmetry_group_IT_number 2
_symmetry_cell_setting 'triclinic'
loop_
_space_group_symop_operation_xyz
x,y,z
-x,-y,-z
loop_
_atom_site_type_symbol
_atom_site_label
_atom_site_fract_x
_atom_site_fract_y
_atom_site_fract_z
Si Si1 0.576614 0.094486 0.714502
Si Si2 0.722698 0.560387 0.424530
Si Si3 0.964925 0.747031 0.699541
Si Si4 0.900966 0.463706 0.259798
Si Si5 0.313321 0.577329 0.096307
Si Si6 0.108133 0.898462 0.885727
Si Si7 0.818032 0.869438 0.530863
O O1 0.762067 0.119166 0.548945
O O2 0.692182 0.269867 0.550932
O O3 0.359912 0.986621 0.751813
O O4 0.500000 0.000000 0.000000
O O5 0.500000 0.500000 0.500000
O O6 0.808737 0.526258 0.277998
O O7 0.645086 0.460874 0.710912
O O8 0.932934 0.759290 0.217330
O O9 0.964569 0.782804 0.866093
O O10 0.808335 0.559575 0.891411
O O11 0.852089 0.766909 0.586440
O O12 0.132316 0.569840 0.205528
O O13 0.000000 0.500000 0.000000
O O14 0.556779 0.754376 0.783549
O O15 0.132957 0.036313 0.742389
O O16 0.000000 0.000000 0.500000
#
# Coordination Sequence:
#
# PCOD8017730 Si02
#       7
#     2   2   2   2   2   2   2
#     4  11  24  42  65  97 131 171 223 282 333 387
#     4  12  26  44  66  99 136 174 220 277 335 397
#     4  10  22  41  66  95 131 176 223 271 332 402
#     4  11  25  46  69  96 131 182 227 264 330 411
#     4  11  23  43  67  95 131 175 220 273 332 401
#     4  11  23  41  65  96 131 173 222 276 331 396
#     4  10  22  39  64  98 131 173 222 275 331 394
#
# _framework density 24.327729000000001
#
# number of rings (size 3 to 8) (size 9 to 14) (size 15 to 20)
#    0.000    1.143    0.000    7.286    0.000    8.000 
#    0.000    2.143    0.000    0.000    0.000    0.000 
#    0.000    0.000    0.000    0.000    0.000    0.000 
#
# Total GULP energy -173486.183956 kJ/mol
# GULP energy per Si atom -12391.870283 kJ/mol
# Density = 2.427236 g / cm^3
# Si number density = 24.327729 Si / 1000 Ang^3
#
#
#
# Elastic Constant Matrix: (Units=GPa)
#
#
# Indices 1 2 3 4 5 6 
#
# 1 183.4195 30.0040 51.9498 -11.2439 -10.6404 3.5346
# 2 30.0040 54.8859 19.9047 -8.6985 -4.0490 10.7661
# 3 51.9498 19.9047 132.2113 -38.0486 11.8698 4.1730
# 4 -11.2439 -8.6985 -38.0486 28.5187 13.1835 3.0076
# 5 -10.6404 -4.0490 11.8698 13.1835 52.5140 -8.5635
# 6 3.5346 10.7661 4.1730 3.0076 -8.5635 34.8740
#
#
#
# Elastic Compliance Matrix: (Units=1/GPa)
#
#
# Indices 1 2 3 4 5 6 
#
# 1 0.007144 -0.003457 -0.004738 -0.006863 0.004396 0.002581
# 2 -0.003457 0.022568 0.001144 0.009253 -0.002889 -0.008261
# 3 -0.004738 0.001144 0.020978 0.034778 -0.015857 -0.009276
# 4 -0.006863 0.009253 0.034778 0.101757 -0.038070 -0.024447
# 5 0.004396 -0.002889 -0.015857 -0.038070 0.035178 0.014265
# 6 0.002581 -0.008261 -0.009276 -0.024447 0.014265 0.037684
#
#
# Mechanical properties :
#
#
# Convention : Reuss Voigt Hill
#
# Bulk Modulus (GPa) = 27.33129 63.80375 45.56752
# Shear Modulus (GPa) = 19.87214 41.09189 30.48202
#
# Velocity S-wave (km/s) = 2.86116 4.11432 3.54358
# Velocity P-wave (km/s) = 4.70893 6.98956 5.95936
#
# Compressibility (1/GPa) = 0.03658811
#
# Stress axis : x y z
#
# Youngs Moduli (GPa) = 139.97956 44.30980 47.66886
#
# Poissons Ratio (x) = 0.15317 0.22585
# Poissons Ratio (y) = 0.48389 -0.05451
# Poissons Ratio (z) = 0.66321 -0.05067
#
# Static dielectric constant tensor:
#      x y z
#    x 7.043160 -0.403470 0.259200 
#    y -0.403470 4.192440 -0.191990 
#    z 0.259200 -0.191990 4.670470 
# 
# 
# High freq. dielectric constant tensor:
#      x y z
#    x 1.995910 0.014270 0.014230 
#    y 0.014270 1.938090 -0.015430 
#    z 0.014230 -0.015430 1.980020 
# 
# From -- ./inp_files/216704.got.cif
#   From: 2010.06.25/outbox.cif.g09.slc.cpg/sg2_109_cif.got.tgz:216704.got - 2010.06.27 13:26:56.
