data_PCOD8017276
_publ_section_title
;
Structure prediction by ZEFSAII (Michael W. Deem and Ramdas Pophale) SiO2 
 PCOD8017276
Probable space group: P -1
;
_chemical_formula_sum "Si O2"
_cell_formula_units_Z 8
_cell_length_a 11.402002
_cell_length_b 6.221843
_cell_length_c 8.388651
_cell_angle_alpha 125.528123
_cell_angle_beta 125.646015
_cell_angle_gamma 62.655547
_cell_volume 386.960137
_symmetry_space_group_name_H-M "P -1"
_symmetry_group_IT_number 2
_symmetry_cell_setting 'triclinic'
loop_
_space_group_symop_operation_xyz
x,y,z
-x,-y,-z
loop_
_atom_site_type_symbol
_atom_site_label
_atom_site_fract_x
_atom_site_fract_y
_atom_site_fract_z
Si Si1 0.846827 0.413941 0.024818
Si Si2 0.329056 0.541266 0.411940
Si Si3 0.136764 0.080964 0.550046
Si Si4 0.843628 0.838139 0.763388
O O1 0.811820 0.656004 0.226286
O O2 0.023306 0.335158 0.103565
O O3 0.759249 0.511199 0.838261
O O4 0.795735 0.139138 0.927469
O O5 0.500000 0.500000 0.500000
O O6 0.294659 0.314288 0.410171
O O7 0.274559 0.836961 0.567530
O O8 0.095791 0.138646 0.358013
O O9 0.000000 0.000000 0.500000
#
# Coordination Sequence:
#
# PCOD8017276 Si02
#       4
#     2   2   2   2
#     4  10  22  38  65  93 117 159 206 251 299 355
#     4  11  25  42  60  90 130 161 196 249 307 362
#     4  11  23  38  66  95 117 156 212 249 295 362
#     4  10  22  39  65  91 123 155 204 256 298 350
#
# _framework density 20.673962
#
# number of rings (size 3 to 8) (size 9 to 14) (size 15 to 20)
#    0.000    1.500    2.500    1.500    7.000    5.000 
#    0.000    2.500    0.000    0.000    0.000    0.000 
#    0.000    0.000    0.000    0.000    0.000    0.000 
#
# Total GULP energy -99162.793066 kJ/mol
# GULP energy per Si atom -12395.349133 kJ/mol
# Density = 2.062691 g / cm^3
# Si number density = 20.673962 Si / 1000 Ang^3
#
#
#
# Elastic Constant Matrix: (Units=GPa)
#
#
# Indices 1 2 3 4 5 6 
#
# 1 142.3049 73.9827 57.1822 2.2035 22.8083 -4.4067
# 2 73.9827 117.1764 69.8093 29.1288 4.4764 -9.7821
# 3 57.1822 69.8093 125.8943 34.4916 -7.3187 -3.6451
# 4 2.2035 29.1288 34.4916 51.5370 -5.1644 -8.9662
# 5 22.8083 4.4764 -7.3187 -5.1644 25.1428 7.1829
# 6 -4.4067 -9.7821 -3.6451 -8.9662 7.1829 33.4138
#
#
#
# Elastic Compliance Matrix: (Units=1/GPa)
#
#
# Indices 1 2 3 4 5 6 
#
# 1 0.015062 -0.007005 -0.005345 0.006200 -0.013839 0.003991
# 2 -0.007005 0.017485 -0.004807 -0.006006 0.000022 0.002054
# 3 -0.005345 -0.004807 0.015455 -0.007178 0.010016 -0.004505
# 4 0.006200 -0.006006 -0.007178 0.028184 -0.002689 0.006417
# 5 -0.013839 0.000022 0.010016 -0.002689 0.058705 -0.014067
# 6 0.003991 0.002054 -0.004505 0.006417 -0.014067 0.035310
#
#
# Mechanical properties :
#
#
# Convention : Reuss Voigt Hill
#
# Bulk Modulus (GPa) = 73.05908 87.48044 80.26976
# Shear Modulus (GPa) = 23.91449 34.31213 29.11331
#
# Velocity S-wave (km/s) = 3.40478 4.07833 3.75669
# Velocity P-wave (km/s) = 7.13247 8.03637 7.59787
#
# Compressibility (1/GPa) = 0.01368755
#
# Stress axis : x y z
#
# Youngs Moduli (GPa) = 66.39011 57.19207 64.70524
#
# Poissons Ratio (x) = 0.40066 0.34582
# Poissons Ratio (y) = 0.46509 0.31106
# Poissons Ratio (z) = 0.35482 0.27494
#
# Static dielectric constant tensor:
#      x y z
#    x 3.479900 0.131860 -0.023460 
#    y 0.131860 4.071150 0.388800 
#    z -0.023460 0.388800 3.864180 
# 
# 
# High freq. dielectric constant tensor:
#      x y z
#    x 1.776450 0.014200 -0.002150 
#    y 0.014200 1.825480 0.021900 
#    z -0.002150 0.021900 1.809890 
# 
# From -- ./inp_files/1369.got.cif
#   From: 2010.06.25/outbox.cif.g09.slc.cpg/sg2_1_cif.got.tgz:1369.got - 2010.06.27 13:26:56.
