data_PCOD8017328
_publ_section_title
;
Structure prediction by ZEFSAII (Michael W. Deem and Ramdas Pophale) SiO2 
 PCOD8017328
Probable space group: P -1
;
_chemical_formula_sum "Si O2"
_cell_formula_units_Z 14
_cell_length_a 8.406380
_cell_length_b 12.752440
_cell_length_c 11.197342
_cell_angle_alpha 52.757644
_cell_angle_beta 59.454435
_cell_angle_gamma 42.085119
_cell_volume 636.535647
_symmetry_space_group_name_H-M "P -1"
_symmetry_group_IT_number 2
_symmetry_cell_setting 'triclinic'
loop_
_space_group_symop_operation_xyz
x,y,z
-x,-y,-z
loop_
_atom_site_type_symbol
_atom_site_label
_atom_site_fract_x
_atom_site_fract_y
_atom_site_fract_z
Si Si1 0.903863 0.255812 0.319071
Si Si2 0.871488 0.165303 0.855520
Si Si3 0.498461 0.852889 0.557843
Si Si4 0.591707 0.525635 0.066993
Si Si5 0.127588 0.332284 0.644916
Si Si6 0.941081 0.048319 0.648959
Si Si7 0.106951 0.431236 0.223049
O O1 0.677035 0.383144 0.232315
O O2 0.815790 0.210010 0.497804
O O3 0.016588 0.335758 0.272673
O O4 0.106183 0.080223 0.290091
O O5 0.612331 0.294806 0.921016
O O6 0.840503 0.117133 0.770217
O O7 0.004227 0.244967 0.742112
O O8 0.000000 0.000000 0.000000
O O9 0.603300 0.800952 0.417427
O O10 0.665074 0.690071 0.693559
O O11 0.500000 0.000000 0.500000
O O12 0.229431 0.925062 0.615192
O O13 0.500000 0.500000 0.000000
O O14 0.816000 0.516193 0.955512
O O15 0.000000 0.500000 0.500000
O O16 0.107174 0.394030 0.746458
#
# Coordination Sequence:
#
# PCOD8017328 Si02
#       7
#     2   2   2   2   2   2   2
#     4  11  25  45  66  95 140 177 220 278 335 396
#     4  12  24  42  69 105 133 172 229 279 328 401
#     4  11  19  39  70  96 128 177 224 267 331 396
#     4  12  25  44  71  94 130 181 225 272 342 400
#     4  10  22  38  67 100 129 171 229 275 318 397
#     4  11  24  44  66 100 140 175 220 277 330 396
#     4  11  22  43  64  99 134 172 222 273 329 396
#
# _framework density 21.994054999999999
#
# number of rings (size 3 to 8) (size 9 to 14) (size 15 to 20)
#    0.000    0.857    4.286    3.857    2.000    0.571 
#    5.143    0.714    0.000    0.000    0.000    0.000 
#    0.000    0.000    0.000    0.000    0.000    0.000 
#
# Total GULP energy -173546.525027 kJ/mol
# GULP energy per Si atom -12396.180359 kJ/mol
# Density = 2.194400 g / cm^3
# Si number density = 21.994055 Si / 1000 Ang^3
#
#
#
# Elastic Constant Matrix: (Units=GPa)
#
#
# Indices 1 2 3 4 5 6 
#
# 1 63.7769 36.8289 26.0795 6.0000 13.1770 21.9197
# 2 36.8289 169.1127 68.4725 29.3531 7.9329 25.4720
# 3 26.0795 68.4725 127.7400 -4.4731 24.9406 10.1309
# 4 6.0000 29.3531 -4.4731 49.5626 0.8656 4.2293
# 5 13.1770 7.9329 24.9406 0.8656 41.7623 -5.0394
# 6 21.9197 25.4720 10.1309 4.2293 -5.0394 47.2308
#
#
#
# Elastic Compliance Matrix: (Units=1/GPa)
#
#
# Indices 1 2 3 4 5 6 
#
# 1 0.022371 -0.002646 -0.001027 -0.000303 -0.007078 -0.009463
# 2 -0.002646 0.009816 -0.005111 -0.005795 0.001871 -0.002251
# 3 -0.001027 -0.005111 0.012157 0.004391 -0.006107 -0.000419
# 4 -0.000303 -0.005795 0.004391 0.024078 -0.001930 -0.000038
# 5 -0.007078 0.001871 -0.006107 -0.001930 0.030354 0.006997
# 6 -0.009463 -0.002251 -0.000419 -0.000038 0.006997 0.027618
#
#
# Mechanical properties :
#
#
# Convention : Reuss Voigt Hill
#
# Bulk Modulus (GPa) = 37.34752 69.26572 53.30662
# Shear Modulus (GPa) = 32.70335 42.99438 37.84887
#
# Velocity S-wave (km/s) = 3.86024 4.42613 4.15284
# Velocity P-wave (km/s) = 6.07340 7.59487 6.87635
#
# Compressibility (1/GPa) = 0.02677554
#
# Stress axis : x y z
#
# Youngs Moduli (GPa) = 44.70081 101.87329 82.25551
#
# Poissons Ratio (x) = 0.26958 0.08447
# Poissons Ratio (y) = 0.11829 0.42043
# Poissons Ratio (z) = 0.04590 0.52070
#
# Static dielectric constant tensor:
#      x y z
#    x 4.324990 0.251490 -0.331290 
#    y 0.251490 4.461340 -0.003730 
#    z -0.331290 -0.003730 5.523080 
# 
# 
# High freq. dielectric constant tensor:
#      x y z
#    x 1.851200 0.025640 -0.000170 
#    y 0.025640 1.879750 -0.005690 
#    z -0.000170 -0.005690 1.875630 
# 
# From -- ./inp_files/158490.got.cif
#   From: 2010.06.25/outbox.cif.g09.slc.cpg/sg2_80_cif.got.tgz:158490.got - 2010.06.27 13:26:56.
