data_PCOD8017217
_publ_section_title
;
Structure prediction by ZEFSAII (Michael W. Deem and Ramdas Pophale) SiO2 
 PCOD8017217
Probable space group: P -1
;
_chemical_formula_sum "Si O2"
_cell_formula_units_Z 16
_cell_length_a 19.933409
_cell_length_b 9.752900
_cell_length_c 12.070831
_cell_angle_alpha 121.804359
_cell_angle_beta 51.747332
_cell_angle_gamma 153.706408
_cell_volume 813.654416
_symmetry_space_group_name_H-M "P -1"
_symmetry_group_IT_number 2
_symmetry_cell_setting 'triclinic'
loop_
_space_group_symop_operation_xyz
x,y,z
-x,-y,-z
loop_
_atom_site_type_symbol
_atom_site_label
_atom_site_fract_x
_atom_site_fract_y
_atom_site_fract_z
Si Si1 0.959297 0.315568 0.800441
Si Si2 0.006253 0.279903 0.983447
Si Si3 0.602541 0.391085 0.489682
Si Si4 0.335461 0.431548 0.948888
Si Si5 0.400971 0.706488 0.213915
Si Si6 0.617437 0.633076 0.772462
Si Si7 0.268937 0.686012 0.532048
Si Si8 0.321023 0.591622 0.810669
O O1 0.014212 0.329218 0.866404
O O2 0.092227 0.481972 0.642496
O O3 0.786019 0.964698 0.793212
O O4 0.946544 0.487411 0.894208
O O5 0.132579 0.341455 0.909598
O O6 0.826583 0.935129 0.058598
O O7 0.644766 0.621857 0.612272
O O8 0.701323 0.397886 0.439127
O O9 0.657794 0.499362 0.351752
O O10 0.407040 0.046975 0.552708
O O11 0.486750 0.563765 0.884650
O O12 0.380941 0.598876 0.862368
O O13 0.311315 0.520188 0.111074
O O14 0.450632 0.627539 0.198527
O O15 0.273721 0.609094 0.373690
O O16 0.569998 0.073870 0.178475
#
# Coordination Sequence:
#
# PCOD8017217 Si02
#       8
#     2   2   2   2   2   2   2   2
#     4  11  22  37  62  91 119 150 195 255 293 336
#     4  11  24  37  60  88 120 156 197 241 296 349
#     4   9  19  36  61  88 116 155 195 239 294 352
#     4  12  24  40  60  88 123 159 196 240 290 357
#     4  10  22  38  63  90 118 154 197 245 289 351
#     4  11  23  38  62  90 120 151 202 246 290 341
#     4   9  18  36  60  89 119 148 195 247 294 339
#     4  11  23  41  62  86 124 157 194 237 299 357
#
# _framework density 19.664369000000001
#
# number of rings (size 3 to 8) (size 9 to 14) (size 15 to 20)
#    0.000    1.500    2.500    3.375    3.500    3.500 
#    0.000    0.000    0.000    4.500    0.000    0.000 
#    0.000    0.000    0.000    0.000    0.000    0.000 
#
# Total GULP energy -198481.277124 kJ/mol
# GULP energy per Si atom -12405.079820 kJ/mol
# Density = 1.961961 g / cm^3
# Si number density = 19.664369 Si / 1000 Ang^3
#
#
#
# Elastic Constant Matrix: (Units=GPa)
#
#
# Indices 1 2 3 4 5 6 
#
# 1 48.7315 16.3633 39.0345 -0.8111 10.7568 -4.9968
# 2 16.3633 70.4627 35.7533 9.2662 -3.4444 -0.3904
# 3 39.0345 35.7533 124.3643 8.3752 11.2124 -0.7755
# 4 -0.8111 9.2662 8.3752 37.2318 11.4403 -0.4183
# 5 10.7568 -3.4444 11.2124 11.4403 32.0034 -3.7037
# 6 -4.9968 -0.3904 -0.7755 -0.4183 -3.7037 13.2604
#
#
#
# Elastic Compliance Matrix: (Units=1/GPa)
#
#
# Indices 1 2 3 4 5 6 
#
# 1 0.031760 -0.004527 -0.008193 0.006733 -0.009673 0.008866
# 2 -0.004527 0.018472 -0.004129 -0.005954 0.007131 0.000400
# 3 -0.008193 -0.004129 0.012031 -0.001345 -0.001777 -0.003044
# 4 0.006733 -0.005954 -0.001345 0.033201 -0.014380 -0.000686
# 5 -0.009673 0.007131 -0.001777 -0.014380 0.041921 0.007716
# 6 0.008866 0.000400 -0.003044 -0.000686 0.007716 0.080721
#
#
# Mechanical properties :
#
#
# Convention : Reuss Voigt Hill
#
# Bulk Modulus (GPa) = 35.00853 47.31785 41.16319
# Shear Modulus (GPa) = 19.13313 26.65962 22.89637
#
# Velocity S-wave (km/s) = 3.12265 3.68602 3.41597
# Velocity P-wave (km/s) = 5.55364 6.49851 6.04457
#
# Compressibility (1/GPa) = 0.02856446
#
# Stress axis : x y z
#
# Youngs Moduli (GPa) = 31.48616 54.13571 83.11625
#
# Poissons Ratio (x) = 0.24510 0.68098
# Poissons Ratio (y) = 0.14255 0.34318
# Poissons Ratio (z) = 0.25797 0.22352
#
# Static dielectric constant tensor:
#      x y z
#    x 3.309940 0.005590 0.118900 
#    y 0.005590 3.522670 0.154790 
#    z 0.118900 0.154790 3.778290 
# 
# 
# High freq. dielectric constant tensor:
#      x y z
#    x 1.738150 0.005940 0.004410 
#    y 0.005940 1.766130 0.006730 
#    z 0.004410 0.006730 1.782490 
# 
# From -- ./inp_files/209037.got.cif
#   From: 2010.06.25/outbox.cif.g09.slc.cpg/sg2_105_cif.got.tgz:209037.got - 2010.06.27 13:26:56.
