data_PCOD8017091
_publ_section_title
;
Structure prediction by ZEFSAII (Michael W. Deem and Ramdas Pophale) SiO2 
 PCOD8017091
Probable space group: P -1
;
_chemical_formula_sum "Si O2"
_cell_formula_units_Z 16
_cell_length_a 6.235549
_cell_length_b 13.253095
_cell_length_c 11.480542
_cell_angle_alpha 111.550220
_cell_angle_beta 84.380117
_cell_angle_gamma 63.407355
_cell_volume 748.795490
_symmetry_space_group_name_H-M "P -1"
_symmetry_group_IT_number 2
_symmetry_cell_setting 'triclinic'
loop_
_space_group_symop_operation_xyz
x,y,z
-x,-y,-z
loop_
_atom_site_type_symbol
_atom_site_label
_atom_site_fract_x
_atom_site_fract_y
_atom_site_fract_z
Si Si1 0.923738 0.351063 0.609034
Si Si2 0.153947 0.952140 0.152979
Si Si3 0.639626 0.140938 0.141426
Si Si4 0.373809 0.926043 0.522824
Si Si5 0.748546 0.841441 0.668438
Si Si6 0.566273 0.393597 0.323666
Si Si7 0.156162 0.834575 0.319169
Si Si8 0.212345 0.458406 0.568097
O O1 0.662865 0.484382 0.676556
O O2 0.987358 0.274105 0.448335
O O3 0.915267 0.268447 0.681236
O O4 0.152971 0.378392 0.630890
O O5 0.228139 0.826434 0.174507
O O6 0.218721 0.039297 0.266861
O O7 0.336318 0.904862 0.011744
O O8 0.861499 0.028711 0.159872
O O9 0.355800 0.183022 0.216008
O O10 0.667745 0.263993 0.193266
O O11 0.532882 0.855403 0.597805
O O12 0.374684 0.825535 0.387977
O O13 0.500000 0.000000 0.500000
O O14 0.084492 0.022958 0.608685
O O15 0.483590 0.378452 0.453211
O O16 0.797807 0.419171 0.322419
O O17 0.000000 0.500000 0.500000
#
# Coordination Sequence:
#
# PCOD8017091 Si02
#       8
#     2   2   2   2   2   2   2   2
#     4  11  23  33  61  98 117 151 190 255 313 361
#     4  11  25  41  59  88 120 169 204 241 290 359
#     4  11  25  42  61  82 124 166 209 244 283 361
#     4  11  20  35  58  91 122 158 185 254 310 356
#     4  12  22  36  65  93 122 149 203 250 311 356
#     4  10  22  38  58  87 122 155 200 247 307 351
#     4  11  22  37  58  91 127 152 199 242 312 366
#     4   9  20  35  56  88 117 156 192 245 308 350
#
# _framework density 21.367647999999999
#
# number of rings (size 3 to 8) (size 9 to 14) (size 15 to 20)
#    0.000    1.250    5.000    1.125    7.000    0.000 
#    0.000    0.625    0.000    0.750    0.000    0.000 
#    0.000    0.000    0.000    0.000    0.000    0.000 
#
# Total GULP energy -198211.306324 kJ/mol
# GULP energy per Si atom -12388.206645 kJ/mol
# Density = 2.131901 g / cm^3
# Si number density = 21.367648 Si / 1000 Ang^3
#
#
#
# Elastic Constant Matrix: (Units=GPa)
#
#
# Indices 1 2 3 4 5 6 
#
# 1 104.1655 36.2428 22.6136 -10.7512 5.4773 25.8232
# 2 36.2428 102.3309 35.3866 -12.9327 -2.5099 27.6122
# 3 22.6136 35.3866 67.2626 -10.8692 -3.4818 6.9888
# 4 -10.7512 -12.9327 -10.8692 32.2505 4.5975 -1.7911
# 5 5.4773 -2.5099 -3.4818 4.5975 27.5973 2.8078
# 6 25.8232 27.6122 6.9888 -1.7911 2.8078 49.6113
#
#
#
# Elastic Compliance Matrix: (Units=1/GPa)
#
#
# Indices 1 2 3 4 5 6 
#
# 1 0.012422 -0.002050 -0.002322 0.002688 -0.002911 -0.004736
# 2 -0.002050 0.014548 -0.005829 0.002675 0.001178 -0.006179
# 3 -0.002322 -0.005829 0.019131 0.003203 0.001630 0.001781
# 4 0.002688 0.002675 0.003203 0.034740 -0.005493 -0.001774
# 5 -0.002911 0.001178 0.001630 -0.005493 0.038217 -0.001731
# 6 -0.004736 -0.006179 0.001781 -0.001774 -0.001731 0.025844
#
#
# Mechanical properties :
#
#
# Convention : Reuss Voigt Hill
#
# Bulk Modulus (GPa) = 38.91247 51.36056 45.13651
# Shear Modulus (GPa) = 28.75680 33.85955 31.30818
#
# Velocity S-wave (km/s) = 3.67251 3.98504 3.83196
# Velocity P-wave (km/s) = 6.01943 6.72777 6.38343
#
# Compressibility (1/GPa) = 0.02569870
#
# Stress axis : x y z
#
# Youngs Moduli (GPa) = 80.50152 68.73592 52.27051
#
# Poissons Ratio (x) = 0.14094 0.12136
# Poissons Ratio (y) = 0.16507 0.30470
# Poissons Ratio (z) = 0.18691 0.40068
#
# Static dielectric constant tensor:
#      x y z
#    x 4.233540 0.413790 -0.105710 
#    y 0.413790 3.963620 0.044940 
#    z -0.105710 0.044940 3.504490 
# 
# 
# High freq. dielectric constant tensor:
#      x y z
#    x 1.857770 0.015070 0.000140 
#    y 0.015070 1.835770 -0.000930 
#    z 0.000140 -0.000930 1.786290 
# 
# From -- ./inp_files/367072.got.cif
#   From: 2010.06.25/outbox.cif.g09.slc.cpg/sg2_184_cif.got.tgz:367072.got - 2010.06.27 13:26:56.
