data_PCOD8017317
_publ_section_title
;
Structure prediction by ZEFSAII (Michael W. Deem and Ramdas Pophale) SiO2 
 PCOD8017317
Probable space group: P -1
;
_chemical_formula_sum "Si O2"
_cell_formula_units_Z 10
_cell_length_a 8.687331
_cell_length_b 8.813349
_cell_length_c 12.356106
_cell_angle_alpha 124.845993
_cell_angle_beta 69.835657
_cell_angle_gamma 146.583604
_cell_volume 408.880556
_symmetry_space_group_name_H-M "P -1"
_symmetry_group_IT_number 2
_symmetry_cell_setting 'triclinic'
loop_
_space_group_symop_operation_xyz
x,y,z
-x,-y,-z
loop_
_atom_site_type_symbol
_atom_site_label
_atom_site_fract_x
_atom_site_fract_y
_atom_site_fract_z
Si Si1 0.869910 0.733453 0.061942
Si Si2 0.507675 0.217722 0.121768
Si Si3 0.160796 0.502868 0.628465
Si Si4 0.080883 0.317327 0.208424
Si Si5 0.539305 0.833728 0.466787
O O1 0.611586 0.437101 0.084402
O O2 0.182438 0.972373 0.134691
O O3 0.851434 0.936107 0.126315
O O4 0.825221 0.581169 0.898140
O O5 0.725803 0.452209 0.263810
O O6 0.500000 0.000000 0.000000
O O7 0.413955 0.698096 0.561993
O O8 0.075165 0.639261 0.700136
O O9 0.885022 0.115174 0.505452
O O10 0.367869 0.542213 0.304948
O O11 0.500000 0.000000 0.500000
#
# Coordination Sequence:
#
# PCOD8017317 Si02
#       5
#     2   2   2   2   2
#     4  11  26  41  66  97 127 166 204 268 317 366
#     4  12  25  43  64  93 131 166 212 253 317 381
#     4  11  23  41  67  93 122 170 213 252 308 376
#     4  10  23  43  66  96 129 160 215 261 314 364
#     4  10  22  38  66  94 124 164 211 259 303 371
#
# _framework density 24.457018999999999
#
# number of rings (size 3 to 8) (size 9 to 14) (size 15 to 20)
#    0.000    1.200    2.000    4.200    5.600    9.600 
#    0.000    6.000    0.000    0.000    0.000    0.000 
#    0.000    0.000    0.000    0.000    0.000    0.000 
#
# Total GULP energy -124036.429134 kJ/mol
# GULP energy per Si atom -12403.642913 kJ/mol
# Density = 2.440135 g / cm^3
# Si number density = 24.457019 Si / 1000 Ang^3
#
#
#
# Elastic Constant Matrix: (Units=GPa)
#
#
# Indices 1 2 3 4 5 6 
#
# 1 57.4807 8.6920 15.3271 1.0925 18.0915 6.0833
# 2 8.6920 115.3044 22.3787 -12.5738 7.8827 -10.5229
# 3 15.3271 22.3787 109.0024 6.5592 32.6732 -12.8373
# 4 1.0925 -12.5738 6.5592 28.3502 -1.9352 10.4920
# 5 18.0915 7.8827 32.6732 -1.9352 42.8618 0.7992
# 6 6.0833 -10.5229 -12.8373 10.4920 0.7992 35.9343
#
#
#
# Elastic Compliance Matrix: (Units=1/GPa)
#
#
# Indices 1 2 3 4 5 6 
#
# 1 0.020678 -0.001265 -0.000721 -0.000299 -0.007887 -0.003866
# 2 -0.001265 0.009730 -0.002153 0.004548 0.000573 0.000953
# 3 -0.000721 -0.002153 0.014156 -0.007504 -0.010559 0.006974
# 4 -0.000299 0.004548 -0.007504 0.044933 0.007311 -0.014580
# 5 -0.007887 0.000573 -0.010559 0.007311 0.035030 -0.005183
# 6 -0.003866 0.000953 0.006974 -0.014580 -0.005183 0.035626
#
#
# Mechanical properties :
#
#
# Convention : Reuss Voigt Hill
#
# Bulk Modulus (GPa) = 27.55954 41.62036 34.58995
# Shear Modulus (GPa) = 27.69687 37.12190 32.40938
#
# Velocity S-wave (km/s) = 3.36887 3.90018 3.64422
# Velocity P-wave (km/s) = 5.14057 6.11036 5.64632
#
# Compressibility (1/GPa) = 0.03628508
#
# Stress axis : x y z
#
# Youngs Moduli (GPa) = 48.36089 102.77776 70.64364
#
# Poissons Ratio (x) = 0.13002 0.05094
# Poissons Ratio (y) = 0.06118 0.15209
# Poissons Ratio (z) = 0.03487 0.22127
#
# Static dielectric constant tensor:
#      x y z
#    x 4.527310 0.051030 0.629820 
#    y 0.051030 4.518280 0.353830 
#    z 0.629820 0.353830 5.422020 
# 
# 
# High freq. dielectric constant tensor:
#      x y z
#    x 1.960180 0.001690 0.017910 
#    y 0.001690 1.974030 0.008210 
#    z 0.017910 0.008210 1.985900 
# 
# From -- ./inp_files/16300.got.cif
#   From: 2010.06.25/outbox.cif.g09.slc.cpg/sg2_9_cif.got.tgz:16300.got - 2010.06.27 13:26:56.
