data_PCOD8017489
_publ_section_title
;
Structure prediction by ZEFSAII (Michael W. Deem and Ramdas Pophale) SiO2 
 PCOD8017489
Probable space group: P -1
;
_chemical_formula_sum "Si O2"
_cell_formula_units_Z 16
_cell_length_a 19.982136
_cell_length_b 8.483505
_cell_length_c 17.413345
_cell_angle_alpha 139.138807
_cell_angle_beta 156.782372
_cell_angle_gamma 39.199775
_cell_volume 723.875547
_symmetry_space_group_name_H-M "P -1"
_symmetry_group_IT_number 2
_symmetry_cell_setting 'triclinic'
loop_
_space_group_symop_operation_xyz
x,y,z
-x,-y,-z
loop_
_atom_site_type_symbol
_atom_site_label
_atom_site_fract_x
_atom_site_fract_y
_atom_site_fract_z
Si Si1 0.197580 0.262588 0.902010
Si Si2 0.273756 0.209760 0.791269
Si Si3 0.915223 0.166088 0.399321
Si Si4 0.384441 0.250289 0.426866
Si Si5 0.399382 0.999228 0.569296
Si Si6 0.435189 0.771307 0.680835
Si Si7 0.089072 0.207497 0.194936
Si Si8 0.525705 0.516527 0.122599
O O1 0.289427 0.146504 0.874789
O O2 0.055548 0.533790 0.835745
O O3 0.116606 0.046641 0.771613
O O4 0.352760 0.284709 0.130063
O O5 0.062616 0.297491 0.573999
O O6 0.369576 0.961539 0.751961
O O7 0.370040 0.423953 0.961493
O O8 0.730628 0.368126 0.303838
O O9 0.000000 0.000000 0.500000
O O10 0.446277 0.221703 0.393018
O O11 0.406658 0.508669 0.578809
O O12 0.180641 0.267815 0.235724
O O13 0.500000 0.000000 0.500000
O O14 0.339957 0.884546 0.541736
O O15 0.225720 0.110423 0.373730
O O16 0.499377 0.202278 0.771121
O O17 0.000000 0.000000 0.000000
O O18 0.500000 0.500000 0.000000
#
# Coordination Sequence:
#
# PCOD8017489 Si02
#       8
#     2   2   2   2   2   2   2   2
#     4  11  22  40  67  97 137 178 232 280 337 414
#     4  11  24  39  69 100 140 190 223 278 344 411
#     4  10  22  39  60  97 130 178 230 273 326 403
#     4  10  24  43  70  94 124 179 230 278 340 405
#     4  11  24  45  68  99 138 177 225 291 341 409
#     4  12  23  44  69 101 135 179 229 282 349 402
#     4  11  25  46  67  98 132 177 235 288 338 407
#     4  12  24  44  64 102 145 181 228 277 350 410
#
# _framework density 22.103248000000001
#
# number of rings (size 3 to 8) (size 9 to 14) (size 15 to 20)
#    0.000    1.000    2.500    4.500    7.000    0.500 
#    2.250    3.750    0.000    0.000    0.000    0.000 
#    0.000    0.000    0.000    0.000    0.000    0.000 
#
# Total GULP energy -198261.571318 kJ/mol
# GULP energy per Si atom -12391.348207 kJ/mol
# Density = 2.205294 g / cm^3
# Si number density = 22.103248 Si / 1000 Ang^3
#
#
#
# Elastic Constant Matrix: (Units=GPa)
#
#
# Indices 1 2 3 4 5 6 
#
# 1 76.8964 32.1487 33.4390 -7.3905 1.7418 -12.8552
# 2 32.1487 86.8863 26.8620 15.9733 5.4077 -7.6294
# 3 33.4390 26.8620 143.1316 14.1598 27.6092 4.2776
# 4 -7.3905 15.9733 14.1598 48.7646 2.7351 1.1024
# 5 1.7418 5.4077 27.6092 2.7351 41.7298 6.1033
# 6 -12.8552 -7.6294 4.2776 1.1024 6.1033 29.6692
#
#
#
# Elastic Compliance Matrix: (Units=1/GPa)
#
#
# Indices 1 2 3 4 5 6 
#
# 1 0.019270 -0.006379 -0.004404 0.006049 0.001545 0.006801
# 2 -0.006379 0.015358 -0.000646 -0.005783 -0.001171 0.001734
# 3 -0.004404 -0.000646 0.009556 -0.002870 -0.005544 -0.002205
# 4 0.006049 -0.005783 -0.002870 0.024098 0.000743 0.000499
# 5 0.001545 -0.001171 -0.005544 0.000743 0.028357 -0.004693
# 6 0.006801 0.001734 -0.002205 0.000499 -0.004693 0.038363
#
#
# Mechanical properties :
#
#
# Convention : Reuss Voigt Hill
#
# Bulk Modulus (GPa) = 46.89312 54.64597 50.76954
# Shear Modulus (GPa) = 30.30867 38.33035 34.31951
#
# Velocity S-wave (km/s) = 3.70703 4.16883 3.94469
# Velocity P-wave (km/s) = 6.29161 6.92452 6.61563
#
# Compressibility (1/GPa) = 0.02132509
#
# Stress axis : x y z
#
# Youngs Moduli (GPa) = 51.89333 65.11373 104.64611
#
# Poissons Ratio (x) = 0.41539 0.46091
# Poissons Ratio (y) = 0.33105 0.06756
# Poissons Ratio (z) = 0.22856 0.04204
#
# Static dielectric constant tensor:
#      x y z
#    x 4.083330 -0.174580 0.196890 
#    y -0.174580 3.885020 -0.019660 
#    z 0.196890 -0.019660 4.292990 
# 
# 
# High freq. dielectric constant tensor:
#      x y z
#    x 1.853300 -0.009380 0.011460 
#    y -0.009380 1.871770 0.013730 
#    z 0.011460 0.013730 1.886510 
# 
# From -- ./inp_files/577653.got.cif
#   From: 2010.06.25/outbox.cif.g09.slc.cpg/sg2_289_cif.got.tgz:577653.got - 2010.06.27 13:26:56.
