data_PCOD8017016
_publ_section_title
;
Structure prediction by ZEFSAII (Michael W. Deem and Ramdas Pophale) SiO2 
 PCOD8017016
Probable space group: P -1
;
_chemical_formula_sum "Si O2"
_cell_formula_units_Z 14
_cell_length_a 13.899377
_cell_length_b 10.059783
_cell_length_c 7.774323
_cell_angle_alpha 64.773979
_cell_angle_beta 42.985855
_cell_angle_gamma 53.615078
_cell_volume 596.615230
_symmetry_space_group_name_H-M "P -1"
_symmetry_group_IT_number 2
_symmetry_cell_setting 'triclinic'
loop_
_space_group_symop_operation_xyz
x,y,z
-x,-y,-z
loop_
_atom_site_type_symbol
_atom_site_label
_atom_site_fract_x
_atom_site_fract_y
_atom_site_fract_z
Si Si1 0.707866 0.445170 0.075913
Si Si2 0.647296 0.447650 0.528317
Si Si3 0.289252 0.377073 0.356927
Si Si4 0.363235 0.915442 0.929030
Si Si5 0.088731 0.901009 0.122657
Si Si6 0.768075 0.898350 0.318964
Si Si7 0.263669 0.935094 0.405400
O O1 0.696724 0.507744 0.253615
O O2 0.540453 0.446141 0.248959
O O3 0.739877 0.562210 0.834977
O O4 0.854666 0.264012 0.973480
O O5 0.741006 0.475216 0.551344
O O6 0.687539 0.257483 0.560024
O O7 0.464973 0.233679 0.234815
O O8 0.174095 0.293514 0.601314
O O9 0.337034 0.056003 0.743010
O O10 0.227978 0.855203 0.108090
O O11 0.334756 0.987612 0.119536
O O12 0.926017 0.951738 0.406972
O O13 0.084363 0.054331 0.923571
O O14 0.664048 0.017487 0.546692
#
# Coordination Sequence:
#
# PCOD8017016 Si02
#       7
#     2   2   2   2   2   2   2
#     4  11  22  39  66  95 123 162 214 252 310 363
#     4  11  22  38  66  96 120 165 211 257 301 371
#     4  12  23  41  62  96 135 155 199 269 320 354
#     4  10  22  37  64  93 123 161 210 254 306 363
#     4  10  22  43  65  92 124 164 214 256 295 378
#     4  10  25  40  61  94 129 166 202 255 315 369
#     4  12  22  42  69  89 123 169 216 248 302 373
#
# _framework density 23.465712
#
# number of rings (size 3 to 8) (size 9 to 14) (size 15 to 20)
#    0.857    0.286    4.286    2.571    2.000    1.714 
#    0.000    1.429    0.000    0.000    0.000    0.000 
#    0.000    0.000    0.000    0.000    0.000    0.000 
#
# Total GULP energy -173495.675014 kJ/mol
# GULP energy per Si atom -12392.548215 kJ/mol
# Density = 2.341230 g / cm^3
# Si number density = 23.465712 Si / 1000 Ang^3
#
#
#
# Elastic Constant Matrix: (Units=GPa)
#
#
# Indices 1 2 3 4 5 6 
#
# 1 54.3160 23.1718 34.8253 -11.6963 32.8121 -5.7423
# 2 23.1718 108.0774 34.6204 -11.2338 14.0343 -3.6700
# 3 34.8253 34.6204 92.0706 -9.6772 27.4011 -2.2888
# 4 -11.6963 -11.2338 -9.6772 38.5207 -12.5033 3.4756
# 5 32.8121 14.0343 27.4011 -12.5033 53.7664 8.3467
# 6 -5.7423 -3.6700 -2.2888 3.4756 8.3467 34.2006
#
#
#
# Elastic Compliance Matrix: (Units=1/GPa)
#
#
# Indices 1 2 3 4 5 6 
#
# 1 0.037304 -0.002757 -0.006760 0.001462 -0.019846 0.010210
# 2 -0.002757 0.010929 -0.003118 0.001824 0.000825 0.000114
# 3 -0.006760 -0.003118 0.015489 -0.000080 -0.003022 0.000313
# 4 0.001462 0.001824 -0.000080 0.029260 0.006102 -0.004027
# 5 -0.019846 0.000825 -0.003022 0.006102 0.035428 -0.012712
# 6 0.010210 0.000114 0.000313 -0.004027 -0.012712 0.034498
#
#
# Mechanical properties :
#
#
# Convention : Reuss Voigt Hill
#
# Bulk Modulus (GPa) = 26.00529 48.85542 37.43035
# Shear Modulus (GPa) = 24.87638 36.08730 30.48184
#
# Velocity S-wave (km/s) = 3.25947 3.92583 3.60807
# Velocity P-wave (km/s) = 5.02711 6.43542 5.77436
#
# Compressibility (1/GPa) = 0.03845372
#
# Stress axis : x y z
#
# Youngs Moduli (GPa) = 26.80666 91.50186 64.56186
#
# Poissons Ratio (x) = 0.25227 0.43641
# Poissons Ratio (y) = 0.07390 0.20128
# Poissons Ratio (z) = 0.18120 0.28527
#
# Static dielectric constant tensor:
#      x y z
#    x 4.276570 0.017840 0.323360 
#    y 0.017840 4.016150 -0.062150 
#    z 0.323360 -0.062150 4.381540 
# 
# 
# High freq. dielectric constant tensor:
#      x y z
#    x 1.931520 -0.007850 0.024810 
#    y -0.007850 1.903980 0.002900 
#    z 0.024810 0.002900 1.928340 
# 
# From -- ./inp_files/298096.got.cif
#   From: 2010.06.25/outbox.cif.g09.slc.cpg/sg2_150_cif.got.tgz:298096.got - 2010.06.27 13:26:56.
