data_PCOD8017925
_publ_section_title
;
Structure prediction by ZEFSAII (Michael W. Deem and Ramdas Pophale) SiO2 
 PCOD8017925
Probable space group: P -1
;
_chemical_formula_sum "Si O2"
_cell_formula_units_Z 16
_cell_length_a 11.316726
_cell_length_b 11.575425
_cell_length_c 10.876218
_cell_angle_alpha 64.874789
_cell_angle_beta 150.623584
_cell_angle_gamma 109.746531
_cell_volume 631.111675
_symmetry_space_group_name_H-M "P -1"
_symmetry_group_IT_number 2
_symmetry_cell_setting 'triclinic'
loop_
_space_group_symop_operation_xyz
x,y,z
-x,-y,-z
loop_
_atom_site_type_symbol
_atom_site_label
_atom_site_fract_x
_atom_site_fract_y
_atom_site_fract_z
Si Si1 0.329216 0.334780 0.934237
Si Si2 0.930464 0.822843 0.411246
Si Si3 0.263827 0.547554 0.184191
Si Si4 0.244617 0.583211 0.872824
Si Si5 0.287416 0.041888 0.633953
Si Si6 0.296214 0.963655 0.177500
Si Si7 0.606070 0.793414 0.708771
Si Si8 0.980582 0.787509 0.865430
O O1 0.161498 0.224645 0.783581
O O2 0.176684 0.467270 0.773307
O O3 0.517400 0.356121 0.988425
O O4 0.471246 0.291837 0.208718
O O5 0.711756 0.908843 0.244562
O O6 0.024428 0.692191 0.627420
O O7 0.150762 0.912502 0.553065
O O8 0.500000 0.500000 0.500000
O O9 0.226249 0.700161 0.104632
O O10 0.313133 0.525263 0.095211
O O11 0.000000 0.500000 0.000000
O O12 0.539082 0.017122 0.803019
O O13 0.149721 0.171155 0.396908
O O14 0.384848 0.847158 0.401315
O O15 0.041506 0.924541 0.914754
O O16 0.256205 0.090375 0.162228
O O17 0.799319 0.718295 0.825454
#
# Coordination Sequence:
#
# PCOD8017925 Si02
#       8
#     2   2   2   2   2   2   2   2
#     4  11  25  43  68  94 143 187 252 296 381 434
#     4  11  23  43  67  98 147 188 239 308 369 455
#     4  12  30  50  80 111 149 193 253 313 376 442
#     4  11  26  46  69 104 137 193 248 306 367 450
#     4  10  23  40  68 106 139 187 245 302 380 441
#     4  10  22  39  68  98 141 180 238 306 367 439
#     4  10  22  42  63 103 139 182 242 297 370 446
#     4  11  23  41  72  98 141 187 243 305 370 439
#
# _framework density 25.352091999999999
#
# number of rings (size 3 to 8) (size 9 to 14) (size 15 to 20)
#    0.000    1.250    1.250    3.000    8.750    3.000 
#    2.250    3.125    0.000    0.000    0.000    0.000 
#    0.000    0.000    0.000    0.000    0.000    0.000 
#
# Total GULP energy -198244.273119 kJ/mol
# GULP energy per Si atom -12390.267070 kJ/mol
# Density = 2.529439 g / cm^3
# Si number density = 25.352092 Si / 1000 Ang^3
#
#
#
# Elastic Constant Matrix: (Units=GPa)
#
#
# Indices 1 2 3 4 5 6 
#
# 1 131.8549 34.2908 24.3819 -3.0819 -13.1513 0.2988
# 2 34.2908 87.8202 1.9713 2.7076 0.4641 -10.8174
# 3 24.3819 1.9713 45.3026 -8.6136 -5.8521 -7.7153
# 4 -3.0819 2.7076 -8.6136 33.3478 -7.8703 1.4941
# 5 -13.1513 0.4641 -5.8521 -7.8703 36.8975 -7.6340
# 6 0.2988 -10.8174 -7.7153 1.4941 -7.6340 42.5000
#
#
#
# Elastic Compliance Matrix: (Units=1/GPa)
#
#
# Indices 1 2 3 4 5 6 
#
# 1 0.009789 -0.003932 -0.004901 0.000635 0.002583 -0.001518
# 2 -0.003932 0.013379 0.001798 -0.001341 -0.000814 0.003660
# 3 -0.004901 0.001798 0.027877 0.007637 0.005582 0.006287
# 4 0.000635 -0.001341 0.007637 0.034198 0.009052 0.001464
# 5 0.002583 -0.000814 0.005582 0.009052 0.032141 0.006243
# 6 -0.001518 0.003660 0.006287 0.001464 0.006243 0.026683
#
#
# Mechanical properties :
#
#
# Convention : Reuss Voigt Hill
#
# Bulk Modulus (GPa) = 27.04737 42.91841 34.98289
# Shear Modulus (GPa) = 29.33183 36.17133 32.75158
#
# Velocity S-wave (km/s) = 3.40513 3.78134 3.59816
# Velocity P-wave (km/s) = 5.11388 6.00254 5.57594
#
# Compressibility (1/GPa) = 0.03697217
#
# Stress axis : x y z
#
# Youngs Moduli (GPa) = 102.15522 74.74649 35.87140
#
# Poissons Ratio (x) = 0.29394 0.17582
# Poissons Ratio (y) = 0.40172 -0.06448
# Poissons Ratio (z) = 0.50071 -0.13436
#
# Static dielectric constant tensor:
#      x y z
#    x 4.645900 -0.207890 -0.183350 
#    y -0.207890 4.711010 -0.284510 
#    z -0.183350 -0.284510 4.260180 
# 
# 
# High freq. dielectric constant tensor:
#      x y z
#    x 2.025280 -0.015530 -0.013830 
#    y -0.015530 2.023670 -0.019410 
#    z -0.013830 -0.019410 1.991320 
# 
# From -- ./inp_files/427925.got.cif
#   From: 2010.06.25/outbox.cif.g09.slc.cpg/sg2_214_cif.got.tgz:427925.got - 2010.06.27 13:26:56.
