data_PCOD8017165
_publ_section_title
;
Structure prediction by ZEFSAII (Michael W. Deem and Ramdas Pophale) SiO2 
 PCOD8017165
Probable space group: P -1
;
_chemical_formula_sum "Si O2"
_cell_formula_units_Z 14
_cell_length_a 16.166428
_cell_length_b 8.684759
_cell_length_c 13.773762
_cell_angle_alpha 125.988784
_cell_angle_beta 25.470820
_cell_angle_gamma 120.871194
_cell_volume 672.079046
_symmetry_space_group_name_H-M "P -1"
_symmetry_group_IT_number 2
_symmetry_cell_setting 'triclinic'
loop_
_space_group_symop_operation_xyz
x,y,z
-x,-y,-z
loop_
_atom_site_type_symbol
_atom_site_label
_atom_site_fract_x
_atom_site_fract_y
_atom_site_fract_z
Si Si1 0.941961 0.811625 0.864745
Si Si2 0.007128 0.751280 0.993593
Si Si3 0.605672 0.615985 0.054693
Si Si4 0.539044 0.707118 0.787825
Si Si5 0.784823 0.029785 0.703336
Si Si6 0.312975 0.435094 0.620968
Si Si7 0.255776 0.720588 0.343366
O O1 0.992547 0.724970 0.884044
O O2 0.089733 0.715410 0.596526
O O3 0.728771 0.758305 0.039567
O O4 0.949040 0.037573 0.942441
O O5 0.182166 0.618509 0.797777
O O6 0.803826 0.699699 0.235177
O O7 0.475919 0.496986 0.221313
O O8 0.462036 0.741714 0.184581
O O9 0.743095 0.475622 0.791597
O O10 0.620526 0.688476 0.587318
O O11 0.683759 0.829136 0.743470
O O12 0.327904 0.816387 0.050729
O O13 0.780142 0.100113 0.623070
O O14 0.000000 0.000000 0.500000
O O15 0.500000 0.500000 0.500000
#
# Coordination Sequence:
#
# PCOD8017165 Si02
#       7
#     2   2   2   2   2   2   2
#     4  11  22  41  62  86 123 158 195 250 298 345
#     4  10  25  40  60  92 117 157 212 244 289 358
#     4  10  22  39  61  89 120 155 195 245 301 354
#     4  10  22  40  62  90 120 156 203 244 294 362
#     4  10  23  40  63  93 123 154 193 247 304 355
#     4  11  23  42  63  86 121 161 201 250 297 344
#     4  10  22  38  61  91 118 154 201 240 295 366
#
# _framework density 20.830881000000002
#
# number of rings (size 3 to 8) (size 9 to 14) (size 15 to 20)
#    0.000    1.714    0.000    3.000    0.000   14.857 
#    0.000    3.571    0.000    0.000    0.000    0.000 
#    0.000    0.000    0.000    0.000    0.000    0.000 
#
# Total GULP energy -173667.069240 kJ/mol
# GULP energy per Si atom -12404.790660 kJ/mol
# Density = 2.078347 g / cm^3
# Si number density = 20.830881 Si / 1000 Ang^3
#
#
#
# Elastic Constant Matrix: (Units=GPa)
#
#
# Indices 1 2 3 4 5 6 
#
# 1 113.6731 67.2138 58.1391 -16.8605 -13.3384 -4.4924
# 2 67.2138 108.7407 46.5064 -25.0150 -9.2961 -1.3404
# 3 58.1391 46.5064 131.7612 -16.4791 4.9184 -7.3588
# 4 -16.8605 -25.0150 -16.4791 25.6606 2.2159 -0.4461
# 5 -13.3384 -9.2961 4.9184 2.2159 51.1217 -7.9942
# 6 -4.4924 -1.3404 -7.3588 -0.4461 -7.9942 30.4707
#
#
#
# Elastic Compliance Matrix: (Units=1/GPa)
#
#
# Indices 1 2 3 4 5 6 
#
# 1 0.016124 -0.007779 -0.004406 -0.000089 0.003516 0.001892
# 2 -0.007779 0.017058 -0.001308 0.010613 0.000679 -0.000379
# 3 -0.004406 -0.001308 0.010502 0.002797 -0.002322 0.001261
# 4 -0.000089 0.010613 0.002797 0.051111 -0.000296 0.001800
# 5 0.003516 0.000679 -0.002322 -0.000296 0.021727 0.005683
# 6 0.001892 -0.000379 0.001261 0.001800 0.005683 0.034903
#
#
# Mechanical properties :
#
#
# Convention : Reuss Voigt Hill
#
# Bulk Modulus (GPa) = 59.87985 77.54374 68.71179
# Shear Modulus (GPa) = 27.17728 33.60499 30.39114
#
# Velocity S-wave (km/s) = 3.61593 4.02086 3.82376
# Velocity P-wave (km/s) = 6.80010 7.67220 7.24928
#
# Compressibility (1/GPa) = 0.01670011
#
# Stress axis : x y z
#
# Youngs Moduli (GPa) = 62.01812 58.62186 95.21949
#
# Poissons Ratio (x) = 0.45601 0.41952
# Poissons Ratio (y) = 0.48243 0.12452
# Poissons Ratio (z) = 0.27324 0.07666
#
# Static dielectric constant tensor:
#      x y z
#    x 3.799170 -0.095790 0.145090 
#    y -0.095790 3.582590 -0.062100 
#    z 0.145090 -0.062100 3.884260 
# 
# 
# High freq. dielectric constant tensor:
#      x y z
#    x 1.819180 -0.002830 0.005870 
#    y -0.002830 1.816580 -0.005300 
#    z 0.005870 -0.005300 1.826370 
# 
# From -- ./inp_files/92155.got.cif
#   From: 2010.06.25/outbox.cif.g09.slc.cpg/sg2_47_cif.got.tgz:92155.got - 2010.06.27 13:26:56.
