data_PCOD8017882
_publ_section_title
;
Structure prediction by ZEFSAII (Michael W. Deem and Ramdas Pophale) SiO2 
 PCOD8017882
Probable space group: P -1
;
_chemical_formula_sum "Si O2"
_cell_formula_units_Z 14
_cell_length_a 11.037549
_cell_length_b 8.829510
_cell_length_c 13.937306
_cell_angle_alpha 45.322749
_cell_angle_beta 38.675775
_cell_angle_gamma 51.834774
_cell_volume 596.242310
_symmetry_space_group_name_H-M "P -1"
_symmetry_group_IT_number 2
_symmetry_cell_setting 'triclinic'
loop_
_space_group_symop_operation_xyz
x,y,z
-x,-y,-z
loop_
_atom_site_type_symbol
_atom_site_label
_atom_site_fract_x
_atom_site_fract_y
_atom_site_fract_z
Si Si1 0.507922 0.238266 0.428496
Si Si2 0.897895 0.173726 0.691957
Si Si3 0.117088 0.828920 0.076164
Si Si4 0.195625 0.863039 0.544333
Si Si5 0.417820 0.241371 0.179179
Si Si6 0.483457 0.564013 0.143942
Si Si7 0.105560 0.519006 0.602024
O O1 0.654334 0.248794 0.420235
O O2 0.590416 0.389544 0.230079
O O3 0.289619 0.335128 0.550402
O O4 0.500000 0.000000 0.500000
O O5 0.961689 0.137819 0.779550
O O6 0.661133 0.240953 0.801664
O O7 0.978000 0.367791 0.496863
O O8 0.984779 0.951894 0.683083
O O9 0.061895 0.592161 0.191530
O O10 0.347310 0.841862 0.917814
O O11 0.000000 0.000000 0.000000
O O12 0.169592 0.699002 0.550643
O O13 0.289897 0.056349 0.353995
O O14 0.355631 0.434656 0.207729
O O15 0.367687 0.330054 0.062525
#
# Coordination Sequence:
#
# PCOD8017882 Si02
#       7
#     2   2   2   2   2   2   2
#     4  11  21  39  67  97 126 173 223 262 313 392
#     4  10  24  43  67  95 128 178 219 259 318 403
#     4  11  24  42  69  96 130 169 222 267 323 382
#     4  12  24  41  70  98 131 168 220 269 326 379
#     4  10  22  39  67  96 128 167 218 268 319 382
#     4   9  21  40  63  94 127 168 219 266 311 376
#     4  11  25  44  65  97 135 173 211 270 326 388
#
# _framework density 23.480388000000001
#
# number of rings (size 3 to 8) (size 9 to 14) (size 15 to 20)
#    0.000    1.429    1.429    3.000   10.000    0.000 
#    0.000    8.571    0.000    0.000    0.000    0.000 
#    0.000    0.000    0.000    0.000    0.000    0.000 
#
# Total GULP energy -173441.102133 kJ/mol
# GULP energy per Si atom -12388.650152 kJ/mol
# Density = 2.342695 g / cm^3
# Si number density = 23.480388 Si / 1000 Ang^3
#
#
#
# Elastic Constant Matrix: (Units=GPa)
#
#
# Indices 1 2 3 4 5 6 
#
# 1 97.5745 36.3564 49.2705 2.0212 27.7694 -1.6946
# 2 36.3564 136.8401 29.0724 18.9723 -1.7110 4.3319
# 3 49.2705 29.0724 98.7278 -3.3527 30.0652 8.5154
# 4 2.0212 18.9723 -3.3527 26.7452 -8.4329 -0.8486
# 5 27.7694 -1.7110 30.0652 -8.4329 47.2553 -12.3201
# 6 -1.6946 4.3319 8.5154 -0.8486 -12.3201 36.7669
#
#
#
# Elastic Compliance Matrix: (Units=1/GPa)
#
#
# Indices 1 2 3 4 5 6 
#
# 1 0.015803 -0.002946 -0.005127 -0.001772 -0.006430 0.000067
# 2 -0.002946 0.009428 -0.002240 -0.005987 0.002414 -0.000057
# 3 -0.005127 -0.002240 0.016870 0.000879 -0.009479 -0.007036
# 4 -0.001772 -0.005987 0.000879 0.045028 0.009512 0.004647
# 5 -0.006430 0.002414 -0.009479 0.009512 0.036416 0.014037
# 6 0.000067 -0.000057 -0.007036 0.004647 0.014037 0.033648
#
#
# Mechanical properties :
#
#
# Convention : Reuss Voigt Hill
#
# Bulk Modulus (GPa) = 46.56311 62.50457 54.53384
# Shear Modulus (GPa) = 27.03025 36.71635 31.87330
#
# Velocity S-wave (km/s) = 3.39659 3.95866 3.68835
# Velocity P-wave (km/s) = 5.93769 6.89727 6.43539
#
# Compressibility (1/GPa) = 0.02147623
#
# Stress axis : x y z
#
# Youngs Moduli (GPa) = 63.27894 106.06180 59.27574
#
# Poissons Ratio (x) = 0.31248 0.30390
# Poissons Ratio (y) = 0.18643 0.13276
# Poissons Ratio (z) = 0.32442 0.23755
#
# Static dielectric constant tensor:
#      x y z
#    x 4.157450 -0.214660 0.480600 
#    y -0.214660 4.438260 0.112500 
#    z 0.480600 0.112500 4.510110 
# 
# 
# High freq. dielectric constant tensor:
#      x y z
#    x 1.913170 -0.017890 0.028000 
#    y -0.017890 1.942940 0.012190 
#    z 0.028000 0.012190 1.933600 
# 
# From -- ./inp_files/512594.got.cif
#   From: 2010.06.25/outbox.cif.g09.slc.cpg/sg2_257_cif.got.tgz:512594.got - 2010.06.27 13:26:56.
