data_PCOD8017301
_publ_section_title
;
Structure prediction by ZEFSAII (Michael W. Deem and Ramdas Pophale) SiO2 
 PCOD8017301
Probable space group: P -1
;
_chemical_formula_sum "Si O2"
_cell_formula_units_Z 16
_cell_length_a 11.167444
_cell_length_b 11.078943
_cell_length_c 11.089380
_cell_angle_alpha 106.996592
_cell_angle_beta 97.372003
_cell_angle_gamma 143.109846
_cell_volume 611.174727
_symmetry_space_group_name_H-M "P -1"
_symmetry_group_IT_number 2
_symmetry_cell_setting 'triclinic'
loop_
_space_group_symop_operation_xyz
x,y,z
-x,-y,-z
loop_
_atom_site_type_symbol
_atom_site_label
_atom_site_fract_x
_atom_site_fract_y
_atom_site_fract_z
Si Si1 0.683127 0.479704 0.208729
Si Si2 0.915468 0.038314 0.769134
Si Si3 0.234620 0.732845 0.510629
Si Si4 0.411326 0.162210 0.691644
Si Si5 0.604049 0.968751 0.822447
Si Si6 0.280169 0.264015 0.555633
Si Si7 0.802621 0.939884 0.125108
Si Si8 0.942758 0.593101 0.835326
O O1 0.956363 0.758153 0.262203
O O2 0.614598 0.502615 0.323938
O O3 0.638468 0.295473 0.199843
O O4 0.486045 0.331335 0.035942
O O5 0.769155 0.994854 0.827059
O O6 0.101539 0.116521 0.890290
O O7 0.726101 0.762588 0.597488
O O8 0.177334 0.607160 0.342962
O O9 0.000000 0.500000 0.500000
O O10 0.272480 0.914519 0.537613
O O11 0.496421 0.933347 0.676910
O O12 0.452803 0.310018 0.643085
O O13 0.703777 0.396414 0.839340
O O14 0.218980 0.031594 0.732165
O O15 0.813542 0.242971 0.010142
O O16 0.000000 0.000000 0.500000
O O17 0.973950 0.197490 0.150547
#
# Coordination Sequence:
#
# PCOD8017301 Si02
#       8
#     2   2   2   2   2   2   2   2
#     4  10  23  40  67 103 143 181 225 286 350 417
#     4  11  23  40  69 102 147 182 226 283 350 426
#     4  12  28  51  77  98 141 191 239 295 349 418
#     4  12  24  47  73 100 146 186 233 294 350 410
#     4  11  28  47  70 111 139 185 238 290 352 418
#     4  10  22  38  66 102 137 183 227 277 349 415
#     4  11  23  41  68 108 141 184 227 280 359 418
#     4  11  27  47  73 107 140 185 240 293 350 418
#
# _framework density 26.179092000000001
#
# number of rings (size 3 to 8) (size 9 to 14) (size 15 to 20)
#    0.000    1.000    3.750    2.250    8.750    2.500 
#    0.000    0.000    0.000    0.000    0.000    0.000 
#    0.000    0.000    0.000    0.000    0.000    0.000 
#
# Total GULP energy -198249.855215 kJ/mol
# GULP energy per Si atom -12390.615951 kJ/mol
# Density = 2.611951 g / cm^3
# Si number density = 26.179092 Si / 1000 Ang^3
#
#
#
# Elastic Constant Matrix: (Units=GPa)
#
#
# Indices 1 2 3 4 5 6 
#
# 1 55.5258 -7.1536 8.5452 -4.9634 5.8052 16.3604
# 2 -7.1536 46.6022 -9.6478 8.7638 -1.5854 12.6127
# 3 8.5452 -9.6478 123.7346 -7.0179 2.1589 1.8800
# 4 -4.9634 8.7638 -7.0179 38.8104 1.4604 3.0707
# 5 5.8052 -1.5854 2.1589 1.4604 20.7830 -7.6570
# 6 16.3604 12.6127 1.8800 3.0707 -7.6570 22.0556
#
#
#
# Elastic Compliance Matrix: (Units=1/GPa)
#
#
# Indices 1 2 3 4 5 6 
#
# 1 0.037539 0.016685 0.000241 0.005873 -0.027214 -0.047673
# 2 0.016685 0.034433 0.002289 -0.001651 -0.016004 -0.037588
# 3 0.000241 0.002289 0.008402 0.001352 -0.001997 -0.003086
# 4 0.005873 -0.001651 0.001352 0.028220 -0.007610 -0.010098
# 5 -0.027214 -0.016004 -0.001997 -0.007610 0.076255 0.057042
# 6 -0.047673 -0.037588 -0.003086 -0.010098 0.057042 0.123671
#
#
# Mechanical properties :
#
#
# Convention : Reuss Voigt Hill
#
# Bulk Modulus (GPa) = 8.41731 23.26112 15.83922
# Shear Modulus (GPa) = 16.14509 31.93770 24.04140
#
# Velocity S-wave (km/s) = 2.48607 3.49660 3.03371
# Velocity P-wave (km/s) = 3.38571 5.02058 4.28190
#
# Compressibility (1/GPa) = 0.11880278
#
# Stress axis : x y z
#
# Youngs Moduli (GPa) = 26.63897 29.04228 119.01756
#
# Poissons Ratio (x) = -0.48456 -0.02865
# Poissons Ratio (y) = -0.44446 -0.27246
# Poissons Ratio (z) = -0.00641 -0.06648
#
# Static dielectric constant tensor:
#      x y z
#    x 4.755730 -0.032250 -0.161610 
#    y -0.032250 4.557220 0.156690 
#    z -0.161610 0.156690 5.422890 
# 
# 
# High freq. dielectric constant tensor:
#      x y z
#    x 2.032220 0.003030 -0.002850 
#    y 0.003030 2.050220 0.011400 
#    z -0.002850 0.011400 2.065220 
# 
# From -- ./inp_files/428566.got.cif
#   From: 2010.06.25/outbox.cif.g09.slc.cpg/sg2_215_cif.got.tgz:428566.got - 2010.06.27 13:26:56.
