data_PCOD8017514
_publ_section_title
;
Structure prediction by ZEFSAII (Michael W. Deem and Ramdas Pophale) SiO2 
 PCOD8017514
Probable space group: P -1
;
_chemical_formula_sum "Si O2"
_cell_formula_units_Z 16
_cell_length_a 18.901169
_cell_length_b 18.091386
_cell_length_c 9.236138
_cell_angle_alpha 142.549273
_cell_angle_beta 30.090598
_cell_angle_gamma 153.153946
_cell_volume 711.732787
_symmetry_space_group_name_H-M "P -1"
_symmetry_group_IT_number 2
_symmetry_cell_setting 'triclinic'
loop_
_space_group_symop_operation_xyz
x,y,z
-x,-y,-z
loop_
_atom_site_type_symbol
_atom_site_label
_atom_site_fract_x
_atom_site_fract_y
_atom_site_fract_z
Si Si1 0.084595 0.420595 0.899136
Si Si2 0.078017 0.143339 0.474331
Si Si3 0.209076 0.907807 0.641443
Si Si4 0.356087 0.739518 0.105613
Si Si5 0.100588 0.093842 0.824388
Si Si6 0.576994 0.869445 0.647529
Si Si7 0.254078 0.607285 0.611016
Si Si8 0.543766 0.761825 0.102823
O O1 0.044268 0.260133 0.773189
O O2 0.148533 0.451457 0.663544
O O3 0.243374 0.568651 0.954812
O O4 0.893825 0.389418 0.201669
O O5 0.303657 0.256251 0.220420
O O6 0.000000 0.000000 0.500000
O O7 0.953680 0.048663 0.406053
O O8 0.215911 0.768378 0.445208
O O9 0.265553 0.959574 0.451977
O O10 0.353999 0.062531 0.731830
O O11 0.990749 0.828259 0.937872
O O12 0.453501 0.743614 0.081461
O O13 0.520187 0.886988 0.934647
O O14 0.330818 0.214935 0.625005
O O15 0.000000 0.000000 0.000000
O O16 0.388317 0.763026 0.720141
O O17 0.379041 0.616124 0.276917
#
# Coordination Sequence:
#
# PCOD8017514 Si02
#       8
#     2   2   2   2   2   2   2   2
#     4  10  24  43  61  86 122 165 202 243 306 360
#     4  11  24  42  62  88 125 161 198 250 305 358
#     4   9  19  35  57  87 121 155 199 247 296 350
#     4  11  21  36  59  87 120 157 199 247 297 360
#     4   9  19  35  58  86 114 151 199 247 292 345
#     4   9  18  34  58  86 115 156 202 244 292 356
#     4   9  21  42  62  87 122 157 200 249 300 357
#     4  10  22  39  61  91 120 157 200 247 300 351
#
# _framework density 22.480347999999999
#
# number of rings (size 3 to 8) (size 9 to 14) (size 15 to 20)
#    0.000    2.250    0.000    2.250    0.000   13.500 
#    0.000    3.750    0.000    0.000    0.000    0.000 
#    0.000    0.000    0.000    0.000    0.000    0.000 
#
# Total GULP energy -198219.621418 kJ/mol
# GULP energy per Si atom -12388.726339 kJ/mol
# Density = 2.242918 g / cm^3
# Si number density = 22.480348 Si / 1000 Ang^3
#
#
#
# Elastic Constant Matrix: (Units=GPa)
#
#
# Indices 1 2 3 4 5 6 
#
# 1 115.2621 21.9501 27.0374 1.6816 4.2602 12.9567
# 2 21.9501 55.3920 24.3914 7.6547 -5.7267 -3.2640
# 3 27.0374 24.3914 88.5830 -5.2953 -13.1001 5.5449
# 4 1.6816 7.6547 -5.2953 39.2164 1.5304 -4.6097
# 5 4.2602 -5.7267 -13.1001 1.5304 36.6214 2.7292
# 6 12.9567 -3.2640 5.5449 -4.6097 2.7292 18.1302
#
#
#
# Elastic Compliance Matrix: (Units=1/GPa)
#
#
# Indices 1 2 3 4 5 6 
#
# 1 0.010875 -0.003939 -0.002097 -0.000812 -0.002020 -0.007741
# 2 -0.003939 0.023334 -0.005694 -0.004352 0.001701 0.007395
# 3 -0.002097 -0.005694 0.014609 0.002508 0.004778 -0.004076
# 4 -0.000812 -0.004352 0.002508 0.027504 -0.001302 0.006219
# 5 -0.002020 0.001701 0.004778 -0.001302 0.029910 -0.004545
# 6 -0.007741 0.007395 -0.004076 0.006219 -0.004545 0.065532
#
#
# Mechanical properties :
#
#
# Convention : Reuss Voigt Hill
#
# Bulk Modulus (GPa) = 39.43720 45.11056 42.27388
# Shear Modulus (GPa) = 24.54868 31.18415 27.86641
#
# Velocity S-wave (km/s) = 3.30814 3.72852 3.52460
# Velocity P-wave (km/s) = 5.67210 6.21659 5.95058
#
# Compressibility (1/GPa) = 0.02535677
#
# Stress axis : x y z
#
# Youngs Moduli (GPa) = 91.95680 42.85529 68.45234
#
# Poissons Ratio (x) = 0.16879 0.14357
# Poissons Ratio (y) = 0.36218 0.38980
# Poissons Ratio (z) = 0.19287 0.24404
#
# Static dielectric constant tensor:
#      x y z
#    x 4.488630 0.116350 -0.475290 
#    y 0.116350 3.615020 -0.452820 
#    z -0.475290 -0.452820 5.247280 
# 
# 
# High freq. dielectric constant tensor:
#      x y z
#    x 1.903450 0.012190 -0.003340 
#    y 0.012190 1.833200 -0.021970 
#    z -0.003340 -0.021970 1.898790 
# 
# From -- ./inp_files/336791.got.cif
#   From: 2010.06.25/outbox.cif.g09.slc.cpg/sg2_169_cif.got.tgz:336791.got - 2010.06.27 13:26:56.
