data_PCOD8017175
_publ_section_title
;
Structure prediction by ZEFSAII (Michael W. Deem and Ramdas Pophale) SiO2 
 PCOD8017175
Probable space group: P -1
;
_chemical_formula_sum "Si O2"
_cell_formula_units_Z 16
_cell_length_a 20.054855
_cell_length_b 14.796457
_cell_length_c 7.809682
_cell_angle_alpha 145.266053
_cell_angle_beta 144.626280
_cell_angle_gamma 34.702420
_cell_volume 678.361712
_symmetry_space_group_name_H-M "P -1"
_symmetry_group_IT_number 2
_symmetry_cell_setting 'triclinic'
loop_
_space_group_symop_operation_xyz
x,y,z
-x,-y,-z
loop_
_atom_site_type_symbol
_atom_site_label
_atom_site_fract_x
_atom_site_fract_y
_atom_site_fract_z
Si Si1 0.835980 0.362155 0.308814
Si Si2 0.495417 0.798724 0.773906
Si Si3 0.763518 0.079060 0.771949
Si Si4 0.328215 0.787937 0.845521
Si Si5 0.660737 0.906815 0.871629
Si Si6 0.257479 0.495061 0.297230
Si Si7 0.401340 0.345579 0.876673
Si Si8 0.117749 0.295434 0.727285
O O1 0.756259 0.453545 0.453698
O O2 0.734938 0.476176 0.127383
O O3 0.968931 0.372670 0.587498
O O4 0.861598 0.157314 0.042239
O O5 0.367867 0.806940 0.432248
O O6 0.616802 0.702748 0.750117
O O7 0.549225 0.670073 0.850689
O O8 0.453407 0.001700 0.075381
O O9 0.835564 0.869173 0.560363
O O10 0.737854 0.095963 0.945662
O O11 0.262919 0.658169 0.458485
O O12 0.481708 0.653573 0.990993
O O13 0.313824 0.927952 0.883164
O O14 0.616558 0.824397 0.494055
O O15 0.795746 0.759793 0.004161
O O16 0.137199 0.456782 0.929260
#
# Coordination Sequence:
#
# PCOD8017175 Si02
#       8
#     2   2   2   2   2   2   2   2
#     4  11  23  44  63  90 126 170 211 248 310 372
#     4  10  22  38  61  98 124 154 208 253 320 361
#     4  10  23  39  68  93 123 161 209 264 303 369
#     4  10  22  41  64  97 129 154 206 259 326 358
#     4  10  23  40  64  94 129 165 200 259 314 371
#     4  11  23  39  64  95 124 163 204 263 303 371
#     4  11  22  39  67  92 130 165 198 263 314 372
#     4  11  24  42  67  88 124 172 213 247 304 375
#
# _framework density 23.586237000000001
#
# number of rings (size 3 to 8) (size 9 to 14) (size 15 to 20)
#    0.000    1.500    1.250    3.750    3.500    8.500 
#    0.000    4.375    0.000    0.000    0.000    0.000 
#    0.000    0.000    0.000    0.000    0.000    0.000 
#
# Total GULP energy -198228.766284 kJ/mol
# GULP energy per Si atom -12389.297893 kJ/mol
# Density = 2.353255 g / cm^3
# Si number density = 23.586237 Si / 1000 Ang^3
#
#
#
# Elastic Constant Matrix: (Units=GPa)
#
#
# Indices 1 2 3 4 5 6 
#
# 1 -4.9334 24.8132 35.2981 7.4576 12.3935 -36.8487
# 2 24.8132 62.7664 13.1491 2.4425 8.3217 -6.3986
# 3 35.2981 13.1491 105.0901 22.1633 28.8160 -2.3950
# 4 7.4576 2.4425 22.1633 37.1069 -1.6392 8.9765
# 5 12.3935 8.3217 28.8160 -1.6392 46.2166 2.5976
# 6 -36.8487 -6.3986 -2.3950 8.9765 2.5976 18.4015
#
#
#
# Elastic Compliance Matrix: (Units=1/GPa)
#
#
# Indices 1 2 3 4 5 6 
#
# 1 -0.009314 0.000563 -0.000185 0.007635 0.004063 -0.022778
# 2 0.000563 0.017363 -0.000430 -0.003407 -0.003652 0.009287
# 3 -0.000185 -0.000430 0.014987 -0.011363 -0.010092 0.008397
# 4 0.007635 -0.003407 -0.011363 0.033935 0.007132 -0.004935
# 5 0.004063 -0.003652 -0.010092 0.007132 0.027855 -0.001859
# 6 -0.022778 0.009287 0.008397 -0.004935 -0.001859 0.015723
#
#
# Mechanical properties :
#
#
# Convention : Reuss Voigt Hill
#
# Bulk Modulus (GPa) = 43.60892 34.38267 38.99580
# Shear Modulus (GPa) = 46.16918 26.32252 36.24585
#
# Velocity S-wave (km/s) = 4.42912 3.34430 3.92438
# Velocity P-wave (km/s) = 6.68472 5.43337 6.09126
#
# Compressibility (1/GPa) = 0.02293109
#
# Stress axis : x y z
#
# Youngs Moduli (GPa) = -107.36476 57.59357 66.72519
#
# Poissons Ratio (x) = -0.03243 0.01237
# Poissons Ratio (y) = 0.06046 0.02870
# Poissons Ratio (z) = -0.01991 0.02477
#
# Static dielectric constant tensor:
#      x y z
#    x 4.272350 -0.174390 0.138660 
#    y -0.174390 4.153940 0.289520 
#    z 0.138660 0.289520 4.429170 
# 
# 
# High freq. dielectric constant tensor:
#      x y z
#    x 1.930870 -0.011910 0.002180 
#    y -0.011910 1.920190 0.026620 
#    z 0.002180 0.026620 1.940200 
# 
# From -- ./inp_files/348996.got.cif
#   From: 2010.06.25/outbox.cif.g09.slc.cpg/sg2_175_cif.got.tgz:348996.got - 2010.06.27 13:26:56.
