data_PCOD8017401
_publ_section_title
;
Structure prediction by ZEFSAII (Michael W. Deem and Ramdas Pophale) SiO2 
 PCOD8017401
Probable space group: P -1
;
_chemical_formula_sum "Si O2"
_cell_formula_units_Z 14
_cell_length_a 12.157831
_cell_length_b 16.977634
_cell_length_c 10.890199
_cell_angle_alpha 133.550151
_cell_angle_beta 69.123727
_cell_angle_gamma 147.192513
_cell_volume 726.983729
_symmetry_space_group_name_H-M "P -1"
_symmetry_group_IT_number 2
_symmetry_cell_setting 'triclinic'
loop_
_space_group_symop_operation_xyz
x,y,z
-x,-y,-z
loop_
_atom_site_type_symbol
_atom_site_label
_atom_site_fract_x
_atom_site_fract_y
_atom_site_fract_z
Si Si1 0.921533 0.416813 0.802651
Si Si2 0.565983 0.313231 0.852856
Si Si3 0.164415 0.473189 0.415634
Si Si4 0.773265 0.258954 0.187341
Si Si5 0.078815 0.814281 0.555627
Si Si6 0.874174 0.737844 0.320716
Si Si7 0.379479 0.246398 0.607588
O O1 0.691378 0.306473 0.741419
O O2 0.848680 0.234227 0.603717
O O3 0.149448 0.634769 0.861546
O O4 0.000000 0.500000 0.000000
O O5 0.486601 0.326317 0.787459
O O6 0.328572 0.082120 0.777404
O O7 0.758894 0.532748 0.096932
O O8 0.230488 0.649603 0.612227
O O9 0.413937 0.620055 0.428265
O O10 0.951736 0.306464 0.216189
O O11 0.065419 0.325337 0.412076
O O12 0.500000 0.000000 0.000000
O O13 0.913627 0.756153 0.470580
O O14 0.683262 0.679798 0.313859
O O15 0.134091 0.972492 0.399995
#
# Coordination Sequence:
#
# PCOD8017401 Si02
#       7
#     2   2   2   2   2   2   2
#     4  11  21  36  59  87 113 153 189 233 295 337
#     4  11  21  38  60  84 116 150 195 240 286 338
#     4  10  22  39  56  84 120 153 186 232 295 339
#     4  10  23  37  56  86 119 151 189 231 285 354
#     4  10  23  37  56  88 119 149 188 241 286 345
#     4  10  22  40  60  87 112 151 203 240 277 334
#     4  10  22  40  62  83 115 154 196 241 282 337
#
# _framework density 19.257650999999999
#
# number of rings (size 3 to 8) (size 9 to 14) (size 15 to 20)
#    0.000    1.714    2.857    0.857    4.000    0.571 
#    0.000    0.714    0.000    0.000    0.000    0.000 
#    0.000    0.000    0.000    0.000    0.000    0.000 
#
# Total GULP energy -173611.392668 kJ/mol
# GULP energy per Si atom -12400.813762 kJ/mol
# Density = 1.921382 g / cm^3
# Si number density = 19.257651 Si / 1000 Ang^3
#
#
#
# Elastic Constant Matrix: (Units=GPa)
#
#
# Indices 1 2 3 4 5 6 
#
# 1 111.1965 38.8702 19.9618 6.5277 4.9543 7.1084
# 2 38.8702 118.5432 45.7956 9.4419 0.5925 7.1440
# 3 19.9618 45.7956 87.1421 17.7311 9.8290 -2.1124
# 4 6.5277 9.4419 17.7311 26.9219 0.6311 2.0368
# 5 4.9543 0.5925 9.8290 0.6311 22.9503 3.7947
# 6 7.1084 7.1440 -2.1124 2.0368 3.7947 32.3661
#
#
#
# Elastic Compliance Matrix: (Units=1/GPa)
#
#
# Indices 1 2 3 4 5 6 
#
# 1 0.010362 -0.003078 -0.000381 -0.001039 -0.001742 -0.001352
# 2 -0.003078 0.011920 -0.006171 0.000762 0.003443 -0.002810
# 3 -0.000381 -0.006171 0.017724 -0.009546 -0.007767 0.004114
# 4 -0.001039 0.000762 -0.009546 0.043612 0.003712 -0.003743
# 5 -0.001742 0.003443 -0.007767 0.003712 0.048203 -0.006769
# 6 -0.001352 -0.002810 0.004114 -0.003743 -0.006769 0.033111
#
#
# Mechanical properties :
#
#
# Convention : Reuss Voigt Hill
#
# Bulk Modulus (GPa) = 48.19959 58.45966 53.32962
# Shear Modulus (GPa) = 26.16321 30.59794 28.38057
#
# Velocity S-wave (km/s) = 3.68990 3.99039 3.84308
# Velocity P-wave (km/s) = 6.57548 7.18703 6.88805
#
# Compressibility (1/GPa) = 0.02074706
#
# Stress axis : x y z
#
# Youngs Moduli (GPa) = 96.50296 83.89087 56.42125
#
# Poissons Ratio (x) = 0.25818 0.02151
# Poissons Ratio (y) = 0.29700 0.34817
# Poissons Ratio (z) = 0.03679 0.51768
#
# Static dielectric constant tensor:
#      x y z
#    x 3.827990 -0.099600 0.113300 
#    y -0.099600 3.468540 0.099240 
#    z 0.113300 0.099240 3.383060 
# 
# 
# High freq. dielectric constant tensor:
#      x y z
#    x 1.764260 -0.005940 0.009830 
#    y -0.005940 1.744430 0.014520 
#    z 0.009830 0.014520 1.739360 
# 
# From -- ./inp_files/28277.got.cif
#   From: 2010.06.25/outbox.cif.g09.slc.cpg/sg2_15_cif.got.tgz:28277.got - 2010.06.27 13:26:56.
