data_PCOD8017768
_publ_section_title
;
Structure prediction by ZEFSAII (Michael W. Deem and Ramdas Pophale) SiO2 
 PCOD8017768
Probable space group: P -1
;
_chemical_formula_sum "Si O2"
_cell_formula_units_Z 14
_cell_length_a 27.319966
_cell_length_b 15.105748
_cell_length_c 14.647052
_cell_angle_alpha 26.769123
_cell_angle_beta 19.169089
_cell_angle_gamma 19.470004
_cell_volume 661.419135
_symmetry_space_group_name_H-M "P -1"
_symmetry_group_IT_number 2
_symmetry_cell_setting 'triclinic'
loop_
_space_group_symop_operation_xyz
x,y,z
-x,-y,-z
loop_
_atom_site_type_symbol
_atom_site_label
_atom_site_fract_x
_atom_site_fract_y
_atom_site_fract_z
Si Si1 0.702169 0.747668 0.238370
Si Si2 0.615119 0.274506 0.169126
Si Si3 0.883039 0.727928 0.119979
Si Si4 0.650515 0.338331 0.253923
Si Si5 0.050345 0.628603 0.361357
Si Si6 0.342762 0.321354 0.294366
Si Si7 0.617885 0.101082 0.703888
O O1 0.577491 0.679888 0.567135
O O2 0.800191 0.792662 0.103288
O O3 0.549398 0.015981 0.201022
O O4 0.875044 0.507392 0.089017
O O5 0.610948 0.271700 0.288521
O O6 0.821402 0.991115 0.030490
O O7 0.601400 0.504136 0.942478
O O8 0.789356 0.634782 0.429046
O O9 0.636633 0.177908 0.499372
O O10 0.485804 0.654788 0.269952
O O11 0.867514 0.255496 0.946430
O O12 0.218440 0.410831 0.337585
O O13 0.000000 0.500000 0.500000
O O14 0.844469 0.866531 0.557591
O O15 0.500000 0.000000 0.000000
#
# Coordination Sequence:
#
# PCOD8017768 Si02
#       7
#     2   2   2   2   2   2   2
#     4  10  23  43  64  94 130 160 210 257 322 377
#     4  10  22  39  65  94 127 162 209 258 315 372
#     4  10  23  42  66  94 124 168 204 260 320 381
#     4  10  24  41  61  92 124 167 213 265 310 371
#     4  11  23  40  63  89 127 167 212 257 314 365
#     4  10  23  40  63  93 126 165 210 259 311 377
#     4  11  23  41  63  88 123 167 215 263 312 365
#
# _framework density 21.166608
#
# number of rings (size 3 to 8) (size 9 to 14) (size 15 to 20)
#    0.000    1.714    1.429    2.143    4.000    9.143 
#    0.000    2.857    0.000    0.000    0.000    0.000 
#    0.000    0.000    0.000    0.000    0.000    0.000 
#
# Total GULP energy -173607.363357 kJ/mol
# GULP energy per Si atom -12400.525954 kJ/mol
# Density = 2.111843 g / cm^3
# Si number density = 21.166608 Si / 1000 Ang^3
#
#
#
# Elastic Constant Matrix: (Units=GPa)
#
#
# Indices 1 2 3 4 5 6 
#
# 1 72.8482 44.4898 16.3185 9.4714 -2.4654 3.9366
# 2 44.4898 163.4549 82.1952 22.7072 -7.9755 3.6399
# 3 16.3185 82.1952 128.5065 6.5978 -0.6731 -4.1290
# 4 9.4714 22.7072 6.5978 50.3749 4.4293 3.7389
# 5 -2.4654 -7.9755 -0.6731 4.4293 26.6686 2.5684
# 6 3.9366 3.6399 -4.1290 3.7389 2.5684 36.7697
#
#
#
# Elastic Compliance Matrix: (Units=1/GPa)
#
#
# Indices 1 2 3 4 5 6 
#
# 1 0.016676 -0.004860 0.001010 -0.001029 0.000392 -0.001114
# 2 -0.004860 0.011420 -0.006523 -0.003598 0.003516 -0.001222
# 3 0.001010 -0.006523 0.011812 0.001235 -0.001945 0.001874
# 4 -0.001029 -0.003598 0.001235 0.022012 -0.004670 -0.001307
# 5 0.000392 0.003516 -0.001945 -0.004670 0.039591 -0.002899
# 6 -0.001114 -0.001222 0.001874 -0.001307 -0.002899 0.027982
#
#
# Mechanical properties :
#
#
# Convention : Reuss Voigt Hill
#
# Bulk Modulus (GPa) = 52.18707 72.31299 62.25003
# Shear Modulus (GPa) = 31.92287 37.54971 34.73629
#
# Velocity S-wave (km/s) = 3.88773 4.21647 4.05543
# Velocity P-wave (km/s) = 6.69787 7.61201 7.16952
#
# Compressibility (1/GPa) = 0.01916184
#
# Stress axis : x y z
#
# Youngs Moduli (GPa) = 59.96549 87.56868 84.65679
#
# Poissons Ratio (x) = 0.42559 -0.08551
# Poissons Ratio (y) = 0.29144 0.55223
# Poissons Ratio (z) = -0.06057 0.57123
#
# Static dielectric constant tensor:
#      x y z
#    x 3.576360 0.056750 0.037300 
#    y 0.056750 4.123140 0.172400 
#    z 0.037300 0.172400 4.132810 
# 
# 
# High freq. dielectric constant tensor:
#      x y z
#    x 1.817980 0.009470 0.001090 
#    y 0.009470 1.840600 0.003060 
#    z 0.001090 0.003060 1.840710 
# 
# From -- ./inp_files/544107.got.cif
#   From: 2010.06.25/outbox.cif.g09.slc.cpg/sg2_273_cif.got.tgz:544107.got - 2010.06.27 13:26:56.
