data_PCOD8017333
_publ_section_title
;
Structure prediction by ZEFSAII (Michael W. Deem and Ramdas Pophale) SiO2 
 PCOD8017333
Probable space group: P -1
;
_chemical_formula_sum "Si O2"
_cell_formula_units_Z 16
_cell_length_a 8.795288
_cell_length_b 14.220717
_cell_length_c 8.733780
_cell_angle_alpha 126.006907
_cell_angle_beta 65.889101
_cell_angle_gamma 80.065960
_cell_volume 668.852118
_symmetry_space_group_name_H-M "P -1"
_symmetry_group_IT_number 2
_symmetry_cell_setting 'triclinic'
loop_
_space_group_symop_operation_xyz
x,y,z
-x,-y,-z
loop_
_atom_site_type_symbol
_atom_site_label
_atom_site_fract_x
_atom_site_fract_y
_atom_site_fract_z
Si Si1 0.456870 0.886545 0.965968
Si Si2 0.678529 0.896603 0.133396
Si Si3 0.791203 0.638578 0.417869
Si Si4 0.041151 0.715906 0.588637
Si Si5 0.230442 0.835168 0.414108
Si Si6 0.400536 0.201443 0.640104
Si Si7 0.262591 0.584017 0.657631
Si Si8 0.113413 0.865659 0.152771
O O1 0.575652 0.744818 0.684816
O O2 0.531677 0.855646 0.081649
O O3 0.226108 0.937511 0.110968
O O4 0.500000 0.000000 0.000000
O O5 0.724082 0.832704 0.224854
O O6 0.559029 0.065268 0.343524
O O7 0.869914 0.833607 0.884170
O O8 0.767650 0.674375 0.280497
O O9 0.835654 0.485310 0.276254
O O10 0.960248 0.652163 0.440290
O O11 0.137085 0.783403 0.523115
O O12 0.211082 0.589218 0.503588
O O13 0.465978 0.755676 0.282531
O O14 0.193739 0.800402 0.225600
O O15 0.120920 0.005528 0.632940
O O16 0.500000 0.500000 0.500000
O O17 0.148787 0.743355 0.912763
#
# Coordination Sequence:
#
# PCOD8017333 Si02
#       8
#     2   2   2   2   2   2   2   2
#     4  11  19  38  66  98 131 174 220 274 337 389
#     4  10  22  38  67 101 140 173 226 289 337 403
#     4  11  24  42  69  96 138 178 228 275 339 414
#     4  11  26  44  69 100 133 180 232 281 344 401
#     4  11  25  42  70 103 140 173 229 292 335 399
#     4  11  22  40  67 103 137 177 228 281 348 399
#     4  12  25  46  70  99 139 183 227 280 342 419
#     4  11  24  43  66 100 141 179 223 280 346 400
#
# _framework density 23.921581
#
# number of rings (size 3 to 8) (size 9 to 14) (size 15 to 20)
#    0.000    1.000    3.750    3.375    0.000    3.000 
#    0.000    7.500    0.000    0.000    0.000    0.000 
#    0.000    0.000    0.000    0.000    0.000    0.000 
#
# Total GULP energy -198381.521370 kJ/mol
# GULP energy per Si atom -12398.845086 kJ/mol
# Density = 2.386713 g / cm^3
# Si number density = 23.921581 Si / 1000 Ang^3
#
#
#
# Elastic Constant Matrix: (Units=GPa)
#
#
# Indices 1 2 3 4 5 6 
#
# 1 112.5675 72.6476 18.4267 -7.3684 3.7426 -20.2129
# 2 72.6476 163.4234 14.2298 -10.3726 19.5216 -5.9292
# 3 18.4267 14.2298 27.9760 -3.2312 12.0413 7.3068
# 4 -7.3684 -10.3726 -3.2312 29.8334 0.7132 1.9236
# 5 3.7426 19.5216 12.0413 0.7132 22.3567 -2.4942
# 6 -20.2129 -5.9292 7.3068 1.9236 -2.4942 50.0351
#
#
#
# Elastic Compliance Matrix: (Units=1/GPa)
#
#
# Indices 1 2 3 4 5 6 
#
# 1 0.017721 -0.007829 -0.016092 -0.001013 0.013606 0.009298
# 2 -0.007829 0.010516 0.006049 0.002880 -0.011611 -0.003489
# 3 -0.016092 0.006049 0.066164 0.007406 -0.040440 -0.017747
# 4 -0.001013 0.002880 0.007406 0.035446 -0.007789 -0.002900
# 5 0.013606 -0.011611 -0.040440 -0.007789 0.076195 0.014124
# 6 0.009298 -0.003489 -0.017747 -0.002900 0.014124 0.026736
#
#
# Mechanical properties :
#
#
# Convention : Reuss Voigt Hill
#
# Bulk Modulus (GPa) = 17.04811 57.17502 37.11157
# Shear Modulus (GPa) = 17.35672 33.68921 25.52296
#
# Velocity S-wave (km/s) = 2.69656 3.75683 3.26995
# Velocity P-wave (km/s) = 4.10334 6.53997 5.45933
#
# Compressibility (1/GPa) = 0.05865752
#
# Stress axis : x y z
#
# Youngs Moduli (GPa) = 56.42978 95.09603 15.11405
#
# Poissons Ratio (x) = 0.74448 0.24322
# Poissons Ratio (y) = 0.44177 -0.09143
# Poissons Ratio (z) = 0.90807 -0.57526
#
# Static dielectric constant tensor:
#      x y z
#    x 4.621950 -0.351680 0.175580 
#    y -0.351680 4.423920 -0.172030 
#    z 0.175580 -0.172030 4.069200 
# 
# 
# High freq. dielectric constant tensor:
#      x y z
#    x 1.965750 -0.008330 0.007220 
#    y -0.008330 1.954510 -0.018640 
#    z 0.007220 -0.018640 1.923220 
# 
# From -- ./inp_files/208902.got.cif
#   From: 2010.06.25/outbox.cif.g09.slc.cpg/sg2_105_cif.got.tgz:208902.got - 2010.06.27 13:26:56.
